Measured thermophysical data. Comparative Study of Sodium Phosphate and Sodium Sulfate in Aqueous Solutions at (298.15 to 353.15) K
Source: J. Chem. Eng. Data, 2015, 10.1021/acs.jced.5b00203
Compound 1: water, H2O, purity 99.8%
Compound 2: trisodium phosphate, Na3O4P, purity 98%
Compound 3: sodium sulfate, Na2O4S, purity 99%

System: trisodium phosphate + water; phases: Liquid
Fixed: Pressure, kPa = 100
Property: (Relative) activity of water (Liquid); method: hygrometric method
Temperature, K	Molality, mol/kg of trisodium phosphate	(Relative) activity of water	uncertainty
313.15	.1	.9951	.02
313.15	.15	.9931	.02
313.15	.2	.9911	.02
313.15	.25	.9893	.02
313.15	.3	.9876	.02
313.15	.35	.9859	.02
313.15	.4	.9844	.02
313.15	.45	.9827	.02
313.15	.5	.9813	.02
313.15	.55	.9799	.02
313.15	.6	.9785	.02
313.15	.65	.9771	.02
313.15	.68	.9762	.02
313.15	.7	.9757	.02
313.15	.8	.973	.02
313.15	1	.9673	.05
313.15	1.1	.9646	.05
333.15	.1	.9952	.02
333.15	.15	.9932	.02
333.15	.2	.9914	.02
333.15	.25	.9896	.02
333.15	.3	.9878	.02
333.15	.35	.9862	.02
333.15	.4	.9846	.02
333.15	.45	.9832	.02
333.15	.5	.9817	.02
333.15	.55	.9804	.02
333.15	.6	.9791	.02
333.15	.65	.9777	.02
333.15	.68	.9768	.02
333.15	.7	.9764	.02
333.15	.8	.9739	.02
333.15	1	.9687	.05
333.15	1.1	.966	.05
333.15	1.5	.9552	.05
333.15	2	.9399	.09
333.15	2.5	.9218	.09
333.15	2.8	.9098	.09
353.15	.1	.9954	.02
353.15	.15	.9933	.02
353.15	.2	.9915	.02
353.15	.25	.9898	.02
353.15	.3	.988	.02
353.15	.35	.9865	.02
353.15	.4	.985	.02
353.15	.45	.9835	.02
353.15	.5	.982	.02
353.15	.55	.9807	.02
353.15	.6	.9795	.02
353.15	.65	.9782	.02
353.15	.68	.9777	.02
353.15	.7	.977	.02
353.15	.8	.9743	.02
353.15	1	.9694	.05
353.15	1.1	.9671	.05
353.15	1.5	.9568	.05
353.15	2	.9424	.09
353.15	2.5	.9258	.09
353.15	2.8	.9146	.09
353.15	3	.9071	.09
353.15	3.5	.8884	.2
353.15	4	.8679	.2
353.15	5	.8271	.2
353.15	6	.7873	.2
353.15	7	.7482	.2
353.15	8	.7104	.2
353.15	9	.6745	.2

System: water + sodium sulfate; phases: Liquid
Fixed: Pressure, kPa = 100
Property: (Relative) activity of water (Liquid); method: hygrometric method
Temperature, K	Molality, mol/kg of sodium sulfate	(Relative) activity of water	uncertainty
298.15	.1	.9958	.02
298.15	.2	.9919	.02
298.15	.3	.9883	.02
298.15	.4	.9848	.02
298.15	.5	.9814	.02
298.15	.6	.9781	.02
298.15	.7	.9749	.02
298.15	.8	.9717	.02
298.15	1	.9656	.05
298.15	1.2	.956	.05
298.15	1.5	.9504	.05
298.15	1.8	.9404	.09
298.15	1.97	.9347	.09
313.15	.1	.9958	.02
313.15	.2	.992	.02
313.15	.3	.9886	.02
313.15	.4	.9852	.02
313.15	.5	.982	.02
313.15	.6	.9788	.02
313.15	.7	.9757	.02
313.15	.8	.9725	.02
313.15	1	.9663	.05
313.15	1.2	.9593	.05
313.15	1.5	.9505	.05
313.15	1.8	.9408	.09
313.15	2	.9343	.09
313.15	2.2	.9275	.09
313.15	2.5	.9175	.09
313.15	2.8	.9074	.09
313.15	3	.8996	.2
313.15	3.2	.8919	.2
313.15	3.4	.8836	.2
333.15	.1	.9961	.02
333.15	.2	.9925	.02
333.15	.3	.9891	.02
333.15	.4	.9859	.02
333.15	.5	.9827	.02
333.15	.6	.9795	.02
333.15	.7	.9764	.02
333.15	.8	.9732	.02
333.15	1	.9667	.05
333.15	1.2	.9601	.05
333.15	1.5	.9503	.05
333.15	1.8	.9395	.09
333.15	2	.9334	.09
333.15	2.2	.9263	.09
333.15	2.5	.9162	.09
333.15	2.8	.9061	.09
333.15	3	.8986	.2
333.15	3.2	.891	.2
353.15	.1	.996	.02
353.15	.2	.9925	.02
353.15	.3	.9892	.02
353.15	.4	.9859	.02
353.15	.5	.9828	.02
353.15	.6	.9797	.02
353.15	.7	.9766	.02
353.15	.8	.9734	.02
353.15	1	.9672	.05
353.15	1.2	.9604	.05
353.15	1.5	.9511	.05
353.15	1.8	.9409	.09
353.15	2	.9344	.09
353.15	2.2	.9278	.09
353.15	2.5	.918	.09
353.15	2.8	.908	.09
353.15	3	.9017	.09

System: trisodium phosphate + water + sodium sulfate; phases: Liquid
Fixed: Pressure, kPa = 100
Property: (Relative) activity of water (Liquid); method: hygrometric method
Temperature, K	Molality, mol/kg of trisodium phosphate	Molality, mol/kg of sodium sulfate	(Relative) activity of water	uncertainty
298.15	.011	.089	.9956	.02
298.15	.022	.178	.9918	.02
298.15	.033	.267	.9881	.02
298.15	.045	.356	.9846	.02
298.15	.056	.445	.9813	.02
298.15	.111	.89	.9656	.05
298.15	.167	1.335	.9507	.05
298.15	.189	1.513	.9447	.09
298.15	.033	.067	.9954	.02
298.15	.067	.133	.9915	.02
298.15	.1	.2	.9878	.02
298.15	.133	.267	.9844	.02
298.15	.167	.333	.981	.02
298.15	.333	.667	.9658	.05
298.15	.467	.933	.9547	.05
298.15	.067	.033	.9953	.02
298.15	.133	.067	.9912	.02
298.15	.2	.1	.9875	.02
298.15	.267	.133	.9842	.02
298.15	.333	.167	.9809	.02
298.15	0	.1	.9958	.02
298.15	0	.2	.9919	.02
298.15	0	.3	.9883	.02
298.15	0	.4	.9848	.02
298.15	0	.5	.9814	.02
298.15	0	.6	.9781	.02
298.15	0	.7	.9749	.02
298.15	0	.8	.9717	.02
298.15	0	1	.9656	.05
298.15	0	1.2	.956	.05
298.15	0	1.5	.9504	.05
298.15	0	1.8	.9404	.09
298.15	0	1.97	.9347	.09
313.15	.011	.089	.9957	.02
313.15	.022	.178	.9919	.02
313.15	.033	.267	.9883	.02
313.15	.045	.356	.9849	.02
313.15	.056	.445	.9816	.02
313.15	.111	.89	.9659	.05
313.15	.167	1.335	.9502	.05
313.15	.033	.067	.9955	.02
313.15	.067	.133	.9916	.02
313.15	.1	.2	.988	.02
313.15	.133	.267	.9845	.02
313.15	.167	.333	.9812	.02
313.15	.333	.667	.9658	.05
313.15	.467	.933	.954	.05
313.15	.5	1	.9504	.05
313.15	.667	1.333	.9352	.09
313.15	.833	1.667	.9199	.09
313.15	.189	1.513	.944	.09
313.15	.223	1.78	.934	.09
313.15	.334	2.67	.8995	.2
313.15	.389	3.115	.8818	.2
313.15	.067	.033	.9953	.02
313.15	.133	.067	.9913	.02
313.15	.2	.1	.9876	.02
313.15	.267	.133	.9842	.02
313.15	.333	.167	.981	.02
313.15	.667	.333	.9662	.05
313.15	1	.5	.9519	.05
313.15	1.333	.667	.9384	.09
313.15	.1	0	.9951	.02
313.15	.15	0	.9931	.02
313.15	.2	0	.9911	.02
313.15	.25	0	.9893	.02
313.15	.3	0	.9876	.02
313.15	.35	0	.9859	.02
313.15	.4	0	.9844	.02
313.15	.45	0	.9827	.02
313.15	.5	0	.9813	.02
313.15	.55	0	.9799	.02
313.15	.6	0	.9785	.02
313.15	.65	0	.9771	.02
313.15	.68	0	.9762	.02
313.15	.7	0	.9757	.02
313.15	.8	0	.973	.02
313.15	1	0	.9673	.05
313.15	1.1	0	.9646	.05
313.15	0	.1	.9958	.02
313.15	0	.2	.992	.02
313.15	0	.3	.9886	.02
313.15	0	.4	.9852	.02
313.15	0	.5	.982	.02
313.15	0	.6	.9788	.02
313.15	0	.7	.9757	.02
313.15	0	.8	.9725	.02
313.15	0	1	.9663	.05
313.15	0	1.2	.9593	.05
313.15	0	1.5	.9505	.05
313.15	0	1.8	.9408	.09
313.15	0	2	.9343	.09
313.15	0	2.2	.9275	.09
313.15	0	2.5	.9175	.09
313.15	0	2.8	.9074	.09
313.15	0	3	.8996	.2
313.15	0	3.2	.8919	.2
313.15	0	3.4	.8836	.2
333.15	.2	.1	.9882	.02
333.15	.267	.133	.985	.02
333.15	.333	.167	.9819	.02
333.15	.667	.333	.9671	.05
333.15	1	.5	.9505	.05
333.15	1.333	.667	.9315	.09
333.15	2	1	.8873	.2
333.15	2.333	1.167	.8651	.2
333.15	.133	.267	.9853	.02
333.15	.167	.333	.9817	.02
333.15	.333	.667	.9658	.05
333.15	.467	.933	.9516	.05
333.15	.5	1	.9476	.09
333.15	.667	1.333	.9267	.09
333.15	.833	1.667	.9033	.09
333.15	1	2	.8756	.2
333.15	1.333	2.667	.813	.2
333.15	.1	0	.9952	.02
333.15	.15	0	.9932	.02
333.15	.2	0	.9914	.02
333.15	.25	0	.9896	.02
333.15	.3	0	.9878	.02
333.15	.35	0	.9862	.02
333.15	.4	0	.9846	.02
333.15	.45	0	.9832	.02
333.15	.5	0	.9817	.02
333.15	.55	0	.9804	.02
333.15	.6	0	.9791	.02
333.15	.65	0	.9777	.02
333.15	.68	0	.9768	.02
333.15	.7	0	.9764	.02
333.15	.8	0	.9739	.02
333.15	1	0	.9687	.05
333.15	1.1	0	.966	.05
333.15	1.5	0	.9552	.05
333.15	2	0	.9399	.09
333.15	2.5	0	.9218	.09
333.15	2.8	0	.9098	.09
333.15	.022	.178	.9924	.02
333.15	.033	.267	.989	.02
333.15	.045	.356	.9858	.02
333.15	.056	.445	.9825	.02
333.15	.111	.89	.9657	.05
333.15	.167	1.335	.947	.09
333.15	.189	1.513	.9382	.09
333.15	.223	1.78	.9253	.09
333.15	.334	2.67	.8719	.2
333.15	.389	3.115	.8399	.2
333.15	.011	.089	.9959	.02
333.15	.033	.067	.9957	.02
333.15	.067	.133	.992	.02
333.15	.1	.2	.9886	.02
333.15	.067	.033	.9955	.02
333.15	.133	.067	.9916	.02
333.15	0	.1	.9961	.02
333.15	0	.2	.9925	.02
333.15	0	.3	.9891	.02
333.15	0	.4	.9859	.02
333.15	0	.5	.9827	.02
333.15	0	.6	.9795	.02
333.15	0	.7	.9764	.02
333.15	0	.8	.9732	.02
333.15	0	1	.9667	.05
333.15	0	1.2	.9601	.05
333.15	0	1.5	.9503	.05
333.15	0	1.8	.9395	.09
333.15	0	2	.9334	.09
333.15	0	2.2	.9263	.09
333.15	0	2.5	.9162	.09
333.15	0	2.8	.9061	.09
333.15	0	3	.8986	.2
333.15	0	3.2	.891	.2
353.15	.8	0	.9743	.02
353.15	1	0	.9694	.05
353.15	1.1	0	.9671	.05
353.15	1.5	0	.9568	.05
353.15	2	0	.9424	.09
353.15	2.5	0	.9258	.09
353.15	2.8	0	.9146	.09
353.15	3	0	.9071	.09
353.15	3.5	0	.8884	.2
353.15	4	0	.8679	.2
353.15	5	0	.8271	.2
353.15	6	0	.7873	.2
353.15	7	0	.7482	.2
353.15	8	0	.7104	.2
353.15	9	0	.6745	.2
353.15	2.667	1.333	.8723	.2
353.15	3	1.5	.8551	.2
353.15	.067	.033	.9954	.02
353.15	.133	.067	.9915	.02
353.15	.2	.1	.9881	.02
353.15	.267	.133	.9851	.02
353.15	.333	.167	.9824	.02
353.15	.667	.333	.9699	.05
353.15	1	.5	.9566	.05
353.15	1.333	.667	.9427	.09
353.15	.011	.089	.9959	.02
353.15	.022	.178	.9923	.02
353.15	.033	.267	.989	.02
353.15	.667	1.333	.9386	.09
353.15	.833	1.667	.9224	.09
353.15	1	2	.9068	.09
353.15	1.333	2.667	.8735	.2
353.15	.445	3.56	.872	.2
353.15	.045	.356	.9858	.02
353.15	.056	.445	.9826	.02
353.15	.111	.89	.9674	.05
353.15	2	1	.9094	.09
353.15	.167	1.335	.952	.05
353.15	.189	1.513	.944	.09
353.15	.223	1.78	.9356	.09
353.15	.334	2.67	.9036	.09
353.15	.389	3.115	.8877	.2
353.15	.033	.067	.9957	.02
353.15	.067	.133	.9919	.02
353.15	.1	.2	.9885	.02
353.15	.133	.267	.9844	.02
353.15	.167	.333	.9822	.02
353.15	.333	.667	.9679	.05
353.15	.467	.933	.9562	.05
353.15	.5	1	.9537	.05
353.15	2.333	1.167	.8922	.2
353.15	.1	0	.9954	.02
353.15	.15	0	.9933	.02
353.15	.2	0	.9915	.02
353.15	.25	0	.9898	.02
353.15	.3	0	.988	.02
353.15	.35	0	.9865	.02
353.15	.4	0	.985	.02
353.15	.45	0	.9835	.02
353.15	.5	0	.982	.02
353.15	.55	0	.9807	.02
353.15	.6	0	.9795	.02
353.15	.65	0	.9782	.02
353.15	.68	0	.9777	.02
353.15	.7	0	.977	.02
353.15	0	.1	.996	.02
353.15	0	.2	.9925	.02
353.15	0	.3	.9892	.02
353.15	0	.4	.9859	.02
353.15	0	.5	.9828	.02
353.15	0	.6	.9797	.02
353.15	0	.7	.9766	.02
353.15	0	.8	.9734	.02
353.15	0	1	.9672	.05
353.15	0	1.2	.9604	.05
353.15	0	1.5	.9511	.05
353.15	0	1.8	.9409	.09
353.15	0	2	.9344	.09
353.15	0	2.2	.9278	.09
353.15	0	2.5	.918	.09
353.15	0	2.8	.908	.09
353.15	0	3	.9017	.09
