Measured thermophysical data. Determination and Thermodynamic Modeling of Solid Liquid Phase Equilibrium for Esomeprazole Sodium in Monosolvents and in the (Ethanol + Ethyl Acetate) Binary Solvent Mixtures
Source: J. Chem. Eng. Data, 2017, 10.1021/acs.jced.6b01044
Compound 1: Esomeprazole sodium, C17H18N3NaO3S, purity 98.0%
Compound 2: methanol, CH4O, purity 99.0%
Compound 3: acetonitrile, C2H3N, purity 99.5%
Compound 4: ethyl acetate, C4H8O2, purity 99.5%
Compound 5: ethanol, C2H6O, purity 99.6%
Compound 6: methyl isobutyl ketone, C6H12O, purity 99.0%
Compound 7: p-coumaric acid, C9H8O3, purity 99.0%

System: ethyl acetate + Esomeprazole sodium; phases: Liquid, Crystal
Fixed: Pressure, kPa = 100
Property: Mole fraction of Esomeprazole sodium (Liquid); method: gravimetric
Temperature, K	Mole fraction of Esomeprazole sodium	uncertainty
278.15	.00148	
283.15	.00181	
288.15	.00235	
293.15	.00303	
298.15	.00388	
303.15	.00491	
308.15	.00618	
313.15	.00771	
318.15	.00956	
323.15	.01177	
328.15	.01449	

System: acetonitrile + Esomeprazole sodium; phases: Liquid, Crystal
Fixed: Pressure, kPa = 100
Property: Mole fraction of Esomeprazole sodium (Liquid); method: gravimetric
Temperature, K	Mole fraction of Esomeprazole sodium	uncertainty
278.15	.00222	
283.15	.00271	
288.15	.00353	
293.15	.00455	
298.15	.00582	
303.15	.00737	
308.15	.00927	
313.15	.01157	
318.15	.01434	
323.15	.01765	
328.15	.02173	

System: methyl isobutyl ketone + Esomeprazole sodium; phases: Liquid, Crystal
Fixed: Pressure, kPa = 100
Property: Mole fraction of Esomeprazole sodium (Liquid); method: gravimetric
Temperature, K	Mole fraction of Esomeprazole sodium	uncertainty
278.15	.02913	
283.15	.03906	
288.15	.0441	
293.15	.05348	
298.15	.0643	
303.15	.07668	
308.15	.0907	
313.15	.10642	
318.15	.12389	
323.15	.14312	
328.15	.16814	

System: ethanol + Esomeprazole sodium; phases: Liquid, Crystal
Fixed: Pressure, kPa = 100
Property: Mole fraction of Esomeprazole sodium (Liquid); method: gravimetric
Temperature, K	Mole fraction of Esomeprazole sodium	uncertainty
278.15	.03237	
283.15	.0434	
288.15	.049	
293.15	.05942	
298.15	.07145	
303.15	.0852	
308.15	.10077	
313.15	.11825	
318.15	.13766	
323.15	.15902	
328.15	.18683	

System: methanol + Esomeprazole sodium; phases: Liquid, Crystal
Fixed: Pressure, kPa = 100
Property: Mole fraction of Esomeprazole sodium (Liquid); method: gravimetric
Temperature, K	Mole fraction of Esomeprazole sodium	uncertainty
278.15	.0469	
283.15	.05536	
288.15	.0663	
293.15	.07881	
298.15	.09302	
303.15	.10903	
308.15	.12693	
313.15	.14679	
318.15	.16868	
323.15	.19261	
328.15	.22052	

System: ethanol + ethyl acetate + Esomeprazole sodium; phases: Liquid, Crystal
Fixed: Pressure, kPa = 100
Property: Mole fraction of Esomeprazole sodium (Liquid); method: gravimetric
Temperature, K	Solvent: Mole fraction of ethanol	Mole fraction of Esomeprazole sodium	uncertainty
278.15	0	.00148	
278.15	.084	.00213	
278.15	.183	.00342	
278.15	.3	.00554	
278.15	.44	.00925	
278.15	.611	.01571	
278.15	.825	.02575	
278.15	1	.03237	
283.15	0	.00181	
283.15	.084	.00264	
283.15	.183	.00403	
283.15	.3	.00638	
283.15	.44	.01051	
283.15	.611	.01747	
283.15	.825	.03066	
283.15	1	.0434	
288.15	0	.00235	
288.15	.084	.00303	
288.15	.183	.00441	
288.15	.3	.00675	
288.15	.44	.01126	
288.15	.611	.01914	
288.15	.825	.03372	
288.15	1	.049	
293.15	0	.00303	
293.15	.084	.00377	
293.15	.183	.00539	
293.15	.3	.00825	
293.15	.44	.01367	
293.15	.611	.02351	
293.15	.825	.04124	
293.15	1	.05942	
298.15	0	.00388	
298.15	.084	.00486	
298.15	.183	.00671	
298.15	.3	.01022	
298.15	.44	.01688	
298.15	.611	.02924	
298.15	.825	.05089	
298.15	1	.07145	
303.15	0	.00491	
303.15	.084	.00609	
303.15	.183	.00832	
303.15	.3	.01254	
303.15	.44	.02046	
303.15	.611	.03505	
303.15	.825	.06031	
303.15	1	.0852	
308.15	0	.00618	
308.15	.084	.00757	
308.15	.183	.01024	
308.15	.3	.01527	
308.15	.44	.02464	
308.15	.611	.04174	
308.15	.825	.07102	
308.15	1	.10077	
313.15	0	.00771	
313.15	.084	.00936	
313.15	.183	.01252	
313.15	.3	.01846	
313.15	.44	.02948	
313.15	.611	.04938	
313.15	.825	.08311	
313.15	1	.11825	
318.15	0	.00956	
318.15	.084	.01106	
318.15	.183	.01495	
318.15	.3	.02238	
318.15	.44	.03602	
318.15	.611	.06275	
318.15	.825	.10764	
318.15	1	.13766	
323.15	0	.01177	
323.15	.084	.01377	
323.15	.183	.01812	
323.15	.3	.02648	
323.15	.44	.04245	
323.15	.611	.07112	
323.15	.825	.11968	
323.15	1	.15902	
328.15	0	.01449	
328.15	.084	.01664	
328.15	.183	.02189	
328.15	.3	.03199	
328.15	.44	.05128	
328.15	.611	.08592	
328.15	.825	.14458	
328.15	1	.18683	

System: ethanol + p-coumaric acid; phases: Liquid, Crystal
Fixed: Pressure, kPa = 100
Property: Mole fraction of p-coumaric acid (Liquid); method: gravimetric
Temperature, K	Mole fraction of p-coumaric acid	uncertainty
293.15	.0411	
298.15	.0458	
303.15	.0509	
308.15	.0551	
313.15	.0616	
318.15	.0668	
323.15	.0724	
328.15	.0785	
333.15	.0859	
