Measured thermophysical data. Vapor Liquid Equilibrium and Physicochemical Properties of Novel Aqueous Blends of (2-Diethylaminoethanol + Piperazine) for CO2 Appropriation
Source: J. Chem. Eng. Data, 2017, 10.1021/acs.jced.6b00856
Compound 1: 2-diethylaminoethanol, C6H15NO
Compound 2: piperazine, C4H10N2
Compound 3: water, H2O, purity 99.9%

System: piperazine + water; phases: Liquid
Fixed: Pressure, kPa = 101.3
Property: Mass density, kg/m3 (Liquid); method: Pycnometric method
Temperature, K	Molality, mol/kg of piperazine	Mass density, kg/m3	uncertainty
303.15	.66	997.55	
303.15	1.1	999.58	
303.15	1.7	1002.4	
313.15	.66	994.45	
313.15	1.1	995.73	
313.15	1.7	998.08	
323.15	.66	989.89	
323.15	1.1	991.34	
323.15	1.7	993.64	

System: piperazine + water; phases: Liquid
Fixed: Pressure, kPa = 101.3
Property: Viscosity, Pa*s (Liquid); method: Capillary tube (Ostwald; Ubbelohde) method
Temperature, K	Molality, mol/kg of piperazine	Viscosity, Pa*s	uncertainty
303.15	.66	.000987	
303.15	1.1	.001169	
303.15	1.7	.001456	
313.15	.66	.000789	
313.15	1.1	.000916	
313.15	1.7	.001124	
323.15	.66	.000641	
323.15	1.1	.000747	
323.15	1.7	.000893	

System: 2-diethylaminoethanol + piperazine + water; phases: Liquid
Fixed: Pressure, kPa = 101.3
Property: Mass density, kg/m3 (Liquid); method: Pycnometric method
Mass fraction of piperazine	Mass fraction of 2-diethylaminoethanol	Temperature, K	Mass density, kg/m3	uncertainty
.03	.27	303.15	986.91	
.06	.24	303.15	991.09	
.09	.21	303.15	994.56	
.12	.18	303.15	998.1	
.03	.27	308.15	983.63	
.06	.24	308.15	987.21	
.09	.21	308.15	990.94	
.12	.18	308.15	994.75	
.03	.27	313.15	980.2	
.06	.24	313.15	984.1	
.09	.21	313.15	987.91	
.12	.18	313.15	991.58	
.03	.27	318.15	976.82	
.06	.24	318.15	980.84	
.09	.21	318.15	984.53	
.12	.18	318.15	988.3	
.03	.27	323.15	973.8	
.06	.24	323.15	977.53	
.09	.21	323.15	981.37	
.12	.18	323.15	985.06	

System: 2-diethylaminoethanol + piperazine + water; phases: Liquid
Fixed: Pressure, kPa = 101.3
Property: Viscosity, Pa*s (Liquid); method: Capillary tube (Ostwald; Ubbelohde) method
Mass fraction of piperazine	Mass fraction of 2-diethylaminoethanol	Temperature, K	Viscosity, Pa*s	uncertainty
.03	.27	303.15	.003234	
.06	.24	303.15	.003337	
.09	.21	303.15	.003577	
.12	.18	303.15	.0036108	
.03	.27	308.15	.002784	
.06	.24	308.15	.00294	
.09	.21	308.15	.003131	
.12	.18	308.15	.003172	
.03	.27	313.15	.002363	
.06	.24	313.15	.00254	
.09	.21	313.15	.002667	
.12	.18	313.15	.002774	
.03	.27	318.15	.002046	
.06	.24	318.15	.002263	
.09	.21	318.15	.002364	
.12	.18	318.15	.002418	
.03	.27	323.15	.001841	
.06	.24	323.15	.001956	
.09	.21	323.15	.002035	
.12	.18	323.15	.002178	
