Measured thermophysical data. Modified Method for Measuring the Solubility of Pharmaceutical Compounds in Organic Solvents by Visual Camera
Source: J. Chem. Eng. Data, 2016, 10.1021/acs.jced.5b00122
Compound 1: methanol, CH4O
Compound 2: ethanol, C2H6O
Compound 3: 1-propanol, C3H8O
Compound 4: 2-propanol, C3H8O
Compound 5: 2-methoxyethanol, C3H8O2
Compound 6: 2-propoxyethanol, C5H12O2
Compound 7: (+)-betulonic acid, C30H46O3
Compound 8: ammonium chloride, ClH4N
Compound 9: water, H2O

System: methanol; phases: Liquid
Fixed: Pressure, kPa = 101.325
Property: Mass density, kg/m3 (Liquid); method: Vibrating tube method
Temperature, K	Mass density, kg/m3	uncertainty
298.15	787.52	.78752

System: ethanol; phases: Liquid
Fixed: Pressure, kPa = 101.325
Property: Mass density, kg/m3 (Liquid); method: Vibrating tube method
Temperature, K	Mass density, kg/m3	uncertainty
298.15	787.577	.787577

System: 1-propanol; phases: Liquid
Fixed: Pressure, kPa = 101.325
Property: Mass density, kg/m3 (Liquid); method: Vibrating tube method
Temperature, K	Mass density, kg/m3	uncertainty
298.15	801.08	.80108

System: 2-propanol; phases: Liquid
Fixed: Pressure, kPa = 101.325
Property: Mass density, kg/m3 (Liquid); method: Vibrating tube method
Temperature, K	Mass density, kg/m3	uncertainty
298.15	781.214	.781214

System: 2-methoxyethanol; phases: Liquid
Fixed: Pressure, kPa = 101.325
Property: Mass density, kg/m3 (Liquid); method: Vibrating tube method
Temperature, K	Mass density, kg/m3	uncertainty
298.15	960.892	.960892

System: 2-propoxyethanol; phases: Liquid
Fixed: Pressure, kPa = 101.325
Property: Mass density, kg/m3 (Liquid); method: Vibrating tube method
Temperature, K	Mass density, kg/m3	uncertainty
298.15	907.878	.907878

System: (+)-betulonic acid; phases: Crystal, Liquid, Air at 1 atmosphere
Property: Normal melting temperature, K (Crystal); method: DSC/DTA
Normal melting temperature, K	uncertainty
530.49	.514679999999998

System: (+)-betulonic acid; phases: Crystal, Liquid, Air at 1 atmosphere
Property: Molar enthalpy of transition or fusion, kJ/mol (Crystal); method: DSC
Molar enthalpy of transition or fusion, kJ/mol	uncertainty
26.28	.07884

System: methanol + (+)-betulonic acid; phases: Liquid, Crystal
Fixed: Pressure, kPa = 101
Property: Mole fraction of (+)-betulonic acid (Liquid); method: visual
Temperature, K	Mole fraction of (+)-betulonic acid	uncertainty
278.15	.00129	.0000387
283.15	.00136	.0000408
288.15	.00146	.0000438
293.15	.00157	.0000471
298.15	.00171	.0000513
303.15	.00192	.0000576
308.15	.00211	.0000633
313.15	.00234	.0000702
318.15	.0027	.000081

System: ethanol + (+)-betulonic acid; phases: Liquid, Crystal
Fixed: Pressure, kPa = 101
Property: Mole fraction of (+)-betulonic acid (Liquid); method: visual
Temperature, K	Mole fraction of (+)-betulonic acid	uncertainty
278.15	.00376	.0001128
283.15	.00399	.0001197
288.15	.00454	.0001362
293.15	.00503	.0001509
298.15	.00566	.0001698
303.15	.00617	.0001851
308.15	.00693	.0002079
313.15	.00757	.0002271
318.15	.00848	.0002544

System: 1-propanol + (+)-betulonic acid; phases: Liquid, Crystal
Fixed: Pressure, kPa = 101
Property: Mole fraction of (+)-betulonic acid (Liquid); method: visual
Temperature, K	Mole fraction of (+)-betulonic acid	uncertainty
278.15	.00728	.0002184
283.15	.00762	.0002286
288.15	.00827	.0002481
293.15	.00914	.0002742
298.15	.01039	.0003117
303.15	.01163	.0003489
308.15	.01307	.0003921
313.15	.01443	.0004329
318.15	.01633	.0004899

System: 2-propanol + (+)-betulonic acid; phases: Liquid, Crystal
Fixed: Pressure, kPa = 101
Property: Mole fraction of (+)-betulonic acid (Liquid); method: visual
Temperature, K	Mole fraction of (+)-betulonic acid	uncertainty
278.15	.00531	.0001593
283.15	.00564	.0001692
288.15	.00651	.0001953
293.15	.0075	.000225
298.15	.00865	.0002595
303.15	.00968	.0002904
308.15	.01137	.0003411
313.15	.01375	.0004125
318.15	.01578	.0004734

System: 2-methoxyethanol + (+)-betulonic acid; phases: Liquid, Crystal
Fixed: Pressure, kPa = 101
Property: Mole fraction of (+)-betulonic acid (Liquid); method: visual
Temperature, K	Mole fraction of (+)-betulonic acid	uncertainty
278.15	.00863	.0002589
283.15	.00923	.0002769
288.15	.00969	.0002907
293.15	.01033	.0003099
298.15	.01076	.0003228
303.15	.01174	.0003522
308.15	.0127	.000381
313.15	.01366	.0004098
318.15	.01495	.0004485

System: 2-propoxyethanol + (+)-betulonic acid; phases: Liquid, Crystal
Fixed: Pressure, kPa = 101
Property: Mole fraction of (+)-betulonic acid (Liquid); method: visual
Temperature, K	Mole fraction of (+)-betulonic acid	uncertainty
278.15	.02388	.0007164
283.15	.02475	.0007425
288.15	.025	.00075
293.15	.02641	.0007923
298.15	.0274	.000822
303.15	.02878	.0008634
308.15	.03001	.0009003
313.15	.03144	.0009432
318.15	.03315	.0009945

System: water + ammonium chloride; phases: Liquid, Crystal
Fixed: Pressure, kPa = 101
Property: Mass ratio of solute to solvent of ammonium chloride (Liquid); method: visual
Temperature, K	Mass ratio of solute to solvent of ammonium chloride	uncertainty
283.2	.3356	.010068
293.2	.3729	.011187
303.2	.4114	.012342
