Measured thermophysical data. Phase Diagrams of the Quaternary System NaCl MgCl2 NH4Cl in Water at 0 and 25 deg C and Their Application
Source: J. Chem. Eng. Data, 2016, 10.1021/acs.jced.5b00639
Compound 1: sodium chloride, ClNa, purity 99%
Compound 2: magnesium chloride, Cl2Mg, purity 99%
Compound 3: ammonium chloride, ClH4N, purity 99%
Compound 4: water, H2O

System: water + magnesium chloride + ammonium chloride; phases: Liquid, Crystal of intercomponent compound 1
Fixed: Pressure, kPa = 101
Property: Mass fraction of magnesium chloride (Liquid); method: Titration method
Temperature, K	Mass fraction of ammonium chloride	Mass fraction of magnesium chloride	uncertainty
298.15	.0869	.2108	.004216
298.15	.0008	.3555	.00711
273.15	.0593	.2141	.004282
273.15	.0009	.3443	.006886

System: water + magnesium chloride + ammonium chloride; phases: Liquid, Crystal
Fixed: Pressure, kPa = 101
Property: Mass fraction of magnesium chloride (Liquid); method: Titration method
Temperature, K	Mass fraction of ammonium chloride	Mass fraction of magnesium chloride	uncertainty
298.15	.0869	.2108	.004216
273.15	.0593	.2141	.004282

System: water + magnesium chloride + ammonium chloride; phases: Liquid, Crystal of intercomponent compound 2
Fixed: Pressure, kPa = 101
Property: Mass fraction of magnesium chloride (Liquid); method: Titration method
Temperature, K	Mass fraction of ammonium chloride	Mass fraction of magnesium chloride	uncertainty
298.15	.0008	.3555	.00711
273.15	.0009	.3443	.006886

System: sodium chloride + water + ammonium chloride; phases: Liquid, Crystal
Fixed: Pressure, kPa = 101
Property: Mass fraction of sodium chloride (Liquid); method: Titration method
Temperature, K	Mass fraction of ammonium chloride	Mass fraction of sodium chloride	uncertainty
298.15	.1586	.1728	.003456
273.15	.1026	.1978	.003956

System: sodium chloride + water + ammonium chloride; phases: Liquid, Crystal
Fixed: Pressure, kPa = 101
Property: Mass fraction of sodium chloride (Liquid); method: Titration method
Temperature, K	Mass fraction of ammonium chloride	Mass fraction of sodium chloride	uncertainty
298.15	.1586	.1728	.003456
273.15	.1026	.1978	.003956

System: sodium chloride + water + magnesium chloride; phases: Liquid, Crystal of intercomponent compound 2
Fixed: Pressure, kPa = 101
Property: Mass fraction of sodium chloride (Liquid); method: Titration method
Temperature, K	Mass fraction of magnesium chloride	Mass fraction of sodium chloride	uncertainty
298.15	.3586	.0048	.000096

System: sodium chloride + water + magnesium chloride; phases: Liquid, Crystal
Fixed: Pressure, kPa = 101
Property: Mass fraction of sodium chloride (Liquid); method: Titration method
Temperature, K	Mass fraction of magnesium chloride	Mass fraction of sodium chloride	uncertainty
298.15	.3586	.0048	.000096
