Measured thermophysical data. Isobaric Vapor Liquid Equilibrium for the Binary Systems of Diethyl Carbonate with Xylene Isomers and Ethylbenzene at 101.33 kPa
Source: J. Chem. Eng. Data, 2016, 10.1021/acs.jced.6b00085
Compound 1: diethyl carbonate, C5H10O3, purity 99.0%
Compound 2: o-xylene, C8H10, purity 99.0%
Compound 3: m-xylene, C8H10, purity 99.0%
Compound 4: p-xylene, C8H10, purity 99.0%
Compound 5: ethylbenzene, C8H10, purity 99.0%

System: diethyl carbonate; phases: Liquid
Fixed: Pressure, kPa = 101.325
Property: Mass density, kg/m3 (Liquid); method: Vibrating tube method
Temperature, K	Mass density, kg/m3	uncertainty
298.15	967.83	.4

System: diethyl carbonate; phases: Liquid, Gas
Property: Vapor or sublimation pressure, kPa (Liquid); method: Ebulliometric method (Recirculating still)
Temperature, K	Vapor or sublimation pressure, kPa	uncertainty
399.84	101.33	

System: o-xylene; phases: Liquid
Fixed: Pressure, kPa = 101.325
Property: Mass density, kg/m3 (Liquid); method: Vibrating tube method
Temperature, K	Mass density, kg/m3	uncertainty
298.15	875.81	.4

System: o-xylene; phases: Liquid, Gas
Property: Vapor or sublimation pressure, kPa (Liquid); method: Ebulliometric method (Recirculating still)
Temperature, K	Vapor or sublimation pressure, kPa	uncertainty
417.55	101.33	

System: m-xylene; phases: Liquid
Fixed: Pressure, kPa = 101.325
Property: Mass density, kg/m3 (Liquid); method: Vibrating tube method
Temperature, K	Mass density, kg/m3	uncertainty
298.15	860.06	.4

System: m-xylene; phases: Liquid, Gas
Property: Vapor or sublimation pressure, kPa (Liquid); method: Ebulliometric method (Recirculating still)
Temperature, K	Vapor or sublimation pressure, kPa	uncertainty
412.28	101.33	

System: p-xylene; phases: Liquid
Fixed: Pressure, kPa = 101.325
Property: Mass density, kg/m3 (Liquid); method: Vibrating tube method
Temperature, K	Mass density, kg/m3	uncertainty
298.15	856.54	.4

System: p-xylene; phases: Liquid, Gas
Property: Vapor or sublimation pressure, kPa (Liquid); method: Ebulliometric method (Recirculating still)
Temperature, K	Vapor or sublimation pressure, kPa	uncertainty
411.43	101.33	

System: ethylbenzene; phases: Liquid
Fixed: Pressure, kPa = 101.325
Property: Mass density, kg/m3 (Liquid); method: Vibrating tube method
Temperature, K	Mass density, kg/m3	uncertainty
298.15	862.57	.4

System: ethylbenzene; phases: Liquid, Gas
Property: Vapor or sublimation pressure, kPa (Liquid); method: Ebulliometric method (Recirculating still)
Temperature, K	Vapor or sublimation pressure, kPa	uncertainty
409.31	101.33	

System: ethylbenzene + diethyl carbonate; phases: Liquid, Gas
Property: Boiling temperature at pressure P, K (Liquid); method: Ebulliometric method (Recirculating still)
Mole fraction of diethyl carbonate	Pressure, kPa	Boiling temperature at pressure P, K	uncertainty
1	101.33	399.84	
.9901	101.33	399.86	
.9712	101.33	399.88	
.9411	101.33	400.02	
.8733	101.33	400.1	
.8321	101.33	400.15	
.7335	101.33	400.55	
.6816	101.33	400.89	
.6457	101.33	401.2	
.5826	101.33	401.5	
.5379	101.33	402.1	
.4859	101.33	402.43	
.4266	101.33	402.99	
.3654	101.33	403.72	
.3001	101.33	404.47	
.236	101.33	405.28	
.1802	101.33	406.29	
.1327	101.33	407.02	
.0897	101.33	407.73	
.0572	101.33	408.35	
.0183	101.33	409.1	
0	101.33	409.31	

System: ethylbenzene + diethyl carbonate; phases: Gas, Liquid
Property: Mole fraction of diethyl carbonate (Gas); method: Chromatography
Mole fraction of diethyl carbonate	Pressure, kPa	Mole fraction of diethyl carbonate	uncertainty
1	101.33	1	
.9901	101.33	.9907	
.9712	101.33	.9723	
.9411	101.33	.9455	
.8733	101.33	.8824	
.8321	101.33	.8466	
.7335	101.33	.7651	
.6816	101.33	.7198	
.6457	101.33	.6896	
.5826	101.33	.6311	
.5379	101.33	.5987	
.4859	101.33	.5522	
.4266	101.33	.4989	
.3654	101.33	.4361	
.3001	101.33	.3757	
.236	101.33	.3095	
.1802	101.33	.2446	
.1327	101.33	.184	
.0897	101.33	.1335	
.0572	101.33	.0868	
.0183	101.33	.0297	
0	101.33	0	

System: o-xylene + diethyl carbonate; phases: Liquid, Gas
Property: Boiling temperature at pressure P, K (Liquid); method: Ebulliometric method (Recirculating still)
Mole fraction of diethyl carbonate	Pressure, kPa	Boiling temperature at pressure P, K	uncertainty
1	101.33	399.84	
.9601	101.33	399.88	
.9155	101.33	399.99	
.8625	101.33	400.5	
.7959	101.33	400.62	
.7422	101.33	401.03	
.6851	101.33	401.74	
.6029	101.33	403.07	
.5649	101.33	403.58	
.47	101.33	405.11	
.4191	101.33	405.93	
.3699	101.33	406.34	
.3113	101.33	408.18	
.2692	101.33	409.3	
.2305	101.33	410.22	
.1932	101.33	411.25	
.1582	101.33	412.27	
.1248	101.33	413.19	
.1095	101.33	413.7	
.0822	101.33	414.63	
.0599	101.33	415.54	
0	101.33	417.55	

System: o-xylene + diethyl carbonate; phases: Gas, Liquid
Property: Mole fraction of diethyl carbonate (Gas); method: Chromatography
Mole fraction of diethyl carbonate	Pressure, kPa	Mole fraction of diethyl carbonate	uncertainty
1	101.33	1	
.9601	101.33	.9633	
.9155	101.33	.9352	
.8625	101.33	.8973	
.7959	101.33	.8422	
.7422	101.33	.8014	
.6851	101.33	.7565	
.6029	101.33	.7035	
.5649	101.33	.6642	
.47	101.33	.5976	
.4191	101.33	.5496	
.3699	101.33	.5028	
.3113	101.33	.4459	
.2692	101.33	.403	
.2305	101.33	.3581	
.1932	101.33	.3152	
.1582	101.33	.2718	
.1248	101.33	.2254	
.1095	101.33	.21	
.0822	101.33	.1474	
.0599	101.33	.1077	
0	101.33	0	

System: diethyl carbonate + m-xylene; phases: Liquid, Gas
Property: Boiling temperature at pressure P, K (Liquid); method: Ebulliometric method (Recirculating still)
Mole fraction of diethyl carbonate	Pressure, kPa	Boiling temperature at pressure P, K	uncertainty
1	101.33	399.84	
.9582	101.33	399.87	
.9201	101.33	399.89	
.893	101.33	399.91	
.854	101.33	400.25	
.8006	101.33	400.7	
.7758	101.33	400.75	
.7399	101.33	401.05	
.7029	101.33	401.35	
.6563	101.33	401.75	
.6015	101.33	402.26	
.5645	101.33	402.67	
.5001	101.33	403.38	
.4764	101.33	403.79	
.4322	101.33	404.3	
.3875	101.33	405.03	
.2848	101.33	406.56	
.2325	101.33	407.37	
.1994	101.33	407.97	
.1273	101.33	409.41	
.0711	101.33	410.65	
0	101.33	412.28	

System: diethyl carbonate + m-xylene; phases: Gas, Liquid
Property: Mole fraction of diethyl carbonate (Gas); method: Chromatography
Mole fraction of diethyl carbonate	Pressure, kPa	Mole fraction of diethyl carbonate	uncertainty
1	101.33	1	
.9582	101.33	.9622	
.9201	101.33	.9235	
.893	101.33	.9052	
.854	101.33	.877	
.8006	101.33	.8353	
.7758	101.33	.8145	
.7399	101.33	.7829	
.7029	101.33	.7532	
.6563	101.33	.7229	
.6015	101.33	.6748	
.5645	101.33	.6387	
.5001	101.33	.5879	
.4764	101.33	.563	
.4322	101.33	.5256	
.3875	101.33	.4854	
.2848	101.33	.3842	
.2325	101.33	.3281	
.1994	101.33	.2898	
.1273	101.33	.1983	
.0711	101.33	.1208	
0	101.33	0	

System: diethyl carbonate + p-xylene; phases: Liquid, Gas
Property: Boiling temperature at pressure P, K (Liquid); method: Ebulliometric method (Recirculating still)
Mole fraction of diethyl carbonate	Pressure, kPa	Boiling temperature at pressure P, K	uncertainty
1	101.33	399.84	
.9682	101.33	399.9	
.9021	101.33	400.11	
.8133	101.33	400.54	
.7525	101.33	400.88	
.6832	101.33	401.32	
.513	101.33	402.91	
.477	101.33	403.22	
.4409	101.33	403.57	
.4041	101.33	404.09	
.3671	101.33	404.56	
.3338	101.33	405.11	
.3004	101.33	405.52	
.2665	101.33	406.15	
.2301	101.33	406.66	
.2039	101.33	407.17	
.1801	101.33	407.57	
.1511	101.33	408.29	
.0991	101.33	409.32	
.0633	101.33	410.13	
0	101.33	411.43	

System: diethyl carbonate + p-xylene; phases: Gas, Liquid
Property: Mole fraction of diethyl carbonate (Gas); method: Chromatography
Mole fraction of diethyl carbonate	Pressure, kPa	Mole fraction of diethyl carbonate	uncertainty
1	101.33	1	
.9682	101.33	.9701	
.9021	101.33	.9112	
.8133	101.33	.8355	
.7525	101.33	.7837	
.6832	101.33	.727	
.513	101.33	.595	
.477	101.33	.564	
.4409	101.33	.5376	
.4041	101.33	.504	
.3671	101.33	.4622	
.3338	101.33	.4291	
.3004	101.33	.4066	
.2665	101.33	.3617	
.2301	101.33	.3196	
.2039	101.33	.2911	
.1801	101.33	.2609	
.1511	101.33	.2229	
.0991	101.33	.1529	
.0633	101.33	.1026	
0	101.33	0	

System: p-xylene + m-xylene; phases: Gas, Liquid
Property: Mole fraction of p-xylene (Gas); method: Chromatography
Mole fraction of p-xylene	Pressure, kPa	Mole fraction of p-xylene	uncertainty
1	101.33	1	
.9503	101.33	.9515	
.8908	101.33	.893	
.838	101.33	.841	
.7692	101.33	.7731	
.7132	101.33	.7175	
.6667	101.33	.6713	
.611	101.33	.6158	
.5506	101.33	.5556	
.4922	101.33	.4971	
.4433	101.33	.448	
.3759	101.33	.3803	
.3388	101.33	.3428	
.2946	101.33	.2983	
.2372	101.33	.2404	
.1959	101.33	.1986	
.1601	101.33	.1624	
.1221	101.33	.1239	
.0682	101.33	.0692	
0	101.33	0	
