Measured thermophysical data. Viscosity and dew point measurements of {xCH4 + (1- x)C4H10} for x = 0.9484 with a vibrating-wire viscometer.
Source: J. Chem. Eng. Data, 2015, 10.1021/acs.jced.5b00635
Compound 1: butane, C4H10, purity 99.995%
Compound 2: methane, CH4, purity 99.995%

System: methane + butane; phases: Gas
Fixed: Mole fraction of methane = .9484
Property: Viscosity, Pa*s (Gas); method: Vibrating wire viscometry
Temperature, K	Pressure, kPa	Viscosity, Pa*s	uncertainty
204	12176	.00003926	.00000035
204	15215	.00004304	.00000029
204	18140	.00004626	.00000042
204.1	19569	.00004735	.00000033
204.1	21253	.00004904	.00000033
204.1	24282	.00005164	.00000039
204.2	27310	.00005403	.0000004
204.2	30331	.00005647	.0000004
232.7	11211	.0000243	.00000018
232.7	15226	.00003101	.00000039
232.7	19261	.00003573	.00000092
232.7	21317	.00003772	.00000064
232.7	23399	.00003931	.00000055
232.7	24794	.00003998	.00000036
270	13168	.00001836	.00000017
270	16207	.00002175	.00000018
270	19306	.00002491	.00000019
270	22342	.00002766	.00000019
270	25341	.00003016	.00000023
313.1	2721	.00001162	.00000011
313.1	3736	.00001182	.00000008
313.1	5749	.00001247	.00000019
313	6625	.00001297	.00000015
313	8648	.00001365	.00000013
312.9	10664	.00001459	.00000016
312.9	12679	.00001581	.00000016
312.8	14696	.00001705	.00000014
312.8	16714	.00001833	.00000014
312.8	18733	.00001967	.00000014
312.8	20751	.00002106	.00000019
312.7	24798	.00002385	.00000031
312.7	28777	.00002641	.00000018
351.2	6827	.00001429	.00000015
351.2	8853	.00001461	.00000007
351.1	10879	.00001516	.00000014
351.1	12905	.00001584	.00000007
351.1	14932	.00001662	.00000013
351.1	16955	.00001748	.00000012
351.1	18972	.00001839	.00000013
351.1	20973	.00001924	.00000019
351.1	22996	.00002032	.00000014
351.1	25011	.00002127	.00000015
351.1	27025	.00002222	.00000016
390.4	10172	.0000156	.00000013
390.4	12185	.00001606	.00000011
390.4	14205	.00001662	.00000012
390.4	16225	.00001725	.00000012
390.4	18245	.00001792	.00000012
390.4	20263	.00001864	.00000014
390.4	22279	.00001934	.00000013
390.3	24294	.00002007	.00000014
390.3	26308	.00002084	.00000014
390.3	28318	.00002159	.00000015
423.1	4111	.0000154	.00000014
423.1	8164	.00001587	.00000011
423.1	12211	.00001667	.00000011
423.1	16216	.00001775	.00000012
423.1	20247	.00001888	.00000019

System: methane + butane; phases: Gas, Liquid
Fixed: Mole fraction of methane = .9484
Property: Vapor or sublimation pressure, kPa (Gas); method: Vibrating wire viscometer
Temperature, K	Vapor or sublimation pressure, kPa	uncertainty
263	10100	200
263	1630	100
273	8930	200
273	3330	100
