Measured thermophysical data. A Zinc Nitrate Calcium Nitrate Water System: The Solubility of Solids and the Density of Liquids in a Wide Range of Temperatures
Source: J. Chem. Eng. Data, 2017, 10.1021/acs.jced.7b00036
Compound 1: water, H2O, purity 99.8%
Compound 2: calcium nitrate, CaN2O6
Compound 3: zinc nitrate, N2O6Zn

System: water + zinc nitrate + calcium nitrate; phases: Liquid, Crystal of intercomponent compound 1
Fixed: Pressure, kPa = 100
Property: Mass fraction of calcium nitrate (Liquid); method: Titration method
Temperature, K	Mass fraction of zinc nitrate	Mass fraction of calcium nitrate	uncertainty
288.1	.0501	.4851	
288.1	.1538	.3718	
288.1	.1521	.375	
288.1	.224	.3198	
288.1	.314	.2537	
288.1	.4101	.163	
288.1	.4102	.169	
262.35	.0715	.3908	
262.35	.1479	.3203	
262.35	.2102	.2657	
262.35	.2632	.2214	
262.35	.313	.181	
262.35	.3487	.1488	
262.35	.3465	.1517	
251.85	.072	.3659	
251.85	.1392	.3062	
251.85	.194	.2553	
251.85	.2495	.2104	
251.85	.2977	.1715	
251.85	.3216	.1402	
251.85	.3207	.1463	

System: water + zinc nitrate + calcium nitrate; phases: Liquid, Crystal of intercomponent compound 2
Fixed: Pressure, kPa = 100
Property: Mass fraction of calcium nitrate (Liquid); method: Titration method
Temperature, K	Mass fraction of zinc nitrate	Mass fraction of calcium nitrate	uncertainty
288.1	.4102	.169	
288.1	.4698	.0786	
288.1	.482	.0604	
288.1	.5052	.0288	
262.35	.3944	.0843	
262.35	.4081	.062	
262.35	.4265	.0383	
262.35	.3487	.1488	
262.35	.3465	.1517	
251.85	.3216	.1402	
251.85	.3207	.1463	
251.85	.3678	.0985	
251.85	.3874	.0694	
251.85	.4045	.0426	
251.85	.3872	.0746	
251.85	.4074	.0459	

System: water + zinc nitrate + calcium nitrate; phases: Liquid, Crystal
Fixed: Pressure, kPa = 100
Property: Mass fraction of calcium nitrate (Liquid); method: Titration method
Temperature, K	Mass fraction of zinc nitrate	Mass fraction of calcium nitrate	uncertainty
262.35	.0856	.1664	
262.35	.1452	.1105	
262.35	.1913	.051	
251.85	.1252	.243	
251.85	.202	.1533	
251.85	.2664	.0711	

System: water + zinc nitrate + calcium nitrate; phases: Liquid
Fixed: Pressure, kPa = 100
Property: Mass density, kg/m3 (Liquid); method: Vibrating tube method
Mass fraction of zinc nitrate	Mass fraction of calcium nitrate	Temperature, K	Mass density, kg/m3	uncertainty
.0329	.4794	298.15	1525	
.1192	.3814	298.15	1524.5	
.2426	.2597	298.15	1559	
.3877	.148	298.15	1644.7	
.0265	.386	298.15	1395.3	
.1004	.3212	298.15	1417.6	
.2049	.2193	298.15	1444	
.3187	.1216	298.15	1489.5	
.4285	.0498	298.15	1548.4	
.3806	.099	298.15	1538.6	
.3364	.1478	298.15	1534.3	
.2879	.197	298.15	1523.9	
.2416	.2469	298.15	1516.8	
.0329	.4794	323.15	1513.9	
.1192	.3814	323.15	1513.5	
.2426	.2597	323.15	1547.6	
.3877	.148	323.15	1632.2	
.0265	.386	323.15	1385.7	
.1004	.3212	323.15	1407.4	
.3187	.1216	323.15	1434	
.4285	.0498	323.15	1478.9	

System: water + zinc nitrate + calcium nitrate; phases: Liquid, Crystal of intercomponent compound 2
Fixed: Pressure, kPa = 100
Property: Mass fraction of calcium nitrate (Liquid); method: Titration method
Temperature, K	Mass fraction of zinc nitrate	Mass fraction of calcium nitrate	uncertainty
251.85	.4276	.0191	
251.85	.4296	.0096	
251.85	.422	0	

System: water + zinc nitrate; phases: Liquid, Crystal of intercomponent compound 3
Property: Solid-liquid equilibrium temperature, K (Liquid); method: titration
Mass fraction of zinc nitrate	Pressure, kPa	Solid-liquid equilibrium temperature, K	uncertainty
.422	100	251.85	
