Measured thermophysical data. Investigation on the Interactions of Poly(ethylene oxide) and Ionic Liquid 1-Butyl-3-methyl-imidazolium Bromide by Viscosity and Spectroscopy
Source: J. Chem. Eng. Data, 2016, 10.1021/acs.jced.5b00428
Compound 1: 1-butyl-3-methylimidazolium bromide, C8H15BrN2
Compound 2: water, H2O, purity 99.8%

System: water; phases: Liquid
Property: Mass density, kg/m3 (Liquid); method: Vibrating tube method
Temperature, K	Pressure, kPa	Mass density, kg/m3	uncertainty
288.15	100	999.099	
293.15	100	998.209	
298.15	100	997.049	
303.15	100	995.651	
308.15	100	994.028	
313.15	100	992.226	

System: water; phases: Liquid
Property: Viscosity, Pa*s (Liquid); method: Capillary tube (Ostwald; Ubbelohde) method
Temperature, K	Pressure, kPa	Viscosity, Pa*s	uncertainty
288.15	101	.001138	
293.15	101	.001001	
298.15	101	.00089	
303.15	101	.000797	
308.15	101	.000719	
313.15	101	.000653	

System: water + 1-butyl-3-methylimidazolium bromide; phases: Liquid
Fixed: Pressure, kPa = 100
Property: Mass density, kg/m3 (Liquid); method: Vibrating tube method
Molality, mol/kg of 1-butyl-3-methylimidazolium bromide	Temperature, K	Mass density, kg/m3	uncertainty
0	288.15	999.099	
0	293.15	998.209	
0	298.15	997.049	
0	303.15	995.651	
0	308.15	994.028	
0	313.15	992.226	
.0046	288.15	999.318	
.0046	293.15	998.492	
.0046	298.15	997.279	
.0046	303.15	995.876	
.0046	308.15	994.252	
.0046	313.15	992.415	
.0141	288.15	999.804	
.0141	293.15	998.891	
.0141	298.15	997.685	
.0141	303.15	996.322	
.0141	308.15	994.678	
.0141	313.15	992.871	
.0231	288.15	1000.216	
.0231	293.15	999.304	
.0231	298.15	998.078	
.0231	303.15	996.69	
.0231	308.15	995.112	
.0231	313.15	993.178	

System: water + 1-butyl-3-methylimidazolium bromide; phases: Liquid
Fixed: Pressure, kPa = 100
Property: Viscosity, Pa*s (Liquid); method: Capillary tube (Ostwald; Ubbelohde) method
Temperature, K	Molality, mol/kg of 1-butyl-3-methylimidazolium bromide	Viscosity, Pa*s	uncertainty
288.15	0	.001138	
293.15	0	.001001	
298.15	0	.00089	
303.15	0	.000797	
308.15	0	.000719	
313.15	0	.000653	
288.15	.0046	.00114	
293.15	.0046	.001003	
298.15	.0046	.000891	
303.15	.0046	.0008	
308.15	.0046	.000721	
313.15	.0046	.000654	
288.15	.0141	.001146	
293.15	.0141	.001008	
298.15	.0141	.000895	
303.15	.0141	.0008	
308.15	.0141	.000722	
313.15	.0141	.000656	
288.15	.0231	.001148	
293.15	.0231	.001012	
298.15	.0231	.000897	
303.15	.0231	.000804	
308.15	.0231	.000725	
313.15	.0231	.000657	
