Measured thermophysical data. Indirect Analysis of a Homogeneous Ternary Mixture
Source: J. Chem. Eng. Data, 2016, 10.1021/acs.jced.5b01024
Compound 1: water, H2O, purity 99.8%
Compound 2: n-butanol, C4H10O, purity 99.5%
Compound 3: n-propanol, C3H8O, purity 99.5%

System: water; phases: Liquid
Property: Refractive index (Na D-line) (Liquid); method: Standard Abbe refractometry
Temperature, K	Pressure, kPa	Refractive index (Na D-line)	uncertainty
294.15	100	1.332852	

System: n-butanol; phases: Liquid
Property: Refractive index (Na D-line) (Liquid); method: Standard Abbe refractometry
Temperature, K	Pressure, kPa	Refractive index (Na D-line)	uncertainty
294.15	100	1.397824	

System: n-propanol; phases: Liquid
Property: Refractive index (Na D-line) (Liquid); method: Standard Abbe refractometry
Temperature, K	Pressure, kPa	Refractive index (Na D-line)	uncertainty
294.15	100	1.384602	

System: n-propanol + n-butanol + water; phases: Liquid mixture 1, Liquid mixture 2
Fixed: Temperature, K = 294.15
Fixed: Pressure, kPa = 101.325
Property: Mass fraction of n-propanol (Liquid mixture 1); method: Titration method
Mass fraction of water	Mass fraction of n-propanol	uncertainty
.615	.2275	
.58	.2425	
.555	.2525	
.4125	.28	
.355	.27	
.3175	.25	
.86	.087	
.8	.125	
.754	.154	
.326	.257	
.268	.203	
.232	.132	

System: n-propanol + n-butanol + water; phases: Liquid
Fixed: Pressure, kPa = 100
Property: Refractive index (Na D-line) (Liquid); method: Standard Abbe refractometry
Temperature, K	Mass fraction of water	Mass fraction of n-propanol	Refractive index (Na D-line)	uncertainty
294.15	1	0	1.332852	
294.15	0	1	1.384602	
294.15	0	0	1.397824	
294.15	.8494	.0936	1.346934	
294.15	.735	.1645	1.355307	
294.15	.3648	.2727	1.376892	
294.15	.284	.2225	1.382232	
294.15	.2382	.1459	1.386174	
294.15	.2063	.0361	1.389408	
294.15	.862	.085	1.34579	
294.15	.791	.132	1.350791	
294.15	.753	.153	1.354011	
294.15	.33	.251	1.379237	
294.15	.276	.211	1.38286	
294.15	.234	.131	1.386627	

System: n-propanol + n-butanol + water; phases: Liquid mixture 1, Liquid mixture 2
Fixed: Temperature, K = 294.15
Fixed: Pressure, kPa = 100
Property: Mass fraction of n-propanol (Liquid mixture 1); method: Index of refraction calibration data
Mass fraction of water	Mass fraction of n-propanol	uncertainty
.862	.085	
.791	.132	
.753	.153	
.33	.251	
.276	.211	
.234	.131	
.8494	.0936	
.735	.1645	
.3648	.2727	
.284	.2225	
.2382	.1459	
.2063	.0361	
