Measured thermophysical data. Isobaric Vapor Liquid Equilibrium for Three Binary Systems of Acetaldehyde + Ethanol, Ethyl Acetate, 1-Butanol at 101.3 kPa
Source: J. Chem. Eng. Data, 2017, 10.1021/acs.jced.7b00231
Compound 1: acetaldehyde, C2H4O, purity 99.5%
Compound 2: 1-butanol, C4H10O, purity 99.5%
Compound 3: ethanol, C2H6O, purity 99.7%
Compound 4: ethyl acetate, C4H8O2, purity 99.5%

System: acetaldehyde; phases: Liquid, Gas
Property: Boiling temperature at pressure P, K (Liquid); method: Ebulliometric method (Recirculating still)
Pressure, kPa	Boiling temperature at pressure P, K	uncertainty
101.3	293.84	

System: 1-butanol; phases: Liquid, Gas
Property: Boiling temperature at pressure P, K (Liquid); method: Ebulliometric method (Recirculating still)
Pressure, kPa	Boiling temperature at pressure P, K	uncertainty
101.3	390.78	

System: ethanol; phases: Liquid, Gas
Property: Boiling temperature at pressure P, K (Liquid); method: Ebulliometric method (Recirculating still)
Pressure, kPa	Boiling temperature at pressure P, K	uncertainty
101.3	351.38	

System: ethyl acetate; phases: Liquid, Gas
Property: Boiling temperature at pressure P, K (Liquid); method: Ebulliometric method (Recirculating still)
Pressure, kPa	Boiling temperature at pressure P, K	uncertainty
101.3	350.2	

System: acetaldehyde + ethanol; phases: Liquid, Gas
Property: Boiling temperature at pressure P, K (Liquid); method: Ebulliometric method (Recirculating still)
Mole fraction of acetaldehyde	Pressure, kPa	Boiling temperature at pressure P, K	uncertainty
1	101.3	293.84	
.9665	101.3	294.85	
.8935	101.3	296.92	
.8491	101.3	298.17	
.7266	101.3	302.95	
.6437	101.3	306.24	
.5858	101.3	309.44	
.5561	101.3	311.52	
.4929	101.3	315.21	
.4465	101.3	317.96	
.3641	101.3	322.98	
.2722	101.3	329.44	
.2358	101.3	332.17	
.2033	101.3	334.66	
.1574	101.3	338.35	
.1205	101.3	341.49	
.0783	101.3	345.16	
.0467	101.3	347.97	
.0178	101.3	350.19	
0	101.3	351.38	

System: acetaldehyde + ethanol; phases: Gas, Liquid
Property: Mole fraction of acetaldehyde (Gas); method: Chromatography
Mole fraction of acetaldehyde	Pressure, kPa	Mole fraction of acetaldehyde	uncertainty
1	101.3	1	
.9665	101.3	.9987	
.8935	101.3	.995	
.8491	101.3	.9921	
.7266	101.3	.9793	
.6437	101.3	.9656	
.5858	101.3	.9507	
.5561	101.3	.9388	
.4929	101.3	.9107	
.4465	101.3	.8825	
.3641	101.3	.824	
.2722	101.3	.7209	
.2358	101.3	.667	
.2033	101.3	.6075	
.1574	101.3	.5049	
.1205	101.3	.4082	
.0783	101.3	.2756	
.0467	101.3	.1626	
.0178	101.3	.0612	
0	101.3	0	

System: acetaldehyde + ethyl acetate; phases: Liquid, Gas
Property: Boiling temperature at pressure P, K (Liquid); method: Ebulliometric method (Recirculating still)
Mole fraction of acetaldehyde	Pressure, kPa	Boiling temperature at pressure P, K	uncertainty
1	101.3	293.84	
.9642	101.3	294.94	
.9213	101.3	295.83	
.8757	101.3	297.12	
.7915	101.3	299.42	
.6733	101.3	303.41	
.6219	101.3	305.91	
.5147	101.3	311.12	
.4107	101.3	316.53	
.3878	101.3	318.43	
.3072	101.3	322.95	
.2754	101.3	324.95	
.2236	101.3	329.37	
.1737	101.3	332.98	
.1501	101.3	335.49	
.1252	101.3	337.5	
.0926	101.3	340.61	
.0433	101.3	345.43	
.0098	101.3	349.15	
0	101.3	350.2	

System: acetaldehyde + ethyl acetate; phases: Gas, Liquid
Property: Mole fraction of acetaldehyde (Gas); method: Chromatography
Mole fraction of acetaldehyde	Pressure, kPa	Mole fraction of acetaldehyde	uncertainty
1	101.3	1	
.9642	101.3	.9967	
.9213	101.3	.9922	
.8757	101.3	.9859	
.7915	101.3	.9742	
.6733	101.3	.9514	
.6219	101.3	.9393	
.5147	101.3	.9007	
.4107	101.3	.8392	
.3878	101.3	.8178	
.3072	101.3	.756	
.2754	101.3	.7122	
.2236	101.3	.6532	
.1737	101.3	.5686	
.1501	101.3	.5071	
.1252	101.3	.4447	
.0926	101.3	.3577	
.0433	101.3	.1884	
.0098	101.3	.0467	
0	101.3	0	

System: acetaldehyde + 1-butanol; phases: Liquid, Gas
Property: Boiling temperature at pressure P, K (Liquid); method: Ebulliometric method (Recirculating still)
Mole fraction of acetaldehyde	Pressure, kPa	Boiling temperature at pressure P, K	uncertainty
1	101.3	293.84	
.7555	101.3	303.46	
.7049	101.3	305.63	
.6566	101.3	307.76	
.6055	101.3	310.13	
.5205	101.3	314.49	
.4309	101.3	320.12	
.3272	101.3	328.09	
.2725	101.3	333.6	
.2672	101.3	334.18	
.2058	101.3	342.07	
.1634	101.3	349.02	
.1109	101.3	359.25	
.0842	101.3	365.74	
.0708	101.3	369.33	
.0495	101.3	375.25	
.0316	101.3	380.56	
0	101.3	390.78	

System: acetaldehyde + 1-butanol; phases: Gas, Liquid
Property: Mole fraction of acetaldehyde (Gas); method: Chromatography
Mole fraction of acetaldehyde	Pressure, kPa	Mole fraction of acetaldehyde	uncertainty
1	101.3	1	
.7555	101.3	.9978	
.7049	101.3	.9966	
.6566	101.3	.9951	
.6055	101.3	.993	
.5205	101.3	.9879	
.4309	101.3	.9779	
.3272	101.3	.9594	
.2725	101.3	.9408	
.2672	101.3	.9385	
.2058	101.3	.9006	
.1634	101.3	.8535	
.1109	101.3	.7483	
.0842	101.3	.6546	
.0708	101.3	.5923	
.0495	101.3	.4699	
.0316	101.3	.3379	
0	101.3	0	
