Measured thermophysical data. The Vaporization Enthalpies and Vapor Pressures of Some Insect Pheromones by Correlation Gas Chromatography
Source: J. Chem. Eng. Data, 2016, 10.1021/acs.jced.5b00892
Compound 1: (Z)-dodec-8-enyl acetate, C14H26O2, purity 96%
Compound 2: (Z)-tridec-4-enyl acetate, C15H28O2, purity 96%
Compound 3: (E)-tetradec-11-enyl acetate, C16H30O2, purity 95%
Compound 4: (9E,11E)-tetradeca-9,11-dienyl acetate, C16H28O2, purity 95%
Compound 5: ethyl (S,2E,4E)-3,7,11-trimethyldodeca-2,4-dienoate, C17H30O2, purity 95%
Compound 6: prop-2-ynyl (2E,4E)-3,7,11-trimethyldodeca-2,4-dienoate, C18H28O2, purity 98.7%
Compound 7: (Z)-octadec-13-en-1-yl acetate, C20H38O2, purity 94.6%

System: (Z)-dodec-8-enyl acetate; phases: Liquid, Gas
Property: Molar enthalpy of vaporization or sublimation, kJ/mol (Liquid); method: Correlation gas chromatography
Temperature, K	Molar enthalpy of vaporization or sublimation, kJ/mol	uncertainty
298.15	79.3	5.4

System: (Z)-dodec-8-enyl acetate; phases: Liquid, Gas
Property: Vapor or sublimation pressure, kPa (Liquid); method: Gas chromatography
Temperature, K	Vapor or sublimation pressure, kPa	uncertainty
298	.00027	
310	.00091	
320	.0023	
330	.0056	
340	.013	
350	.027	
360	.053	
370	.1	
380	.19	
390	.33	
400	.56	
410	.93	
420	1.5	
430	2.3	
440	3.5	
450	5.1	
460	7.3	
470	10	
480	14.1	
490	19	
500	25	

System: (Z)-tridec-4-enyl acetate; phases: Liquid, Gas
Property: Molar enthalpy of vaporization or sublimation, kJ/mol (Liquid); method: Correlation gas chromatography
Temperature, K	Molar enthalpy of vaporization or sublimation, kJ/mol	uncertainty
298.15	82.7	5.5

System: (Z)-tridec-4-enyl acetate; phases: Liquid, Gas
Property: Vapor or sublimation pressure, kPa (Liquid); method: Gas chromatography
Temperature, K	Vapor or sublimation pressure, kPa	uncertainty
298	.00012	
310	.00042	
320	.0011	
330	.0028	
340	.0065	
350	.0142	
360	.029	
370	.058	
380	.11	
390	.2	
400	.34	
410	.57	
420	.92	
430	1.5	
440	2.2	
450	3.3	
460	4.8	
470	6.9	
480	9.6	
490	13	
500	18	

System: (E)-tetradec-11-enyl acetate; phases: Liquid, Gas
Property: Molar enthalpy of vaporization or sublimation, kJ/mol (Liquid); method: Correlation gas chromatography
Temperature, K	Molar enthalpy of vaporization or sublimation, kJ/mol	uncertainty
298.15	89.6	3.5

System: (E)-tetradec-11-enyl acetate; phases: Liquid, Gas
Property: Vapor or sublimation pressure, kPa (Liquid); method: Gas chromatography
Temperature, K	Vapor or sublimation pressure, kPa	uncertainty
298.15	.000028	
310	.00011	
320	.00032	
330	.00086	
340	.0021	
350	.0049	
360	.011	
370	.022	
380	.044	
390	.084	
400	.15	
410	.27	
420	.45	
430	.73	
440	1.2	
450	1.8	
460	2.7	
470	3.9	
480	5.6	
490	7.8	
500	11	

System: (9E,11E)-tetradeca-9,11-dienyl acetate; phases: Liquid, Gas
Property: Molar enthalpy of vaporization or sublimation, kJ/mol (Liquid); method: Correlation gas chromatography
Temperature, K	Molar enthalpy of vaporization or sublimation, kJ/mol	uncertainty
298.15	92.3	3.6

System: (9E,11E)-tetradeca-9,11-dienyl acetate; phases: Liquid, Gas
Property: Vapor or sublimation pressure, kPa (Liquid); method: Gas chromatography
Temperature, K	Vapor or sublimation pressure, kPa	uncertainty
298.15	.000015	
310	.000063	
320	.00019	
330	.00051	
340	.0013	
350	.0031	
360	.007	
370	.015	
380	.03	
390	.058	
400	.11	
410	.19	
420	.33	
430	.54	
440	.87	
450	1.4	
460	2.1	
470	3	
480	4.4	
490	6.2	
500	8.6	

System: ethyl (S,2E,4E)-3,7,11-trimethyldodeca-2,4-dienoate; phases: Liquid, Gas
Property: Molar enthalpy of vaporization or sublimation, kJ/mol (Liquid); method: Correlation gas chromatography
Temperature, K	Molar enthalpy of vaporization or sublimation, kJ/mol	uncertainty
298.15	92.4	3.6

System: ethyl (S,2E,4E)-3,7,11-trimethyldodeca-2,4-dienoate; phases: Liquid, Gas
Property: Vapor or sublimation pressure, kPa (Liquid); method: Gas chromatography
Temperature, K	Vapor or sublimation pressure, kPa	uncertainty
298.15	.000014	
310	.000057	
320	.00017	
330	.00047	
340	.0012	
350	.0029	
360	.0065	
370	.014	
380	.028	
390	.054	
400	.1	
410	.18	
420	.3	
430	.5	
440	.81	
450	1.3	
460	1.9	
470	2.8	
480	4.1	
490	5.8	
500	8	

System: prop-2-ynyl (2E,4E)-3,7,11-trimethyldodeca-2,4-dienoate; phases: Liquid, Gas
Property: Molar enthalpy of vaporization or sublimation, kJ/mol (Liquid); method: Correlation gas chromatography
Temperature, K	Molar enthalpy of vaporization or sublimation, kJ/mol	uncertainty
298.15	98.1	3.7

System: prop-2-ynyl (2E,4E)-3,7,11-trimethyldodeca-2,4-dienoate; phases: Liquid, Gas
Property: Vapor or sublimation pressure, kPa (Liquid); method: Gas chromatography
Temperature, K	Vapor or sublimation pressure, kPa	uncertainty
298.15	.0000042	
310	.000019	
320	.000061	
330	.00018	
340	.00049	
350	.0012	
360	.0029	
370	.0065	
380	.014	
390	.028	
400	.053	
410	.098	
420	.17	
430	.29	
440	.49	
450	.78	
460	1.2	
470	1.8	
480	2.7	
490	3.9	
500	5.5	

System: (Z)-octadec-13-en-1-yl acetate; phases: Liquid, Gas
Property: Molar enthalpy of vaporization or sublimation, kJ/mol (Liquid); method: Correlation gas chromatography
Temperature, K	Molar enthalpy of vaporization or sublimation, kJ/mol	uncertainty
298.15	108.8	3.9

System: (Z)-octadec-13-en-1-yl acetate; phases: Liquid, Gas
Property: Vapor or sublimation pressure, kPa (Liquid); method: Gas chromatography
Temperature, K	Vapor or sublimation pressure, kPa	uncertainty
298.15	.00000041	
310	.0000022	
320	.0000082	
330	.000027	
340	.000083	
350	.00023	
360	.00061	
370	.0015	
380	.0034	
390	.0074	
400	.015	
410	.03	
420	.056	
430	.1	
440	.18	
450	.3	
460	.48	
470	.76	
480	1.2	
490	1.7	
500	2.5	
