Measured thermophysical data. Influence of Salt on the Solubility and Tie-Line Data for Water + Formic Acid + Methyl Isobutyl Ketone at T = 298.15 K
Source: J. Chem. Eng. Data, 2016, 10.1021/acs.jced.6b00109
Compound 1: formic acid, CH2O2, purity 99.0%
Compound 2: methyl isobutyl ketone, C6H12O, purity 99.5%
Compound 3: sodium chloride, ClNa, purity 99.0%
Compound 4: water, H2O, purity 99.9%

System: formic acid + methyl isobutyl ketone + water; phases: Liquid mixture 1, Liquid mixture 2
Fixed: Temperature, K = 298.15
Fixed: Pressure, kPa = 101.3
Property: Mass fraction of methyl isobutyl ketone (Liquid mixture 1); method: Titration method
Mass fraction of formic acid	Mass fraction of methyl isobutyl ketone	uncertainty
0	.0155	
.0432	.011	
.1023	.0105	
.1563	.0136	
.1891	.0194	
.208	.0227	
.2185	.0275	
.2391	.0414	
.2498	.0546	
.2563	.0671	
.2615	.083	
.2676	.0999	
.2709	.1239	
.2775	.1581	
.2805	.212	
.2741	.2708	
.2461	.3625	
.197	.4825	
.1309	.6423	
0	.9785	

System: formic acid + methyl isobutyl ketone + water; phases: Liquid mixture 1, Liquid mixture 2
Property: Mass fraction of methyl isobutyl ketone (Liquid mixture 1); method: Other
Property: Mass fraction of methyl isobutyl ketone (Liquid mixture 2); method: Other
Property: Mass fraction of formic acid (Liquid mixture 2); method: Other
Temperature, K	Pressure, kPa	Mass fraction of formic acid	Mass fraction of methyl isobutyl ketone	uncertainty	Mass fraction of methyl isobutyl ketone	uncertainty	Mass fraction of formic acid	uncertainty
298.15	101.3	.0173	.0141	.001	.8804	.001	.0392	.001
298.15	101.3	.0432	.0118	.001	.6943	.001	.1125	.001
298.15	101.3	.0604	.0109	.001	.6618	.001	.1239	.001
298.15	101.3	.0688	.0107	.001	.6241	.001	.1401	.001
298.15	101.3	.0795	.0105	.001	.5931	.001	.1515	.001
298.15	101.3	.0936	.0106	.001	.5455	.001	.1683	.001
298.15	101.3	.1084	.0089	.001	.5089	.001	.1838	.001
298.15	101.3	.142	.0113	.001	.4403	.001	.2123	.001
298.15	101.3	.1659	.0156	.001	.3822	.001	.2383	.001
298.15	101.3	.2005	.0227	.001	.3303	.001	.2538	.001
298.15	101.3	.2338	.0424	.001	.2914	.001	.268	.001
298.15	101.3	.0248	.0132	.001	.8189	.001	.0636	.001
298.15	101.3	.0285	.0141	.001	.7646	.001	.0848	.001
298.15	101.3	.0356	.0116	.001	.7329	.001	.0946	.001

System: methyl isobutyl ketone + water; phases: Liquid mixture 1, Liquid mixture 2
Property: Mass fraction of methyl isobutyl ketone (Liquid mixture 1); method: Titration method
Temperature, K	Pressure, kPa	Mass fraction of methyl isobutyl ketone	uncertainty
298.15	101.3	.0155	
298.15	101.3	.9785	
