Measured thermophysical data. Conductivities of 1-Alkyl-3-methylimidazolium Chloride Ionic Liquids in Disaccharide + Water Solutions at 298.15 K
Source: J. Chem. Eng. Data, 2016, 10.1021/acs.jced.6b00343
Compound 1: D-sucrose, C12H22O11, purity 99.5%
Compound 2: D-maltose, C12H22O11, purity 99.0%
Compound 3: 1-butyl-3-methylimidazolium chloride, C8H15ClN2, purity 99.0%
Compound 4: 1-hexyl-3-methylimidazolium chloride, C10H19ClN2, purity 99.0%
Compound 5: 1-octyl-3-methylimidazolium chloride, C12H23ClN2, purity 98.0%
Compound 6: 1-decyl-3-methylimidazolium chloride, C14H27ClN2, purity 99.0%
Compound 7: water, H2O, purity 99.9%

System: D-sucrose + water; phases: Liquid
Fixed: Temperature, K = 298.15
Fixed: Pressure, kPa = 101.325
Property: Mass density, kg/m3 (Liquid); method: Vibrating tube method
Molality, mol/kg of D-sucrose	Mass density, kg/m3	uncertainty
.2	1022.12	
.4	1045.2	
.6	1066.45	
.8	1086.02	
1	1104.17	
1.2	1121.02	

System: D-sucrose + water; phases: Liquid
Fixed: Temperature, K = 298.15
Fixed: Pressure, kPa = 101.325
Property: Viscosity, Pa*s (Liquid); method: Capillary tube (Ostwald; Ubbelohde) method
Molality, mol/kg of D-sucrose	Viscosity, Pa*s	uncertainty
.2	.001064	
.4	.001271	
.6	.001523	
.8	.001826	
1	.002196	
1.2	.002638	

System: D-sucrose + water; phases: Liquid
Fixed: Temperature, K = 298.15
Fixed: Pressure, kPa = 101.325
Fixed: Frequency, MHz = 0.01
Property: Relative permittivity at various frequencies (Liquid); method: Coaxial cylinder capacitor
Molality, mol/kg of D-sucrose	Relative permittivity at various frequencies	uncertainty
.2	77.3	
.4	76.2	
.6	75.1	
.8	74	
1	72.9	
1.2	71.8	

System: D-maltose + water; phases: Liquid
Fixed: Temperature, K = 298.15
Fixed: Pressure, kPa = 101.325
Property: Mass density, kg/m3 (Liquid); method: Vibrating tube method
Molality, mol/kg of D-maltose	Mass density, kg/m3	uncertainty
.2	1022.49	
.4	1045.2	
.6	1067.23	
.8	1087.05	
1	1105.41	
1.2	1122.46	

System: D-maltose + water; phases: Liquid
Fixed: Temperature, K = 298.15
Fixed: Pressure, kPa = 101.325
Property: Viscosity, Pa*s (Liquid); method: Capillary tube (Ostwald; Ubbelohde) method
Molality, mol/kg of D-maltose	Viscosity, Pa*s	uncertainty
.2	.001072	
.4	.001294	
.6	.001565	
.8	.001894	
1	.002289	
1.2	.002775	

System: D-maltose + water; phases: Liquid
Fixed: Temperature, K = 298.15
Fixed: Pressure, kPa = 101.325
Fixed: Frequency, MHz = 0.01
Property: Relative permittivity at various frequencies (Liquid); method: Coaxial cylinder capacitor
Molality, mol/kg of D-maltose	Relative permittivity at various frequencies	uncertainty
.2	76.2	
.4	74.9	
.6	73.6	
.8	72.3	
1	71	
1.2	69.7	

System: D-sucrose + water + 1-butyl-3-methylimidazolium chloride; phases: Liquid
Fixed: Temperature, K = 298.15
Fixed: Pressure, kPa = 101.325
Property: Electrical conductivity, S/m (Liquid); method: Alternating current cell with electrodes
Solvent: Molality, mol/kg of D-sucrose	Molality, mol/kg of 1-butyl-3-methylimidazolium chloride	Electrical conductivity, S/m	uncertainty
0	.0004833	.00583	
0	.0006706	.00794	
0	.0008243	.00965	
0	.0009474	.01101	
0	.001075	.01241	
0	.001201	.01378	
0	.00133	.0152	
0	.001443	.01642	
0	.001567	.01775	
0	.001681	.01897	
.2	.0005711	.00618	
.2	.0007473	.00795	
.2	.0009229	.0097	
.2	.001085	.0113	
.2	.001256	.01299	
.2	.001412	.01452	
.2	.001576	.01612	
.2	.001727	.01758	
.2	.001873	.01899	
.4	.0004035	.00407	
.4	.0005911	.00576	
.4	.0007824	.00748	
.4	.0009532	.009	
.4	.001118	.01046	
.4	.001271	.01181	
.4	.001423	.01315	
.4	.001565	.01439	
.4	.001709	.01564	
.4	.001849	.01686	
.6	.000452	.00386	
.6	.001121	.00888	
.6	.001414	.01101	
.6	.001618	.01247	
.6	.001846	.01408	
.6	.002047	.01548	
.6	.002248	.01687	
.6	.00245	.01825	
.6	.00264	.01954	
.8	.0004582	.00348	
.8	.0007033	.00514	
.8	.0009322	.00667	
.8	.00117	.00823	
.8	.001398	.00971	
.8	.00161	.01107	
.8	.001815	.01237	
.8	.002025	.0137	
.8	.002231	.01497	
.8	.00243	.01621	
.8	.002644	.01751	
1	.0005208	.00351	
1	.0007753	.00504	
1	.0009877	.00631	
1	.001215	.00764	
1	.001448	.00899	
1	.001714	.01052	
1	.00195	.01185	
1	.002216	.01333	
1	.002487	.01483	
1	.002755	.0163	
1	.003003	.01764	
1.2	.0005405	.00326	
1.2	.0008314	.00482	
1.2	.001134	.00641	
1.2	.001439	.008	
1.2	.001746	.00957	
1.2	.002035	.01103	
1.2	.002313	.01241	
1.2	.002581	.01374	
1.2	.002844	.01502	
1.2	.00309	.01621	
1.2	.003341	.01741	

System: D-maltose + water + 1-butyl-3-methylimidazolium chloride; phases: Liquid
Fixed: Temperature, K = 298.15
Fixed: Pressure, kPa = 101.325
Property: Electrical conductivity, S/m (Liquid); method: Alternating current cell with electrodes
Solvent: Molality, mol/kg of D-maltose	Molality, mol/kg of 1-butyl-3-methylimidazolium chloride	Electrical conductivity, S/m	uncertainty
.2	.0002756	.00303	
.2	.0004372	.00457	
.2	.0006159	.00625	
.2	.0007903	.00787	
.2	.0009591	.00941	
.2	.001136	.011	
.2	.00129	.01239	
.2	.001447	.01377	
.2	.001609	.01519	
.2	.001767	.01655	
.2	.001918	.01785	
.4	.0003858	.00369	
.4	.000581	.00532	
.4	.0007735	.00691	
.4	.0009752	.00855	
.4	.00117	.01011	
.4	.001369	.0117	
.4	.00158	.01336	
.4	.001783	.01493	
.4	.002001	.01661	
.4	.002204	.01815	
.6	.0003512	.0031	
.6	.0005329	.00447	
.6	.0007259	.0059	
.6	.000909	.00725	
.6	.00111	.0087	
.6	.001331	.01028	
.6	.001549	.01182	
.6	.001764	.01332	
.6	.001991	.01489	
.6	.002206	.01635	
.6	.00242	.01779	
.8	.0004612	.00364	
.8	.0006993	.0052	
.8	.0009238	.00666	
.8	.00116	.00817	
.8	.001421	.00982	
.8	.00167	.01136	
.8	.001929	.01296	
.8	.002191	.01456	
.8	.002446	.01611	
1	.0003013	.00235	
1	.0006018	.00413	
1	.0009006	.00587	
1	.0012	.0076	
1	.001488	.00922	
1	.00176	.01074	
1	.002046	.01232	
1	.002326	.01385	
1	.0026	.01534	
1	.002849	.01667	
1	.003109	.01804	
1.2	.0005431	.00344	
1.2	.0008243	.00491	
1.2	.001124	.00645	
1.2	.001413	.00792	
1.2	.001721	.00946	
1.2	.001998	.01083	
1.2	.00227	.01217	
1.2	.002532	.01344	
1.2	.002778	.01463	
1.2	.003005	.01571	
0	.0004833	.00583	
0	.0006706	.00794	
0	.0008243	.00965	
0	.0009474	.01101	
0	.001075	.01241	
0	.001201	.01378	
0	.00133	.0152	
0	.001443	.01642	
0	.001567	.01775	
0	.001681	.01897	

System: D-sucrose + water + 1-hexyl-3-methylimidazolium chloride; phases: Liquid
Fixed: Temperature, K = 298.15
Fixed: Pressure, kPa = 101.325
Property: Electrical conductivity, S/m (Liquid); method: Alternating current cell with electrodes
Solvent: Molality, mol/kg of D-sucrose	Molality, mol/kg of 1-hexyl-3-methylimidazolium chloride	Electrical conductivity, S/m	uncertainty
0	.0002349	.00276	
0	.0003948	.00451	
0	.0005604	.00631	
0	.0007176	.008	
0	.0008609	.00953	
0	.001019	.01121	
0	.001174	.01286	
0	.001328	.01448	
0	.001472	.01597	
0	.00162	.01752	
.2	.0004193	.00433	
.2	.0006122	.00611	
.2	.0007955	.00778	
.2	.0009718	.00936	
.2	.001148	.01092	
.2	.001319	.01242	
.2	.001487	.01389	
.2	.001656	.01532	
.2	.001819	.0167	
.2	.00197	.01798	
.4	.0003301	.00314	
.4	.0004973	.00459	
.4	.0006636	.00603	
.4	.0008354	.00749	
.4	.000997	.00888	
.4	.00114	.0101	
.4	.001282	.01131	
.4	.001433	.01258	
.4	.001579	.01381	
.4	.001743	.01517	
.6	.0003716	.00313	
.6	.0005471	.00442	
.6	.000708	.00559	
.6	.0008704	.00676	
.6	.001027	.00787	
.6	.001179	.00894	
.6	.001327	.00998	
.6	.001459	.01089	
.6	.001602	.01187	
.6	.001733	.01277	
.8	.0004654	.00345	
.8	.0006813	.00495	
.8	.0008937	.00641	
.8	.001098	.00781	
.8	.001282	.00905	
.8	.001452	.0102	
.8	.001624	.01135	
.8	.001792	.01248	
.8	.001955	.01356	
.8	.002126	.01469	
1	.0003895	.00262	
1	.0005631	.0037	
1	.0007307	.00474	
1	.000889	.00571	
1	.00103	.00658	
1	.001184	.00751	
1	.001321	.00835	
1	.001459	.00918	
1	.001575	.00987	
1	.001703	.01064	
1.2	.0004568	.00274	
1.2	.0008155	.00461	
1.2	.001156	.00635	
1.2	.00151	.00812	
1.2	.001806	.00958	
1.2	.002142	.01122	
1.2	.002446	.01268	
1.2	.00272	.01397	
1.2	.003032	.01543	
1.2	.003348	.01688	
1.2	.003661	.01832	

System: D-sucrose + water + 1-octyl-3-methylimidazolium chloride; phases: Liquid
Fixed: Temperature, K = 298.15
Fixed: Pressure, kPa = 101.325
Property: Electrical conductivity, S/m (Liquid); method: Alternating current cell with electrodes
Solvent: Molality, mol/kg of D-sucrose	Molality, mol/kg of 1-octyl-3-methylimidazolium chloride	Electrical conductivity, S/m	uncertainty
0	.0002751	.00314	
0	.0004181	.00467	
0	.0005559	.00613	
0	.0006918	.00756	
0	.0008221	.00893	
0	.0009525	.01029	
0	.001082	.01163	
0	.001208	.01295	
0	.001345	.01436	
0	.00148	.01575	
0	.001631	.0173	
.2	.0006561	.00669	
.2	.0008275	.00832	
.2	.0009916	.00988	
.2	.001158	.01144	
.2	.001314	.0129	
.2	.001478	.01443	
.2	.001638	.01592	
.2	.001785	.01727	
.2	.001935	.01865	
.4	.0006163	.00531	
.4	.0007978	.00676	
.4	.0009798	.00821	
.4	.001165	.00967	
.4	.001346	.0111	
.4	.001516	.01242	
.4	.001673	.01365	
.4	.001829	.01487	
.4	.001987	.01608	
.4	.002108	.01701	
.6	.000378	.00311	
.6	.0006027	.00472	
.6	.0008172	.00623	
.6	.001015	.00762	
.6	.001211	.00898	
.6	.001404	.0103	
.6	.001586	.01155	
.6	.001758	.01272	
.6	.001925	.01385	
.6	.002087	.01494	
.6	.002242	.01598	
.8	.0004166	.00302	
.8	.0006219	.00432	
.8	.0008224	.00559	
.8	.001012	.00678	
.8	.001201	.00795	
.8	.001385	.00908	
.8	.001552	.0101	
.8	.001716	.0111	
.8	.001882	.0121	
.8	.002052	.01312	
1	.0003222	.00219	
1	.0006322	.00393	
1	.0009233	.00554	
1	.001198	.00705	
1	.001461	.00848	
1	.00174	.00996	
1	.00199	.01128	
1	.002256	.01268	
1	.002495	.01393	
1	.002734	.01517	
1.2	.000444	.00257	
1.2	.0007942	.0043	
1.2	.001096	.00578	
1.2	.00139	.00721	
1.2	.001673	.00858	
1.2	.001928	.00981	
1.2	.002191	.01105	
1.2	.002437	.01221	
1.2	.00267	.01329	
1.2	.002882	.01426	

System: D-sucrose + water + 1-decyl-3-methylimidazolium chloride; phases: Liquid
Fixed: Temperature, K = 298.15
Fixed: Pressure, kPa = 101.325
Property: Electrical conductivity, S/m (Liquid); method: Alternating current cell with electrodes
Solvent: Molality, mol/kg of D-sucrose	Molality, mol/kg of 1-decyl-3-methylimidazolium chloride	Electrical conductivity, S/m	uncertainty
0	.0003586	.00385	
0	.0005298	.00548	
0	.0007002	.00708	
0	.000878	.00872	
0	.001051	.0103	
0	.001221	.01182	
0	.001391	.01334	
0	.001554	.01476	
0	.001716	.0162	
0	.001878	.01759	
.2	.000372	.00361	
.2	.0006056	.00554	
.2	.001036	.00901	
.2	.001234	.01057	
.2	.001441	.01214	
.2	.001632	.01363	
.2	.001855	.01531	
.2	.002055	.0168	
.2	.002271	.0184	
.4	.0002429	.00234	
.4	.0004608	.0041	
.4	.0006855	.00589	
.4	.0008928	.00752	
.4	.001089	.00905	
.4	.001288	.01059	
.4	.001477	.01205	
.4	.001661	.01345	
.4	.001836	.01479	
.4	.002005	.01606	
.6	.0004106	.00336	
.6	.0005952	.00469	
.6	.0007753	.00596	
.6	.00094	.00712	
.6	.001111	.00828	
.6	.001267	.00939	
.6	.001422	.01046	
.6	.001556	.01139	
.6	.00171	.01244	
.6	.00185	.0134	
.8	.0003737	.00279	
.8	.000543	.00388	
.8	.0007055	.00491	
.8	.0008778	.00599	
.8	.001018	.00688	
.8	.001167	.0078	
.8	.001319	.00874	
.8	.001448	.00953	
.8	.001592	.01042	
.8	.00172	.01121	
1	.0004429	.00291	
1	.0006477	.00407	
1	.0008416	.00515	
1	.001018	.00614	
1	.0012	.00714	
1	.001376	.0081	
1	.00153	.00895	
1	.001697	.00985	
1	.001858	.01073	
1.2	.0003686	.00224	
1.2	.0005057	.00294	
1.2	.0006588	.00371	
1.2	.0008213	.00452	
1.2	.0009872	.00534	
1.2	.001126	.00602	
1.2	.001289	.00682	
1.2	.001425	.00749	
1.2	.001549	.00809	
1.2	.001714	.00889	

System: water + 1-butyl-3-methylimidazolium chloride; phases: Liquid
Property: Electrical conductivity, S/m (Liquid); method: Alternating current cell with electrodes
Molality, mol/kg of 1-butyl-3-methylimidazolium chloride	Temperature, K	Pressure, kPa	Electrical conductivity, S/m	uncertainty
.0004833	298.15	101.325	.00583	
.0006706	298.15	101.325	.00794	
.0008243	298.15	101.325	.00965	
.0009474	298.15	101.325	.01101	
.001075	298.15	101.325	.01241	
.001201	298.15	101.325	.01378	
.00133	298.15	101.325	.0152	
.001443	298.15	101.325	.01642	
.001567	298.15	101.325	.01775	
.001681	298.15	101.325	.01897	

System: water + 1-hexyl-3-methylimidazolium chloride; phases: Liquid
Property: Electrical conductivity, S/m (Liquid); method: Alternating current cell with electrodes
Molality, mol/kg of 1-hexyl-3-methylimidazolium chloride	Temperature, K	Pressure, kPa	Electrical conductivity, S/m	uncertainty
.0002349	298.15	101.325	.00276	
.0003948	298.15	101.325	.00451	
.0005604	298.15	101.325	.00631	
.0007176	298.15	101.325	.008	
.0008609	298.15	101.325	.00953	
.001019	298.15	101.325	.01121	
.001174	298.15	101.325	.01286	
.001328	298.15	101.325	.01448	
.001472	298.15	101.325	.01597	
.00162	298.15	101.325	.01752	

System: water + 1-octyl-3-methylimidazolium chloride; phases: Liquid
Property: Electrical conductivity, S/m (Liquid); method: Alternating current cell with electrodes
Molality, mol/kg of 1-octyl-3-methylimidazolium chloride	Temperature, K	Pressure, kPa	Electrical conductivity, S/m	uncertainty
.0002751	298.15	101.325	.00314	
.0004181	298.15	101.325	.00467	
.0005559	298.15	101.325	.00613	
.0006918	298.15	101.325	.00756	
.0008221	298.15	101.325	.00893	
.0009525	298.15	101.325	.01029	
.001082	298.15	101.325	.01163	
.001208	298.15	101.325	.01295	
.001345	298.15	101.325	.01436	
.00148	298.15	101.325	.01575	
.001631	298.15	101.325	.0173	

System: water + 1-decyl-3-methylimidazolium chloride; phases: Liquid
Property: Electrical conductivity, S/m (Liquid); method: Alternating current cell with electrodes
Molality, mol/kg of 1-decyl-3-methylimidazolium chloride	Temperature, K	Pressure, kPa	Electrical conductivity, S/m	uncertainty
.0003586	298.15	101.325	.00385	
.0005298	298.15	101.325	.00548	
.0007002	298.15	101.325	.00708	
.000878	298.15	101.325	.00872	
.001051	298.15	101.325	.0103	
.001221	298.15	101.325	.01182	
.001391	298.15	101.325	.01334	
.001554	298.15	101.325	.01476	
.001716	298.15	101.325	.0162	
.001878	298.15	101.325	.01759	
