Measured thermophysical data. Isobaric Vapor Liquid Equilibria for (Water + 1-Methoxy-2-propanol), (Water + 2-Methoxy-1-propanol), and (1-Methoxy-2-propanol + 2-Methoxy-1-propanol) at 101.3 kPa
Source: J. Chem. Eng. Data, 2017, 10.1021/acs.jced.6b00895
Compound 1: 1-methoxy-2-propanol, C4H10O2
Compound 2: 2-methoxy-1-propanol, C4H10O2
Compound 3: 2-methoxyethanol, C3H8O2
Compound 4: water, H2O, purity 99.8%

System: 1-methoxy-2-propanol; phases: Liquid, Gas
Property: Vapor or sublimation pressure, kPa (Liquid); method: Ebulliometric method (Recirculating still)
Temperature, K	Vapor or sublimation pressure, kPa	uncertainty
393.15	101.3	

System: 2-methoxy-1-propanol; phases: Liquid, Gas
Property: Vapor or sublimation pressure, kPa (Liquid); method: Ebulliometric method (Recirculating still)
Temperature, K	Vapor or sublimation pressure, kPa	uncertainty
402.65	101.3	

System: 2-methoxyethanol; phases: Liquid, Gas
Property: Vapor or sublimation pressure, kPa (Liquid); method: Ebulliometric method (Recirculating still)
Temperature, K	Vapor or sublimation pressure, kPa	uncertainty
397.67	101.3	

System: water; phases: Liquid, Gas
Property: Vapor or sublimation pressure, kPa (Liquid); method: Ebulliometric method (Recirculating still)
Temperature, K	Vapor or sublimation pressure, kPa	uncertainty
373.19	101.3	

System: 2-methoxyethanol + water; phases: Liquid, Gas
Fixed: Pressure, kPa = 101.3
Property: Boiling temperature at pressure P, K (Liquid); method: Ebulliometric method (Recirculating still)
Mole fraction of 2-methoxyethanol	Boiling temperature at pressure P, K	uncertainty
1	397.67	
.9677	396.02	
.824	388.51	
.6484	381.98	
.5215	378.32	
.4236	376.2	
.3415	375.15	
.2283	374.05	
.1664	373.55	
.071	373.45	
0	373.19	

System: 2-methoxyethanol + water; phases: Gas, Liquid
Fixed: Pressure, kPa = 101.3
Property: Mole fraction of 2-methoxyethanol (Gas); method: Chromatography
Mole fraction of 2-methoxyethanol	Mole fraction of 2-methoxyethanol	uncertainty
1	1	
.9677	.9073	
.824	.6011	
.6484	.4064	
.5215	.3012	
.4236	.2342	
.3415	.2009	
.2283	.1464	
.1664	.1283	
.071	.0712	
0	0	

System: 1-methoxy-2-propanol + water; phases: Liquid, Gas
Fixed: Pressure, kPa = 101.3
Property: Boiling temperature at pressure P, K (Liquid); method: Ebulliometric method (Recirculating still)
Mole fraction of 1-methoxy-2-propanol	Boiling temperature at pressure P, K	uncertainty
1	393.15	
.989	391.41	
.8297	380.19	
.7473	378.19	
.6701	375.49	
.4656	371.93	
.334	370.92	
.2404	370.69	
.2089	370.57	
.1692	370.61	
.1439	370.7	
.1193	370.82	
.075	371.18	
.0441	371.68	
.0198	372.61	
0	373.19	

System: 1-methoxy-2-propanol + water; phases: Gas, Liquid
Fixed: Pressure, kPa = 101.3
Property: Mole fraction of 1-methoxy-2-propanol (Gas); method: Chromatography
Mole fraction of 1-methoxy-2-propanol	Mole fraction of 1-methoxy-2-propanol	uncertainty
1	1	
.989	.949	
.8297	.5405	
.7473	.4617	
.6701	.3982	
.4656	.2943	
.334	.2435	
.2404	.2136	
.2089	.1984	
.1692	.1741	
.1439	.164	
.1193	.1605	
.075	.1134	
.0441	.1018	
.0198	.0548	
0	0	

System: 2-methoxy-1-propanol + water; phases: Liquid, Gas
Fixed: Pressure, kPa = 101.3
Property: Boiling temperature at pressure P, K (Liquid); method: Ebulliometric method (Recirculating still)
Mole fraction of 2-methoxy-1-propanol	Boiling temperature at pressure P, K	uncertainty
1	402.65	
.9612	398.27	
.8625	389	
.7936	384.2	
.7219	379.96	
.6694	377.61	
.6275	376.26	
.5659	375.6	
.5117	375.18	
.4237	374.1	
.3887	373.99	
.3062	373.63	
.2795	373.42	
.2506	373.21	
.2029	373.02	
.133	372.75	
.0922	372.61	
.0564	372.57	
.0013	373.16	
0	373.19	

System: 2-methoxy-1-propanol + water; phases: Gas, Liquid
Fixed: Pressure, kPa = 101.3
Property: Mole fraction of 2-methoxy-1-propanol (Gas); method: Chromatography
Mole fraction of 2-methoxy-1-propanol	Mole fraction of 2-methoxy-1-propanol	uncertainty
1	1	
.9612	.8345	
.8625	.5646	
.7936	.4398	
.7219	.3528	
.6694	.3146	
.6275	.2822	
.5659	.2588	
.5117	.2399	
.4237	.1901	
.3887	.1699	
.3062	.1464	
.2795	.1383	
.2506	.129	
.2029	.119	
.133	.1034	
.0922	.0899	
.0564	.0785	
.0013	.0022	
0	0	

System: 1-methoxy-2-propanol + 2-methoxy-1-propanol; phases: Liquid, Gas
Fixed: Pressure, kPa = 101.3
Property: Boiling temperature at pressure P, K (Liquid); method: Ebulliometric method (Recirculating still)
Mole fraction of 1-methoxy-2-propanol	Boiling temperature at pressure P, K	uncertainty
1	393.15	
.9266	393.84	
.8966	394.26	
.8862	394.58	
.8353	395.11	
.7803	395.73	
.7387	396.03	
.7337	396.06	
.6493	397	
.6006	397.37	
.5923	397.46	
.559	397.8	
.5103	398.25	
.4404	398.9	
.395	399.33	
.3396	399.9	
.3041	400.22	
.2769	400.48	
.2148	400.96	
.1663	401.48	
.1451	401.69	
.0903	402.16	
0	402.65	

System: 1-methoxy-2-propanol + 2-methoxy-1-propanol; phases: Gas, Liquid
Fixed: Pressure, kPa = 101.3
Property: Mole fraction of 1-methoxy-2-propanol (Gas); method: Chromatography
Mole fraction of 1-methoxy-2-propanol	Mole fraction of 1-methoxy-2-propanol	uncertainty
1	1	
.9266	.9524	
.8966	.9303	
.8862	.9213	
.8353	.8812	
.7803	.8344	
.7387	.7989	
.7337	.7955	
.6493	.7199	
.6006	.6729	
.5923	.6667	
.559	.6348	
.5103	.589	
.4404	.5177	
.395	.47	
.3396	.4106	
.3041	.3689	
.2769	.3358	
.2148	.2621	
.1663	.1985	
.1451	.1702	
.0903	.101	
0	0	
