Measured thermophysical data. Thermophysical Characterization of the Mixtures of the Ionic Liquid 1-Ethyl-3-Methylimidazolium Acetate with 1-Propanol or 2-Propanol
Source: J. Chem. Eng. Data, 2016, 10.1021/acs.jced.5b01023
Compound 1: 1-propanol, C3H8O, purity 99.9%
Compound 2: 2-propanol, C3H8O, purity 99.5%
Compound 3: methanol, CH4O, purity 99.5%
Compound 4: 1-ethyl-3-methylimidazolium acetate, C8H14N2O2, purity 95%

System: 1-propanol; phases: Liquid
Property: Mass density, kg/m3 (Liquid); method: Vibrating tube method
Temperature, K	Pressure, kPa	Mass density, kg/m3	uncertainty
288.15	101	807.55	
298.15	101	799.56	
308.15	101	791.46	
318.15	101	783.2	
328.15	101	774.72	
338.15	101	765.98	
348.15	101	756.91	

System: 1-propanol; phases: Liquid
Property: Viscosity, Pa*s (Liquid); method: Capillary tube (Ostwald; Ubbelohde) method
Temperature, K	Pressure, kPa	Viscosity, Pa*s	uncertainty
288.15	101	.002506	
298.15	101	.001952	
308.15	101	.001545	
318.15	101	.001238	
328.15	101	.001006	
338.15	101	.000824	
348.15	101	.000684	

System: 1-propanol; phases: Liquid
Property: Refractive index (Na D-line) (Liquid); method: Standard Abbe refractometry
Temperature, K	Pressure, kPa	Refractive index (Na D-line)	uncertainty
288.15	101	1.38694	
298.15	101	1.38303	
308.15	101	1.37914	
318.15	101	1.375	
328.15	101	1.37075	
338.15	101	1.36667	
348.15	101	1.36201	

System: 1-propanol; phases: Liquid, Air at 1 atmosphere
Property: Surface tension liquid-gas, N/m (Liquid); method: Wilhelmy plates
Temperature, K	Surface tension liquid-gas, N/m	uncertainty
288.15	.0239	
298.15	.0234	
308.15	.0224	
318.15	.022	
328.15	.0209	
338.15	.0197	
348.15	.019	

System: 2-propanol; phases: Liquid
Property: Mass density, kg/m3 (Liquid); method: Vibrating tube method
Temperature, K	Pressure, kPa	Mass density, kg/m3	uncertainty
288.15	101	789.18	
298.15	101	780.84	
308.15	101	772.23	
318.15	101	763.27	
328.15	101	753.89	
338.15	101	744.02	

System: 2-propanol; phases: Liquid
Property: Viscosity, Pa*s (Liquid); method: Capillary tube (Ostwald; Ubbelohde) method
Temperature, K	Pressure, kPa	Viscosity, Pa*s	uncertainty
288.15	101	.002752	
298.15	101	.002018	
308.15	101	.001507	
318.15	101	.00115	
328.15	101	.000895	
338.15	101	.000704	

System: 2-propanol; phases: Liquid
Property: Refractive index (Na D-line) (Liquid); method: Standard Abbe refractometry
Temperature, K	Pressure, kPa	Refractive index (Na D-line)	uncertainty
288.15	101	1.37933	
298.15	101	1.37517	
308.15	101	1.37093	
318.15	101	1.36643	
328.15	101	1.36173	
338.15	101	1.35682	

System: 2-propanol; phases: Liquid, Air at 1 atmosphere
Property: Surface tension liquid-gas, N/m (Liquid); method: Wilhelmy plates
Temperature, K	Surface tension liquid-gas, N/m	uncertainty
288.15	.0216	
298.15	.0212	
308.15	.0205	
318.15	.0196	
328.15	.0187	
338.15	.0174	

System: methanol; phases: Liquid, Air at 1 atmosphere
Property: Surface tension liquid-gas, N/m (Liquid); method: Wilhelmy plate
Temperature, K	Surface tension liquid-gas, N/m	uncertainty
278.2	.0238	
288.2	.0236	
298.2	.0227	
308.2	.0219	
318.2	.021	

System: 1-ethyl-3-methylimidazolium acetate; phases: Liquid
Property: Mass density, kg/m3 (Liquid); method: Vibrating tube method
Temperature, K	Pressure, kPa	Mass density, kg/m3	uncertainty
288.15	101	1105.2	
298.15	101	1099.03	
308.15	101	1092.93	
318.15	101	1086.86	
328.15	101	1080.82	
338.15	101	1074.83	
348.15	101	1068.88	

System: 1-ethyl-3-methylimidazolium acetate; phases: Liquid
Property: Viscosity, Pa*s (Liquid); method: Capillary tube (Ostwald; Ubbelohde) method
Temperature, K	Pressure, kPa	Viscosity, Pa*s	uncertainty
288.15	101	.2838	
298.15	101	.139	
308.15	101	.07732	
318.15	101	.04737	
328.15	101	.03129	
338.15	101	.02185	
348.15	101	.01601	

System: 1-ethyl-3-methylimidazolium acetate; phases: Liquid
Property: Refractive index (Na D-line) (Liquid); method: Standard Abbe refractometry
Temperature, K	Pressure, kPa	Refractive index (Na D-line)	uncertainty
288.15	101	1.50285	
298.15	101	1.50069	
308.15	101	1.49803	
318.15	101	1.49527	
328.15	101	1.49266	
338.15	101	1.48995	
348.15	101	1.48721	

System: 1-ethyl-3-methylimidazolium acetate; phases: Liquid, Air at 1 atmosphere
Property: Surface tension liquid-gas, N/m (Liquid); method: Wilhelmy plates
Temperature, K	Surface tension liquid-gas, N/m	uncertainty
288.15	.0477	
298.15	.0471	
308.15	.0466	
318.15	.0461	
328.15	.0459	
338.15	.0454	
348.15	.0451	
308.15	.0461	
278.2	.0481	
288.2	.0477	
298.2	.0471	
308.2	.0466	
318.2	.0461	

System: 1-propanol + 1-ethyl-3-methylimidazolium acetate; phases: Liquid
Fixed: Pressure, kPa = 101
Property: Mass density, kg/m3 (Liquid); method: Vibrating tube method
Temperature, K	Mole fraction of 1-ethyl-3-methylimidazolium acetate	Mass density, kg/m3	uncertainty
288.15	0	807.55	
288.15	.1017	869.4	
288.15	.2004	915.48	
288.15	.3001	953.82	
288.15	.3998	986.05	
288.15	.4997	1013.52	
288.15	.5996	1037.16	
288.15	.6998	1057.65	
288.15	.8002	1075.6	
288.15	.8991	1090.97	
288.15	1	1105.2	
298.15	0	799.56	
298.15	.1017	862.03	
298.15	.2004	908.4	
298.15	.3001	946.94	
298.15	.3998	979.34	
298.15	.4997	1006.95	
298.15	.5996	1030.7	
298.15	.6998	1051.29	
298.15	.8002	1069.33	
298.15	.8991	1084.89	
298.15	1	1099.03	
308.15	0	791.46	
308.15	.1017	854.63	
308.15	.2004	901.33	
308.15	.3001	940.1	
308.15	.3998	972.66	
308.15	.4997	1000.41	
308.15	.5996	1024.28	
308.15	.6998	1044.96	
308.15	.8002	1063.09	
308.15	.8991	1078.75	
308.15	1	1092.93	
318.15	0	783.2	
318.15	.1017	847.19	
318.15	.2004	894.27	
318.15	.3001	933.29	
318.15	.3998	966.03	
318.15	.4997	993.92	
318.15	.5996	1017.9	
318.15	.6998	1038.68	
318.15	.8002	1056.89	
318.15	.8991	1072.62	
318.15	1	1086.86	
328.15	0	774.72	
328.15	.1017	839.68	
328.15	.2004	887.21	
328.15	.3001	926.51	
328.15	.3998	959.44	
328.15	.4997	987.48	
328.15	.5996	1011.58	
328.15	.6998	1032.45	
328.15	.8002	1050.74	
328.15	.8991	1066.53	
328.15	1	1080.82	
338.15	0	765.98	
338.15	.1017	832.08	
338.15	.2004	880.13	
338.15	.3001	919.75	
338.15	.3998	952.89	
338.15	.4997	981.08	
338.15	.5996	1005.3	
338.15	.6998	1026.26	
338.15	.8002	1044.63	
338.15	.8991	1060.48	
338.15	1	1074.83	
348.15	0	756.91	
348.15	.1017	824.34	
348.15	.2004	873.02	
348.15	.3001	912.99	
348.15	.3998	946.36	
348.15	.4997	974.71	
348.15	.5996	999.06	
348.15	.6998	1020.12	
348.15	.8002	1038.57	
348.15	.8991	1054.49	
348.15	1	1068.88	

System: 1-propanol + 1-ethyl-3-methylimidazolium acetate; phases: Liquid
Fixed: Pressure, kPa = 101
Property: Viscosity, Pa*s (Liquid); method: Capillary tube (Ostwald; Ubbelohde) method
Temperature, K	Mole fraction of 1-ethyl-3-methylimidazolium acetate	Viscosity, Pa*s	uncertainty
288.15	0	.002506	
288.15	.1017	.004866	
288.15	.2004	.00799	
288.15	.3001	.01336	
288.15	.3998	.02226	
288.15	.4997	.03638	
288.15	.5996	.05747	
288.15	.6998	.09015	
288.15	.8002	.135	
288.15	.8991	.1968	
288.15	1	.2838	
298.15	0	.001952	
298.15	.1017	.003822	
298.15	.2004	.006163	
298.15	.3001	.009963	
298.15	.3998	.01581	
298.15	.4997	.02444	
298.15	.5996	.03648	
298.15	.6998	.05365	
298.15	.8002	.07563	
298.15	.8991	.1039	
298.15	1	.139	
308.15	0	.001545	
308.15	.1017	.003038	
308.15	.2004	.004878	
308.15	.3001	.007657	
308.15	.3998	.0117	
308.15	.4997	.0173	
308.15	.5996	.02475	
308.15	.6998	.03459	
308.15	.8002	.04649	
308.15	.8991	.06098	
308.15	1	.07732	
318.15	0	.001238	
318.15	.1017	.002461	
318.15	.2004	.003952	
318.15	.3001	.006043	
318.15	.3998	.008961	
318.15	.4997	.01278	
318.15	.5996	.01758	
318.15	.6998	.02368	
318.15	.8002	.03086	
318.15	.8991	.03798	
318.15	1	.04737	
328.15	0	.001006	
328.15	.1017	.002018	
328.15	.2004	.003268	
328.15	.3001	.004878	
328.15	.3998	.00705	
328.15	.4997	.009766	
328.15	.5996	.01301	
328.15	.6998	.01705	
328.15	.8002	.02136	
328.15	.8991	.02584	
328.15	1	.03129	
338.15	0	.000824	
338.15	.1017	.00168	
338.15	.2004	.002686	
338.15	.3001	.003946	
338.15	.3998	.005672	
338.15	.4997	.007675	
338.15	.5996	.009978	
338.15	.6998	.01268	
338.15	.8002	.01557	
338.15	.8991	.01849	
338.15	1	.02185	
348.15	0	.000684	
348.15	.1017	.001413	
348.15	.2004	.00226	
348.15	.3001	.003292	
348.15	.3998	.004651	
348.15	.4997	.006175	
348.15	.5996	.007866	
348.15	.6998	.00981	
348.15	.8002	.01181	
348.15	.8991	.01378	
348.15	1	.01601	

System: 1-propanol + 1-ethyl-3-methylimidazolium acetate; phases: Liquid
Fixed: Pressure, kPa = 101
Property: Refractive index (Na D-line) (Liquid); method: Standard Abbe refractometry
Temperature, K	Mole fraction of 1-ethyl-3-methylimidazolium acetate	Refractive index (Na D-line)	uncertainty
288.15	0	1.38694	
288.15	.1017	1.41146	
288.15	.2004	1.42938	
288.15	.3001	1.44451	
288.15	.3998	1.45711	
288.15	.4997	1.46775	
288.15	.5996	1.47687	
288.15	.6998	1.485	
288.15	.8002	1.49189	
288.15	.8991	1.49712	
288.15	1	1.50285	
298.15	0	1.38303	
298.15	.1017	1.40825	
298.15	.2004	1.42622	
298.15	.3001	1.44134	
298.15	.3998	1.45401	
298.15	.4997	1.46473	
298.15	.5996	1.47411	
298.15	.6998	1.48219	
298.15	.8002	1.48919	
298.15	.8991	1.49506	
298.15	1	1.50069	
308.15	0	1.37914	
308.15	.1017	1.40453	
308.15	.2004	1.42291	
308.15	.3001	1.43827	
308.15	.3998	1.45119	
308.15	.4997	1.46189	
308.15	.5996	1.47127	
308.15	.6998	1.47942	
308.15	.8002	1.48632	
308.15	.8991	1.49221	
308.15	1	1.49803	
318.15	0	1.375	
318.15	.1017	1.40109	
318.15	.2004	1.41973	
318.15	.3001	1.43523	
318.15	.3998	1.44803	
318.15	.4997	1.45888	
318.15	.5996	1.4683	
318.15	.6998	1.47661	
318.15	.8002	1.48365	
318.15	.8991	1.48899	
318.15	1	1.49527	
328.15	0	1.37075	
328.15	.1017	1.39753	
328.15	.2004	1.41631	
328.15	.3001	1.43208	
328.15	.3998	1.44542	
328.15	.4997	1.45593	
328.15	.5996	1.4657	
328.15	.6998	1.47372	
328.15	.8002	1.48089	
328.15	.8991	1.48673	
328.15	1	1.49266	
338.15	0	1.36667	
338.15	.1017	1.39391	
338.15	.2004	1.41301	
338.15	.3001	1.4291	
338.15	.3998	1.44211	
338.15	.4997	1.45308	
338.15	.5996	1.46267	
338.15	.6998	1.4711	
338.15	.8002	1.47818	
338.15	.8991	1.48324	
338.15	1	1.48995	
348.15	0	1.36201	
348.15	.1017	1.39115	
348.15	.2004	1.41033	
348.15	.3001	1.42601	
348.15	.3998	1.43912	
348.15	.4997	1.45026	
348.15	.5996	1.45993	
348.15	.6998	1.46823	
348.15	.8002	1.47546	
348.15	.8991	1.4803	
348.15	1	1.48721	

System: 1-propanol + 1-ethyl-3-methylimidazolium acetate; phases: Liquid, Air at 1 atmosphere
Property: Surface tension liquid-gas, N/m (Liquid); method: Wilhelmy plates
Temperature, K	Mole fraction of 1-ethyl-3-methylimidazolium acetate	Surface tension liquid-gas, N/m	uncertainty
288.15	0	.0239	
288.15	.1017	.0258	
288.15	.2004	.0274	
288.15	.3001	.0297	
288.15	.3998	.0317	
288.15	.4997	.0337	
288.15	.5996	.0356	
288.15	.6998	.0377	
288.15	.8002	.0402	
288.15	.8991	.0432	
288.15	1	.0477	
298.15	0	.0234	
298.15	.1017	.0252	
298.15	.2004	.0265	
298.15	.3001	.0292	
298.15	.3998	.031	
298.15	.4997	.0331	
298.15	.5996	.0347	
298.15	.6998	.0372	
298.15	.8002	.0397	
298.15	.8991	.0427	
298.15	1	.0471	
308.15	0	.0224	
308.15	.1017	.0247	
308.15	.2004	.0258	
308.15	.3001	.0287	
308.15	.3998	.0307	
308.15	.4997	.0327	
308.15	.5996	.0342	
308.15	.6998	.0366	
308.15	.8002	.0392	
308.15	.8991	.0422	
308.15	1	.0466	
318.15	0	.022	
318.15	.1017	.0239	
318.15	.2004	.0253	
318.15	.3001	.0285	
318.15	.3998	.0302	
318.15	.4997	.0322	
318.15	.5996	.0333	
318.15	.6998	.0361	
318.15	.8002	.0388	
318.15	.8991	.0418	
318.15	1	.0461	
328.15	0	.0209	
328.15	.1017	.023	
328.15	.2004	.025	
328.15	.3001	.0279	
328.15	.3998	.03	
328.15	.4997	.0317	
328.15	.5996	.0331	
328.15	.6998	.0358	
328.15	.8002	.0381	
328.15	.8991	.0414	
328.15	1	.0459	
338.15	0	.0197	
338.15	.1017	.0223	
338.15	.2004	.024	
338.15	.3001	.0273	
338.15	.3998	.0295	
338.15	.4997	.0313	
338.15	.5996	.0326	
338.15	.6998	.0355	
338.15	.8002	.0379	
338.15	.8991	.0412	
338.15	1	.0454	
348.15	0	.019	
348.15	.1017	.0215	
348.15	.2004	.0236	
348.15	.3001	.0271	
348.15	.3998	.0293	
348.15	.4997	.0308	
348.15	.5996	.0318	
348.15	.6998	.0345	
348.15	.8002	.0376	
348.15	.8991	.041	
348.15	1	.0451	

System: 2-propanol + 1-ethyl-3-methylimidazolium acetate; phases: Liquid
Fixed: Pressure, kPa = 101
Property: Mass density, kg/m3 (Liquid); method: Vibrating tube method
Temperature, K	Mole fraction of 1-ethyl-3-methylimidazolium acetate	Mass density, kg/m3	uncertainty
288.15	0	789.18	
288.15	.1	852.68	
288.15	.2	901.6	
288.15	.3	941.78	
288.15	.4	976.37	
288.15	.5	1006.01	
288.15	.5998	1031.55	
288.15	.7	1053.83	
288.15	.7993	1072.97	
288.15	.9	1090.17	
288.15	1	1105.2	
298.15	0	780.84	
298.15	.1	845.22	
298.15	.2	894.12	
298.15	.3	934.95	
298.15	.4	969.7	
298.15	.5	999.47	
298.15	.5998	1025.12	
298.15	.7	1047.51	
298.15	.7993	1066.77	
298.15	.9	1084.05	
298.15	1	1099.03	
308.15	0	772.23	
308.15	.1	837.68	
308.15	.2	887.04	
308.15	.3	928.14	
308.15	.4	963.07	
308.15	.5	992.98	
308.15	.5998	1018.74	
308.15	.7	1041.21	
308.15	.7993	1060.56	
308.15	.9	1077.92	
308.15	1	1092.93	
318.15	0	763.27	
318.15	.1	829.99	
318.15	.2	879.94	
318.15	.3	921.35	
318.15	.4	956.47	
318.15	.5	986.52	
318.15	.5998	1012.39	
318.15	.7	1034.96	
318.15	.7993	1054.38	
318.15	.9	1071.81	
318.15	1	1086.86	
328.15	0	753.89	
328.15	.1	822.14	
328.15	.2	872.8	
328.15	.3	914.57	
328.15	.4	949.91	
328.15	.5	980.11	
328.15	.5998	1006.1	
328.15	.7	1028.76	
328.15	.7993	1048.25	
328.15	.9	1065.74	
328.15	1	1080.82	
338.15	0	744.02	
338.15	.1	814.08	
338.15	.2	865.6	
338.15	.3	907.78	
338.15	.4	943.37	
338.15	.5	973.74	
338.15	.5998	999.84	
338.15	.7	1022.6	
338.15	.7993	1042.17	
338.15	.9	1059.72	
338.15	1	1074.83	

System: 2-propanol + 1-ethyl-3-methylimidazolium acetate; phases: Liquid
Fixed: Pressure, kPa = 101
Property: Viscosity, Pa*s (Liquid); method: Capillary tube (Ostwald; Ubbelohde) method
Temperature, K	Mole fraction of 1-ethyl-3-methylimidazolium acetate	Viscosity, Pa*s	uncertainty
288.15	0	.002752	
288.15	.1	.00555	
288.15	.2	.008842	
288.15	.3	.01485	
288.15	.4	.02485	
288.15	.5	.04069	
288.15	.5998	.06417	
288.15	.7	.1007	
288.15	.7993	.1479	
288.15	.9	.2124	
288.15	1	.2838	
298.15	0	.002018	
298.15	.1	.004171	
298.15	.2	.00664	
298.15	.3	.01084	
298.15	.4	.01731	
298.15	.5	.02686	
298.15	.5998	.0404	
298.15	.7	.05842	
298.15	.7993	.08131	
298.15	.9	.1099	
298.15	1	.139	
308.15	0	.001507	
308.15	.1	.003204	
308.15	.2	.005142	
308.15	.3	.008186	
308.15	.4	.0126	
308.15	.5	.01861	
308.15	.5998	.02686	
308.15	.7	.0369	
308.15	.7993	.04932	
308.15	.9	.06337	
308.15	1	.07732	
318.15	0	.00115	
318.15	.1	.002511	
318.15	.2	.004067	
318.15	.3	.006344	
318.15	.4	.009506	
318.15	.5	.01361	
318.15	.5998	.01887	
318.15	.7	.02508	
318.15	.7993	.03233	
318.15	.9	.04036	
318.15	1	.04737	
328.15	0	.000895	
328.15	.1	.001998	
328.15	.2	.003272	
328.15	.3	.005049	
328.15	.4	.007378	
328.15	.5	.01028	
328.15	.5998	.01377	
328.15	.7	.01783	
328.15	.7993	.02239	
328.15	.9	.02723	
328.15	1	.03129	
338.15	0	.000704	
338.15	.1	.001617	
338.15	.2	.002683	
338.15	.3	.004086	
338.15	.4	.005876	
338.15	.5	.008019	
338.15	.5998	.01046	
338.15	.7	.01323	
338.15	.7993	.01622	
338.15	.9	.01937	
338.15	1	.02185	

System: 2-propanol + 1-ethyl-3-methylimidazolium acetate; phases: Liquid
Fixed: Pressure, kPa = 101
Property: Refractive index (Na D-line) (Liquid); method: Standard Abbe refractometry
Temperature, K	Mole fraction of 1-ethyl-3-methylimidazolium acetate	Refractive index (Na D-line)	uncertainty
288.15	0	1.37933	
288.15	.1	1.40475	
288.15	.2	1.42939	
288.15	.3	1.43991	
288.15	.4	1.45344	
288.15	.5001	1.4651	
288.15	.5998	1.47535	
288.15	.7	1.48406	
288.15	.7994	1.4912	
288.15	.9	1.49776	
288.15	1	1.50285	
298.15	0	1.37517	
298.15	.1	1.40107	
298.15	.2	1.42604	
298.15	.3	1.43669	
298.15	.4	1.45075	
298.15	.5001	1.46242	
298.15	.5998	1.47243	
298.15	.7	1.48131	
298.15	.7994	1.48861	
298.15	.9	1.49526	
298.15	1	1.50069	
308.15	0	1.37093	
308.15	.1	1.39762	
308.15	.2	1.42276	
308.15	.3	1.4336	
308.15	.4	1.4475	
308.15	.5001	1.46177	
308.15	.5998	1.46954	
308.15	.7	1.4784	
308.15	.7994	1.48593	
308.15	.9	1.49257	
308.15	1	1.49803	
318.15	0	1.36643	
318.15	.1	1.39423	
318.15	.2	1.41947	
318.15	.3	1.43066	
318.15	.4	1.44471	
318.15	.5001	1.45641	
318.15	.5998	1.46689	
318.15	.7	1.47561	
318.15	.7994	1.48324	
318.15	.9	1.48986	
318.15	1	1.49527	
328.15	0	1.36173	
328.15	.1	1.39112	
328.15	.2	1.41637	
328.15	.3	1.42763	
328.15	.4	1.44229	
328.15	.5001	1.45352	
328.15	.5998	1.46489	
328.15	.7	1.47293	
328.15	.7994	1.48046	
328.15	.9	1.48714	
328.15	1	1.49266	
338.15	0	1.35682	
338.15	.1	1.38677	
338.15	.2	1.41309	
338.15	.3	1.42464	
338.15	.4	1.43908	
338.15	.5001	1.45107	
338.15	.5998	1.45943	
338.15	.7	1.47054	
338.15	.7994	1.47775	
338.15	.9	1.48466	
338.15	1	1.48995	

System: 2-propanol + 1-ethyl-3-methylimidazolium acetate; phases: Liquid, Air at 1 atmosphere
Property: Surface tension liquid-gas, N/m (Liquid); method: Wilhelmy plates
Temperature, K	Mole fraction of 1-ethyl-3-methylimidazolium acetate	Surface tension liquid-gas, N/m	uncertainty
288.15	0	.0216	
288.15	.1	.0236	
288.15	.2	.0255	
288.15	.3	.0275	
288.15	.4	.0294	
288.15	.5	.0315	
288.15	.5997	.033	
288.15	.7	.0351	
288.15	.7994	.0377	
288.15	.9	.0412	
288.15	1	.0477	
298.15	0	.0212	
298.15	.1	.0232	
298.15	.2	.0251	
298.15	.3	.0269	
298.15	.4	.029	
298.15	.5	.0312	
298.15	.5997	.0326	
298.15	.7	.0345	
298.15	.7994	.0374	
298.15	.9	.0409	
298.15	1	.0471	
308.15	0	.0205	
308.15	.1	.0225	
308.15	.2	.0246	
308.15	.3	.0266	
308.15	.4	.0283	
308.15	.5	.0305	
308.15	.5997	.0321	
308.15	.7	.0341	
308.15	.7994	.037	
308.15	.9	.0405	
308.15	1	.0466	
318.15	0	.0196	
318.15	.1	.0218	
318.15	.2	.0241	
318.15	.3	.0261	
318.15	.4	.0279	
318.15	.5	.0299	
318.15	.5997	.0316	
318.15	.7	.0337	
318.15	.7994	.0368	
318.15	.9	.0402	
318.15	1	.0461	
328.15	0	.0187	
328.15	.1	.0208	
328.15	.2	.0235	
328.15	.3	.0255	
328.15	.4	.0274	
328.15	.5	.0296	
328.15	.5997	.0315	
328.15	.7	.0334	
328.15	.7994	.0364	
328.15	.9	.04	
328.15	1	.0459	
338.15	0	.0174	
338.15	.1	.0201	
338.15	.2	.0226	
338.15	.3	.025	
338.15	.4	.0269	
338.15	.5	.0291	
338.15	.5997	.0307	
338.15	.7	.0329	
338.15	.7994	.036	
338.15	.9	.0393	
338.15	1	.0454	

System: methanol + 1-ethyl-3-methylimidazolium acetate; phases: Liquid, Air at 1 atmosphere
Property: Surface tension liquid-gas, N/m (Liquid); method: Wilhelmy plate
Temperature, K	Mole fraction of 1-ethyl-3-methylimidazolium acetate	Surface tension liquid-gas, N/m	uncertainty
278.2	0	.0238	
278.2	.1	.0285	
278.2	.2	.0327	
278.2	.3	.0359	
278.2	.4	.0384	
278.2	.5	.0403	
278.2	.6	.0421	
278.2	.6999	.0443	
278.2	.8003	.0459	
278.2	.9003	.0476	
278.2	1	.0481	
288.2	0	.0236	
288.2	.1	.0281	
288.2	.2	.0321	
288.2	.3	.0353	
288.2	.4	.038	
288.2	.5	.04	
288.2	.6	.0416	
288.2	.6999	.0438	
288.2	.8003	.0451	
288.2	.9003	.0469	
288.2	1	.0477	
298.2	0	.0227	
298.2	.1	.0275	
298.2	.2	.0316	
298.2	.3	.035	
298.2	.4	.0375	
298.2	.5	.0396	
298.2	.6	.0411	
298.2	.6999	.0433	
298.2	.8003	.0447	
298.2	.9003	.0464	
298.2	1	.0471	
308.2	0	.0219	
308.2	.1	.0268	
308.2	.2	.0311	
308.2	.3	.0345	
308.2	.4	.0371	
308.2	.5	.039	
308.2	.6	.0408	
308.2	.6999	.0428	
308.2	.8003	.0442	
308.2	.9003	.0459	
308.2	1	.0466	
318.2	0	.021	
318.2	.1	.0263	
318.2	.2	.0306	
318.2	.3	.0339	
318.2	.4	.0365	
318.2	.5	.0387	
318.2	.6	.0404	
318.2	.6999	.0424	
318.2	.8003	.0439	
318.2	.9003	.0453	
318.2	1	.0461	
