Measured thermophysical data. Vapor Liquid Equilibria for Ternary Mixtures of Isopropyl Alcohol, Isopropyl Acetate, and DMSO at 101.3 kPa
Source: J. Chem. Eng. Data, 2016, 10.1021/acs.jced.6b00040
Compound 1: isopropyl alcohol, C3H8O, purity 99.7%
Compound 2: isopropyl acetate, C5H10O2, purity 99.8%
Compound 3: DMSO, C2H6OS, purity 99.8%

System: isopropyl alcohol; phases: Liquid, Gas
Property: Vapor or sublimation pressure, kPa (Liquid); method: Ebulliometric method (Recirculating still)
Temperature, K	Vapor or sublimation pressure, kPa	uncertainty
355.33	101.3	

System: isopropyl acetate; phases: Liquid, Gas
Property: Vapor or sublimation pressure, kPa (Liquid); method: Ebulliometric method (Recirculating still)
Temperature, K	Vapor or sublimation pressure, kPa	uncertainty
361.45	101.3	

System: DMSO; phases: Liquid, Gas
Property: Vapor or sublimation pressure, kPa (Liquid); method: Ebulliometric method (Recirculating still)
Temperature, K	Vapor or sublimation pressure, kPa	uncertainty
463.38	101.3	

System: isopropyl alcohol + DMSO; phases: Liquid, Gas
Property: Boiling temperature at pressure P, K (Liquid); method: Ebulliometric method (Recirculating still)
Mole fraction of isopropyl alcohol	Pressure, kPa	Boiling temperature at pressure P, K	uncertainty
1	101.3	355.33	
.9032	101.3	357.51	
.8481	101.3	359.14	
.8051	101.3	360.75	
.7091	101.3	364.71	
.6138	101.3	368.77	
.5225	101.3	374.24	
.4832	101.3	376.78	
.4149	101.3	381.24	
.3561	101.3	386.47	
.3207	101.3	389.52	
.2491	101.3	398.61	
.2009	101.3	405.21	
.1512	101.3	414.02	
.1022	101.3	425.63	
.089	101.3	429.39	
.0635	101.3	437.48	
.0496	101.3	441.94	
.0286	101.3	450.41	
0	101.3	463.38	

System: isopropyl alcohol + DMSO; phases: Gas, Liquid
Property: Mole fraction of isopropyl alcohol (Gas); method: Chromatography
Temperature, K	Mole fraction of isopropyl alcohol	Mole fraction of isopropyl alcohol	uncertainty
355.33	1	1	
357.51	.9032	.9983	
359.14	.8481	.9972	
360.75	.8051	.9961	
364.71	.7091	.9925	
368.77	.6138	.9869	
374.24	.5225	.9776	
376.78	.4832	.9726	
381.24	.4149	.9623	
386.47	.3561	.9483	
389.52	.3207	.9371	
398.61	.2491	.9015	
405.21	.2009	.8675	
414.02	.1512	.8045	
425.63	.1022	.6991	
429.39	.089	.656	
437.48	.0635	.5481	
441.94	.0496	.4695	
450.41	.0286	.312	
463.38	0	0	

System: DMSO + isopropyl acetate; phases: Liquid, Gas
Property: Boiling temperature at pressure P, K (Liquid); method: Ebulliometric method (Recirculating still)
Mole fraction of isopropyl acetate	Pressure, kPa	Boiling temperature at pressure P, K	uncertainty
1	101.3	361.45	
.9207	101.3	363.59	
.8012	101.3	366.56	
.6769	101.3	369.36	
.6144	101.3	370.72	
.4838	101.3	374.06	
.4237	101.3	376.18	
.3817	101.3	377.74	
.3019	101.3	381.61	
.272	101.3	383.18	
.2541	101.3	384.96	
.2341	101.3	386.62	
.2199	101.3	388.17	
.1791	101.3	392.92	
.1341	101.3	400.53	
.0859	101.3	413.46	
.0551	101.3	425.98	
.0266	101.3	444.02	
.0098	101.3	456.01	
0	101.3	463.38	

System: DMSO + isopropyl acetate; phases: Gas, Liquid
Property: Mole fraction of isopropyl acetate (Gas); method: Chromatography
Temperature, K	Mole fraction of isopropyl acetate	Mole fraction of isopropyl acetate	uncertainty
361.45	1	1	
363.59	.9207	.9935	
366.56	.8012	.9849	
369.36	.6769	.9776	
370.72	.6144	.9769	
374.06	.4838	.9648	
376.18	.4237	.9577	
377.74	.3817	.956	
381.61	.3019	.9432	
383.18	.272	.9412	
384.96	.2541	.9355	
386.62	.2341	.9301	
388.17	.2199	.9254	
392.92	.1791	.9062	
400.53	.1341	.8705	
413.46	.0859	.7871	
425.98	.0551	.6715	
444.02	.0266	.4241	
456.01	.0098	.1891	
463.38	0	0	

System: isopropyl alcohol + DMSO + isopropyl acetate; phases: Liquid, Gas
Property: Mole fraction of isopropyl acetate (Liquid); method: Chromatography
Property: Mole fraction of isopropyl alcohol (Gas); method: Chromatography
Property: Mole fraction of isopropyl acetate (Gas); method: Chromatography
Temperature, K	Pressure, kPa	Mole fraction of isopropyl alcohol	Mole fraction of isopropyl acetate	uncertainty	Mole fraction of isopropyl alcohol	uncertainty	Mole fraction of isopropyl acetate	uncertainty
377.52	101.3	.0191	.3664	.004	.0254	.004	.9335	.004
379.93	101.3	.1755	.2151	.004	.3022	.004	.6567	.004
380.32	101.3	.1924	.1972	.004	.3452	.004	.6125	.004
381.19	101.3	.208	.1716	.004	.3928	.004	.5632	.004
381.82	101.3	.2244	.1528	.004	.4388	.004	.5161	.004
382.21	101.3	.2463	.1342	.004	.4942	.004	.4619	.004
382.24	101.3	.2674	.1172	.004	.5495	.004	.4058	.004
382.16	101.3	.2928	.0994	.004	.6131	.004	.3436	.004
382.59	101.3	.3159	.0773	.004	.6862	.004	.2719	.004
382.87	101.3	.3264	.0595	.004	.7393	.004	.2174	.004
383.34	101.3	.3462	.0398	.004	.8103	.004	.1475	.004
377.82	101.3	.0376	.3437	.004	.0479	.004	.9102	.004
383.63	101.3	.3564	.0201	.004	.8762	.004	.0795	.004
383.7	101.3	.3744	.0111	.004	.9153	.004	.0426	.004
378.22	101.3	.0554	.324	.004	.0769	.004	.881	.004
378.5	101.3	.0751	.3074	.004	.1089	.004	.8496	.004
378.7	101.3	.0974	.2941	.004	.1428	.004	.8164	.004
379.09	101.3	.115	.2721	.004	.1783	.004	.7797	.004
378.99	101.3	.1254	.2657	.004	.1961	.004	.7628	.004
379.25	101.3	.1385	.2521	.004	.2198	.004	.7393	.004
379.82	101.3	.1531	.2332	.004	.2543	.004	.7036	.004
