Measured thermophysical data. Liquid-Liquid Equilibrium for Ternary Systems Water + Acetic Acid + m-Xylene and Water + Acetic Acid + o-Xylene at (303.2 to 343.2) K
Source: J. Chem. Eng. Data, 2015, 10.1021/acs.jced.5b00043
Compound 1: acetic acid, C2H4O2, purity 99.0%
Compound 2: m-xylene, C8H10, purity 99.0%
Compound 3: o-xylene, C8H10, purity 99.0%
Compound 4: water, H2O, purity 99.8%

System: acetic acid + m-xylene + water; phases: Liquid mixture 1, Liquid mixture 2
Property: Mass fraction of water (Liquid mixture 1); method: Chromatography
Property: Mass fraction of water (Liquid mixture 2); method: Chromatography
Property: Mass fraction of acetic acid (Liquid mixture 2); method: Chromatography
Temperature, K	Pressure, kPa	Mass fraction of acetic acid	Mass fraction of water	uncertainty	Mass fraction of water	uncertainty	Mass fraction of acetic acid	uncertainty
303.2	101.3	0	.0006	.005	.9998	.005	0	.005
313.2	101.3	.1128	.0166	.005	.3121	.005	.6577	.005
313.2	101.3	.1949	.02	.005	.1969	.005	.7362	.005
303.2	101.3	.0026	.0035	.005	.9061	.005	.0935	.005
313.2	101.3	.4686	.0482	.005	.075	.005	.646	.005
323.2	101.3	0	.0009	.005	.9996	.005	0	.005
323.2	101.3	.0037	.0057	.005	.9055	.005	.0936	.005
323.2	101.3	.0064	.0067	.005	.812	.005	.1869	.005
323.2	101.3	.0155	.0074	.005	.7044	.005	.2938	.005
323.2	101.3	.0248	.0075	.005	.6175	.005	.379	.005
323.2	101.3	.0384	.0081	.005	.5221	.005	.4709	.005
303.2	101.3	.4169	.035	.005	.1084	.005	.6865	.005
323.2	101.3	.0712	.0083	.005	.4131	.005	.5703	.005
323.2	101.3	.1035	.0121	.005	.3143	.005	.6526	.005
323.2	101.3	.1772	.0145	.005	.2111	.005	.7156	.005
303.2	101.3	.0103	.0039	.005	.8094	.005	.19	.005
333.2	101.3	0	.0011	.005	.9991	.005	0	.005
333.2	101.3	.0043	.0042	.005	.9011	.005	.098	.005
333.2	101.3	.0094	.0047	.005	.8103	.005	.1883	.005
333.2	101.3	.017	.0072	.005	.6981	.005	.2993	.005
333.2	101.3	.0288	.0077	.005	.6135	.005	.3824	.005
333.2	101.3	.0454	.0091	.005	.5161	.005	.4747	.005
313.2	101.3	0	.001	.005	.9996	.005	0	.005
333.2	101.3	.072	.01	.005	.4023	.005	.578	.005
333.2	101.3	.1162	.0124	.005	.308	.005	.6536	.005
333.2	101.3	.2078	.0155	.005	.2025	.005	.7092	.005
343.2	101.3	0	.0015	.005	.9993	.005	0	.005
303.2	101.3	.0169	.0047	.005	.7044	.005	.2944	.005
343.2	101.3	.0031	.0049	.005	.9037	.005	.0953	.005
343.2	101.3	.0093	.0065	.005	.8076	.005	.191	.005
343.2	101.3	.0191	.0071	.005	.7015	.005	.2958	.005
343.2	101.3	.03	.0076	.005	.6079	.005	.3873	.005
343.2	101.3	.0438	.008	.005	.5096	.005	.4791	.005
313.2	101.3	.0011	.0058	.005	.903	.005	.0964	.005
343.2	101.3	.075	.0116	.005	.3929	.005	.5855	.005
343.2	101.3	.148	.0146	.005	.3155	.005	.6413	.005
343.2	101.3	.1994	.0173	.005	.204	.005	.704	.005
303.2	101.3	.0262	.0051	.005	.6118	.005	.385	.005
303.2	101.3	.0418	.0052	.005	.5203	.005	.4738	.005
303.2	101.3	.0707	.0055	.005	.4227	.005	.5631	.005
303.2	101.3	.1163	.0058	.005	.3172	.005	.6552	.005
303.2	101.3	.212	.0098	.005	.2334	.005	.7076	.005
313.2	101.3	.0075	.0074	.005	.7986	.005	.2005	.005
313.2	101.3	.0169	.0079	.005	.7	.005	.2983	.005
313.2	101.3	.0247	.0106	.005	.6042	.005	.3914	.005
313.2	101.3	.0419	.0107	.005	.5166	.005	.4761	.005
313.2	101.3	.0712	.0124	.005	.4105	.005	.5747	.005

System: acetic acid + o-xylene + water; phases: Liquid mixture 2, Liquid mixture 1
Property: Mass fraction of acetic acid (Liquid mixture 2); method: Chromatography
Property: Mass fraction of acetic acid (Liquid mixture 1); method: Chromatography
Property: Mass fraction of water (Liquid mixture 1); method: Chromatography
Temperature, K	Pressure, kPa	Mass fraction of water	Mass fraction of acetic acid	uncertainty	Mass fraction of acetic acid	uncertainty	Mass fraction of water	uncertainty
303.2	101.3	.9995	0	.005	0	.005	.0006	.005
303.2	101.3	.0905	.6033	.005	.4836	.005	.0656	.005
313.2	101.3	.9997	0	.005	0	.005	.0009	.005
313.2	101.3	.8993	.1001	.005	.0035	.005	.0058	.005
313.2	101.3	.7991	.1999	.005	.0096	.005	.0065	.005
313.2	101.3	.7093	.2889	.005	.0165	.005	.0073	.005
313.2	101.3	.6116	.3848	.005	.0285	.005	.0085	.005
313.2	101.3	.5134	.4793	.005	.0424	.005	.0087	.005
313.2	101.3	.4122	.5718	.005	.0684	.005	.0096	.005
313.2	101.3	.3114	.6548	.005	.1141	.005	.0107	.005
313.2	101.3	.2141	.7137	.005	.1869	.005	.0127	.005
303.2	101.3	.8907	.1085	.005	.0034	.005	.0041	.005
323.2	101.3	.9996	0	.005	0	.005	.001	.005
323.2	101.3	.893	.1061	.005	.0027	.005	.006	.005
323.2	101.3	.8003	.1987	.005	.0081	.005	.0063	.005
323.2	101.3	.7121	.2861	.005	.0175	.005	.0086	.005
323.2	101.3	.5874	.4083	.005	.0302	.005	.0093	.005
323.2	101.3	.5152	.4768	.005	.0434	.005	.0103	.005
323.2	101.3	.4098	.5726	.005	.0663	.005	.0104	.005
323.2	101.3	.311	.6508	.005	.1108	.005	.0106	.005
323.2	101.3	.2171	.7022	.005	.1888	.005	.0143	.005
333.2	101.3	.9997	0	.005	0	.005	.0012	.005
303.2	101.3	.8008	.198	.005	.0087	.005	.0058	.005
333.2	101.3	.9	.0994	.005	.0014	.005	.0062	.005
333.2	101.3	.7981	.2008	.005	.0058	.005	.0065	.005
333.2	101.3	.7123	.2856	.005	.0172	.005	.0078	.005
333.2	101.3	.6	.3955	.005	.0266	.005	.0085	.005
333.2	101.3	.511	.4795	.005	.0447	.005	.0092	.005
333.2	101.3	.4081	.5717	.005	.0729	.005	.0095	.005
333.2	101.3	.3066	.6503	.005	.1174	.005	.0096	.005
333.2	101.3	.2122	.6971	.005	.1947	.005	.0176	.005
343.2	101.3	.9997	0	.005	0	.005	.0017	.005
343.2	101.3	.9049	.0946	.005	.0036	.005	.0045	.005
303.2	101.3	.6809	.3172	.005	.0141	.005	.007	.005
343.2	101.3	.8001	.1988	.005	.0101	.005	.0071	.005
343.2	101.3	.7148	.2829	.005	.0185	.005	.0087	.005
343.2	101.3	.6138	.3811	.005	.0281	.005	.0089	.005
343.2	101.3	.5068	.4823	.005	.0474	.005	.0093	.005
343.2	101.3	.4071	.57	.005	.0748	.005	.0111	.005
343.2	101.3	.3059	.6462	.005	.1173	.005	.0114	.005
343.2	101.3	.2116	.6864	.005	.1936	.005	.0192	.005
303.2	101.3	.6129	.3838	.005	.0182	.005	.0097	.005
303.2	101.3	.5153	.478	.005	.0457	.005	.01	.005
303.2	101.3	.3966	.5883	.005	.0688	.005	.0104	.005
303.2	101.3	.3141	.6551	.005	.1146	.005	.0111	.005
303.2	101.3	.2258	.7095	.005	.1821	.005	.0117	.005

System: m-xylene + water; phases: Liquid mixture 2, Liquid mixture 1
Property: Mass fraction of water (Liquid mixture 2); method: Chromatography
Pressure, kPa	Temperature, K	Mass fraction of water	uncertainty
101.3	303.2	.9998	.0001
101.3	313.2	.9996	.0001
101.3	323.2	.9996	.0001
101.3	333.2	.9991	.0001
101.3	343.2	.9993	.0001

System: m-xylene + water; phases: Liquid mixture 1, Liquid mixture 2
Property: Mass fraction of water (Liquid mixture 1); method: Chromatography
Temperature, K	Pressure, kPa	Mass fraction of water	uncertainty
303.2	101.3	.0006	.0001
313.2	101.3	.001	.0001
323.2	101.3	.0009	.0001
333.2	101.3	.0011	.0001
343.2	101.3	.0015	.0001

System: o-xylene + water; phases: Liquid mixture 2, Liquid mixture 1
Property: Mass fraction of water (Liquid mixture 2); method: Chromatography
Pressure, kPa	Temperature, K	Mass fraction of water	uncertainty
101.3	303.2	.9995	.0001
101.3	313.2	.9997	.0001
101.3	323.2	.9996	.0001
101.3	333.2	.9997	.0001
101.3	343.2	.9997	.0001

System: o-xylene + water; phases: Liquid mixture 1, Liquid mixture 2
Property: Mass fraction of water (Liquid mixture 1); method: Chromatography
Temperature, K	Pressure, kPa	Mass fraction of water	uncertainty
303.2	101.3	.0006	.0001
313.2	101.3	.0009	.0001
323.2	101.3	.001	.0001
333.2	101.3	.0012	.0001
343.2	101.3	.0017	.0001
