Measured thermophysical data. Isobaric Vapor Liquid Equilibrium for the Binary and Ternary System with Isobutyl Alcohol, Isobutyl Acetate and Dimethyl Sulfoxide at 101.3 kPa
Source: J. Chem. Eng. Data, 2017, 10.1021/acs.jced.7b00241
Compound 1: isobutanol, C4H10O, purity 99.8%
Compound 2: isobutyl acetate, C6H12O2, purity 99.8%
Compound 3: DMSO, C2H6OS, purity 99.9%

System: isobutanol; phases: Liquid, Gas
Property: Normal boiling temperature, K (Liquid); method: Ebulliometric method (Recirculating still)
Normal boiling temperature, K	uncertainty
380.98	.05

System: isobutanol; phases: Liquid
Fixed: Pressure, kPa = 101.325
Property: Mass density, kg/m3 (Liquid); method: Vibrating tube method
Temperature, K	Mass density, kg/m3	uncertainty
298.15	798	

System: isobutyl acetate; phases: Liquid, Gas
Property: Normal boiling temperature, K (Liquid); method: Ebulliometric method (Recirculating still)
Normal boiling temperature, K	uncertainty
389.9	.05

System: isobutyl acetate; phases: Liquid
Fixed: Pressure, kPa = 101.325
Property: Mass density, kg/m3 (Liquid); method: Vibrating tube method
Temperature, K	Mass density, kg/m3	uncertainty
298.15	866.2	

System: DMSO; phases: Liquid, Gas
Property: Normal boiling temperature, K (Liquid); method: Ebulliometric method (Recirculating still)
Normal boiling temperature, K	uncertainty
463.85	.05

System: DMSO; phases: Liquid
Fixed: Pressure, kPa = 101.325
Property: Mass density, kg/m3 (Liquid); method: Vibrating tube method
Temperature, K	Mass density, kg/m3	uncertainty
298.15	1095.5	

System: isobutanol + isobutyl acetate; phases: Liquid, Gas
Property: Boiling temperature at pressure P, K (Liquid); method: Ebulliometric method (Recirculating still)
Mole fraction of isobutanol	Pressure, kPa	Boiling temperature at pressure P, K	uncertainty
0	101.3	389.9	
.049	101.3	388.55	
.077	101.3	387.79	
.092	101.3	387.17	
.18	101.3	385.73	
.23	101.3	384.88	
.321	101.3	383.56	
.362	101.3	382.97	
.393	101.3	382.83	
.431	101.3	382.37	
.499	101.3	381.95	
.533	101.3	381.88	
.62	101.3	381.34	
.648	101.3	380.96	
.728	101.3	380.74	
.755	101.3	380.82	
.835	101.3	380.56	
.856	101.3	380.32	
.909	101.3	380.51	
1	101.3	380.98	

System: isobutanol + isobutyl acetate; phases: Gas, Liquid
Property: Mole fraction of isobutanol (Gas); method: Chromatography
Mole fraction of isobutanol	Pressure, kPa	Mole fraction of isobutanol	uncertainty
0	101.3	0	
.049	101.3	.085	
.077	101.3	.127	
.092	101.3	.152	
.18	101.3	.27	
.23	101.3	.334	
.321	101.3	.419	
.362	101.3	.46	
.393	101.3	.483	
.431	101.3	.513	
.499	101.3	.576	
.533	101.3	.607	
.62	101.3	.67	
.648	101.3	.685	
.728	101.3	.749	
.755	101.3	.772	
.835	101.3	.844	
.856	101.3	.858	
.909	101.3	.902	
1	101.3	1	

System: isobutanol + DMSO; phases: Liquid, Gas
Property: Boiling temperature at pressure P, K (Liquid); method: Ebulliometric method (Recirculating still)
Mole fraction of isobutanol	Pressure, kPa	Boiling temperature at pressure P, K	uncertainty
0	101.3	463.85	
.038	101.3	455.11	
.052	101.3	452.15	
.075	101.3	447.81	
.097	101.3	444.18	
.128	101.3	439.03	
.168	101.3	433.32	
.193	101.3	430.01	
.233	101.3	425.4	
.274	101.3	421	
.304	101.3	418.4	
.342	101.3	414.7	
.379	101.3	411.65	
.43	101.3	407.71	
.479	101.3	404.25	
.532	101.3	400.81	
.587	101.3	397.54	
.645	101.3	394.45	
.675	101.3	392.92	
.748	101.3	389.58	
.817	101.3	386.99	
.92	101.3	383.06	
1	101.3	380.98	

System: isobutanol + DMSO; phases: Gas, Liquid
Property: Mole fraction of isobutanol (Gas); method: Chromatography
Mole fraction of isobutanol	Pressure, kPa	Mole fraction of isobutanol	uncertainty
0	101.3	0	
.038	101.3	.236	
.052	101.3	.306	
.075	101.3	.4	
.097	101.3	.474	
.128	101.3	.565	
.168	101.3	.649	
.193	101.3	.693	
.233	101.3	.749	
.274	101.3	.793	
.304	101.3	.821	
.342	101.3	.851	
.379	101.3	.875	
.43	101.3	.901	
.479	101.3	.922	
.532	101.3	.94	
.587	101.3	.954	
.645	101.3	.966	
.675	101.3	.972	
.748	101.3	.982	
.817	101.3	.989	
.92	101.3	.996	
1	101.3	1	

System: isobutyl acetate + DMSO; phases: Liquid, Gas
Property: Boiling temperature at pressure P, K (Liquid); method: Ebulliometric method (Recirculating still)
Mole fraction of isobutyl acetate	Pressure, kPa	Boiling temperature at pressure P, K	uncertainty
0	101.3	463.85	
.019	101.3	452.16	
.036	101.3	444.19	
.072	101.3	433.25	
.093	101.3	428.67	
.103	101.3	426.65	
.135	101.3	421.33	
.188	101.3	415.33	
.239	101.3	411.04	
.279	101.3	408.59	
.319	101.3	407.02	
.382	101.3	404.36	
.462	101.3	401.81	
.532	101.3	400.19	
.595	101.3	398.48	
.62	101.3	397.86	
.671	101.3	396.65	
.707	101.3	396.2	
.763	101.3	394.9	
.794	101.3	394.31	
.831	101.3	393.65	
.868	101.3	392.95	
.894	101.3	392.11	
.919	101.3	391.32	
1	101.3	389.9	

System: isobutyl acetate + DMSO; phases: Gas, Liquid
Property: Mole fraction of isobutyl acetate (Gas); method: Chromatography
Mole fraction of isobutyl acetate	Pressure, kPa	Mole fraction of isobutyl acetate	uncertainty
0	101.3	0	
.019	101.3	.285	
.036	101.3	.437	
.072	101.3	.612	
.093	101.3	.665	
.103	101.3	.69	
.135	101.3	.738	
.188	101.3	.799	
.239	101.3	.836	
.279	101.3	.853	
.319	101.3	.868	
.382	101.3	.884	
.462	101.3	.903	
.532	101.3	.91	
.595	101.3	.922	
.62	101.3	.928	
.671	101.3	.934	
.707	101.3	.943	
.763	101.3	.95	
.794	101.3	.956	
.831	101.3	.963	
.868	101.3	.97	
.894	101.3	.974	
.919	101.3	.98	
1	101.3	1	

System: isobutanol + isobutyl acetate + DMSO; phases: Liquid, Gas
Property: Mole fraction of isobutyl acetate (Liquid); method: Chromatography
Property: Mole fraction of isobutanol (Gas); method: Chromatography
Property: Mole fraction of isobutyl acetate (Gas); method: Chromatography
Temperature, K	Pressure, kPa	Mole fraction of isobutanol	Mole fraction of isobutyl acetate	uncertainty	Mole fraction of isobutanol	uncertainty	Mole fraction of isobutyl acetate	uncertainty
397.61	101.3	.035	.575	.005	.049	.005	.88	.005
403.86	101.3	.104	.278	.005	.161	.005	.728	.005
403.47	101.3	.15	.245	.005	.244	.005	.651	.005
397.37	101.3	.081	.514	.005	.112	.005	.821	.005
403.71	101.3	.185	.211	.005	.311	.005	.585	.005
403.68	101.3	.202	.201	.005	.336	.005	.568	.005
404.62	101.3	.229	.173	.005	.39	.005	.51	.005
406.11	101.3	.232	.15	.005	.414	.005	.473	.005
404.96	101.3	.273	.129	.005	.493	.005	.407	.005
407.61	101.3	.295	.088	.005	.568	.005	.321	.005
408.01	101.3	.312	.069	.005	.629	.005	.258	.005
394.78	101.3	.401	.208	.005	.556	.005	.4	.005
407.89	101.3	.369	.037	.005	.752	.005	.143	.005
409.4	101.3	.372	.019	.005	.805	.005	.082	.005
396.42	101.3	.123	.484	.005	.172	.005	.768	.005
396.38	101.3	.184	.403	.005	.254	.005	.685	.005
395.52	101.3	.216	.391	.005	.296	.005	.65	.005
396.15	101.3	.245	.338	.005	.339	.005	.604	.005
394.78	101.3	.289	.328	.005	.391	.005	.56	.005
395.05	101.3	.311	.295	.005	.425	.005	.527	.005
394.99	101.3	.329	.271	.005	.456	.005	.498	.005
394.78	101.3	.415	.189	.005	.583	.005	.371	.005
395.82	101.3	.431	.152	.005	.624	.005	.328	.005
396.64	101.3	.517	.069	.005	.789	.005	.164	.005
396.56	101.3	.57	.026	.005	.89	.005	.068	.005
403.92	101.3	.035	.355	.005	.055	.005	.838	.005
403.82	101.3	.065	.328	.005	.101	.005	.792	.005
403.62	101.3	.097	.3	.005	.152	.005	.743	.005
