Measured thermophysical data. Solubility of Nitrous Oxide in Aqueous Methyldiethanolamine Solutions
Source: J. Chem. Eng. Data, 2017, 10.1021/acs.jced.7b00112
Compound 1: N-methyldiethanolamine, C5H13NO2
Compound 2: nitrous oxide, N2O, purity 99.8%
Compound 3: water, H2O, purity 99.9%

System: N-methyldiethanolamine + nitrous oxide + water; phases: Liquid, Gas
Property: Mole fraction of nitrous oxide (Liquid); method: volumetric analysis and chromatography
Temperature, K	Solvent: Mass fraction of N-methyldiethanolamine	Pressure, kPa	Mole fraction of nitrous oxide	uncertainty
283.15	.2	2200	.01339	
283.15	.2	946	.00652	
283.15	.2	401	.00289	
283.15	.2	103	.00078	
298.15	.2	3350	.01251	
298.15	.2	1280	.00547	
298.15	.2	486	.00225	
298.15	.2	220	.001034	
298.15	.2	106	.000503	
298.15	.2	55	.000252	
323.15	.2	12700	.01603	
323.15	.2	9440	.01527	
323.15	.2	5320	.01137	
323.15	.2	2900	.007094	
323.15	.2	1150	.003066	
323.15	.2	363	.000984	
323.15	.2	174	.000468	
323.15	.2	113	.000299	
323.15	.2	111	.000283	
323.15	.2	69	.000171	
348.15	.2	19290	.01677	
348.15	.2	15600	.01586	
348.15	.2	11180	.01436	
348.15	.2	6810	.01063	
348.15	.2	3050	.0056	
348.15	.2	2010	.0038	
348.15	.2	1310	.00252	
348.15	.2	827	.00156	
348.15	.2	417	.000793	
348.15	.2	212	.000372	
348.15	.2	148	.000237	
348.15	.2	112	.000158	
373.15	.2	18600	.017	
373.15	.2	14770	.01543	
373.15	.2	9900	.0122	
373.15	.2	6020	.00841	
373.15	.2	3070	.004754	
373.15	.2	2000	.003164	
373.15	.2	1280	.001934	
373.15	.2	880	.001335	
373.15	.2	516	.0007	
373.15	.2	325	.000387	
373.15	.2	211	.000194	
373.15	.2	181	.000145	
373.15	.2	154	.000096	
398.15	.2	18820	.01799	
398.15	.2	15260	.0161	
398.15	.2	10730	.01276	
398.15	.2	6950	.009133	
398.15	.2	3650	.004983	
398.15	.2	2310	.003133	
398.15	.2	1330	.001627	
398.15	.2	600	.00055	
398.15	.2	409	.000287	
398.15	.2	371	.000214	
398.15	.2	309	.000116	
398.15	.2	286	.0001	
274.15	.4	3200	.0214	
274.15	.4	1210	.009995	
274.15	.4	365	.003263	
274.15	.4	101	.000965	
283.15	.4	3990	.0201	
283.15	.4	2000	.0123	
283.15	.4	886	.00593	
283.15	.4	390	.00277	
283.15	.4	104	.000773	
298.15	.4	4420	.0167	
298.15	.4	2040	.00919	
298.15	.4	980	.00477	
298.15	.4	380	.00197	
298.15	.4	186	.000958	
298.15	.4	108	.000544	
323.15	.4	19560	.02146	
323.15	.4	15250	.02071	
323.15	.4	10330	.01948	
323.15	.4	5890	.01532	
323.15	.4	4080	.01196	
323.15	.4	2920	.00865	
323.15	.4	1870	.00601	
323.15	.4	1030	.00335	
323.15	.4	406	.00133	
323.15	.4	193	.000651	
323.15	.4	114	.000362	
323.15	.4	102	.000321	
348.15	.4	19280	.02309	
348.15	.4	14610	.02138	
348.15	.4	10630	.01903	
348.15	.4	6190	.01344	
348.15	.4	3040	.007335	
348.15	.4	1510	.003812	
348.15	.4	701	.001756	
348.15	.4	267	.000657	
348.15	.4	176	.000392	
348.15	.4	159	.00034	
348.15	.4	149	.000305	
348.15	.4	127	.000255	
348.15	.4	111	.000214	
373.15	.4	18710	.02499	
373.15	.4	14430	.02239	
373.15	.4	9450	.01741	
373.15	.4	6190	.01239	
373.15	.4	3040	.006517	
373.15	.4	1670	.003595	
373.15	.4	1000	.002097	
373.15	.4	754	.001556	
373.15	.4	545	.001055	
373.15	.4	365	.000674	
373.15	.4	217	.00031	
373.15	.4	174	.000199	
373.15	.4	155	.000156	
398.15	.4	18630	.02687	
398.15	.4	15740	.02422	
398.15	.4	12710	.02167	
398.15	.4	9000	.01626	
398.15	.4	6030	.01139	
398.15	.4	3320	.006573	
398.15	.4	1490	.002863	
398.15	.4	1240	.002349	
398.15	.4	789	.001303	
398.15	.4	685	.001036	
398.15	.4	325	.00026	
398.15	.4	320	.000222	
398.15	.4	289	.000174	
398.15	.4	266	.000124	
323.15	.2	19750	.017	
323.15	.2	16070	.01698	

System: N-methyldiethanolamine + nitrous oxide + water; phases: Liquid mixture 1, Liquid mixture 2
Property: Mole fraction of nitrous oxide (Liquid mixture 1); method: volumetric analysis and chromatography
Temperature, K	Solvent: Mass fraction of N-methyldiethanolamine	Pressure, kPa	Mole fraction of nitrous oxide	uncertainty
298.15	.2	20370	.01924	
298.15	.2	17190	.01904	
298.15	.2	12920	.01895	
298.15	.2	8830	.01804	
274.15	.4	5900	.02203	
274.15	.4	3240	.02156	
283.15	.4	8760	.0209	
283.15	.4	6360	.0211	
283.15	.4	4060	.021	
298.15	.4	20570	.0215	
298.15	.4	17170	.0212	
298.15	.4	13170	.0212	
298.15	.4	9370	.0208	

System: N-methyldiethanolamine + nitrous oxide + water; phases: Liquid mixture 1, Liquid mixture 2, Gas
Property: Mole fraction of nitrous oxide (Liquid mixture 1); method: volumetric analysis and chromatography
Solvent: Mass fraction of N-methyldiethanolamine	Temperature, K	Mole fraction of nitrous oxide	uncertainty
.2	298.15	.01775	
.4	274.15	.02156	
.4	274.15	.0214	
.4	283.15	.021	
.4	283.15	.0201	
.4	298.15	.0195	

System: N-methyldiethanolamine + nitrous oxide + water; phases: Liquid mixture 1, Liquid mixture 2, Gas
Property: Vapor or sublimation pressure, kPa (Liquid mixture 1); method: Closed cell (Static) method
Solvent: Mass fraction of N-methyldiethanolamine	Temperature, K	Vapor or sublimation pressure, kPa	uncertainty
.2	298.15	5820	
.4	274.15	3240	
.4	274.15	3200	
.4	283.15	4060	
.4	283.15	3990	
.4	298.15	5770	
