Measured thermophysical data. Investigation of Solid Liquid Equilibria on the System Na+, K+//Cl , SO42 H2O and Na+, K+// SO42 H2O at 313.15 K
Source: J. Chem. Eng. Data, 2016, 10.1021/acs.jced.5b00992
Compound 1: dipotassium sulfate, K2O4S, purity 99%
Compound 2: sodium sulfate, Na2O4S, purity 99%
Compound 3: sodium chloride, ClNa, purity 99.5%
Compound 4: potassium chloride, ClK, purity 99.5%
Compound 5: water, H2O, purity 99.8%

System: water + sodium sulfate + dipotassium sulfate; phases: Liquid, Crystal
Fixed: Temperature, K = 313.15
Fixed: Pressure, kPa = 88.4
Property: Mass fraction of dipotassium sulfate (Liquid); method: Titration method
Mass fraction of sodium sulfate	Mass fraction of dipotassium sulfate	uncertainty
0	.129	
.0255	.1273	
.0359	.1257	
.0549	.1264	

System: water + sodium sulfate + dipotassium sulfate; phases: Liquid, Crystal of intercomponent compound 1
Fixed: Temperature, K = 313.15
Fixed: Pressure, kPa = 88.4
Property: Mass fraction of dipotassium sulfate (Liquid); method: Titration method
Mass fraction of sodium sulfate	Mass fraction of dipotassium sulfate	uncertainty
.0549	.1264	
.0782	.1137	
.092	.104	
.1115	.0992	
.1339	.0895	
.1521	.0853	
.184	.0789	
.2144	.0709	
.2362	.0651	
.2583	.0646	
.2918	.051	

System: water + sodium sulfate + dipotassium sulfate; phases: Liquid, Crystal
Fixed: Temperature, K = 313.15
Fixed: Pressure, kPa = 88.4
Property: Mass fraction of dipotassium sulfate (Liquid); method: Titration method
Mass fraction of sodium sulfate	Mass fraction of dipotassium sulfate	uncertainty
.2918	.051	
.3023	.033	
.3237	0	

System: water + sodium sulfate + dipotassium sulfate; phases: Liquid
Fixed: Temperature, K = 313.15
Fixed: Pressure, kPa = 88.4
Property: Refractive index (Na D-line) (Liquid); method: Standard Abbe refractometry
Mass fraction of sodium sulfate	Mass fraction of dipotassium sulfate	Refractive index (Na D-line)	uncertainty
0	.129	1.3466	
.0255	.1273	1.3489	
.0359	.1257	1.352	
.0549	.1264	1.3536	
.0782	.1137	1.3548	
.092	.104	1.359	
.1115	.0992	1.3595	
.1339	.0895	1.3614	
.1521	.0853	1.3648	
.184	.0789	1.3684	
.2144	.0709	1.371	
.2362	.0651	1.3729	
.2583	.0646	1.3747	
.2918	.051	1.3799	
.3023	.033	1.3787	
.3237	0	1.3774	

System: water + sodium sulfate + dipotassium sulfate; phases: Liquid
Fixed: Temperature, K = 313.15
Fixed: Pressure, kPa = 88.4
Property: Mass density, kg/m3 (Liquid); method: Pycnometric method
Mass fraction of sodium sulfate	Mass fraction of dipotassium sulfate	Mass density, kg/m3	uncertainty
0	.129	1097.5	
.0255	.1273	1115.9	
.0359	.1257	1138.3	
.0549	.1264	1150.2	
.0782	.1137	1159.7	
.092	.104	1175.6	
.1115	.0992	1189.7	
.1339	.0895	1203.3	
.1521	.0853	1228.6	
.184	.0789	1253.7	
.2144	.0709	1279.2	
.2362	.0651	1290.7	
.2583	.0646	1302.9	
.2918	.051	1345.9	
.3023	.033	1336.1	
.3237	0	1317.6	

System: water + sodium sulfate + dipotassium sulfate; phases: Liquid
Fixed: Temperature, K = 313.15
Fixed: Pressure, kPa = 88.4
Property: Viscosity, Pa*s (Liquid); method: Capillary tube (Ostwald; Ubbelohde) method
Mass fraction of sodium sulfate	Mass fraction of dipotassium sulfate	Viscosity, Pa*s	uncertainty
0	.129	.0008181	
.0255	.1273	.0008495	
.0359	.1257	.000905	
.0549	.1264	.000944	
.0782	.1137	.0010184	
.092	.104	.0011114	
.1115	.0992	.0012162	
.1339	.0895	.0012568	
.1521	.0853	.0014614	
.184	.0789	.0016459	
.2144	.0709	.0019209	
.2362	.0651	.0021161	
.2583	.0646	.0022486	
.2918	.051	.002897	
.3023	.033	.0028572	
.3237	0	.002871	

System: potassium chloride + water + dipotassium sulfate; phases: Liquid, Crystal
Fixed: Temperature, K = 313.15
Fixed: Pressure, kPa = 88.4
Property: Mass fraction of dipotassium sulfate (Liquid); method: Titration method
Mass fraction of potassium chloride	Mass fraction of dipotassium sulfate	uncertainty
.0124	.2758	

System: potassium chloride + water + dipotassium sulfate; phases: Liquid, Crystal
Fixed: Temperature, K = 313.15
Fixed: Pressure, kPa = 88.4
Property: Mass fraction of dipotassium sulfate (Liquid); method: Titration method
Mass fraction of potassium chloride	Mass fraction of dipotassium sulfate	uncertainty
.0124	.2758	

System: potassium chloride + water + dipotassium sulfate; phases: Liquid
Fixed: Pressure, kPa = 88.4
Fixed: Temperature, K = 313.15
Property: Viscosity, Pa*s (Liquid); method: Capillary tube (Ostwald; Ubbelohde) method
Mass fraction of potassium chloride	Mass fraction of dipotassium sulfate	Viscosity, Pa*s	uncertainty
.0124	.2758	.000805	

System: potassium chloride + water + dipotassium sulfate; phases: Liquid
Fixed: Pressure, kPa = 88.4
Fixed: Temperature, K = 313.15
Property: Refractive index (Na D-line) (Liquid); method: Standard Abbe refractometry
Mass fraction of potassium chloride	Mass fraction of dipotassium sulfate	Refractive index (Na D-line)	uncertainty
.0124	.2758	1.3715	

System: potassium chloride + water + dipotassium sulfate; phases: Liquid
Fixed: Pressure, kPa = 88.4
Fixed: Temperature, K = 313.15
Property: Mass density, kg/m3 (Liquid); method: Pycnometric method
Mass fraction of potassium chloride	Mass fraction of dipotassium sulfate	Mass density, kg/m3	uncertainty
.0124	.2758	1195.5	

System: sodium chloride + water + sodium sulfate; phases: Liquid, Crystal
Fixed: Temperature, K = 313.15
Fixed: Pressure, kPa = 88.4
Property: Mass fraction of sodium chloride (Liquid); method: Titration method
Mass fraction of sodium sulfate	Mass fraction of sodium chloride	uncertainty
.0508	.2372	

System: sodium chloride + water + sodium sulfate; phases: Liquid, Crystal
Fixed: Temperature, K = 313.15
Fixed: Pressure, kPa = 88.4
Property: Mass fraction of sodium chloride (Liquid); method: Titration method
Mass fraction of sodium sulfate	Mass fraction of sodium chloride	uncertainty
.0508	.2372	

System: sodium chloride + water + sodium sulfate; phases: Liquid
Fixed: Pressure, kPa = 88.4
Fixed: Temperature, K = 313.15
Property: Viscosity, Pa*s (Liquid); method: Capillary tube (Ostwald; Ubbelohde) method
Mass fraction of sodium chloride	Mass fraction of sodium sulfate	Viscosity, Pa*s	uncertainty
.0508	.2372	.0016169	

System: sodium chloride + water + sodium sulfate; phases: Liquid
Fixed: Pressure, kPa = 88.4
Fixed: Temperature, K = 313.15
Property: Refractive index (Na D-line) (Liquid); method: Standard Abbe refractometry
Mass fraction of sodium chloride	Mass fraction of sodium sulfate	Refractive index (Na D-line)	uncertainty
.0508	.2372	1.3799	

System: sodium chloride + water + sodium sulfate; phases: Liquid
Fixed: Pressure, kPa = 88.4
Fixed: Temperature, K = 313.15
Property: Mass density, kg/m3 (Liquid); method: Pycnometric method
Mass fraction of sodium chloride	Mass fraction of sodium sulfate	Mass density, kg/m3	uncertainty
.0508	.2372	1228.7	

System: potassium chloride + sodium chloride + water; phases: Liquid, Crystal
Fixed: Temperature, K = 313.15
Fixed: Pressure, kPa = 88.4
Property: Mass fraction of sodium chloride (Liquid); method: Titration method
Mass fraction of potassium chloride	Mass fraction of sodium chloride	uncertainty
.1357	.1934	

System: potassium chloride + sodium chloride + water; phases: Liquid, Crystal
Fixed: Temperature, K = 313.15
Fixed: Pressure, kPa = 88.4
Property: Mass fraction of sodium chloride (Liquid); method: Titration method
Mass fraction of potassium chloride	Mass fraction of sodium chloride	uncertainty
.1357	.1934	

System: potassium chloride + sodium chloride + water; phases: Liquid
Fixed: Pressure, kPa = 88.4
Fixed: Temperature, K = 313.15
Property: Mass density, kg/m3 (Liquid); method: Pycnometric method
Mass fraction of potassium chloride	Mass fraction of sodium chloride	Mass density, kg/m3	uncertainty
.1357	.1934	1234.9	

System: potassium chloride + sodium chloride + water; phases: Liquid
Fixed: Pressure, kPa = 88.4
Fixed: Temperature, K = 313.15
Property: Viscosity, Pa*s (Liquid); method: Capillary tube (Ostwald; Ubbelohde) method
Mass fraction of potassium chloride	Mass fraction of sodium chloride	Viscosity, Pa*s	uncertainty
.1357	.1934	.0012885	

System: potassium chloride + sodium chloride + water; phases: Liquid
Fixed: Pressure, kPa = 88.4
Fixed: Temperature, K = 313.15
Property: Refractive index (Na D-line) (Liquid); method: Standard Abbe refractometry
Mass fraction of potassium chloride	Mass fraction of sodium chloride	Refractive index (Na D-line)	uncertainty
.1357	.1934	1.3843	

System: water + dipotassium sulfate; phases: Liquid, Crystal
Property: Mass fraction of dipotassium sulfate (Liquid); method: Titration method
Temperature, K	Pressure, kPa	Mass fraction of dipotassium sulfate	uncertainty
313.15	88.4	.129	

System: water + dipotassium sulfate; phases: Liquid
Property: Refractive index (Na D-line) (Liquid); method: Standard Abbe refractometry
Mass fraction of dipotassium sulfate	Temperature, K	Pressure, kPa	Refractive index (Na D-line)	uncertainty
.129	313.15	88.4	1.3466	

System: water + dipotassium sulfate; phases: Liquid
Property: Mass density, kg/m3 (Liquid); method: Pycnometric method
Mass fraction of dipotassium sulfate	Temperature, K	Pressure, kPa	Mass density, kg/m3	uncertainty
.129	313.15	88.4	1097.5	

System: water + dipotassium sulfate; phases: Liquid
Property: Viscosity, Pa*s (Liquid); method: Capillary tube (Ostwald; Ubbelohde) method
Mass fraction of dipotassium sulfate	Temperature, K	Pressure, kPa	Viscosity, Pa*s	uncertainty
.129	313.15	88.4	.0008181	

System: water + sodium sulfate; phases: Liquid, Crystal
Property: Mass fraction of sodium sulfate (Liquid); method: Titration method
Temperature, K	Pressure, kPa	Mass fraction of sodium sulfate	uncertainty
313.15	88.4	.3237	

System: water + sodium sulfate; phases: Liquid
Property: Refractive index (Na D-line) (Liquid); method: Standard Abbe refractometry
Mass fraction of sodium sulfate	Temperature, K	Pressure, kPa	Refractive index (Na D-line)	uncertainty
.3237	313.15	88.4	1.3774	

System: water + sodium sulfate; phases: Liquid
Property: Mass density, kg/m3 (Liquid); method: Pycnometric method
Mass fraction of sodium sulfate	Temperature, K	Pressure, kPa	Mass density, kg/m3	uncertainty
.3237	313.15	88.4	1317.6	

System: water + sodium sulfate; phases: Liquid
Property: Viscosity, Pa*s (Liquid); method: Capillary tube (Ostwald; Ubbelohde) method
Mass fraction of sodium sulfate	Temperature, K	Pressure, kPa	Viscosity, Pa*s	uncertainty
.3237	313.15	88.4	.002871	
