Measured thermophysical data. Influence of the Temperature on the Liquid Liquid Solid Equilibria of the Water + Ethanol + 1-Undecanol Ternary System
Source: J. Chem. Eng. Data, 2015, 10.1021/acs.jced.5b00206
Compound 1: water, H2O, purity 99.9%
Compound 2: ethanol, C2H6O, purity 99.8%
Compound 3: 1-undecanol, C11H24O, purity 98%

System: ethanol + 1-undecanol + water; phases: Liquid mixture 1, Crystal
Fixed: Pressure, kPa = 101
Property: Mass fraction of ethanol (Liquid mixture 1); method: Chromatography
Temperature, K	Mass fraction of water	Mass fraction of ethanol	uncertainty
275.15	.7013	.2962	.005924
275.15	.7329	.264	.00528
275.15	.7793	.2167	.004334
275.15	.8517	.1432	.002864
275.15	.9196	.0733	.001466
275.15	.9868	.0016	.000032
278.15	.7802	.217	.00434
278.15	.8501	.145	.0029
278.15	.9215	.0717	.001434
278.15	.9896	0	0
281.15	.8477	.151	.00302
281.15	.9213	.0767	.001534
281.15	.9969	0	0

System: ethanol + 1-undecanol + water; phases: Liquid mixture 1, Crystal, Liquid mixture 2
Fixed: Pressure, kPa = 101
Property: Mass fraction of water (Liquid mixture 1); method: Chromatography
Temperature, K	Mass fraction of water	uncertainty
275.15	.6592	.0068
278.15	.736	.0053
281.15	.8011	.004

System: ethanol + 1-undecanol + water; phases: Liquid mixture 1, Crystal, Liquid mixture 2
Fixed: Pressure, kPa = 101
Property: Mass fraction of ethanol (Liquid mixture 1); method: Chromatography
Temperature, K	Mass fraction of ethanol	uncertainty
275.15	.339	.00678
278.15	.262	.00524
281.15	.198	.00396

System: ethanol + 1-undecanol + water; phases: Liquid mixture 2, Crystal, Liquid mixture 1
Fixed: Pressure, kPa = 101
Property: Mass fraction of water (Liquid mixture 2); method: Chromatography
Temperature, K	Mass fraction of water	uncertainty
275.15	.076	.00152
278.15	.06	.0012
281.15	.0518	.001036

System: ethanol + 1-undecanol + water; phases: Liquid mixture 2, Crystal, Liquid mixture 1
Fixed: Pressure, kPa = 101
Property: Mass fraction of ethanol (Liquid mixture 2); method: Chromatography
Temperature, K	Mass fraction of ethanol	uncertainty
275.15	.201	.00402
278.15	.14	.0028
281.15	.087	.00174

System: ethanol + 1-undecanol + water; phases: Liquid mixture 2, Liquid mixture 1
Fixed: Pressure, kPa = 101
Property: Mass fraction of water (Liquid mixture 2); method: Chromatography
Property: Mass fraction of ethanol (Liquid mixture 1); method: Chromatography
Property: Mass fraction of water (Liquid mixture 1); method: Chromatography
Temperature, K	Mass fraction of ethanol	Mass fraction of water	uncertainty	Mass fraction of ethanol	uncertainty	Mass fraction of water	uncertainty
275.15	.3683	.1828	.003656	.4737	.009474	.5053	.007
298.15	.0574	.0416	.000832	.1234	.002468	.8734	.007
298.15	.2598	.0995	.00199	.3494	.006988	.6482	.007
281.15	.3078	.1293	.002586	.4109	.008218	.5851	.007
275.15	.2655	.1024	.002048	.3828	.007656	.6156	.007
275.15	.2111	.0778	.001556	.3477	.006954	.6514	.007
278.15	.372	.126	.00252	.441	.00882	.5546	.007
278.15	.304	.111	.00222	.413	.00826	.5847	.007
278.15	.2466	.0962	.001924	.3556	.007112	.6428	.007
281.15	.2289	.0779	.001558	.3339	.006678	.6651	.007
281.15	.3263	.1433	.002866	.4241	.008482	.5696	.007
288.15	.3508	.1748	.003496	.4106	.008212	.5829	.007
281.15	.1737	.0647	.001294	.2932	.005864	.7064	.007
281.15	.1376	.0591	.001182	.2506	.005012	.7488	.007
281.15	.1155	.0539	.001078	.2232	.004464	.7762	.007
288.15	.1332	.0598	.001196	.2406	.004812	.7592	.007
288.15	.0661	.0419	.000838	.1172	.002344	.8823	.007
288.15	0	.034	.00068	0	0	.999	.007
288.15	.1014	.0498	.000996	.1787	.003574	.821	.007
288.15	.3253	.156	.00312	.3946	.007892	.6013	.007
275.15	.319	.1357	.002714	.4211	.008422	.5684	.007
288.15	.2593	.1077	.002154	.3502	.007004	.6481	.007
288.15	.1954	.0814	.001628	.3001	.006002	.6994	.007
298.15	.3271	.1517	.003034	.3949	.007898	.5974	.007
298.15	.1989	.0728	.001456	.2934	.005868	.7039	.007
298.15	.0911	.0396	.000792	.1827	.003654	.8143	.007

System: 1-undecanol + water; phases: Liquid mixture 1, Crystal
Property: Solid-liquid equilibrium temperature, K (Liquid mixture 1); method: Part of LLE-SLE study by chromatography
Mass fraction of water	Pressure, kPa	Solid-liquid equilibrium temperature, K	uncertainty
.9896	101	278.15	.1
.9969	101	281.15	.1

System: 1-undecanol + water; phases: Liquid mixture 1, Liquid mixture 2
Property: Mass fraction of water (Liquid mixture 1); method: Chromatography
Temperature, K	Pressure, kPa	Mass fraction of water	uncertainty
288.15	101	.999	.01998

System: 1-undecanol + water; phases: Liquid mixture 2, Liquid mixture 1
Property: Mass fraction of water (Liquid mixture 2); method: Chromatography
Temperature, K	Pressure, kPa	Mass fraction of water	uncertainty
288.15	101	.034	.00068
