Measured thermophysical data. Solubility Measurement and the Correlation of 1-Naphthaleneacetic Acid in Pure and Methanol + Water Binary Solvents from T = (278.25 to 323.55) K
Source: J. Chem. Eng. Data, 2017, 10.1021/acs.jced.6b00816
Compound 1: 1-naphthaleneacetic acid, C12H10O2, purity 99%
Compound 2: methanol, CH4O, purity 99.5%
Compound 3: ethanol, C2H6O, purity 99.5%
Compound 4: 2-propanol, C3H8O, purity 99.5%
Compound 5: toluene, C7H8, purity 99.5%
Compound 6: acetone, C3H6O, purity 99.5%
Compound 7: acetonitrile, C2H3N, purity 99.5%
Compound 8: 1,4-dioxane, C4H8O2, purity 99.5%
Compound 9: 1,2-dichloroethane, C2H4Cl2, purity 99.5%
Compound 10: ethyl acetate, C4H8O2, purity 99.5%
Compound 11: tetrahydrofuran, C4H8O, purity 99.5%
Compound 12: water, H2O, purity 99.5%

System: 1-naphthaleneacetic acid; phases: Crystal, Liquid, Air at 1 atmosphere
Property: Normal melting temperature, K (Crystal); method: DSC/DTA
Normal melting temperature, K	uncertainty
403.06	.5

System: 1-naphthaleneacetic acid; phases: Crystal, Liquid, Air at 1 atmosphere
Property: Molar enthalpy of transition or fusion, kJ/mol (Crystal); method: DSC
Molar enthalpy of transition or fusion, kJ/mol	uncertainty
21.46962098	.1073481049

System: methanol + 1-naphthaleneacetic acid; phases: Liquid, Crystal
Fixed: Pressure, kPa = 100
Property: Mole fraction of 1-naphthaleneacetic acid (Liquid); method: Titration method
Temperature, K	Mole fraction of 1-naphthaleneacetic acid	uncertainty
278.25	.0816	
283.15	.0924	
289.65	.108	
298.35	.13	
301.15	.14	
304.15	.151	
307.15	.162	
310.15	.173	
313.15	.183	
316.15	.192	
319.15	.2	
321.45	.213	

System: ethanol + 1-naphthaleneacetic acid; phases: Liquid, Crystal
Fixed: Pressure, kPa = 100
Property: Mole fraction of 1-naphthaleneacetic acid (Liquid); method: Titration method
Temperature, K	Mole fraction of 1-naphthaleneacetic acid	uncertainty
278.25	.0156	
283.15	.0209	
289.65	.0303	
297.95	.047	
300.15	.0537	
303.15	.0628	
306.15	.0731	
309.15	.0841	
312.15	.0979	
316.15	.118	
319.15	.134	
321.45	.15	

System: 2-propanol + 1-naphthaleneacetic acid; phases: Liquid, Crystal
Fixed: Pressure, kPa = 100
Property: Mole fraction of 1-naphthaleneacetic acid (Liquid); method: Titration method
Temperature, K	Mole fraction of 1-naphthaleneacetic acid	uncertainty
278.25	.00106	
283.15	.00159	
289.65	.00262	
295.95	.00419	
301.85	.00636	
304.55	.0076	
308.15	.00987	
311.15	.0121	
314.15	.0148	
317.15	.0176	
319.95	.0208	
321.45	.0231	

System: 1-naphthaleneacetic acid + toluene; phases: Liquid, Crystal
Fixed: Pressure, kPa = 100
Property: Mole fraction of 1-naphthaleneacetic acid (Liquid); method: Titration method
Temperature, K	Mole fraction of 1-naphthaleneacetic acid	uncertainty
278.25	.00918	
283.15	.0121	
289.65	.0171	
295.95	.0235	
298.95	.0271	
301.95	.0317	
304.95	.0374	
307.85	.042	
310.85	.0486	
313.85	.055	
316.55	.0625	
321.45	.0773	

System: acetone + 1-naphthaleneacetic acid; phases: Liquid, Crystal
Fixed: Pressure, kPa = 100
Property: Mole fraction of 1-naphthaleneacetic acid (Liquid); method: Titration method
Temperature, K	Mole fraction of 1-naphthaleneacetic acid	uncertainty
278.25	.162	
283.15	.18	
289.65	.205	
295.95	.232	
298.95	.243	
301.95	.258	
304.95	.273	
307.85	.286	
310.85	.301	
313.85	.317	
316.55	.332	
321.45	.358	

System: acetonitrile + 1-naphthaleneacetic acid; phases: Liquid, Crystal
Fixed: Pressure, kPa = 100
Property: Mole fraction of 1-naphthaleneacetic acid (Liquid); method: Titration method
Temperature, K	Mole fraction of 1-naphthaleneacetic acid	uncertainty
278.25	.018	
283.15	.0241	
289.65	.0348	
295.95	.0491	
298.95	.0582	
301.95	.0667	
304.95	.0786	
307.85	.0909	
310.85	.106	
313.85	.121	
316.55	.138	
321.45	.173	

System: 1-naphthaleneacetic acid + 1,4-dioxane; phases: Liquid, Crystal
Fixed: Pressure, kPa = 100
Property: Mole fraction of 1-naphthaleneacetic acid (Liquid); method: Titration method
Temperature, K	Mole fraction of 1-naphthaleneacetic acid	uncertainty
278.25	.256	
283.15	.273	
289.65	.296	
295.95	.32	
298.95	.332	
301.95	.346	
304.95	.357	
307.85	.367	
310.85	.379	
313.85	.391	
316.55	.403	
321.45	.424	

System: 1-naphthaleneacetic acid + 1,2-dichloroethane; phases: Liquid, Crystal
Fixed: Pressure, kPa = 100
Property: Mole fraction of 1-naphthaleneacetic acid (Liquid); method: Titration method
Temperature, K	Mole fraction of 1-naphthaleneacetic acid	uncertainty
278.15	.0397	
283.15	.0473	
288.15	.0561	
293.15	.0654	
298.15	.0772	
303.15	.0914	
308.15	.105	
313.15	.122	
318.35	.141	
323.35	.16	

System: 1-naphthaleneacetic acid + ethyl acetate; phases: Liquid, Crystal
Fixed: Pressure, kPa = 100
Property: Mole fraction of 1-naphthaleneacetic acid (Liquid); method: Titration method
Temperature, K	Mole fraction of 1-naphthaleneacetic acid	uncertainty
278.15	.0805	
283.15	.0909	
288.15	.101	
293.15	.112	
298.15	.125	
303.15	.14	
308.15	.154	
313.15	.17	
318.75	.186	
323.55	.203	

System: 1-naphthaleneacetic acid + tetrahydrofuran; phases: Liquid, Crystal
Fixed: Pressure, kPa = 100
Property: Mole fraction of 1-naphthaleneacetic acid (Liquid); method: Titration method
Temperature, K	Mole fraction of 1-naphthaleneacetic acid	uncertainty
278.15	.311	
283.15	.32	
288.15	.333	
293.95	.346	
298.15	.357	
303.75	.37	
308.45	.382	
313.15	.393	
318.15	.403	
323.15	.416	

System: methanol + 1-naphthaleneacetic acid + water; phases: Liquid, Crystal
Fixed: Pressure, kPa = 100
Property: Mole fraction of 1-naphthaleneacetic acid (Liquid); method: Titration method
Solvent: Mass fraction of methanol	Temperature, K	Mole fraction of 1-naphthaleneacetic acid	uncertainty
1	278.25	.0816	
1	283.15	.0924	
1	289.65	.108	
.9	298.15	.0899	
.85	298.15	.0636	
.8	298.15	.045	
.75	298.15	.0324	
.7	298.15	.0222	
.65	298.15	.0151	
.6	298.15	.00811	
.55	298.15	.00428	
.5	298.15	.00286	
.95	298.15	.128	
1	298.35	.13	
.85	301.15	.0728	
.8	301.15	.0532	
.75	301.15	.0384	
.7	301.15	.0269	
.65	301.15	.0183	
.9	301.15	.0993	
.6	301.15	.00964	
.55	301.15	.00535	
.5	301.15	.00327	
.95	301.15	.137	
1	301.15	.14	
.8	304.15	.0615	
.75	304.15	.0457	
.7	304.15	.0318	
.85	304.15	.0824	
.65	304.15	.0216	
.6	304.15	.0114	
.9	304.15	.107	
.55	304.15	.00641	
.5	304.15	.00387	
.95	304.15	.148	
1	304.15	.151	
.8	307.15	.0702	
.7	307.15	.0385	
.95	307.15	.158	
.65	307.15	.026	
.85	307.15	.0932	
.6	307.15	.0134	
.55	307.15	.0079	
.9	307.15	.117	
.5	307.15	.00452	
.75	307.15	.0544	
1	307.15	.162	
.8	310.15	.0812	
.65	310.15	.0313	
.85	310.15	.104	
.6	310.15	.0154	
.75	310.15	.0641	
.55	310.15	.00926	
.95	310.15	.168	
.7	310.15	.0472	
.5	310.15	.00517	
.9	310.15	.125	
1	310.15	.173	
.8	313.15	.093	
.6	313.15	.0178	
.85	313.15	.116	
.55	313.15	.0113	
.75	313.15	.074	
.65	313.15	.0372	
.5	313.15	.00591	
.9	313.15	.136	
.95	313.15	.179	
.7	313.15	.0566	
1	313.15	.183	
.9	316.15	.147	
.55	316.15	.0133	
.6	316.15	.0206	
.85	316.15	.13	
.65	316.15	.0439	
.5	316.15	.00693	
.8	316.15	.105	
.95	316.15	.191	
.7	316.15	.0673	
.75	316.15	.0859	
1	316.15	.192	
.95	319.15	.2	
.85	319.15	.145	
.9	319.15	.158	
.55	319.15	.0162	
.65	319.15	.0519	
.75	319.15	.101	
.8	319.15	.119	
.7	319.15	.08	
.6	319.15	.0239	
.5	319.15	.00801	
1	319.15	.2	
1	321.45	.213	
