Measured thermophysical data. Ternary and Binary LLE Measurements for Solvent (4- Methyl-2-pentanone and 2-Methyl-2-butanol) + Furfural + Water between 298 and 401 K
Source: J. Chem. Eng. Data, 2016, 10.1021/acs.jced.5b00738
Compound 1: 4-methyl-2-pentanone, C6H12O, purity 99.6%
Compound 2: 2-methyl-2-butanol, C5H12O, purity 99.87%
Compound 3: furfural, C5H4O2
Compound 4: water, H2O
Compound 5: acetone, C3H6O, purity 99.93%

System: 4-methyl-2-pentanone; phases: Liquid
Fixed: Pressure, kPa = 101.325
Property: Refractive index (Na D-line) (Liquid); method: Standard Abbe refractometry
Temperature, K	Refractive index (Na D-line)	uncertainty
298.15	1.39327	.0005

System: 2-methyl-2-butanol; phases: Liquid
Fixed: Pressure, kPa = 101.325
Property: Refractive index (Na D-line) (Liquid); method: Standard Abbe refractometry
Temperature, K	Refractive index (Na D-line)	uncertainty
298.15	1.40219	.0005

System: furfural; phases: Liquid
Fixed: Pressure, kPa = 101.325
Property: Refractive index (Na D-line) (Liquid); method: Standard Abbe refractometry
Temperature, K	Refractive index (Na D-line)	uncertainty
298.15	1.52263	.0005

System: water; phases: Liquid
Fixed: Pressure, kPa = 101.325
Property: Refractive index (Na D-line) (Liquid); method: Standard Abbe refractometry
Temperature, K	Refractive index (Na D-line)	uncertainty
298.15	1.33249	.0005

System: acetone; phases: Liquid
Fixed: Pressure, kPa = 101.325
Property: Refractive index (Na D-line) (Liquid); method: Standard Abbe refractometry
Temperature, K	Refractive index (Na D-line)	uncertainty
298.15	1.35553	.0005

System: 2-methyl-2-butanol + furfural + water; phases: Liquid mixture 2, Liquid mixture 1
Property: Mass fraction of 2-methyl-2-butanol (Liquid mixture 2); method: Other
Property: Mass fraction of furfural (Liquid mixture 1); method: Other
Property: Mass fraction of 2-methyl-2-butanol (Liquid mixture 1); method: Other
Temperature, K	Pressure, kPa	Mass fraction of furfural	Mass fraction of 2-methyl-2-butanol	uncertainty	Mass fraction of furfural	uncertainty	Mass fraction of 2-methyl-2-butanol	uncertainty
298.3	101	.081	0	.002	.953	.006	0	.006
302.7	101	.03	.1	.002	.126	.006	.642	.006
321.7	101	.091	.034	.002	.703	.006	.169	.006
370.7	101	0	.06	.002	0	.006	.812	.006
322.2	101	.089	.046	.002	.601	.006	.25	.006
321.4	101	.088	.049	.002	.571	.006	.27	.006
321.7	101	.081	.065	.002	.448	.006	.369	.006
302.9	101	.089	0	.002	.946	.006	0	.006
322	101	.068	.071	.002	.349	.006	.449	.006
322.1	101	.066	.072	.002	.349	.006	.45	.006
322.4	101	.046	.074	.002	.245	.006	.545	.006
298.2	101	.069	.094	.002	.352	.006	.43	.006
321.6	101	.027	.074	.002	.129	.006	.666	.006
322	101	.024	.074	.002	.118	.006	.674	.006
342.3	101	.121	.016	.002	.809	.006	.082	.006
370.7	101	0	.06	.002	0	.006	.815	.006
341.8	101	.1	.042	.002	.583	.006	.249	.006
341.4	101	.067	.057	.002	.368	.006	.439	.006
340.9	101	.026	.064	.002	.131	.006	.675	.006
350.9	101	.114	.027	.002	.676	.006	.163	.006
321.4	101	.098	0	.002	.927	.006	0	.006
352.2	101	.049	.06	.002	.243	.006	.556	.006
298.2	101	.052	.103	.002	.245	.006	.515	.006
351.6	101	.026	.064	.002	.126	.006	.679	.006
371.3	150	.142	.047	.002	.562	.006	.22	.006
371.3	150	.142	.047	.002	.561	.006	.22	.006
371.3	150	.142	.047	.002	.56	.006	.22	.006
401	101	0	.066	.002	0	.006	.805	.006
371.5	150	.074	.062	.002	.324	.006	.455	.006
371.5	150	.074	.062	.002	.324	.006	.456	.006
371.5	150	.036	.062	.002	.172	.006	.62	.006
371.5	150	.037	.062	.002	.172	.006	.621	.006
371.6	150	.037	.062	.002	.175	.006	.621	.006
298.2	101	.084	0	.002	.952	.006	0	.006
350.2	101	.141	0	.002	.899	.006	0	.006
371.6	150	.037	.063	.002	.174	.006	.622	.006
371.6	150	.017	.059	.002	.081	.006	.722	.006
371.6	150	.017	.06	.002	.081	.006	.723	.006
400	400	.193	.051	.002	.514	.006	.184	.006
401	101	0	.066	.002	0	.006	.805	.006
400	400	.194	.05	.002	.513	.006	.184	.006
401.2	400	.088	.056	.002	.356	.006	.445	.006
401.1	400	.087	.057	.002	.349	.006	.445	.006
401.1	400	.087	.057	.002	.349	.006	.445	.006
298.2	101	.051	.101	.002	.24	.006	.517	.006
401.2	400	.087	.056	.002	.355	.006	.446	.006
401.1	400	.041	.054	.002	.174	.006	.608	.006
298.2	101	0	.108	.002	0	.006	.781	.006
401.1	400	.041	.055	.002	.173	.006	.609	.006
298.3	101	0	.109	.002	0	.006	.782	.006
303	101	0	.094	.002	0	.006	.786	.006
298.2	101	.084	.048	.002	.743	.006	.158	.006
322.4	101	0	.073	.002	0	.006	.808	.006
298.1	101	.084	.061	.002	.634	.006	.233	.006
298.1	101	.081	.078	.002	.487	.006	.329	.006
298.2	101	.027	.111	.002	.114	.006	.644	.006
298.2	101	.077	.081	.002	.464	.006	.351	.006
303.1	101	.089	.025	.002	.844	.006	.079	.006
302.9	101	.083	.057	.002	.621	.006	.243	.006
302.8	101	.067	.084	.002	.37	.006	.422	.006

System: furfural + 4-methyl-2-pentanone + water; phases: Liquid mixture 2, Liquid mixture 1
Property: Mass fraction of 4-methyl-2-pentanone (Liquid mixture 2); method: Other
Property: Mass fraction of furfural (Liquid mixture 1); method: Other
Property: Mass fraction of 4-methyl-2-pentanone (Liquid mixture 1); method: Other
Temperature, K	Pressure, kPa	Mass fraction of furfural	Mass fraction of 4-methyl-2-pentanone	uncertainty	Mass fraction of furfural	uncertainty	Mass fraction of 4-methyl-2-pentanone	uncertainty
302	101	.047	.01	.001	.549	.007	.414	.006
302.6	101	.017	.014	.001	.187	.007	.788	.006
302.8	101	0	.016	.001	0	.007	.981	.006
302.8	101	.085	0	.001	.95	.007	0	.006
302.9	101	.008	.015	.001	.095	.007	.884	.006
302.9	101	.009	.014	.001	.097	.007	.881	.006
303	101	.055	.008	.001	.675	.007	.286	.006
303.1	101	.064	.006	.001	.757	.007	.2	.006
303.1	101	0	.016	.001	0	.007	.981	.006
303.1	101	.087	0	.001	.95	.007	0	.006
303.1	101	.064	.005	.001	.77	.007	.187	.006
302	101	.045	.011	.001	.541	.007	.424	.006
303.2	101	.087	0	.001	.949	.007	0	.006
320.6	101	.037	.01	.001	.407	.007	.56	.006
320.9	101	.05	.01	.001	.545	.007	.404	.006
321.2	101	.025	.012	.001	.279	.007	.688	.006
321.3	101	.074	.005	.001	.799	.007	.142	.006
321.3	101	.037	.011	.001	.388	.007	.576	.006
321.7	101	.013	.013	.001	.136	.007	.838	.006
321.8	101	.029	.014	.001	.302	.007	.66	.006
321.8	101	.018	.012	.001	.194	.007	.775	.006
322.2	101	.009	.014	.001	.097	.007	.874	.006
302	101	.034	.012	.001	.408	.007	.562	.006
322.2	101	.009	.013	.001	.093	.007	.879	.006
322.4	101	0	.014	.001	0	.007	.975	.006
322.6	101	.052	.01	.001	.56	.007	.397	.006
322.6	101	.101	0	.001	.935	.007	0	.006
322.6	101	.023	.011	.001	.258	.007	.711	.006
322.7	101	.031	.011	.001	.347	.007	.619	.006
322.8	101	.073	.005	.001	.763	.007	.182	.006
322.9	101	.04	.01	.001	.456	.007	.506	.006
339.6	101	.056	.009	.001	.533	.007	.417	.006
340.2	101	.059	.011	.001	.542	.007	.405	.006
302.3	101	.034	.012	.001	.391	.007	.579	.006
340.8	101	.042	.013	.001	.383	.007	.565	.006
341.4	101	.021	.014	.001	.191	.007	.773	.006
341.9	101	.057	.009	.001	.536	.007	.393	.006
342	101	.01	.013	.001	.092	.007	.875	.006
342.2	101	.12	0	.001	.898	.007	0	.006
371.5	150	.048	.013	.001	.364	.007	.573	.006
371.5	150	.025	.014	.001	.189	.007	.763	.006
371.5	150	.048	.013	.001	.365	.007	.573	.006
371.5	150	.025	.014	.001	.19	.007	.762	.006
371.6	150	.027	.014	.001	.211	.007	.746	.006
302.3	101	.025	.014	.001	.281	.007	.691	.006
371.6	150	.073	.012	.001	.517	.007	.408	.006
371.6	150	.072	.013	.001	.515	.007	.41	.006
371.6	150	.074	.013	.001	.517	.007	.409	.006
371.8	150	.136	.009	.001	.747	.007	.143	.006
371.8	150	.137	.009	.001	.749	.007	.142	.006
371.9	150	.134	.008	.001	.746	.007	.142	.006
371.9	150	.134	.008	.001	.745	.007	.142	.006
401	101	0	.018	.001	0	.007	.941	.006
401	400	.034	.02	.001	.202	.007	.72	.006
401	400	.067	.019	.001	.371	.007	.541	.006
302.3	101	.066	.005	.001	.809	.007	.144	.006
401	101	0	.019	.001	0	.007	.941	.006
401.1	400	.122	.02	.001	.548	.007	.327	.006
401.1	400	.06	.021	.001	.326	.007	.582	.006
401.1	400	.06	.02	.001	.326	.007	.582	.006
401.1	400	.122	.021	.001	.55	.007	.326	.006
401.2	400	.1	.021	.001	.497	.007	.404	.006
401.2	400	.101	.021	.001	.494	.007	.403	.006
401.2	400	.188	.019	.001	.655	.007	.166	.006
401.2	400	.187	.019	.001	.655	.007	.165	.006
401.5	400	.223	.019	.001	.671	.007	.13	.006
302.3	101	.031	.013	.001	.362	.007	.607	.006
401.5	400	.223	.019	.001	.67	.007	.13	.006
302.6	101	.027	.013	.001	.306	.007	.664	.006
302.6	101	.017	.014	.001	.196	.007	.78	.006

System: furfural + water; phases: Liquid mixture 2, Liquid mixture 1
Property: Mass fraction of furfural (Liquid mixture 2); method: Other
Pressure, kPa	Temperature, K	Mass fraction of furfural	uncertainty
101	298.3	.081	.003
101	302.9	.089	.003
101	321.4	.098	.003
101	298.2	.084	.003
101	350.2	.141	.003
101	302.8	.085	.003
101	322.6	.101	.003
101	303.1	.087	.003
101	342.2	.12	.003
101	303.2	.087	.003

System: furfural + water; phases: Liquid mixture 1, Liquid mixture 2
Property: Mass fraction of furfural (Liquid mixture 1); method: Other
Pressure, kPa	Temperature, K	Mass fraction of furfural	uncertainty
101	298.3	.953	.006
101	302.9	.946	.006
101	321.4	.927	.006
101	298.2	.952	.006
101	350.2	.899	.006
101	302.8	.95	.006
101	322.6	.935	.006
101	303.1	.95	.006
101	342.2	.898	.006
101	303.2	.949	.006

System: 2-methyl-2-butanol + water; phases: Liquid mixture 2, Liquid mixture 1
Property: Mass fraction of 2-methyl-2-butanol (Liquid mixture 2); method: Other
Temperature, K	Pressure, kPa	Mass fraction of 2-methyl-2-butanol	uncertainty
370.7	101	.06	.002
401	101	.066	.002
298.2	101	.108	.002
298.3	101	.109	.002
303	101	.094	.002
322.4	101	.073	.002

System: 2-methyl-2-butanol + water; phases: Liquid mixture 1, Liquid mixture 2
Property: Mass fraction of 2-methyl-2-butanol (Liquid mixture 1); method: Other
Temperature, K	Pressure, kPa	Mass fraction of 2-methyl-2-butanol	uncertainty
370.7	101	.812	.006
370.7	101	.815	.006
401	101	.805	.006
298.2	101	.781	.006
298.3	101	.782	.006
303	101	.786	.006
322.4	101	.808	.006

System: 4-methyl-2-pentanone + water; phases: Liquid mixture 2, Liquid mixture 1
Property: Mass fraction of 4-methyl-2-pentanone (Liquid mixture 2); method: Other
Temperature, K	Pressure, kPa	Mass fraction of 4-methyl-2-pentanone	uncertainty
401	101	.019	.001
303.1	101	.016	.001
302.8	101	.016	.001
322.4	101	.014	.001
401	101	.018	.001

System: 4-methyl-2-pentanone + water; phases: Liquid mixture 1, Liquid mixture 2
Property: Mass fraction of 4-methyl-2-pentanone (Liquid mixture 1); method: Other
Temperature, K	Pressure, kPa	Mass fraction of 4-methyl-2-pentanone	uncertainty
401	101	.941	.006
303.1	101	.981	.006
302.8	101	.981	.006
322.4	101	.975	.006
