Measured thermophysical data. Sucrose Solubility in Binary Liquid Mixtures Formed by Water Methanol, Water Ethanol, and Methanol Ethanol at 303 and 313 K
Source: J. Chem. Eng. Data, 2016, 10.1021/acs.jced.5b01102
Compound 1: water, H2O, purity 99.8%
Compound 2: methanol, CH4O, purity 99.9%
Compound 3: ethanol, C2H6O, purity 99.5%
Compound 4: D-sucrose, C12H22O11, purity 99.0%

System: water; phases: Liquid
Fixed: Pressure, kPa = 101.325
Property: Refractive index (Na D-line) (Liquid); method: Standard Abbe refractometry
Temperature, K	Refractive index (Na D-line)	uncertainty
298.15	1.33251	.00002

System: methanol; phases: Liquid
Fixed: Pressure, kPa = 101.325
Property: Refractive index (Na D-line) (Liquid); method: Standard Abbe refractometry
Temperature, K	Refractive index (Na D-line)	uncertainty
298.15	1.32655	.00002

System: ethanol; phases: Liquid
Fixed: Pressure, kPa = 101.325
Property: Refractive index (Na D-line) (Liquid); method: Standard Abbe refractometry
Temperature, K	Refractive index (Na D-line)	uncertainty
298.15	1.35947	.00002

System: D-sucrose + methanol + water; phases: Liquid, Crystal
Fixed: Pressure, kPa = 100
Property: Mass fraction of D-sucrose (Liquid); method: Gravimetric
Temperature, K	Solvent: Mole fraction of methanol	Mass fraction of D-sucrose	uncertainty
303.2	1	.008134	
303.2	.9	.014626	
303.2	.8	.032468	
303.2	.6999	.074915	
303.2	.6	.159546	
303.2	.5	.27223	
303.2	.4	.414636	
303.2	.3	.518577	
303.2	.2	.617732	
303.2	.1001	.664085	
303.2	0	.698458	
313.2	1	.010324	
313.2	.9	.020116	
313.2	.8	.044455	
313.2	.6999	.099994	
313.2	.6	.201882	
313.2	.5	.343116	
313.2	.4	.468493	
313.2	.3	.556299	
313.2	.2	.622578	
313.2	.1001	.673142	
313.2	0	.707301	

System: D-sucrose + ethanol + water; phases: Liquid, Crystal
Fixed: Pressure, kPa = 100
Property: Mass fraction of D-sucrose (Liquid); method: Gravimetric
Temperature, K	Solvent: Mole fraction of ethanol	Mass fraction of D-sucrose	uncertainty
303.2	1	.000941	
303.2	.9	.002238	
303.2	.7992	.006264	
303.2	.6998	.022237	
303.2	.6	.058875	
303.2	.5026	.145163	
303.2	.4019	.269579	
303.2	.3	.41235	
303.2	.2	.529703	
303.2	.1	.612895	
303.2	0	.698458	
313.2	1	.001097	
313.2	.9	.003512	
313.2	.7992	.009899	
313.2	.6998	.02837	
313.2	.6	.07649	
313.2	.5026	.161615	
313.2	.4019	.316026	
313.2	.3	.433982	
313.2	.2	.5727	
313.2	.1	.650959	
313.2	0	.707301	

System: D-sucrose + ethanol + methanol; phases: Liquid, Crystal
Fixed: Pressure, kPa = 100
Property: Mass fraction of D-sucrose (Liquid); method: Gravimetric
Temperature, K	Solvent: Mole fraction of methanol	Mass fraction of D-sucrose	uncertainty
303.2	1	.008134	
303.2	.9006	.006246	
303.2	.7999	.00466	
303.2	.6997	.003652	
303.2	.5998	.002851	
303.2	.5002	.00209	
303.2	.3999	.001675	
303.2	.3001	.001327	
303.2	.1999	.001199	
303.2	.1	.000985	
303.2	0	.000941	
313.2	1	.010324	
313.2	.9006	.007703	
313.2	.7999	.005847	
313.2	.6997	.004612	
313.2	.5998	.003765	
313.2	.5002	.002984	
313.2	.3999	.002274	
313.2	.3001	.001967	
313.2	.1999	.001501	
313.2	.1	.001387	
313.2	0	.001273	

System: D-sucrose + methanol; phases: Liquid, Crystal
Property: Mass fraction of D-sucrose (Liquid); method: Gravimetric
Temperature, K	Pressure, kPa	Mass fraction of D-sucrose	uncertainty
303.2	100	.008134	
313.2	100	.010324	

System: D-sucrose + water; phases: Liquid, Crystal
Property: Mass fraction of D-sucrose (Liquid); method: Gravimetric
Temperature, K	Pressure, kPa	Mass fraction of D-sucrose	uncertainty
303.2	100	.698458	
313.2	100	.707301	

System: D-sucrose + ethanol; phases: Liquid, Crystal
Property: Mass fraction of D-sucrose (Liquid); method: Gravimetric
Temperature, K	Pressure, kPa	Mass fraction of D-sucrose	uncertainty
303.2	100	.000941	
313.2	100	.001097	
313.2	100	.001273	
