Measured thermophysical data. p x Data of (Acetic Acid + Water) at T = (412.6, 443.2, 483.2) K
Source: J. Chem. Eng. Data, 2016, 10.1021/acs.jced.5b01104
Compound 1: acetic acid, C2H4O2, purity 99.01%
Compound 2: water, H2O, purity 99.99%

System: water; phases: Liquid, Gas
Property: Vapor or sublimation pressure, kPa (Liquid); method: Other
Temperature, K	Vapor or sublimation pressure, kPa	uncertainty
412.6	356	
443.2	792	
483.2	1902	

System: acetic acid + water; phases: Liquid, Gas
Property: Mole fraction of acetic acid (Liquid); method: Chromatography
Temperature, K	Pressure, kPa	Mole fraction of acetic acid	uncertainty
412.6	196	.976	
412.6	210	.951	
412.6	230	.889	
412.6	266	.721	
412.6	290	.579	
412.6	311	.433	
412.6	326	.347	
412.6	333	.282	
412.6	341	.186	
412.6	348	.102	
412.6	349	.085	
412.6	353	.014	
412.6	356	0	
443.2	426	.983	
443.2	437	.975	
443.2	461	.955	
443.2	504	.903	
443.2	551	.823	
443.2	605	.697	
443.2	654	.568	
443.2	704	.409	
443.2	731	.315	
443.2	760	.195	
443.2	768	.178	
443.2	774	.148	
443.2	780	.133	
443.2	786	.105	
443.2	789	.055	
443.2	792	0	
483.2	1012	.977	
483.2	1052	.955	
483.2	1150	.895	
483.2	1272	.822	
483.2	1401	.689	
483.2	1515	.58	
483.2	1652	.444	
483.2	1690	.407	
483.2	1750	.335	
483.2	1796	.275	
483.2	1821	.234	
483.2	1855	.178	
483.2	1870	.153	
483.2	1881	.1	
483.2	1890	.078	
483.2	1896	.048	
483.2	1900	.034	
483.2	1902	0	
