Measured thermophysical data. Liquid Liquid Equilibria Data for Ethylbenzene or p-Xylene with Alkane and 1-Butylpyridinium Nitrate Ionic Liquid at 298.15 K
Source: J. Chem. Eng. Data, 2017, 10.1021/acs.jced.6b00881
Compound 1: 1-butylpyridinium nitrate, C9H14N2O3, purity 98%
Compound 2: ethylbenzene, C8H10, purity 99.4%
Compound 3: 1,4-dimethylbenzene, C8H10, purity 99%
Compound 4: heptane, C7H16, purity 99.5%
Compound 5: octane, C8H18, purity 99.2%
Compound 6: decane, C10H22, purity 99.2%

System: ethylbenzene + heptane + 1-butylpyridinium nitrate; phases: Liquid mixture 1, Liquid mixture 2
Property: Mole fraction of heptane (Liquid mixture 1); method: Chromatography
Property: Mole fraction of ethylbenzene (Liquid mixture 2); method: Chromatography
Property: Mole fraction of heptane (Liquid mixture 2); method: Chromatography
Temperature, K	Pressure, kPa	Mole fraction of ethylbenzene	Mole fraction of heptane	uncertainty	Mole fraction of ethylbenzene	uncertainty	Mole fraction of heptane	uncertainty
298.15	89	.042	.958	.001	.021	.001	.011	.001
298.15	89	.786	.214	.001	.146	.001	.006	.001
298.15	89	.891	.109	.001	.176	.001	.005	.001
298.15	89	.087	.913	.001	.033	.001	.01	.001
298.15	89	.18	.82	.001	.053	.001	.009	.001
298.15	89	.281	.719	.001	.066	.001	.008	.001
298.15	89	.379	.621	.001	.079	.001	.007	.001
298.15	89	.479	.521	.001	.09	.001	.007	.001
298.15	89	.581	.419	.001	.107	.001	.007	.001
298.15	89	.681	.319	.001	.127	.001	.006	.001

System: ethylbenzene + octane + 1-butylpyridinium nitrate; phases: Liquid mixture 2, Liquid mixture 1
Property: Mole fraction of octane (Liquid mixture 2); method: Chromatography
Property: Mole fraction of octane (Liquid mixture 1); method: Chromatography
Property: Mole fraction of ethylbenzene (Liquid mixture 1); method: Chromatography
Temperature, K	Pressure, kPa	Mole fraction of ethylbenzene	Mole fraction of octane	uncertainty	Mole fraction of octane	uncertainty	Mole fraction of ethylbenzene	uncertainty
298.15	89	.024	.011	.001	.961	.001	.039	.001
298.15	89	.227	.005	.001	.113	.001	.887	.001
298.15	89	.038	.009	.001	.915	.001	.085	.001
298.15	89	.063	.008	.001	.824	.001	.176	.001
298.15	89	.082	.007	.001	.728	.001	.272	.001
298.15	89	.099	.006	.001	.628	.001	.372	.001
298.15	89	.116	.006	.001	.528	.001	.472	.001
298.15	89	.137	.006	.001	.428	.001	.572	.001
298.15	89	.162	.006	.001	.326	.001	.674	.001
298.15	89	.186	.005	.001	.22	.001	.78	.001

System: ethylbenzene + decane + 1-butylpyridinium nitrate; phases: Liquid mixture 2, Liquid mixture 1
Property: Mole fraction of decane (Liquid mixture 2); method: Chromatography
Property: Mole fraction of decane (Liquid mixture 1); method: Chromatography
Property: Mole fraction of ethylbenzene (Liquid mixture 1); method: Chromatography
Temperature, K	Pressure, kPa	Mole fraction of ethylbenzene	Mole fraction of decane	uncertainty	Mole fraction of decane	uncertainty	Mole fraction of ethylbenzene	uncertainty
298.15	89	.027	.009	.001	.961	.001	.039	.001
298.15	89	.295	.004	.001	.121	.001	.879	.001
298.15	89	.045	.008	.001	.918	.001	.082	.001
298.15	89	.075	.007	.001	.83	.001	.17	.001
298.15	89	.1	.006	.001	.733	.001	.267	.001
298.15	89	.122	.006	.001	.638	.001	.362	.001
298.15	89	.147	.005	.001	.541	.001	.459	.001
298.15	89	.177	.005	.001	.438	.001	.562	.001
298.15	89	.205	.005	.001	.337	.001	.663	.001
298.15	89	.243	.005	.001	.232	.001	.768	.001

System: 1,4-dimethylbenzene + heptane + 1-butylpyridinium nitrate; phases: Liquid mixture 2, Liquid mixture 1
Property: Mole fraction of heptane (Liquid mixture 2); method: Chromatography
Property: Mole fraction of heptane (Liquid mixture 1); method: Chromatography
Property: Mole fraction of 1,4-dimethylbenzene (Liquid mixture 1); method: Chromatography
Temperature, K	Pressure, kPa	Mole fraction of 1,4-dimethylbenzene	Mole fraction of heptane	uncertainty	Mole fraction of heptane	uncertainty	Mole fraction of 1,4-dimethylbenzene	uncertainty
298.15	89	.024	.011	.001	.959	.001	.041	.001
298.15	89	.219	.005	.001	.111	.001	.889	.001
298.15	89	.039	.01	.001	.915	.001	.085	.001
298.15	89	.063	.008	.001	.823	.001	.177	.001
298.15	89	.081	.007	.001	.727	.001	.273	.001
298.15	89	.098	.006	.001	.628	.001	.372	.001
298.15	89	.115	.006	.001	.528	.001	.472	.001
298.15	89	.134	.005	.001	.427	.001	.573	.001
298.15	89	.156	.006	.001	.326	.001	.674	.001
298.15	89	.184	.006	.001	.219	.001	.781	.001

System: 1,4-dimethylbenzene + octane + 1-butylpyridinium nitrate; phases: Liquid mixture 2, Liquid mixture 1
Property: Mole fraction of octane (Liquid mixture 2); method: Chromatography
Property: Mole fraction of octane (Liquid mixture 1); method: Chromatography
Property: Mole fraction of 1,4-dimethylbenzene (Liquid mixture 1); method: Chromatography
Temperature, K	Pressure, kPa	Mole fraction of 1,4-dimethylbenzene	Mole fraction of octane	uncertainty	Mole fraction of octane	uncertainty	Mole fraction of 1,4-dimethylbenzene	uncertainty
298.15	89	.027	.011	.001	.961	.001	.039	.001
298.15	89	.266	.005	.001	.116	.001	.884	.001
298.15	89	.044	.01	.001	.918	.001	.082	.001
298.15	89	.075	.008	.001	.827	.001	.173	.001
298.15	89	.095	.007	.001	.734	.001	.266	.001
298.15	89	.116	.007	.001	.634	.001	.366	.001
298.15	89	.136	.006	.001	.535	.001	.465	.001
298.15	89	.16	.006	.001	.435	.001	.565	.001
298.15	89	.188	.006	.001	.332	.001	.668	.001
298.15	89	.217	.005	.001	.227	.001	.773	.001

System: 1,4-dimethylbenzene + decane + 1-butylpyridinium nitrate; phases: Liquid mixture 2, Liquid mixture 1
Property: Mole fraction of decane (Liquid mixture 2); method: Chromatography
Property: Mole fraction of decane (Liquid mixture 1); method: Chromatography
Property: Mole fraction of 1,4-dimethylbenzene (Liquid mixture 1); method: Chromatography
Temperature, K	Pressure, kPa	Mole fraction of 1,4-dimethylbenzene	Mole fraction of decane	uncertainty	Mole fraction of decane	uncertainty	Mole fraction of 1,4-dimethylbenzene	uncertainty
298.15	89	.029	.009	.001	.962	.001	.038	.001
298.15	89	.332	.004	.001	.126	.001	.874	.001
298.15	89	.05	.009	.001	.92	.001	.08	.001
298.15	89	.086	.007	.001	.834	.001	.166	.001
298.15	89	.111	.006	.001	.738	.001	.262	.001
298.15	89	.139	.006	.001	.644	.001	.356	.001
298.15	89	.166	.006	.001	.547	.001	.453	.001
298.15	89	.2	.006	.001	.446	.001	.554	.001
298.15	89	.236	.005	.001	.345	.001	.655	.001
298.15	89	.282	.005	.001	.24	.001	.76	.001
