Measured thermophysical data. Measurement and Correlation of the Thermal Conductivity of trans-1-Chloro-3,3,3-trifluoropropene (R1233zd(E))
Source: J. Chem. Eng. Data, 2017, 10.1021/acs.jced.7b00106
Compound 1: trans-1-chloro-3,3,3-trifluoropropene, C3H2ClF3, purity 99.985%

System: trans-1-chloro-3,3,3-trifluoropropene; phases: Gas
Property: Thermal conductivity, W/m/K (Gas); method: Other
Pressure, kPa	Temperature, K	Thermal conductivity, W/m/K	uncertainty
145	301.563	.01102	
143	301.886	.01116	
142	302.249	.01122	
142	302.625	.01123	
142	303.039	.01123	
143	301.564	.01127	
141	301.904	.01138	
139	302.26	.01122	
139	302.642	.01119	
137	303.059	.01133	
136	303.496	.01133	
136	303.972	.01134	
135	304.496	.01137	
135	305.029	.0114	
134	305.599	.01142	
122	301.591	.01123	
122	301.912	.01121	
122	302.28	.01119	
122	302.645	.01131	
121	303.07	.01128	
122	303.526	.01133	
121	304.003	.01134	
122	304.506	.01139	
121	305.049	.0114	
122	305.617	.01143	
131	301.592	.01121	
130	301.923	.01129	
130	302.282	.01138	
131	302.643	.01128	
131	303.067	.01133	
132	303.513	.01137	
131	304.007	.01133	
130	304.531	.01127	
131	305.156	.01092	
132	305.735	.01105	
134	311.931	.01187	
135	312.259	.01202	
135	312.645	.01197	
134	313.055	.01201	
134	313.492	.01209	
132	314.471	.01204	
133	315.004	.01215	
132	315.559	.01212	
157	311.53	.01177	
158	311.842	.01185	
159	312.185	.01198	
160	312.534	.01191	
162	312.935	.01192	
163	313.359	.01197	
164	313.806	.01205	
165	314.292	.01203	
166	314.801	.01203	
166	315.337	.01208	
98	312.22	.012	
98	312.555	.01197	
97	312.927	.01203	
97	313.31	.01207	
97	313.735	.01206	
96	314.191	.0121	
96	314.677	.01213	
96	315.202	.01218	
96	315.751	.01223	
96	316.328	.01227	
98	321.769	.01281	
98	322.089	.01259	
98	322.443	.01281	
99	322.817	.01285	
99	323.245	.01276	
99	323.692	.01287	
99	324.173	.01287	
99	324.679	.0129	
99	325.222	.01286	
99	325.785	.01295	
145	321.627	.01268	
145	321.936	.01263	
144	322.29	.01276	
143	322.64	.0128	
143	323.03	.01271	
142	323.471	.0127	
142	323.924	.01276	
142	324.409	.01275	
141	324.926	.01279	
141	325.469	.01283	
254	321.409	.01268	
256	321.696	.01247	
257	322.008	.01246	
258	322.339	.0126	
259	322.722	.01251	
259	323.104	.01262	
259	323.538	.01261	
260	323.987	.01261	
260	324.454	.01268	
260	324.962	.01269	
197	321.402	.0125	
196	321.719	.01245	
194	322.05	.01256	
193	322.39	.01261	
192	322.777	.01262	
191	323.197	.01256	
189	323.637	.01262	
188	324.115	.01262	
187	324.609	.01271	
186	325.135	.01278	
164	322.251	.01289	
164	322.564	.0126	
164	322.901	.01257	
164	323.25	.01258	
165	323.645	.01259	
165	324.067	.01273	
165	324.516	.01271	
163	324.992	.01274	
161	325.499	.01276	
160	326.035	.01284	
122	322.223	.0128	
123	322.546	.01279	
123	322.892	.01281	
123	323.256	.01268	
123	323.654	.01276	
123	324.087	.0128	
123	324.55	.01276	
123	325.038	.01286	
123	325.558	.01283	
123	326.103	.01295	
97	332.044	.01346	
97	332.369	.01361	
98	332.711	.01354	
97	333.082	.01356	
97	333.497	.01356	
97	333.938	.01368	
97	334.413	.01363	
97	334.907	.01369	
97	335.438	.01368	
98	336.001	.01372	
333	331.541	.01297	
332	331.816	.01319	
331	332.121	.01303	
333	331.503	.01298	
333	331.858	.01297	
333	332.281	.013	
333	332.634	.01323	
333	333.077	.01308	
333	333.535	.01313	
333	334.011	.01329	
329	331.579	.01333	
328	331.89	.01301	
328	332.202	.01299	
328	332.56	.01325	
328	332.951	.0132	
328	333.351	.0133	
328	333.784	.01326	
328	334.245	.01327	
328	334.733	.01333	
263	331.973	.01309	
262	332.302	.01306	
260	332.661	.01314	
258	333.057	.01325	
257	333.486	.01337	
255	333.933	.01332	
254	334.419	.0134	
253	334.923	.0134	
186	332.079	.01344	
185	332.419	.01339	
183	332.813	.0135	
183	333.218	.01328	
182	333.663	.01345	
180	334.139	.01351	
179	334.626	.01343	
178	335.16	.01354	
176	335.708	.01352	
176	336.289	.01354	
115	331.529	.01325	
115	331.847	.01325	
114	332.181	.01353	
113	332.538	.01346	
113	332.946	.01357	
113	333.377	.01357	
113	333.82	.0136	
112	334.311	.01357	
112	334.824	.01357	
112	335.365	.01364	
114	341.471	.01391	
114	341.787	.0139	
113	342.128	.01416	
113	342.469	.01424	
113	342.853	.01425	
113	343.274	.01431	
113	343.722	.01433	
113	344.204	.01446	
114	344.7	.01426	
114	345.231	.01452	
465	341.841	.01387	
465	342.12	.01384	
465	342.452	.01403	
465	342.795	.01412	
465	344.48	.01396	
465	344.946	.01434	
465	345.44	.0143	
464	341.731	.01417	
464	342.015	.0141	
464	342.337	.0141	
464	342.699	.01406	
464	343.07	.01408	
463	344.838	.01404	
463	345.338	.01431	
380	341.911	.01419	
377	342.205	.01421	
375	342.548	.01415	
372	342.912	.01419	
370	343.296	.01421	
368	343.712	.01422	
365	344.155	.0142	
360	345.191	.01419	
358	345.699	.01431	
264	341.994	.01423	
262	342.303	.01427	
260	342.656	.01427	
258	343.028	.01427	
254	343.445	.0143	
252	343.888	.01433	
250	344.346	.01435	
248	344.843	.01433	
246	345.365	.01436	
245	345.899	.01451	
182	341.495	.01442	
181	341.781	.01434	
180	342.102	.01435	
179	342.429	.01433	
178	342.798	.01445	
178	343.201	.01442	
177	343.627	.01444	
176	344.08	.01441	
175	344.562	.01444	
174	345.076	.01445	
117	341.556	.01424	
116	341.876	.01443	
116	342.201	.01425	
117	342.548	.01427	
116	342.942	.01437	
117	343.352	.01424	
116	343.818	.01436	
117	344.282	.01435	
119	344.788	.01436	
120	345.306	.01441	

System: trans-1-chloro-3,3,3-trifluoropropene; phases: Gas
Property: Thermal conductivity, W/m/K (Gas); method: Other
Pressure, kPa	Temperature, K	Thermal conductivity, W/m/K	uncertainty
136	302.527	.01102	
136	302.847	.01096	
135	303.166	.01096	
122	302.545	.01105	
122	302.857	.011	
122	303.18	.01101	
132	302.529	.0109	
131	302.852	.0108	
132	303.177	.0107	
131	312.793	.01152	
130	313.107	.0115	
134	312.225	.01169	
133	312.504	.0117	
133	312.822	.01159	
132	313.153	.01155	
165	312.172	.01181	
165	312.459	.01175	
166	312.761	.01173	
167	313.066	.01173	
191	312.372	.012	
191	312.666	.01194	
190	312.967	.01196	
195	313.064	.01197	
195	313.354	.01196	
195	313.66	.01193	
96	312.81	.01168	
96	313.112	.0116	
96	313.417	.01157	
96	313.741	.01156	
99	322.048	.01242	
99	322.333	.01222	
99	322.609	.01223	
99	322.911	.0122	
99	323.238	.01215	
142	321.969	.01247	
142	322.23	.01241	
141	322.518	.01234	
141	322.814	.01231	
141	323.133	.01226	
259	322.015	.01279	
260	322.273	.0128	
260	322.535	.01283	
260	322.816	.01282	
189	322.068	.01239	
188	322.321	.01244	
187	322.628	.01233	
186	322.916	.0124	
164	322.891	.01245	
162	323.168	.01242	
161	323.455	.01242	
160	323.766	.01238	
123	322.826	.01245	
123	323.108	.01239	
123	323.409	.01233	
123	323.724	.01229	
97	332.558	.01298	
97	332.837	.01292	
97	333.138	.01284	
97	333.445	.01284	
333	331.175	.01373	
333	331.417	.01368	
333	331.676	.01367	
333	331.943	.01367	
328	331.902	.01382	
328	332.143	.01379	
328	332.404	.01373	
328	332.667	.01373	
257	331.746	.01341	
256	331.995	.01333	
255	332.255	.01328	
253	332.522	.01329	
252	332.812	.01326	
182	331.803	.01323	
181	332.064	.01314	
180	332.331	.01309	
178	332.626	.01301	
177	332.929	.01297	
176	333.253	.01293	
176	333.585	.01292	
113	331.827	.01306	
113	332.083	.01302	
113	332.355	.01297	
112	332.645	.01294	
113	332.962	.01287	
113	341.502	.01391	
113	341.739	.01377	
113	341.997	.01367	
113	342.264	.01361	
114	342.544	.0136	
114	342.849	.01353	
367	342.148	.01454	
364	342.404	.01446	
362	342.671	.01441	
359	342.929	.01446	
357	343.217	.01443	
256	341.738	.01435	
253	341.981	.01421	
251	342.237	.01415	
249	342.515	.01404	
247	342.797	.01402	
246	343.081	.01404	
244	343.389	.01403	
177	341.795	.01425	
176	342.054	.01407	
176	342.33	.01391	
175	342.593	.01391	
173	342.89	.01384	
117	341.842	.01379	
117	342.092	.01369	
118	342.354	.01366	
119	342.637	.01361	
121	342.946	.01352	

System: trans-1-chloro-3,3,3-trifluoropropene; phases: Liquid
Property: Thermal conductivity, W/m/K (Liquid); method: Other
Pressure, kPa	Temperature, K	Thermal conductivity, W/m/K	uncertainty
62986	301.391	.10669	
62992	301.469	.10612	
62991	301.79	.10594	
62976	301.889	.10581	
62977	302.247	.10604	
62973	302.371	.10577	
62930	302.752	.10603	
62949	302.914	.1057	
62940	303.307	.10586	
62957	303.496	.10579	
48436	301.417	.1008	
48438	301.496	.10062	
48421	301.935	.10134	
48422	302.309	.1015	
48420	302.441	.1011	
48410	302.832	.10135	
48417	303.004	.10103	
48413	303.417	.10131	
48415	303.612	.10096	
36400	301.075	.09652	
36402	301.136	.09595	
36396	301.443	.09731	
36388	301.529	.09726	
36387	301.881	.09695	
36387	301.985	.09693	
36377	302.375	.09716	
36380	302.509	.09677	
36387	302.921	.09706	
25797	301.103	.09286	
25808	301.16	.09205	
25801	301.486	.09292	
25794	301.579	.0925	
25799	301.936	.09347	
25799	302.054	.0933	
25800	302.452	.09349	
25791	302.591	.09335	
25798	303.022	.09309	
25794	303.197	.0928	
16454	301.142	.08935	
16447	301.205	.08939	
16449	301.539	.09014	
16455	301.627	.08833	
16444	302.003	.08896	
16448	302.118	.08904	
16444	302.531	.0897	
16449	302.677	.08922	
16450	303.117	.08937	
16446	303.308	.08918	
8081	301.118	.08639	
8082	301.184	.08488	
8090	301.531	.08523	
8093	301.622	.08518	
8085	302.015	.08503	
8079	302.135	.08538	
8074	302.567	.08557	
8075	302.723	.08531	
8071	303.18	.0855	
8070	303.382	.08486	
367	301.63	.08213	
363	301.725	.08194	
365	302.132	.08182	
383	302.262	.08132	
373	302.702	.08122	
381	302.874	.08077	
383	303.344	.08114	
66587	321.435	.10421	
66605	321.521	.10413	
66600	321.988	.1033	
66598	322.376	.10305	
66603	322.51	.1032	
66618	322.922	.10322	
66598	323.102	.10295	
66602	323.536	.10304	
66615	323.746	.10272	
66597	321.421	.10388	
66615	321.508	.10352	
66588	321.855	.10409	
66599	321.97	.10332	
66579	322.356	.10305	
66578	322.5	.10328	
66592	322.911	.10263	
66614	323.082	.10321	
66583	323.519	.1032	
66589	323.732	.10299	
56114	321.43	.09911	
56121	321.519	.0993	
56118	321.884	.1004	
56120	322.001	.09953	
56115	322.396	.09929	
56154	322.963	.09964	
56133	323.148	.09946	
56150	323.595	.09972	
56140	323.807	.09958	
43832	321.466	.09487	
43828	321.936	.09571	
43826	322.056	.09519	
43824	322.471	.09516	
43821	322.629	.09452	
43817	323.069	.09505	
43810	323.264	.0946	
43820	321.051	.0947	
43822	321.116	.09482	
43814	321.458	.09486	
43839	321.548	.09474	
43825	321.919	.09584	
43829	322.042	.09557	
43829	322.458	.09512	
43815	323.056	.09535	
43827	323.235	.09508	
34326	321.044	.09107	
34308	321.12	.0914	
34329	321.47	.09187	
34311	321.556	.09191	
34304	321.956	.09237	
34300	322.079	.09194	
34308	322.507	.0922	
34302	322.662	.09186	
34301	323.126	.09204	
34298	323.317	.09169	
34321	321.036	.09144	
34323	321.096	.09161	
34301	321.447	.09197	
34296	321.545	.09167	
34296	321.939	.09207	
34292	322.059	.09256	
34282	322.49	.09204	
34270	322.64	.09178	
34268	323.1	.09193	
34263	323.297	.09159	
25085	321.037	.08832	
25070	321.103	.08802	
25082	321.466	.08816	
25086	321.56	.08833	
25089	321.974	.0883	
25078	322.091	.08798	
25075	322.542	.08816	
25078	322.706	.08769	
25073	323.184	.08808	
25067	323.389	.08782	
16965	321.331	.08442	
16967	321.402	.08432	
16953	321.784	.08463	
16957	321.887	.0846	
16963	322.302	.08446	
16945	322.44	.08465	
16956	322.904	.08425	
16973	323.067	.08427	
16961	323.566	.08443	
16953	323.775	.08413	
9798	321.341	.08117	
9811	321.811	.08084	
9793	321.912	.08062	
9801	322.362	.08109	
9815	322.492	.081	
9802	322.968	.08079	
9819	323.152	.08053	
9815	323.66	.08057	
9798	323.881	.08054	
5192	321.357	.07831	
5187	321.442	.07816	
5178	321.845	.07845	
5173	321.957	.07856	
5186	322.402	.07821	
5172	322.544	.07803	
5181	323.047	.07837	
5184	323.224	.07808	
5178	323.758	.07818	
5181	323.975	.07788	
460	321.41	.07538	
458	321.483	.07551	
466	321.908	.07595	
462	322.01	.07568	
450	322.488	.07575	
440	322.632	.0752	
436	323.135	.07562	
446	323.332	.07514	
438	323.874	.07537	
428	324.107	.07518	
65483	341.536	.1004	
65470	341.614	.10007	
65484	342.008	.10028	
65469	342.118	.09982	
65460	342.574	.10048	
65463	342.722	.09997	
65460	343.168	.09977	
65455	343.358	.09919	
65463	343.845	.09884	
65472	344.06	.09859	
53967	341.528	.09634	
53976	341.616	.09608	
53960	342.016	.09643	
53948	342.595	.09634	
53929	342.755	.09616	
53929	343.226	.09614	
53923	343.426	.09546	
53925	343.925	.09489	
53918	344.152	.09481	
43755	342.212	.09113	
43762	342.679	.09267	
43753	342.841	.09232	
43755	343.34	.09204	
43743	343.538	.09133	
43740	344.055	.09102	
43734	344.299	.09086	
34293	341.115	.08893	
34283	341.186	.08864	
34287	341.572	.08857	
34281	342.116	.08848	
34289	342.244	.08779	
34274	342.728	.08854	
34279	342.901	.08837	
34281	343.409	.08798	
34264	343.616	.08757	
26074	341.285	.08503	
26069	341.37	.08479	
26067	341.759	.08459	
26056	341.873	.08482	
26065	342.316	.08477	
26056	343.14	.08389	
26051	343.677	.08479	
26047	343.899	.08436	
19052	341.282	.08179	
19044	341.354	.08181	
19040	341.77	.08164	
19048	341.881	.08151	
19039	342.342	.08156	
19031	342.493	.08119	
19024	343.192	.08036	
19020	343.766	.08131	
19023	343.974	.08066	
12813	341.36	.07865	
12800	341.441	.07849	
12799	341.877	.07857	
12801	342.467	.07827	
12792	342.612	.07793	
12789	343.352	.07705	
12786	343.931	.07777	
12778	344.17	.07722	
7818	341.044	.07607	
7812	341.11	.07571	
7815	341.396	.07567	
7806	341.483	.07567	
7816	341.819	.0756	
7805	341.922	.07534	
7805	342.286	.07547	
7788	342.425	.07522	
7784	342.799	.07528	
4000	341.057	.07359	
4008	341.112	.07339	
3996	341.418	.0734	
4008	341.505	.07332	
4002	341.842	.07296	
4010	341.96	.07316	
4001	342.325	.07309	
4008	342.475	.07289	
4005	342.863	.07287	
502	341.054	.07132	
503	341.122	.07103	
510	341.435	.07095	
498	341.532	.07081	
490	341.875	.07091	
497	341.991	.07068	
497	342.365	.07069	
491	342.518	.07043	
488	342.924	.07046	
496	343.116	.06933	
10316	203.559	.11562	
10337	203.649	.11513	
10339	203.905	.11627	
10301	204.022	.1153	
10296	204.296	.11484	
10300	204.433	.11534	
10305	204.713	.11503	
10317	204.881	.11547	
10310	205.169	.11551	
10304	205.357	.11491	
10370	203.682	.11658	
10372	203.774	.11557	
10366	204.024	.11538	
10374	204.135	.11532	
10375	204.406	.11539	
10353	204.538	.11496	
10351	204.813	.11463	
10343	204.976	.11508	
10349	205.261	.1152	
10380	205.453	.11474	
10365	203.673	.11596	
10344	203.764	.11592	
10378	204.016	.11581	
10382	204.124	.11522	
10360	204.396	.11578	
10368	204.532	.11515	
10361	204.81	.11528	
10365	204.968	.11483	
10392	205.255	.11518	
10383	205.443	.11474	
5190	203.677	.1132	
5194	203.772	.1133	
5185	204.017	.11401	
5176	204.135	.11367	
5171	204.4	.11422	
5176	204.538	.11379	
5179	204.816	.11407	
5182	204.978	.11353	
5170	205.27	.11391	
5164	205.461	.11345	
219	203.67	.11346	
231	203.759	.11302	
228	204.017	.11346	
232	204.134	.11249	
223	204.404	.11239	
227	204.546	.11211	
232	204.825	.11253	
223	204.989	.11213	
230	205.286	.11237	
239	205.477	.11214	
65394	222.188	.12419	
65396	222.284	.12383	
65394	222.538	.12481	
65386	222.915	.12477	
65383	223.06	.1239	
65385	223.335	.12431	
65379	223.498	.1241	
65376	223.789	.12459	
65378	223.983	.12404	
54365	222.211	.12163	
54366	222.323	.12153	
54367	222.573	.12216	
54366	222.689	.12188	
54368	222.967	.122	
54368	223.106	.12197	
54369	223.389	.1224	
54369	223.559	.12152	
54372	223.853	.12196	
54371	224.049	.12164	
44671	222.268	.11932	
44672	222.368	.11958	
44672	222.618	.11956	
44676	222.747	.11916	
44680	223.027	.11963	
44685	223.173	.11943	
44687	223.46	.11976	
44686	223.63	.11961	
44690	223.927	.11973	
44694	224.128	.1195	
35555	222.3	.11708	
35559	222.4	.1171	
35561	222.666	.11766	
35560	222.787	.11734	
35560	223.07	.11784	
35566	223.216	.11741	
35560	223.512	.11742	
35563	223.684	.11721	
35565	223.984	.11782	
35567	224.185	.11726	
26424	222.325	.11482	
26428	222.419	.11484	
26430	222.696	.11454	
26430	222.793	.11472	
26433	223.111	.11518	
26433	223.256	.11474	
26434	223.559	.11507	
26431	223.734	.11482	
26437	224.041	.1151	
26439	224.25	.11463	
17783	222.348	.11234	
17781	222.452	.11239	
17781	222.726	.11244	
17785	222.856	.11199	
17782	223.143	.11239	
17785	223.3	.11204	
17788	223.604	.11249	
17788	223.781	.1121	
17783	224.103	.11244	
17787	224.312	.11192	
8723	222.387	.11033	
8727	222.494	.10991	
8729	222.769	.11049	
8723	222.909	.10977	
8729	223.205	.10979	
8728	223.362	.10971	
8730	223.674	.11007	
8734	223.859	.10929	
8734	224.18	.10939	
8734	224.393	.10916	
449	222.392	.10776	
449	222.505	.10682	
453	222.791	.10698	
456	222.922	.10673	
454	223.23	.1071	
453	223.389	.10689	
455	223.709	.10728	
457	223.894	.10684	
457	224.226	.10701	
456	224.451	.10659	
63858	241.931	.11991	
63849	242.032	.11919	
63843	242.324	.11948	
63839	242.459	.11939	
63833	242.757	.11988	
63824	242.914	.11935	
63821	243.232	.11965	
63814	243.423	.11907	
63809	243.743	.11929	
63804	243.964	.11902	
53262	241.92	.11689	
53260	242.032	.11709	
53263	242.326	.11716	
53261	242.455	.11671	
53251	242.765	.11664	
53255	242.934	.11639	
53253	243.256	.11644	
53247	243.443	.11632	
53242	243.781	.11677	
53243	244	.11634	
43857	241.935	.1153	
43848	242.041	.11402	
43841	242.339	.11493	
43873	242.472	.11474	
43839	242.793	.11498	
43854	242.964	.11432	
43835	243.29	.11461	
43850	243.49	.11401	
43827	243.828	.11435	
43851	244.059	.1139	
36063	241.936	.11213	
36072	242.048	.11193	
36064	242.34	.112	
36067	242.489	.11191	
36066	242.807	.11213	
36047	242.979	.11176	
36069	243.304	.11211	
36041	243.507	.11169	
36062	243.855	.11183	
36043	244.086	.11159	
28061	241.986	.11093	
28062	242.095	.11064	
28063	242.408	.10931	
28067	242.549	.11005	
28066	242.878	.11019	
28059	243.047	.10962	
28075	243.403	.10976	
28066	243.605	.10935	
28066	243.955	.1097	
28067	244.195	.1093	
20422	242.025	.10774	
20421	242.132	.10742	
20418	242.453	.10783	
20435	242.594	.1072	
20434	242.934	.10748	
20431	243.106	.10715	
20431	243.456	.10743	
20425	243.662	.10698	
20445	244.024	.1073	
20428	244.266	.10681	
13434	241.659	.10536	
13448	241.753	.10514	
13440	242.064	.10556	
13439	242.182	.10502	
13437	242.502	.10528	
13436	242.649	.10498	
13448	242.988	.10556	
13440	243.176	.10496	
13443	243.528	.10529	
7098	241.673	.10364	
7107	241.779	.10332	
7089	242.084	.10366	
7107	242.217	.10311	
7100	242.54	.10332	
7107	242.69	.10288	
7102	243.04	.10289	
7112	243.22	.10264	
7097	243.576	.10301	
7115	243.798	.1027	
586	241.693	.10112	
578	241.795	.10075	
583	242.108	.10102	
585	242.242	.10074	
597	242.559	.10103	
588	243.08	.10097	
584	243.265	.10043	
586	243.633	.10051	
580	243.855	.10007	
65297	261.973	.11555	
65280	262.061	.11503	
65275	262.366	.11534	
65252	262.495	.11502	
65229	262.814	.11516	
65209	262.962	.11499	
65213	263.302	.11546	
65190	263.48	.11504	
65191	263.837	.11544	
65174	264.051	.11488	
59186	261.997	.11505	
59178	262.101	.11277	
59182	262.407	.11414	
59166	262.526	.11363	
59156	262.858	.1141	
59151	263.009	.11355	
59142	263.352	.11431	
59138	263.535	.11367	
59122	264.108	.1132	
51140	262.018	.11163	
51139	262.118	.11136	
51128	262.434	.11151	
51133	262.564	.11125	
51121	262.888	.11156	
51114	263.046	.1112	
51112	263.395	.11155	
51103	263.58	.11116	
51092	263.951	.11131	
51091	264.171	.11084	
42842	261.909	.1093	
42847	262.015	.10893	
42846	262.331	.10915	
42848	262.462	.1091	
42854	262.797	.10908	
42854	262.953	.10889	
42853	263.311	.10918	
42848	263.495	.10851	
42851	263.882	.10875	
42852	264.104	.10847	
36411	261.91	.10791	
36414	262.007	.10738	
36413	262.334	.10712	
36410	262.472	.10702	
36411	262.815	.10701	
36413	262.977	.10678	
36413	263.337	.10705	
36413	263.526	.1068	
36412	263.91	.10706	
36411	264.132	.10657	
29216	261.938	.10505	
29220	262.048	.10504	
29224	262.382	.10536	
29222	262.511	.10486	
29224	262.861	.10504	
29224	263.03	.10445	
29224	263.402	.10489	
29225	263.593	.1044	
29226	263.978	.10447	
29227	264.211	.10416	
22296	261.55	.1036	
22292	261.641	.10235	
22290	261.951	.10296	
22290	262.059	.10238	
22288	262.401	.10257	
22288	262.547	.10246	
22284	262.896	.1027	
22282	263.065	.10234	
22281	263.449	.10258	
22275	263.643	.10215	
15956	261.563	.10015	
15950	261.65	.10031	
15950	261.965	.10049	
15930	262.08	.10029	
15943	262.44	.10049	
15931	262.571	.09995	
15933	262.938	.10034	
15941	263.105	.10002	
15926	263.485	.10024	
15944	263.7	.09988	
10280	261.541	.09846	
10283	261.628	.09831	
10273	261.959	.09851	
10278	262.063	.09816	
10267	262.423	.09829	
10288	262.569	.09813	
10264	262.937	.09833	
10284	263.111	.09779	
10264	263.5	.0981	
10281	263.707	.09774	
5038	261.517	.09629	
5056	261.613	.09622	
5041	261.934	.09641	
5047	262.062	.09593	
5040	262.421	.09609	
5039	262.57	.09583	
5058	262.947	.09606	
5037	263.122	.09578	
5059	263.516	.09603	
5041	263.73	.09557	
276	261.496	.09433	
270	261.584	.09415	
282	261.925	.09438	
270	262.037	.094	
275	262.398	.09425	
273	262.561	.09391	
280	262.938	.094	
275	263.121	.09368	
267	263.527	.09392	
278	263.749	.09344	
64739	281.639	.11066	
64721	281.73	.11057	
64705	282.041	.11067	
64700	282.153	.11038	
64686	282.497	.11051	
64675	282.63	.1105	
64664	282.987	.11049	
64649	283.153	.11031	
64641	283.539	.11049	
64639	283.732	.11014	
55364	281.62	.10837	
55366	281.708	.10819	
55362	282.028	.10847	
55358	282.15	.10797	
55349	282.5	.10797	
55348	282.641	.10783	
55335	283.002	.1078	
55341	283.179	.10776	
55328	283.571	.10802	
55316	283.769	.10767	
46215	281.623	.10566	
46217	281.716	.10529	
46209	282.045	.10545	
46205	282.155	.10537	
46199	282.523	.10533	
46193	282.668	.10501	
46194	283.037	.10531	
46185	283.214	.10502	
46184	283.613	.10507	
46190	283.824	.10489	
39518	281.612	.10312	
39517	281.708	.10304	
39515	282.046	.10337	
39512	282.162	.10299	
39509	282.519	.10303	
39508	282.669	.103	
39510	283.057	.10315	
39508	283.235	.10299	
39507	283.643	.10308	
39512	283.857	.10274	
33249	281.64	.10089	
33252	281.732	.10107	
33242	282.079	.10122	
33255	282.2	.10099	
33243	282.571	.10098	
33247	282.726	.10093	
33245	283.115	.10083	
33245	283.291	.10057	
33240	283.708	.10082	
33245	283.929	.10039	
27078	281.648	.0987	
27071	281.75	.09865	
27075	282.099	.09876	
27070	282.227	.09861	
27082	282.603	.09879	
27089	282.755	.09858	
27095	283.156	.09871	
27084	283.341	.09839	
27097	283.765	.09854	
27090	283.986	.0982	
20968	281.251	.09541	
20959	281.322	.09554	
20972	281.651	.09689	
20962	281.753	.09616	
20964	282.111	.09638	
20959	282.235	.09631	
20964	282.621	.09651	
20962	282.781	.09627	
20963	283.183	.09653	
20960	283.38	.09617	
16036	281.312	.09555	
16024	281.637	.09394	
16022	281.745	.09421	
16012	282.109	.09449	
16024	282.236	.0943	
16026	282.625	.09446	
16015	282.792	.09427	
16028	283.206	.09435	
16020	283.394	.09411	
10961	281.287	.09337	
10962	281.361	.09248	
10959	281.702	.09251	
10956	281.798	.0923	
10959	282.177	.09237	
10962	282.311	.09207	
10958	282.713	.09238	
10957	282.88	.09201	
10953	283.291	.09216	
10953	283.496	.09198	
6243	281.302	.09051	
6225	281.376	.09019	
6236	281.723	.09039	
6219	281.829	.09017	
6234	282.207	.09065	
6225	282.345	.09024	
6236	282.753	.09029	
6218	282.919	.09006	
6234	283.351	.09024	
6234	283.549	.08992	
3101	281.303	.08933	
3093	281.381	.0889	
3096	281.733	.08936	
3101	281.85	.08903	
3104	282.223	.08891	
3126	282.366	.08877	
3125	282.779	.08898	
3110	282.947	.08875	
3103	283.382	.08892	
3103	283.587	.08855	
203	281.313	.08831	
193	281.392	.08772	
201	281.739	.08787	
185	281.853	.08733	
198	282.241	.08741	
188	282.381	.08744	
194	282.797	.08765	
194	282.971	.08733	
178	283.415	.08755	
194	283.622	.08723	
65550	301.427	.10853	
65547	301.501	.10819	
65522	301.815	.10764	
65529	301.901	.10652	
65494	302.27	.10678	
65480	302.394	.10686	
65463	302.764	.10676	
65445	302.92	.10669	
65424	303.318	.10664	
65425	303.5	.10666	
56492	301.413	.10552	
56482	301.487	.10494	
56462	301.918	.10421	
56452	302.279	.10464	
56441	302.401	.10399	
56432	302.79	.10448	
56429	302.948	.10383	
56409	303.357	.10426	
56404	303.539	.10369	
48074	301.835	.10015	
48073	301.936	.10082	
48061	302.296	.10091	
48052	302.422	.10123	
48051	302.818	.10113	
48055	302.984	.10091	
48041	303.404	.10117	
48039	303.603	.101	
47198	301.518	.10102	
47198	301.596	.10058	
47191	301.93	.10054	
47196	302.034	.10046	
47190	302.406	.10078	
47194	302.532	.1006	
47187	302.932	.10075	
47182	303.091	.10047	
47179	303.512	.10075	
47178	303.706	.10037	
42020	301.483	.09884	
42014	301.564	.09907	
42002	301.912	.09897	
41998	302.017	.09906	
42000	302.395	.09898	
41997	302.524	.0988	
41986	302.931	.09906	
41994	303.089	.09863	
41983	303.511	.09892	
41980	303.714	.09862	
36232	301.496	.09714	
36234	301.575	.09632	
36223	301.92	.09724	
36232	302.035	.09691	
36234	302.409	.09718	
36223	302.547	.09702	
36224	302.953	.09698	
36213	303.125	.09661	
36213	303.558	.09672	
36210	303.761	.09644	
30551	301.549	.09454	
30560	301.627	.09455	
30546	301.98	.09459	
30563	302.086	.0947	
30544	302.47	.0948	
30546	302.61	.0947	
30542	303.032	.09496	
30558	303.208	.09462	
25511	301.182	.09374	
25515	301.241	.09289	
25503	301.553	.09319	
25502	301.648	.09219	
25500	302.007	.09318	
25501	302.118	.09247	
25497	302.514	.09286	
25491	302.652	.09284	
25486	303.08	.09308	
25489	303.253	.09272	
20530	301.544	.09027	
20523	301.626	.09097	
20519	302.008	.09088	
20518	302.118	.09092	
20515	302.512	.09108	
20510	302.661	.09077	
20509	303.094	.09124	
20510	303.272	.09093	
16013	301.266	.08986	
16007	301.606	.08871	
16012	301.69	.08885	
16014	302.07	.08895	
16009	302.188	.08853	
16014	302.602	.08919	
16005	302.747	.08846	
16008	303.198	.08894	
16014	303.375	.08858	
11892	301.595	.08784	
11881	301.688	.08767	
11891	302.068	.08755	
11879	302.19	.08708	
11882	302.61	.08715	
11886	302.755	.08659	
11886	303.21	.08665	
11885	303.392	.08675	
7868	301.627	.08523	
7864	301.722	.08629	
7862	302.116	.08568	
7854	302.237	.08541	
7853	302.654	.08571	
7852	302.809	.08507	
7854	303.277	.08529	
7846	303.466	.0848	
7827	301.184	.08636	
7830	301.25	.08532	
7831	301.604	.08616	
7834	301.698	.08567	
7823	302.08	.08555	
7820	302.203	.08528	
7818	302.624	.08552	
7822	302.784	.08491	
7824	303.244	.08506	
7814	303.437	.0847	
4078	301.252	.08444	
4086	301.314	.08339	
4077	301.677	.08414	
4081	301.768	.08378	
4079	302.162	.0839	
4074	302.289	.08366	
4080	302.717	.08356	
4074	302.883	.08317	
4071	303.353	.08347	
4064	303.543	.08281	
302	301.255	.08142	
303	301.327	.08177	
311	301.687	.08156	
307	301.781	.08197	
312	302.187	.08161	
299	302.315	.08152	
303	302.763	.08187	
299	302.918	.08155	
295	303.401	.08173	
293	303.593	.08112	

System: trans-1-chloro-3,3,3-trifluoropropene; phases: Fluid (supercritical or subcritical phases)
Property: Thermal conductivity, W/m/K (Fluid (supercritical or subcritical phases)); method: Other
Pressure, kPa	Temperature, K	Thermal conductivity, W/m/K	uncertainty
586	361.584	.01605	
588	361.917	.01611	
587	362.272	.01619	
587	362.657	.0163	
588	363.052	.01642	
483	361.673	.01602	
484	362.008	.01607	
484	362.372	.0162	
484	362.757	.01624	
485	363.172	.01636	
371	361.77	.01613	
370	362.509	.01626	
367	362.892	.01631	
369	363.306	.01625	
1195	382.318	.01851	
1196	382.323	.01849	
1196	382.606	.01858	
1196	382.602	.01858	
1197	382.909	.01873	
1197	382.912	.01873	
1197	383.225	.01891	
1198	383.212	.01888	
1198	383.542	.01908	
1198	383.55	.01907	
1000	382.487	.01794	
1001	382.478	.01789	
1000	382.787	.0181	
1001	382.779	.01826	
1001	383.081	.01823	
1002	383.08	.01821	
999	383.415	.01831	
1000	383.426	.01834	
999	383.778	.01848	
885	381.984	.0177	
883	381.993	.01771	
885	382.268	.01778	
884	382.259	.01776	
884	382.56	.01781	
884	382.555	.01779	
883	382.872	.01794	
885	382.874	.01792	
884	383.202	.018	
885	383.206	.01804	
728	381.794	.01756	
727	382.063	.0176	
727	382.345	.01767	
727	382.645	.01771	
727	382.969	.01778	
529	381.912	.01757	
530	382.192	.01766	
529	382.492	.01769	
530	382.812	.01767	
1794	401.383	.02085	
1794	401.387	.02077	
1795	401.567	.02094	
1795	401.565	.02087	
1795	401.762	.02102	
1796	401.762	.02099	
1796	401.966	.02115	
1796	401.964	.02117	
1796	402.187	.02136	
1796	402.189	.02138	
1716	401.476	.02045	
1714	401.475	.0205	
1716	401.668	.02063	
1715	401.875	.02074	
1716	401.869	.02077	
1716	402.074	.02086	
1716	402.074	.02091	
1715	402.308	.02112	
1715	402.315	.02105	
1623	401.529	.02023	
1623	401.725	.02026	
1623	401.721	.0203	
1622	401.926	.02034	
1624	401.935	.02037	
1623	402.155	.02048	
1624	402.383	.02063	
1623	402.38	.02057	
1514	401.585	.01985	
1515	401.58	.01989	
1514	401.777	.0199	
1515	401.786	.01993	
1514	401.996	.01998	
1514	402.002	.02002	
1515	402.228	.02013	
1515	402.227	.02014	
1515	402.475	.02026	
1515	402.469	.02021	
1407	401.621	.01968	
1407	401.614	.01962	
1407	401.83	.01973	
1408	401.823	.01967	
1407	402.04	.01972	
1408	402.041	.01978	
1408	402.272	.01984	
1408	402.268	.01988	
1407	402.517	.01994	
1406	402.52	.01993	
1307	401.651	.01951	
1306	401.65	.01952	
1307	401.86	.01952	
1306	402.087	.01958	
1307	402.092	.01963	
1306	402.328	.01962	
1306	402.332	.01976	
1307	402.58	.01973	
1306	402.585	.01976	
1203	401.691	.01937	
1203	401.693	.01933	
1202	401.906	.01943	
1203	401.908	.01941	
1203	402.135	.01947	
1203	402.145	.01946	
1203	402.375	.0195	
1202	402.378	.01949	
1203	402.648	.01959	
1203	402.628	.01956	
1106	401.722	.01925	
1106	401.714	.01926	
1105	401.943	.01929	
1106	401.941	.01933	
1105	402.173	.01933	
1105	402.169	.01934	
1105	402.426	.01943	
1105	402.421	.01939	
1104	402.691	.01945	
1106	402.69	.01948	
1001	401.746	.01919	
1000	401.745	.01916	
1000	401.972	.01921	
1001	401.968	.01922	
1000	402.215	.01925	
1001	402.466	.01932	
1000	402.465	.01927	
1000	402.75	.01939	
847	401.753	.01914	
846	401.762	.01915	
847	401.985	.01917	
845	401.998	.01916	
847	402.243	.01925	
846	402.232	.01918	
846	402.51	.01926	
848	402.503	.01923	
846	402.785	.01931	
848	402.784	.01932	
675	401.837	.01911	
674	402.086	.0192	
675	402.338	.01919	
676	402.611	.01925	
674	402.914	.01931	
2579	420.798	.02548	
2579	420.805	.02537	
2579	420.918	.02548	
2579	420.917	.02551	
2579	421.035	.02548	
2579	421.031	.02568	
2579	421.16	.02588	
2580	421.162	.02588	
2520	420.9	.02499	
2520	420.898	.02461	
2519	421.014	.0248	
2520	421.003	.02479	
2520	421.107	.02479	
2519	421.105	.02483	
2520	421.241	.02505	
2520	421.247	.02484	
2519	421.387	.02527	
2520	421.388	.02527	
2469	421.148	.02425	
2469	421.152	.02441	
2469	421.299	.02444	
2468	421.293	.02448	
2469	421.44	.02473	
2469	421.44	.02459	
2469	421.602	.02488	
2469	421.601	.02492	
2403	421.212	.02382	
2403	421.354	.02395	
2403	421.354	.02391	
2403	421.509	.02407	
2403	421.512	.02398	
2403	421.672	.02364	
2403	421.676	.02418	
2307	421.248	.02316	
2307	421.245	.02317	
2307	421.392	.02322	
2307	421.561	.02344	
2307	421.556	.02334	
2307	421.724	.02349	
2307	421.906	.02365	
2306	421.914	.02366	
2204	421.288	.02272	
2203	421.293	.02266	
2204	421.45	.02274	
2203	421.445	.02269	
2203	421.619	.02292	
2204	421.614	.02283	
2203	421.786	.02296	
2203	421.788	.02299	
2204	421.978	.02311	
2203	421.973	.02307	
2099	421.326	.02225	
2099	421.319	.02221	
2100	421.483	.02256	
2100	421.483	.02228	
2099	421.656	.02245	
2100	421.66	.02244	
2099	421.846	.02249	
2100	421.841	.02258	
2099	422.036	.02262	
2099	422.033	.02265	
1997	421.355	.02198	
1997	421.358	.02199	
1998	421.52	.02205	
1998	421.521	.02199	
1999	421.702	.02203	
1998	421.694	.02232	
1998	421.88	.0222	
1998	421.884	.02217	
1998	422.079	.0223	
1861	421.401	.0216	
1862	421.4	.02165	
1862	421.57	.02171	
1863	421.566	.02167	
1862	421.755	.02184	
1863	421.755	.02174	
1862	421.947	.02178	
1862	421.954	.0218	
1863	422.16	.02189	
1862	422.163	.02194	
1723	421.452	.02131	
1724	421.437	.02132	
1724	421.617	.02136	
1724	421.63	.0214	
1724	421.809	.02139	
1723	421.814	.02142	
1724	422.015	.02156	
1724	422.012	.02145	
1723	422.228	.02155	
1723	422.236	.0216	
1562	421.537	.02106	
1561	421.53	.02097	
1562	421.712	.02117	
1563	421.906	.02121	
1563	421.917	.02116	
1562	422.116	.02118	
1562	422.347	.02132	
1561	422.333	.02131	
1402	421.585	.02076	
1402	421.589	.02091	
1403	421.773	.02094	
1401	421.771	.02096	
1401	421.981	.02101	
1403	421.982	.02116	
1401	422.196	.02102	
1402	422.196	.02108	
1403	422.426	.02113	
1401	422.421	.0211	
1220	421.64	.02082	
1221	421.639	.02077	
1221	421.834	.0209	
1218	422.059	.02083	
1220	422.056	.0209	
1221	422.25	.0209	
1220	422.496	.02096	
1222	422.49	.02095	
1031	421.68	.02073	
1030	421.88	.02077	
1033	421.884	.02075	
1031	422.096	.02076	
1030	422.098	.02079	
1032	422.327	.02082	
1031	422.569	.02086	
1032	422.572	.02088	
801	421.74	.0208	
802	421.94	.02077	
803	422.176	.0208	
802	422.417	.02084	
800	422.674	.02086	
7296	452.139	.04969	
7293	452.136	.04964	
7296	452.317	.0498	
7293	452.308	.04973	
7296	452.502	.04992	
7299	452.501	.04984	
7300	452.693	.05001	
7301	452.689	.04996	
7299	452.898	.0501	
7305	452.901	.05013	
22580	452.357	.06316	
22575	452.519	.06312	
22580	452.518	.06313	
22569	452.687	.06311	
22574	452.695	.06307	
22562	452.865	.06294	
22559	452.879	.06307	
22568	453.056	.06306	
22554	453.056	.06303	
18530	452.459	.06032	
18535	452.46	.06035	
18535	452.63	.06055	
18524	452.606	.06031	
18533	452.788	.06034	
18524	452.786	.0603	
18519	452.979	.06033	
18517	453.167	.06031	
18518	453.168	.06033	
15256	452.517	.05787	
15249	452.515	.05785	
15244	452.692	.05785	
15242	452.877	.05782	
15241	452.884	.05786	
15250	453.077	.05787	
15242	453.07	.05784	
15236	453.282	.05778	
15246	453.276	.05788	
12589	452.431	.05558	
12588	452.429	.05554	
12577	452.605	.05553	
12585	452.613	.05555	
12582	452.799	.05559	
12587	452.991	.05557	
12573	452.985	.05553	
12578	453.199	.05564	
12584	453.197	.05564	
10513	452.516	.05353	
10507	452.491	.05349	
10512	452.681	.05353	
10507	452.675	.05353	
10507	452.876	.05361	
10511	452.87	.05358	
10506	453.068	.05359	
10511	453.077	.05377	
10508	453.274	.05365	
10506	453.279	.05366	
8954	452.579	.0518	
8958	452.578	.05186	
8956	452.767	.05187	
8956	452.775	.05189	
8959	452.965	.05193	
8955	452.967	.0519	
8959	453.175	.05204	
8956	453.177	.05196	
8959	453.39	.05209	
7733	452.483	.05033	
7729	452.48	.0503	
7732	452.67	.0504	
7733	452.667	.05035	
7730	452.858	.05046	
7733	452.86	.05047	
7731	453.062	.05059	
7733	453.066	.05056	
7731	453.271	.05062	
7728	453.277	.05065	
6780	452.527	.0491	
6779	452.528	.0491	
6782	452.717	.04926	
6780	452.712	.04921	
6780	452.91	.04939	
6781	452.912	.04936	
6779	453.115	.0495	
6780	453.118	.04953	
6780	453.329	.04971	
6776	453.328	.0497	
6081	452.33	.04806	
6080	452.329	.04801	
6081	452.508	.04828	
6079	452.508	.04861	
6080	452.697	.04844	
6081	452.689	.04841	
6080	452.894	.04865	
6081	452.892	.04866	
6079	453.101	.04859	
5579	452.195	.04728	
5578	452.196	.0472	
5578	452.301	.04745	
5577	452.294	.04741	
5577	452.416	.04756	
5578	452.414	.04763	
5576	452.532	.04776	
5577	452.533	.0478	
5578	452.652	.04801	
5576	452.655	.04794	
5208	451.936	.04623	
5207	451.933	.04646	
5206	452.027	.0467	
5207	452.029	.04676	
5207	452.125	.0469	
5206	452.132	.04663	
5208	452.237	.0472	
5207	452.231	.04713	
5208	451.521	.04584	
5208	451.52	.04601	
5208	451.6	.04598	
5208	451.602	.04588	
5207	451.688	.04582	
5207	451.684	.04609	
5208	451.775	.04621	
5207	451.77	.0462	
4908	451.501	.04557	
4908	451.505	.04553	
4908	451.59	.04582	
4908	451.586	.04575	
4909	451.672	.04592	
4909	451.679	.04602	
4908	451.765	.04609	
4909	451.764	.04628	
4734	451.52	.04572	
4734	451.517	.04573	
4734	451.605	.046	
4734	451.624	.0461	
4734	451.708	.04636	
4734	451.702	.04631	
4735	451.797	.0468	
4734	451.887	.0473	
4735	451.888	.04729	
4579	451.467	.04622	
4580	451.472	.04624	
4580	451.544	.04656	
4580	451.55	.04665	
4580	451.62	.0472	
4579	451.621	.04727	
4580	451.709	.04774	
4580	451.705	.04772	
4479	451.38	.04665	
4479	451.385	.04664	
4479	451.45	.04701	
4479	451.454	.04717	
4479	451.527	.04799	
4479	451.524	.04791	
4404	451.246	.04634	
4404	451.242	.04602	
4404	451.306	.0469	
4404	451.308	.04672	
4404	451.372	.04741	
4335	451.243	.04596	
4335	451.245	.04625	
4335	451.301	.04712	
4335	451.304	.04717	
4329	451.056	.04512	
4329	451.065	.04492	
4329	451.118	.04569	
4329	451.105	.04555	
4329	451.162	.04573	
4329	451.158	.04605	
4329	451.219	.04642	
4329	451.212	.0465	
4285	451.049	.04428	
4285	451.04	.0443	
4285	451.102	.04448	
4285	451.097	.04477	
4285	451.154	.04559	
4285	451.152	.04522	
4285	451.218	.04586	
4240	451.03	.04303	
4240	451.078	.04312	
4240	451.079	.04321	
4240	451.139	.04358	
4240	451.137	.04339	
4240	451.191	.0441	
4240	451.197	.04407	
4240	451.253	.04492	
4240	451.255	.04469	
4194	451.047	.04138	
4194	451.043	.04141	
4194	451.097	.0413	
4194	451.162	.04195	
4194	451.162	.04203	
4194	451.227	.04237	
4194	451.227	.04239	
4146	451.135	.03927	
4146	451.144	.03925	
4146	451.2	.03962	
4146	451.206	.03961	
4146	451.248	.03998	
4146	451.302	.04026	
4146	451.314	.04022	
4091	451.154	.03775	
4091	451.218	.03768	
4090	451.286	.0379	
4091	451.28	.03788	
4091	451.354	.0383	
4091	451.358	.03832	
4091	451.436	.03884	
4090	451.435	.03859	
4024	451.211	.03539	
4025	451.273	.03578	
4024	451.277	.03519	
4024	451.348	.03573	
4025	451.35	.03528	
4024	451.429	.03604	
4024	451.426	.03602	
4025	451.509	.03631	
4024	451.506	.03641	
3939	451.256	.03353	
3939	451.334	.03385	
3939	451.331	.03362	
3939	451.413	.03376	
3939	451.499	.03403	
3939	451.503	.03401	
3939	451.591	.03445	
3939	451.589	.0343	
3831	451.317	.03175	
3831	451.394	.03167	
3831	451.396	.03184	
3831	451.481	.03192	
3830	451.474	.03201	
3831	451.576	.0323	
3831	451.569	.0321	
3831	451.67	.03231	
3831	451.669	.03227	
3691	451.359	.02992	
3691	451.354	.02988	
3691	451.449	.03	
3691	451.445	.02982	
3691	451.537	.03	
3691	451.536	.03016	
3691	451.643	.03032	
3691	451.643	.03035	
3691	451.748	.03054	
3691	451.752	.03016	
3649	451.375	.02977	
3650	451.465	.02974	
3651	451.477	.02988	
3650	451.555	.02992	
3650	451.569	.02995	
3650	451.667	.02999	
3650	451.78	.03036	
3650	451.772	.0303	
3508	451.422	.02833	
3509	451.425	.02845	
3508	451.514	.02853	
3509	451.618	.02863	
3508	451.621	.02859	
3509	451.735	.02878	
3509	451.735	.02877	
3509	451.854	.02883	
3273	451.495	.02709	
3272	451.503	.02692	
3273	451.616	.027	
3273	451.605	.02708	
3272	451.724	.02716	
3273	451.725	.02707	
3273	451.851	.02717	
3273	451.853	.02719	
3273	451.984	.02726	
3272	451.986	.02725	
2992	451.663	.02577	
2990	451.671	.02601	
2992	451.793	.02587	
2992	451.782	.02586	
2991	451.919	.02605	
2992	451.913	.02598	
2990	452.059	.026	
2991	452.056	.02595	
2991	452.205	.02606	
2990	452.207	.026	
2617	451.733	.02492	
2617	451.726	.02475	
2617	451.865	.02483	
2618	451.868	.02473	
2616	452.009	.02474	
2617	452.011	.02483	
2617	452.164	.02488	
2617	452.171	.02487	
2618	452.331	.02493	
2615	452.33	.02494	
2167	451.798	.02395	
2166	451.788	.02402	
2165	451.946	.02394	
2166	451.938	.02385	
2165	452.087	.02407	
2165	452.092	.024	
2165	452.249	.024	
2166	452.423	.02413	
2167	452.416	.02408	
1669	451.862	.0235	
1672	451.855	.02345	
1670	452.006	.02346	
1671	452.01	.0235	
1671	452.173	.02356	
1672	452.349	.02348	
1671	452.343	.02345	
1672	452.54	.02352	
1671	452.54	.02355	
987	451.982	.02333	
990	451.977	.0233	
987	452.148	.02338	
988	452.161	.02337	
988	452.332	.0233	
988	452.343	.02333	
989	452.531	.02342	
985	452.541	.02339	
988	452.756	.02344	
990	452.745	.02344	

System: trans-1-chloro-3,3,3-trifluoropropene; phases: Liquid
Property: Thermal conductivity, W/m/K (Liquid); method: Other
Pressure, kPa	Temperature, K	Thermal conductivity, W/m/K	uncertainty
45282	361.682	.08799	
45281	361.696	.08796	
45278	361.934	.08791	
45270	361.943	.08806	
45283	362.197	.08787	
45249	362.201	.0878	
45271	362.478	.08777	
45268	362.477	.08777	
45227	362.755	.08785	
45255	362.764	.08771	
39907	361.835	.0857	
39898	361.831	.0857	
39906	362.082	.08546	
39862	362.054	.08563	
39856	362.308	.08563	
39891	362.309	.08561	
39863	362.572	.08553	
39864	362.581	.08552	
39872	362.863	.08551	
39835	362.87	.08548	
33938	361.689	.0832	
33954	361.693	.08326	
33923	361.882	.08317	
33938	361.892	.0832	
33942	362.145	.08313	
33914	362.145	.08314	
33938	362.419	.08309	
33911	362.41	.0832	
33907	362.695	.08302	
33929	362.693	.08306	
26408	361.791	.07982	
26407	361.797	.07977	
26376	362.046	.07972	
26398	362.052	.07971	
26405	362.317	.07971	
26374	362.32	.07971	
26399	362.603	.07968	
26401	362.595	.07967	
26375	362.886	.07958	
26388	362.893	.07962	
23503	361.738	.07846	
23489	361.734	.07844	
23477	361.979	.07836	
23492	361.98	.07838	
23467	362.181	.07857	
23488	362.21	.07836	
23460	362.469	.07827	
23476	362.48	.07831	
23492	362.75	.07827	
23458	362.753	.07811	
19344	362.164	.07625	
19400	362.256	.07636	
19433	362.607	.07636	
19433	362.703	.07633	
18631	363.07	.07609	
18623	363.059	.07592	
18619	363.299	.07574	
18567	363.284	.07546	
18588	363.565	.07568	
18589	363.561	.07561	
18555	363.849	.07553	
18574	363.855	.07558	
15443	362.484	.07414	
15419	362.466	.0741	
15425	362.662	.07408	
15399	362.647	.07408	
15400	362.873	.07403	
15386	362.829	.07403	
15350	363.066	.07393	
15375	363.039	.07401	
15362	363.323	.07394	
15333	363.302	.0739	
11679	362.296	.07201	
11690	362.3	.07201	
11661	362.541	.0719	
11680	362.548	.07196	
11664	362.799	.07188	
11670	362.807	.07191	
11679	363.072	.07186	
11657	363.072	.07182	
11674	363.353	.07181	
11659	363.339	.07179	
8440	362.2	.07	
8420	362.189	.06998	
8433	362.438	.06997	
8419	362.421	.06999	
8413	362.68	.06988	
8422	362.67	.06992	
8395	362.942	.06981	
8410	362.97	.06989	
8410	363.254	.06983	
8386	363.246	.0699	
5520	362.236	.06804	
5538	362.241	.06811	
5516	362.479	.06801	
5526	362.487	.06804	
5530	362.748	.06798	
5502	362.735	.06792	
5522	363.022	.06801	
5513	363.009	.06793	
5517	363.309	.06789	
5515	363.3	.0679	
3010	362.198	.06622	
3023	362.208	.06627	
3010	362.462	.0662	
3011	362.472	.0662	
3026	362.749	.06618	
3008	362.745	.06615	
3018	363.055	.06615	
3030	363.047	.06616	
3013	363.348	.06606	
3021	363.361	.06613	
790	362.231	.06431	
805	362.227	.06452	
790	362.487	.06443	
790	362.496	.06446	
802	362.767	.06442	
783	362.766	.06438	
781	363.069	.06438	
794	363.078	.06441	
789	363.381	.06433	
791	363.389	.06436	
7898	382.302	.065	
7889	382.295	.06498	
7890	382.56	.06497	
7897	382.558	.06497	
7886	382.823	.06511	
7894	382.836	.06495	
7892	383.109	.06492	
7882	383.115	.06487	
7894	383.415	.06491	
7887	383.411	.06484	
35584	382.381	.0803	
35567	382.394	.08024	
35594	382.63	.08017	
35572	382.617	.07991	
35575	382.874	.08013	
35578	382.868	.08012	
35551	383.131	.08007	
35559	383.129	.08009	
35533	383.397	.07987	
35549	383.403	.08004	
33043	382.422	.07905	
33046	382.418	.07909	
33011	382.654	.079	
33037	382.661	.07905	
33028	382.907	.07899	
33006	382.909	.07896	
33031	383.173	.07897	
33010	383.165	.07893	
33003	383.451	.0789	
33007	383.44	.07889	
28331	382.459	.07696	
28334	382.468	.07681	
28350	382.712	.07685	
28321	382.706	.07678	
28333	382.967	.07679	
28308	382.956	.07685	
28314	383.237	.07674	
28320	383.227	.07674	
28297	383.515	.07667	
28321	383.519	.07671	
24143	382.542	.07473	
24122	382.528	.07474	
24124	382.779	.07466	
24142	382.77	.07452	
24102	383.034	.07464	
24119	383.042	.07466	
24128	383.306	.07464	
24121	383.312	.07463	
24124	383.603	.0746	
24101	383.602	.07457	
20108	382.351	.07266	
20093	382.358	.07261	
20109	382.584	.07262	
20086	382.578	.07258	
20100	382.845	.07257	
20089	382.837	.07256	
20088	383.114	.07252	
20102	383.115	.07254	
20075	383.398	.07247	
20088	383.407	.07251	
16804	382.403	.07075	
16825	382.408	.07099	
16810	382.652	.07072	
16821	382.658	.07073	
16817	382.916	.0707	
16811	382.918	.07071	
16828	383.2	.07087	
16814	383.197	.07066	
16818	383.49	.07063	
16831	383.485	.07066	
13744	382.452	.06889	
13721	382.44	.06888	
13730	382.708	.06888	
13733	382.702	.0689	
13709	382.977	.06879	
13730	382.979	.06887	
13728	383.255	.06881	
13716	383.265	.0688	
13735	383.562	.06881	
13721	383.553	.06876	
10968	382.512	.06711	
10976	382.511	.0674	
10954	382.774	.06703	
10954	382.785	.06707	
10970	383.055	.06706	
10954	383.051	.06701	
10969	383.35	.06723	
10966	383.343	.06703	
10955	383.651	.067	
10973	383.647	.06702	
8382	382.565	.06533	
8389	382.563	.06536	
8368	382.828	.06524	
8383	382.835	.06552	
8377	383.111	.06527	
8374	383.123	.06525	
8391	383.415	.06529	
8373	383.412	.06523	
8381	383.732	.06538	
8375	383.729	.06521	
6276	382.366	.06375	
6283	382.375	.06377	
6276	382.626	.06372	
6276	382.637	.06375	
6280	382.913	.06372	
6263	382.908	.06365	
6276	383.204	.06372	
6275	383.194	.06357	
6277	383.51	.06368	
6277	383.504	.06367	
4301	382.475	.06219	
4293	382.469	.06211	
4301	382.742	.06214	
4298	382.717	.06213	
4290	382.996	.06207	
4292	383.006	.0621	
4299	383.304	.0621	
4304	383.298	.06207	
4288	383.609	.06216	
4293	383.615	.06209	
2615	382.5	.06083	
2614	382.506	.06065	
2621	382.77	.06066	
2602	382.77	.06057	
2612	383.068	.06066	
2617	383.055	.06075	
2610	383.363	.06058	
2618	383.363	.06063	
2612	383.681	.0606	
2620	383.681	.06068	
1304	382.288	.05933	
1303	382.299	.0594	
1308	382.554	.0594	
1302	382.56	.05937	
1310	382.841	.05941	
1306	382.835	.05933	
1307	383.133	.05937	
1311	383.131	.05937	
1304	383.439	.05936	
1312	383.442	.05942	
33574	402.12	.0762	
33596	402.368	.07616	
33572	402.377	.0761	
33585	402.613	.07607	
33568	402.625	.07592	
33571	402.899	.07603	
33586	402.908	.07604	
33557	403.189	.076	
33576	403.205	.07601	
28755	402.306	.0737	
28736	402.307	.07366	
28722	402.561	.07362	
28741	402.566	.07367	
28727	402.823	.07362	
28733	402.837	.07365	
28719	403.095	.07336	
28719	403.092	.0736	
28735	403.369	.0736	
28710	403.366	.07356	
24990	402.2	.07177	
25009	402.202	.07171	
24992	402.439	.07169	
24987	402.445	.07171	
25001	402.696	.07172	
24993	402.695	.07169	
25002	402.961	.07171	
24990	402.96	.07167	
24985	403.248	.07165	
25000	403.244	.07167	
21647	402.289	.06986	
21648	402.29	.06987	
21643	402.536	.06986	
21658	402.534	.06987	
21633	402.792	.06986	
21636	402.797	.06986	
21655	403.066	.06986	
21637	403.028	.06984	
21643	403.329	.06984	
21631	403.328	.0698	
18638	402.349	.06815	
18644	402.35	.06814	
18623	402.601	.06809	
18624	402.607	.06809	
18643	402.867	.06812	
18624	402.862	.06805	
18626	403.148	.06808	
18630	403.142	.06809	
18618	403.432	.06817	
18637	403.435	.06808	
15790	402.438	.06635	
15789	402.437	.06632	
15783	402.69	.06633	
15792	402.694	.06633	
15767	402.956	.06628	
15769	402.967	.0663	
15789	403.245	.06631	
15779	403.241	.06628	
15782	403.541	.06631	
15778	403.538	.06628	
13371	402.249	.06482	
13368	402.258	.06479	
13371	402.5	.0647	
13367	402.499	.06472	
13371	402.763	.06472	
13350	402.757	.06467	
13347	403.035	.06471	
13368	403.04	.06474	
13355	403.32	.06468	
13350	403.331	.06467	
11097	402.324	.06313	
11080	402.32	.06308	
11088	402.578	.06313	
11101	402.572	.06313	
11088	402.839	.0631	
11093	402.845	.06312	
11091	403.122	.06308	
11089	403.124	.06307	
11095	403.399	.06309	
11081	403.39	.06304	
9105	402.366	.06157	
9102	402.373	.06154	
9104	402.631	.06148	
9088	402.629	.06152	
9096	402.906	.0616	
9108	402.903	.06161	
9094	403.18	.06153	
9095	403.191	.06162	
9108	403.488	.06159	
9102	403.486	.06156	
7089	402.432	.05988	
7097	402.436	.05991	
7089	402.693	.05985	
7091	402.7	.0599	
7096	402.971	.05991	
7087	402.975	.05989	
7094	403.271	.05994	
7090	403.268	.05988	
7083	403.576	.05991	
7093	403.579	.05996	
5982	402.321	.0589	
5982	402.321	.05892	
5983	402.569	.05888	
5985	402.566	.05888	
5979	402.836	.05886	
5987	402.839	.05889	
5980	403.114	.05886	
5983	403.115	.05891	
5980	403.405	.05891	
5979	403.419	.05892	
4694	402.357	.05768	
4699	402.357	.05769	
4688	402.613	.05758	
4693	402.623	.05763	
4699	402.889	.05767	
4691	402.887	.05763	
4698	403.184	.05772	
4697	403.168	.05766	
4696	403.478	.0577	
4700	403.475	.05772	
3571	402.408	.05649	
3575	402.406	.05649	
3574	402.659	.05645	
3575	402.66	.05645	
3567	402.934	.05645	
3574	402.941	.05661	
3569	403.226	.0565	
3565	403.236	.05654	
3575	403.538	.05665	
3569	403.53	.05653	
2633	402.44	.05536	
2641	402.444	.05542	
2638	402.702	.0554	
2639	402.708	.05542	
2643	402.988	.05551	
2633	402.983	.05541	
2638	403.281	.05558	
2641	403.274	.05557	
2636	403.591	.0556	
2641	403.595	.05565	
1851	402.216	.05439	
1852	402.223	.05442	
1854	402.47	.05447	
1844	402.473	.0544	
1852	402.747	.05457	
1850	402.739	.05446	
1850	403.006	.05458	
1856	403.003	.0546	
1852	403.302	.05468	
1856	403.307	.05476	
28114	422.523	.07065	
28086	422.537	.07055	
28112	422.798	.07051	
28111	422.803	.07046	
28110	423.024	.07042	
28120	423.033	.07037	
28106	423.298	.07034	
28126	423.309	.07033	
28105	423.601	.07025	
28121	423.618	.07026	
28121	422.561	.0704	
28093	422.578	.07032	
28116	422.834	.07034	
28116	422.84	.07035	
28104	423.111	.07029	
28121	423.125	.07049	
28103	423.382	.07024	
28113	423.395	.07028	
28114	423.674	.07024	
28097	423.693	.07022	
25708	422.795	.06904	
25690	422.792	.06898	
25698	423.054	.06896	
25690	422.996	.06899	
25692	423.263	.06895	
25702	423.265	.06897	
25699	423.54	.06893	
25702	423.549	.06894	
25690	423.83	.06889	
25696	423.837	.06888	
22725	422.86	.06729	
22727	422.874	.06729	
22728	423.122	.06757	
22703	423.112	.06725	
22722	423.374	.06728	
22716	423.369	.06724	
22716	423.659	.06723	
22720	423.655	.06706	
22691	423.941	.06716	
22710	423.953	.06724	
20061	422.719	.0657	
20042	422.961	.06564	
20051	422.971	.06568	
20058	423.209	.06566	
20041	423.208	.06545	
20053	423.481	.06564	
20043	423.479	.06561	
20045	423.767	.06561	
20052	423.775	.06562	
17485	422.787	.06404	
17484	422.779	.06408	
17472	423.035	.06399	
17483	423.039	.06401	
17476	423.294	.06396	
17478	423.297	.064	
17477	423.566	.0642	
17456	423.573	.06393	
17475	423.865	.06396	
17471	423.862	.06395	
15382	422.839	.06256	
15379	422.821	.06258	
15382	423.077	.06257	
15379	423.074	.06256	
15382	423.352	.06259	
15369	423.349	.06251	
15380	423.64	.06256	
15380	423.634	.06255	
15379	423.929	.06254	
15376	423.927	.06253	
13396	422.887	.0611	
13389	422.892	.06114	
13399	423.153	.06114	
13390	423.15	.06109	
13394	423.435	.06111	
13394	423.43	.06111	
13391	423.716	.0611	
13398	423.719	.06111	
13386	424.016	.06109	
13393	424.02	.06113	
11667	422.689	.05975	
11677	422.934	.05979	
11666	422.941	.05974	
11671	423.213	.05977	
11667	423.201	.05975	
11667	423.492	.05991	
11670	423.49	.05977	
11664	423.783	.05978	
11674	423.787	.05981	
10145	422.742	.0585	
10146	423.002	.05853	
10141	422.998	.05847	
10147	423.276	.05852	
10146	423.27	.05849	
10145	423.556	.05848	
10147	423.56	.05849	
10139	423.854	.05851	
10145	423.863	.05848	
8781	422.544	.05725	
8782	422.546	.05725	
8783	422.787	.05727	
8779	422.79	.05724	
8783	423.057	.05728	
8781	423.055	.05726	
8783	423.331	.05728	
8771	423.321	.05728	
8770	423.626	.05731	
8777	423.619	.05731	
7612	422.548	.0561	
7613	422.801	.05618	
7618	422.798	.05616	
7608	423.069	.05614	
7616	423.071	.05619	
7611	423.349	.05616	
7616	423.352	.05621	
7619	423.649	.05627	
7612	423.65	.05622	
6615	422.336	.05507	
6610	422.332	.05507	
6610	422.575	.0551	
6615	422.581	.05511	
6608	422.827	.05508	
6614	422.834	.05515	
6613	423.1	.05516	
6611	423.105	.05515	
6613	423.384	.0552	
6606	423.397	.05518	
5710	422.367	.054	
5711	422.376	.05406	
5714	422.614	.05406	
5709	422.619	.05406	
5716	422.874	.05417	
5712	422.872	.0541	
5712	423.153	.0542	
5716	423.145	.05419	
5711	423.439	.05425	
5715	423.44	.05429	
4947	422.179	.05308	
4948	422.176	.05312	
4942	422.404	.05308	
4947	422.415	.05316	
4943	422.657	.05316	
4946	422.659	.05333	
4948	422.923	.05329	
4948	422.925	.05326	
4945	423.201	.0533	
4943	423.204	.05335	
4305	421.999	.0522	
4307	421.991	.05224	
4301	422.214	.05224	
4305	422.218	.05226	
4307	422.442	.05231	
4300	422.445	.05228	
4304	422.699	.05243	
4305	422.698	.05239	
4303	422.962	.05247	
4305	422.962	.05253	
3760	421.779	.05136	
3760	421.782	.05147	
3762	421.997	.05146	
3758	421.992	.05138	
3760	422.212	.05155	
3760	422.212	.05149	
3761	422.455	.05162	
3760	422.448	.05158	
3758	422.709	.05174	
3761	422.706	.05177	
3308	421.808	.05077	
3309	421.802	.05069	
3310	422.013	.05082	
3308	422.01	.05079	
3310	422.236	.05093	
3307	422.23	.05087	
3308	422.476	.05108	
3310	422.477	.05105	
3307	422.726	.0512	
3310	422.732	.05125	
2914	421.813	.05019	
2914	421.81	.05004	
2914	422.025	.05026	
2914	422.013	.05029	
2913	422.245	.05043	
2914	422.245	.05049	
2911	422.481	.05073	
2914	422.49	.05068	
2616	421.627	.04969	
2616	421.621	.0497	
2616	421.815	.04986	
2616	421.812	.05013	
2616	422.021	.05008	
2616	422.022	.05005	
2616	422.248	.05034	
2616	422.246	.05034	
2616	422.481	.05022	
