Measured thermophysical data. Solubility Isotherms of Gypsum, Hemihydrate, and Anhydrite in the Ternary Systems CaSO4 + MSO4 + H2O (M = Mn, Co, Ni, Cu, Zn) at T = 298.1 K to 373.1 K
Source: J. Chem. Eng. Data, 2015, 10.1021/acs.jced.5b00454
Compound 1: calcium sulfate, CaO4S, purity 99.9%
Compound 2: cobalt(II) sulfate, CoO4S, purity 99.5%
Compound 3: nickel monosulfate, NiO4S, purity 98.5%
Compound 4: water, H2O

System: water + calcium sulfate + cobalt(II) sulfate; phases: Liquid, Crystal
Fixed: Pressure, kPa = 101
Property: Molality, mol/kg of calcium sulfate (Liquid); method: emission spectroscopy and gravimetry
Temperature, K	Molality, mol/kg of cobalt(II) sulfate	Molality, mol/kg of calcium sulfate	uncertainty
348.1	0	.00854	.0001708
348.1	.02573	.00712	.0001424
348.1	.0463	.00632	.0001264
348.1	.0666	.0063	.000126
348.1	.0812	.00672	.0001344
348.1	.1543	.00689	.0001378
348.1	.2501	.00739	.0001478
348.1	.5105	.00882	.0001764
348.1	1.0078	.01021	.0002042
348.1	1.5008	.01005	.000201
348.1	2.0067	.01003	.0002006
348.1	2.5096	.00934	.0001868
348.1	2.9883	.00893	.0001786
363.1	0	.00614	.0001228
363.1	.1011	.00498	.0000996
363.1	.1556	.00537	.0001074
363.1	.2498	.00572	.0001144
363.1	.5087	.00616	.0001232
363.1	.751	.00657	.0001314
363.1	1.0057	.00783	.0001566
363.1	1.5082	.00816	.0001632
363.1	2.0901	.00865	.000173
363.1	2.2458	.00829	.0001658
363.1	2.7504	.00773	.0001546

System: water + calcium sulfate + nickel monosulfate; phases: Liquid, Crystal
Fixed: Pressure, kPa = 101
Property: Molality, mol/kg of calcium sulfate (Liquid); method: emission spectroscopy and gravimetry
Temperature, K	Molality, mol/kg of nickel monosulfate	Molality, mol/kg of calcium sulfate	uncertainty
348.1	0	.00854	.0001708
348.1	.02328	.00669	.0001338
348.1	.04515	.00632	.0001264
348.1	.0687	.00658	.0001316
348.1	.1137	.00702	.0001404
348.1	.1622	.00756	.0001512
348.1	.2309	.00808	.0001616
348.1	.4676	.00889	.0001778
348.1	.7235	.01015	.000203
348.1	1.0188	.01056	.0002112
348.1	1.5092	.01053	.0002106
348.1	2.1054	.01021	.0002042
348.1	2.4059	.00927	.0001854
348.1	2.4557	.00896	.0001792
348.1	2.5022	.00907	.0001814
348.1	3.2484	.00644	.0001288
348.1	3.5994	.00572	.0001144
348.1	4.2008	.00455	.000091
363.1	0	.00614	.0001228
363.1	.1179	.00535	.000107
363.1	.1724	.00573	.0001146
363.1	.2503	.00611	.0001222
363.1	.5129	.00675	.000135
363.1	.7523	.00757	.0001514
363.1	1.1058	.00822	.0001644
363.1	1.5028	.0082	.000164
363.1	2.1341	.00888	.0001776
363.1	2.2507	.00844	.0001688
363.1	2.8305	.00778	.0001556
363.1	3.2525	.00698	.0001396
363.1	3.5071	.00665	.000133
363.1	3.8422	.00589	.0001178

System: water + calcium sulfate; phases: Liquid, Crystal
Property: Molality, mol/kg of calcium sulfate (Liquid); method: emission spectroscopy and gravimetry
Temperature, K	Pressure, kPa	Molality, mol/kg of calcium sulfate	uncertainty
348.1	101	.00854	.0001708
363.1	101	.00614	.0001228
