Measured thermophysical data. Isobaric Vapor Liquid Equilibrium for Binary Systems of Thioglycolic Acid with Water, Butyl Acetate, Butyl Formate, and Isobutyl Acetate at 101.3 kPa
Source: J. Chem. Eng. Data, 2017, 10.1021/acs.jced.6b00686
Compound 1: thioglycolic acid, C2H4O2S, purity 99.0%
Compound 2: butyl acetate, C6H12O2, purity 99.0%
Compound 3: butyl formate, C5H10O2, purity 99.0%
Compound 4: water, H2O, purity 99.8%
Compound 5: isobutyl acetate, C6H12O2, purity 99.0%

System: thioglycolic acid; phases: Liquid
Property: Refractive index (Na D-line) (Liquid); method: Standard Abbe refractometry
Temperature, K	Pressure, kPa	Refractive index (Na D-line)	uncertainty
293.15	101.3	1.5027	

System: butyl acetate; phases: Liquid
Property: Refractive index (Na D-line) (Liquid); method: Standard Abbe refractometry
Temperature, K	Pressure, kPa	Refractive index (Na D-line)	uncertainty
293.15	101.3	1.394	

System: butyl formate; phases: Liquid
Property: Refractive index (Na D-line) (Liquid); method: Standard Abbe refractometry
Temperature, K	Pressure, kPa	Refractive index (Na D-line)	uncertainty
293.15	101.3	1.3887	

System: water; phases: Liquid
Property: Refractive index (Na D-line) (Liquid); method: Standard Abbe refractometry
Temperature, K	Pressure, kPa	Refractive index (Na D-line)	uncertainty
293.15	101.3	1.3327	

System: isobutyl acetate; phases: Liquid
Property: Refractive index (Na D-line) (Liquid); method: Standard Abbe refractometry
Temperature, K	Pressure, kPa	Refractive index (Na D-line)	uncertainty
293.15	101.3	1.3905	

System: thioglycolic acid + water; phases: Liquid, Gas
Property: Boiling temperature at pressure P, K (Liquid); method: Ebulliometric method (Recirculating still)
Mole fraction of thioglycolic acid	Pressure, kPa	Boiling temperature at pressure P, K	uncertainty
.0286	101.3	373.46	
.1317	101.3	376.09	
.1844	101.3	377.22	
.2369	101.3	378.49	
.3159	101.3	380.67	
.3811	101.3	382.77	
.4576	101.3	385.25	
.5573	101.3	391.11	
.6481	101.3	397.65	
.711	101.3	403.71	
.7698	101.3	410.15	

System: thioglycolic acid + water; phases: Gas, Liquid
Property: Mole fraction of thioglycolic acid (Gas); method: Chromatography
Mole fraction of thioglycolic acid	Pressure, kPa	Mole fraction of thioglycolic acid	uncertainty
.0286	101.3	.0012	
.1317	101.3	.0037	
.1844	101.3	.0046	
.2369	101.3	.0053	
.3159	101.3	.0071	
.3811	101.3	.0087	
.4576	101.3	.0105	
.5573	101.3	.016	
.6481	101.3	.0236	
.711	101.3	.0331	
.7698	101.3	.0459	

System: thioglycolic acid + butyl acetate; phases: Liquid, Gas
Property: Boiling temperature at pressure P, K (Liquid); method: Ebulliometric method (Recirculating still)
Mole fraction of thioglycolic acid	Pressure, kPa	Boiling temperature at pressure P, K	uncertainty
.0461	101.3	399.93	
.0854	101.3	400.73	
.1496	101.3	401.58	
.2236	101.3	403.9	
.2638	101.3	405.19	
.297	101.3	406.65	
.346	101.3	408.85	
.4067	101.3	411.65	
.4625	101.3	414.9	

System: thioglycolic acid + butyl acetate; phases: Gas, Liquid
Property: Mole fraction of thioglycolic acid (Gas); method: Chromatography
Mole fraction of thioglycolic acid	Pressure, kPa	Mole fraction of thioglycolic acid	uncertainty
.0461	101.3	.006	
.0854	101.3	.0073	
.1496	101.3	.0097	
.2236	101.3	.0124	
.2638	101.3	.014	
.297	101.3	.016	
.346	101.3	.0194	
.4067	101.3	.0254	
.4625	101.3	.0307	

System: thioglycolic acid + butyl formate; phases: Liquid, Gas
Property: Boiling temperature at pressure P, K (Liquid); method: Ebulliometric method (Recirculating still)
Mole fraction of thioglycolic acid	Pressure, kPa	Boiling temperature at pressure P, K	uncertainty
.0743	101.3	381.37	
.1142	101.3	382.76	
.181	101.3	384.9	
.2437	101.3	386.83	
.2878	101.3	388.61	
.3461	101.3	390.67	
.392	101.3	392.59	

System: thioglycolic acid + butyl formate; phases: Gas, Liquid
Property: Mole fraction of thioglycolic acid (Gas); method: Chromatography
Mole fraction of thioglycolic acid	Pressure, kPa	Mole fraction of thioglycolic acid	uncertainty
.0743	101.3	.0055	
.1142	101.3	.0076	
.181	101.3	.0104	
.2437	101.3	.0126	
.2878	101.3	.0142	
.3461	101.3	.0165	
.392	101.3	.0187	

System: thioglycolic acid + isobutyl acetate; phases: Liquid, Gas
Property: Boiling temperature at pressure P, K (Liquid); method: Ebulliometric method (Recirculating still)
Mole fraction of thioglycolic acid	Pressure, kPa	Boiling temperature at pressure P, K	uncertainty
.0733	101.3	390.75	
.1005	101.3	391.17	
.1539	101.3	392.74	
.212	101.3	394.76	
.2773	101.3	397.22	
.3495	101.3	400.57	
.4217	101.3	404.5	

System: thioglycolic acid + isobutyl acetate; phases: Gas, Liquid
Property: Mole fraction of thioglycolic acid (Gas); method: Chromatography
Mole fraction of thioglycolic acid	Pressure, kPa	Mole fraction of thioglycolic acid	uncertainty
.0733	101.3	.0029	
.1005	101.3	.0036	
.1539	101.3	.005	
.212	101.3	.007	
.2773	101.3	.0098	
.3495	101.3	.0142	
.4217	101.3	.0202	
