Measured thermophysical data. Determination and Correlation of Solubilities for Succinic Acid in the Adipic Acid + Glutaric Acid + Acetone Mixture and Adipic Acid in the Succinic Acid + Glutaric Acid + Acetone Mixture
Source: J. Chem. Eng. Data, 2016, 10.1021/acs.jced.6b00145
Compound 1: succinic acid, C4H6O4, purity 99.5%
Compound 2: adipic acid, C6H10O4, purity 99.5%
Compound 3: glutaric acid, C5H8O4, purity 99.0%
Compound 4: acetone, C3H6O, purity 99.5%

System: acetone + succinic acid + adipic acid; phases: Liquid, Crystal
Fixed: Pressure, kPa = 100
Property: Mole fraction of succinic acid (Liquid); method: Titration method
Temperature, K	Mass fraction of adipic acid	Mole fraction of succinic acid	uncertainty
277.85	0	.00981	
279.95	0	.01088	
283.75	0	.01173	
287.55	0	.01287	
290.25	0	.01401	
292.95	0	.01492	
296.55	0	.01616	
299.45	0	.0172	
302.55	0	.01849	
306.15	0	.01989	
308.75	0	.02141	
311.95	0	.023	
315.85	0	.02481	
319.35	0	.02798	
323.35	0	.03224	
327.65	0	.0378	
282.45	.0194	.01139	
286.45	.0194	.01271	
290.25	.0194	.01403	
293.75	.0194	.01531	
296.45	.0194	.01661	
299.25	.0194	.0176	
302.05	.0194	.01859	
305.2	.0194	.01987	
308.75	.0194	.02173	
313.15	.0194	.02411	
316.45	.0194	.02627	
319.55	.0194	.02834	
322.25	.0194	.03104	
326.75	.0194	.03528	
291.75	.0332	.01471	
295.6	.0332	.0163	
297.65	.0332	.01751	
300.85	.0332	.01901	
305.35	.0332	.02078	
310.95	.0332	.02309	
314.65	.0332	.02561	
318.25	.0332	.02792	
321.75	.0332	.03114	
325.15	.0332	.03447	
327.35	.0332	.03684	
296.95	.04	.01705	
300.35	.04	.01888	
302.75	.04	.02012	
305.35	.04	.0215	
308.85	.04	.02311	
311.3	.04	.02457	
314.05	.04	.02632	
317.35	.04	.02821	
320.95	.04	.0309	
324.05	.04	.03395	
326.95	.04	.0368	

System: acetone + succinic acid + adipic acid; phases: Liquid, Crystal
Fixed: Pressure, kPa = 100
Property: Mole fraction of adipic acid (Liquid); method: Titration method
Temperature, K	Mass fraction of succinic acid	Mole fraction of adipic acid	uncertainty
280.05	0	.00869	
283.35	0	.00994	
287.65	0	.01135	
291.45	0	.01296	
293.15	0	.01365	
294.15	0	.01421	
297.95	0	.0162	
301.1	0	.01801	
303.15	0	.01941	
303.85	0	.01988	
306.65	0	.02208	
309.85	0	.02441	
313	0	.02718	
316.15	0	.0299	
320.15	0	.03354	
323.35	0	.0374	
325.25	0	.04011	
327.95	0	.04404	
281.65	.0201	.00909	
284.75	.0201	.01017	
288.25	.0201	.01153	
292.15	.0201	.01324	
297.55	.0201	.01603	
301.45	.0201	.018	
303.65	.0201	.02001	
306.65	.0201	.0223	
310.2	.0201	.02488	
313.35	.0201	.02781	
317	.0201	.0312	
320.25	.0201	.03412	
323.25	.0201	.03846	
325.45	.0201	.04076	
327.85	.0201	.04516	
295.3	.0325	.01535	
298.15	.0325	.01697	
301.4	.0325	.01931	
304.45	.0325	.02128	
307.3	.0325	.02342	
309.85	.0325	.0256	
311.95	.0325	.02789	
315.25	.0325	.03073	
318.05	.0325	.03336	
321.75	.0325	.0366	
325.05	.0325	.0411	
327.55	.0325	.04534	
304.95	.0418	.02231	
306.85	.0418	.0238	
309.9	.0418	.02637	
312.35	.0418	.029	
314.55	.0418	.03092	
317.05	.0418	.0338	
320.35	.0418	.03812	
323.95	.0418	.04338	
327.45	.0418	.04871	

System: acetone + succinic acid; phases: Liquid, Crystal
Property: Mole fraction of succinic acid (Liquid); method: Titration method
Temperature, K	Pressure, kPa	Mole fraction of succinic acid	uncertainty
277.85	100	.00981	
279.95	100	.01088	
283.75	100	.01173	
287.55	100	.01287	
290.25	100	.01401	
292.95	100	.01492	
296.55	100	.01616	
299.45	100	.0172	
302.55	100	.01849	
306.15	100	.01989	
308.75	100	.02141	
311.95	100	.023	
315.85	100	.02481	
319.35	100	.02798	
323.35	100	.03224	
327.65	100	.0378	

System: acetone + adipic acid; phases: Liquid, Crystal
Property: Mole fraction of adipic acid (Liquid); method: Titration method
Temperature, K	Pressure, kPa	Mole fraction of adipic acid	uncertainty
280.05	100	.00869	
283.35	100	.00994	
287.65	100	.01135	
291.45	100	.01296	
293.15	100	.01365	
294.15	100	.01421	
297.95	100	.0162	
301.1	100	.01801	
303.15	100	.01941	
303.85	100	.01988	
306.65	100	.02208	
309.85	100	.02441	
313	100	.02718	
316.15	100	.0299	
320.15	100	.03354	
323.35	100	.0374	
325.25	100	.04011	
327.95	100	.04404	
