Measured thermophysical data. Thermodynamic Properties of N-Methyl-Substituted Ethane-1,2-diamines: Experimental and Computational Study
Source: J. Chem. Eng. Data, 2016, 10.1021/acs.jced.5b01003
Compound 1: N-methylethylenediamine, C3H10N2
Compound 2: N1,N2-dimethylethane-1,2-diamine, C4H12N2
Compound 3: N,N,N'-trimethylethylenediamine, C5H14N2
Compound 4: N,N-dimethyl-1,2-diaminoethane, C4H12N2

System: N-methylethylenediamine; phases: Liquid, Gas
Property: Vapor or sublimation pressure, kPa (Liquid); method: Transpiration method
Temperature, K	Vapor or sublimation pressure, kPa	uncertainty
272.2	.2731	
274.3	.3181	
275.4	.3449	
278	.4148	
278.6	.4455	
279.4	.4695	
280.2	.4943	
281.3	.5355	
282.3	.5867	
283.1	.6075	
284.1	.6579	
284.9	.6972	
286.3	.7738	
287.8	.8601	
289.3	.9404	
290.6	1.0343	
292.2	1.1761	
294.6	1.3941	
296.2	1.5412	
298.1	1.7618	
300.2	2.0167	
302.2	2.2752	

System: N1,N2-dimethylethane-1,2-diamine; phases: Liquid, Gas
Property: Vapor or sublimation pressure, kPa (Liquid); method: Transpiration method
Temperature, K	Vapor or sublimation pressure, kPa	uncertainty
281.4	.5045	
285.6	.6936	
290.6	1.0229	
300.7	2.1059	
305.6	2.892	
310.7	3.9736	
308.2	3.4084	
279.2	.4258	
283.3	.5851	
288.2	.8579	
293.2	1.2283	
295.8	1.498	
298.2	1.7809	
303.4	2.4771	

System: N,N,N'-trimethylethylenediamine; phases: Liquid, Gas
Property: Vapor or sublimation pressure, kPa (Liquid); method: Transpiration method
Temperature, K	Vapor or sublimation pressure, kPa	uncertainty
274.2	.5021	
276.7	.605	
281.8	.8858	
286.8	1.2713	
291	1.6856	
296.3	2.4033	
298.2	2.7329	
301	3.2592	
303.2	3.8111	
304.1	4.0742	
305.4	4.402	

System: N,N-dimethyl-1,2-diaminoethane; phases: Liquid, Gas
Property: Vapor or sublimation pressure, kPa (Liquid); method: Transpiration method
Temperature, K	Vapor or sublimation pressure, kPa	uncertainty
273.8	.7397	
274.2	.7526	
275.2	.808	
276.7	.8869	
278.2	.9687	
280.7	1.114	
283.2	1.3091	
285.6	1.5611	
288.2	1.8209	
290.7	2.0879	
293.2	2.3915	
295.6	2.7632	
298.2	3.1855	
298.2	3.2823	
300.7	3.7551	
300.7	3.7272	
303.2	4.3306	
303.2	4.2906	
