Measured thermophysical data. Solubility Data in the Ternary NH4HCO3 NH4VO3 H2O and (NH4)2CO3 NH4VO3 H2O Systems at (40 and 70) deg C
Source: J. Chem. Eng. Data, 2016, 10.1021/acs.jced.5b00985
Compound 1: ammonium bicarbonate, CH5NO3, purity 99%
Compound 2: ammonium carbonate, CH8N2O3, purity 99%
Compound 3: ammonium vanadate, H4NO3V, purity 99%
Compound 4: water, H2O, purity 99.9%

System: ammonium bicarbonate + water + ammonium vanadate; phases: Liquid, Crystal
Fixed: Pressure, kPa = 100.8
Property: Molality, mol/kg of ammonium vanadate (Liquid); method: Isothermal solution saturation method
Temperature, K	Molality, mol/kg of ammonium bicarbonate	Molality, mol/kg of ammonium vanadate	uncertainty
313.15	.0001	.0935	
313.15	.0153	.0842	
313.15	.0362	.077	
313.15	.0506	.0681	
313.15	.068	.0576	
313.15	.0949	.0514	
313.15	.1023	.0422	
313.15	.1249	.0329	
313.15	.153	.0286	
313.15	.178	.024	
313.15	.236	.0213	
313.15	.2889	.0204	
313.15	.3117	.0201	
313.15	.3522	.0191	
313.15	.4386	.0194	
313.15	.495	.021	
313.15	.5708	.0211	
313.15	.5959	.0212	
313.15	.7493	.0215	
313.15	.8658	.0218	
313.15	.9034	.0231	
313.15	.9828	.0236	
313.15	1.1532	.0248	
313.15	1.3397	.0253	
313.15	1.4574	.0257	
313.15	1.5862	.0257	
313.15	1.6708	.0258	
313.15	1.8574	.0259	
313.15	2.0225	.0271	
313.15	2.0863	.0276	
313.15	2.1434	.028	
313.15	2.1798	.0282	
343.15	0	.2563	
343.15	.0268	.2352	
343.15	.0353	.2317	
343.15	.0499	.222	
343.15	.0708	.2067	
343.15	.0774	.1875	
343.15	.08	.172	
343.15	.0825	.1604	
343.15	.1171	.1484	
343.15	.1699	.1298	
343.15	.2085	.1191	
343.15	.2469	.1082	
343.15	.2917	.0938	
343.15	.3562	.0813	
343.15	.4265	.0732	
343.15	.466	.0693	
343.15	.5755	.0658	
343.15	.6438	.0637	
343.15	.7835	.0627	
343.15	.9458	.0567	
343.15	1.0011	.0538	
343.15	1.1409	.0515	
343.15	1.2721	.0508	
343.15	1.4131	.05	
343.15	1.5943	.0496	
343.15	1.641	.0498	
343.15	1.6691	.0497	
343.15	1.7697	.0496	
343.15	1.8788	.0492	
343.15	1.9909	.0485	
343.15	2.0773	.048	
343.15	2.2016	.0477	
313.15	2.3204	.0291	

System: ammonium bicarbonate + water + ammonium vanadate; phases: Liquid
Fixed: Pressure, kPa = 100.8
Property: Mass density, kg/m3 (Liquid); method: Pycnometric method
Temperature, K	Molality, mol/kg of ammonium bicarbonate	Molality, mol/kg of ammonium vanadate	Mass density, kg/m3	uncertainty
313.15	.0001	.0935	1002.3	
313.15	.0153	.0842	1002.4	
313.15	.0362	.077	1002.8	
313.15	.0506	.0681	1003.1	
313.15	.068	.0576	1003.3	
313.15	.0949	.0514	1003.4	
313.15	.1023	.0422	1004.4	
313.15	.1249	.0329	1005.1	
313.15	.153	.0286	1006.9	
313.15	.178	.024	1008.3	
313.15	.236	.0213	1008.7	
313.15	.2889	.0204	1009.6	
313.15	.3117	.0201	1010.7	
313.15	.3522	.0191	1011.8	
313.15	.4386	.0194	1019.1	
313.15	.495	.021	1019.9	
313.15	.5708	.0211	1020.1	
313.15	.5959	.0212	1022.2	
313.15	.7493	.0215	1023.2	
313.15	.8658	.0218	1023.6	
313.15	.9034	.0231	1024.1	
313.15	.9828	.0236	1030.4	
313.15	1.1532	.0248	1037.5	
313.15	1.3397	.0253	1043.6	
313.15	1.4574	.0257	1043.4	
313.15	1.5862	.0257	1052.3	
313.15	1.6708	.0258	1053.6	
313.15	1.8574	.0259	1060.1	
313.15	2.0225	.0271	1063.9	
313.15	2.0863	.0276	1082.4	
313.15	2.1434	.028	1093.2	
313.15	2.1798	.0282	1110.6	
313.15	2.3204	.0291	1111.4	
343.15	0	.2563	1001.1	
343.15	.0268	.2352	1001.3	
343.15	.0353	.2317	1001.2	
343.15	.0499	.222	1001.3	
343.15	.0708	.2067	1001.4	
343.15	.0774	.1875	1001.4	
343.15	.08	.172	1001.3	
343.15	.0825	.1604	1001.4	
343.15	.1171	.1484	1001.9	
343.15	.1699	.1298	1002.1	
343.15	.2085	.1191	1003.1	
343.15	.2469	.1082	1003.5	
343.15	.2917	.0938	1004	
343.15	.3562	.0813	1004.4	
343.15	.4265	.0732	1004.7	
343.15	.466	.0693	1005.1	
343.15	.5755	.0658	1007.9	
343.15	.6438	.0637	1008.4	
343.15	.7835	.0627	1010.6	
343.15	.9458	.0567	1015.9	
343.15	1.0011	.0538	1023.8	
343.15	1.1409	.0515	1034.2	
343.15	1.2721	.0508	1044.9	
343.15	1.4131	.05	1048.7	
343.15	1.5943	.0496	1059.6	
343.15	1.641	.0498	1062.1	
343.15	1.6691	.0497	1062.9	
343.15	1.7697	.0496	1067.4	
343.15	1.8788	.0492	1081.7	
343.15	1.9909	.0485	1084.8	
343.15	2.0773	.048	1090.4	
343.15	2.2016	.0477	1090.6	

System: ammonium carbonate + water + ammonium vanadate; phases: Liquid, Crystal
Fixed: Pressure, kPa = 100.7
Property: Molality, mol/kg of ammonium vanadate (Liquid); method: Isothermal solution saturation method
Temperature, K	Molality, mol/kg of ammonium carbonate	Molality, mol/kg of ammonium vanadate	uncertainty
313.15	0	.0946	
313.15	.013	.0885	
313.15	.0256	.0707	
313.15	.037	.0571	
313.15	.0574	.0492	
313.15	.0751	.0427	
313.15	.0871	.041	
313.15	.1058	.0384	
313.15	.1361	.0333	
313.15	.1521	.0339	
313.15	.1947	.0283	
313.15	.262	.0252	
313.15	.3275	.0241	
313.15	.4163	.0244	
313.15	.5341	.0245	
313.15	.5926	.0259	
313.15	.652	.0263	
313.15	.759	.027	
313.15	.8335	.0276	
313.15	1.0043	.0288	
313.15	1.0227	.029	
313.15	1.0999	.0289	
313.15	1.1696	.0291	
313.15	1.3221	.0298	
313.15	1.444	.0302	
313.15	1.61	.0304	
313.15	1.6465	.031	
313.15	1.7231	.0313	
313.15	1.7752	.0315	
313.15	1.7855	.0316	
313.15	1.9931	.0325	
343.15	0	.2612	
343.15	.0092	.2556	
343.15	.0232	.2467	
343.15	.0556	.236	
343.15	.0739	.2268	
343.15	.0918	.1924	
343.15	.1081	.182	
343.15	.1347	.1627	
343.15	.1593	.1532	
343.15	.2026	.1402	
343.15	.2632	.1274	
343.15	.3589	.1194	
343.15	.4077	.1125	
343.15	.5313	.1011	
343.15	.5921	.0945	
343.15	.666	.0863	
343.15	.7168	.0758	
343.15	.7932	.0824	
343.15	.8749	.0827	
343.15	1.0079	.0843	
343.15	1.0518	.0843	
343.15	1.2228	.084	
343.15	1.2964	.084	
343.15	1.3589	.0835	
343.15	1.4482	.0827	
343.15	1.4806	.0821	
343.15	1.5847	.0811	
343.15	1.6897	.0803	
343.15	1.7602	.0798	
343.15	1.8018	.0794	
343.15	1.9454	.079	

System: ammonium carbonate + water + ammonium vanadate; phases: Liquid
Fixed: Pressure, kPa = 100.7
Property: Mass density, kg/m3 (Liquid); method: Pycnometric method
Temperature, K	Molality, mol/kg of ammonium carbonate	Molality, mol/kg of ammonium vanadate	Mass density, kg/m3	uncertainty
313.15	0	.0946	1002.1	
313.15	.013	.0885	1002.1	
313.15	.0256	.0707	1001.8	
313.15	.037	.0571	1001.6	
313.15	.0574	.0492	1002	
313.15	.0751	.0427	1002.3	
313.15	.0871	.041	1002.9	
313.15	.1058	.0384	1005.3	
313.15	.1361	.0333	1008.3	
313.15	.1521	.0339	1009.6	
313.15	.1947	.0283	1013.4	
313.15	.262	.0252	1018.5	
313.15	.3275	.0241	1026.3	
313.15	.4163	.0244	1030.8	
313.15	.5341	.0245	1034.4	
313.15	.5926	.0259	1040.2	
313.15	.652	.0263	1043.5	
313.15	.759	.027	1051.6	
313.15	.8335	.0276	1059.2	
313.15	1.0043	.0288	1084.7	
313.15	1.0227	.029	1084.3	
313.15	1.0999	.0289	1092.5	
313.15	1.1696	.0291	1100.3	
313.15	1.3221	.0298	1104.5	
313.15	1.444	.0302	1105.6	
313.15	1.61	.0304	1107.9	
313.15	1.6465	.031	1108.1	
313.15	1.7231	.0313	1109.7	
313.15	1.7752	.0315	1110.5	
313.15	1.7855	.0316	1110.4	
313.15	1.9931	.0325	1111.9	
343.15	0	.2612	1001.3	
343.15	.0092	.2556	1001.3	
343.15	.0232	.2467	1001.4	
343.15	.0556	.236	1001.5	
343.15	.0739	.2268	1001.7	
343.15	.0918	.1924	1002.4	
343.15	.1081	.182	1002.8	
343.15	.1347	.1627	1002.7	
343.15	.1593	.1532	1003	
343.15	.2026	.1402	1003.8	
343.15	.2632	.1274	1004.7	
343.15	.3589	.1194	1005.5	
343.15	.4077	.1125	1006.1	
343.15	.5313	.1011	1015.2	
343.15	.5921	.0945	1017.1	
343.15	.666	.0863	1021.5	
343.15	.7168	.0758	1028.6	
343.15	.7932	.0824	1031.7	
343.15	.8749	.0827	1034.4	
343.15	1.0079	.0843	1045	
343.15	1.0518	.0843	1046.9	
343.15	1.2228	.084	1052.2	
343.15	1.2964	.084	1053	
343.15	1.3589	.0835	1057.2	
343.15	1.4482	.0827	1066.3	
343.15	1.4806	.0821	1071.4	
343.15	1.5847	.0811	1080.8	
343.15	1.6897	.0803	1088.4	
343.15	1.7602	.0798	1091.2	
343.15	1.8018	.0794	1093.8	
343.15	1.9454	.079	1100.3	

System: water + ammonium vanadate; phases: Liquid, Crystal
Property: Molality, mol/kg of ammonium vanadate (Liquid); method: Isothermal solution saturation method
Temperature, K	Pressure, kPa	Molality, mol/kg of ammonium vanadate	uncertainty
343.15	100.8	.2563	
313.15	100.8	.0946	
343.15	100.8	.2612	

System: water + ammonium vanadate; phases: Liquid
Property: Mass density, kg/m3 (Liquid); method: Pycnometric method
Temperature, K	Molality, mol/kg of ammonium vanadate	Pressure, kPa	Mass density, kg/m3	uncertainty
343.15	.2563	100.8	1001.1	
313.15	.0946	100.8	1002.1	
343.15	.2612	100.8	1001.3	
