Measured thermophysical data. Measurement and Correlation of the Solubility of Sodium 2- Chlorotoluene-4-sulfonate in Selected Pure Solvents and Aqueous Organic Solutions
Source: J. Chem. Eng. Data, 2016, 10.1021/acs.jced.5b00655
Compound 1: sodium 3-chloro-4-methylbenzenesulfonate, C7H6ClNaO3S
Compound 2: methanol, CH4O, purity 99.9%
Compound 3: ethanol, C2H6O, purity 99.8%
Compound 4: dimethylformamide, C3H7NO, purity 99.5%
Compound 5: dimethyl sulfoxide, C2H6OS, purity 99.5%
Compound 6: formic acid, CH2O2, purity 98%
Compound 7: water, H2O, purity 99.9%

System: methanol + sodium 3-chloro-4-methylbenzenesulfonate; phases: Liquid, Crystal
Fixed: Pressure, kPa = 100
Property: Mole fraction of sodium 3-chloro-4-methylbenzenesulfonate (Liquid); method: Visual
Temperature, K	Mole fraction of sodium 3-chloro-4-methylbenzenesulfonate	uncertainty
287.1	.004095	.00020475
293	.004474	.0002237
297.1	.004704	.0002352
302.6	.004976	.0002488
306.1	.00524	.000262
311.8	.005498	.0002749
316.7	.005785	.00028925
321.5	.006066	.0003033
327	.006369	.00031845
333.1	.006696	.0003348

System: dimethylformamide + sodium 3-chloro-4-methylbenzenesulfonate; phases: Liquid, Crystal
Fixed: Pressure, kPa = 100
Property: Mole fraction of sodium 3-chloro-4-methylbenzenesulfonate (Liquid); method: Visual
Temperature, K	Mole fraction of sodium 3-chloro-4-methylbenzenesulfonate	uncertainty
280.6	.020335	.00101675
286.3	.020572	.0010286
291.3	.020841	.00104205
297.6	.021159	.00105795
304.8	.021578	.0010789
310.7	.022285	.00111425
314.8	.02285	.0011425
319	.023457	.00117285
322.1	.02405	.0012025
327.6	.02521	.0012605
333.3	.026849	.00134245

System: dimethyl sulfoxide + sodium 3-chloro-4-methylbenzenesulfonate; phases: Liquid, Crystal
Fixed: Pressure, kPa = 100
Property: Mole fraction of sodium 3-chloro-4-methylbenzenesulfonate (Liquid); method: Visual
Temperature, K	Mole fraction of sodium 3-chloro-4-methylbenzenesulfonate	uncertainty
294	.08599	.0042995
299.6	.086837	.00434185
304.9	.087787	.00438935
310.6	.088737	.00443685
314.5	.089424	.0044712
319.2	.090228	.0045114
323.5	.091162	.0045581
330.2	.092892	.0046446
335.2	.094676	.0047338

System: formic acid + sodium 3-chloro-4-methylbenzenesulfonate; phases: Liquid, Crystal
Fixed: Pressure, kPa = 100
Property: Mole fraction of sodium 3-chloro-4-methylbenzenesulfonate (Liquid); method: Visual
Temperature, K	Mole fraction of sodium 3-chloro-4-methylbenzenesulfonate	uncertainty
283	.036953	.00184765
288.9	.038312	.0019156
295.9	.039813	.00199065
301.4	.041455	.00207275
307.3	.043069	.00215345
313	.044622	.0022311
319.5	.045785	.00228925
324.9	.047469	.00237345
331.1	.049098	.0024549
335.5	.050313	.00251565

System: sodium 3-chloro-4-methylbenzenesulfonate + water; phases: Liquid, Crystal
Fixed: Pressure, kPa = 100
Property: Mole fraction of sodium 3-chloro-4-methylbenzenesulfonate (Liquid); method: Visual
Temperature, K	Mole fraction of sodium 3-chloro-4-methylbenzenesulfonate	uncertainty
281	.004158	.0002079
284	.004366	.0002183
288.1	.004781	.00023905
292.2	.005302	.0002651
296.5	.005922	.0002961
301.2	.006607	.00033035
305.6	.007334	.0003667
310.7	.008352	.0004176
314.6	.009197	.00045985
318.7	.010144	.0005072
322.4	.011147	.00055735
326.2	.012198	.0006099
331.1	.013862	.0006931
335.1	.015374	.0007687

System: ethanol + sodium 3-chloro-4-methylbenzenesulfonate + water; phases: Liquid, Crystal
Fixed: Pressure, kPa = 100
Property: Mole fraction of sodium 3-chloro-4-methylbenzenesulfonate (Liquid); method: Visual
Temperature, K	Solvent: Mole fraction of ethanol	Mole fraction of sodium 3-chloro-4-methylbenzenesulfonate	uncertainty
281	0	.004158	.0002079
284	0	.004366	.0002183
288.1	0	.004781	.00023905
292.2	0	.005302	.0002651
296.5	0	.005922	.0002961
301.2	0	.006607	.00033035
305.6	0	.007334	.0003667
310.7	0	.008352	.0004176
314.6	0	.009197	.00045985
318.7	0	.010144	.0005072
322.4	0	.011147	.00055735
326.2	0	.012198	.0006099
331.1	0	.013862	.0006931
335.1	0	.015374	.0007687
298	.1985	.009218	.0004609
287.3	.1985	.006311	.00031555
302.9	.1985	.010896	.0005448
307.3	.1985	.012617	.00063085
284.6	.1985	.005707	.00028535
312	.1985	.014487	.00072435
316.7	.1985	.016735	.00083675
291.4	.1985	.007416	.0003708
321.9	.1985	.019166	.0009583
326.8	.1985	.021839	.00109195
332.1	.1985	.024898	.0012449
299.3	.3986	.008436	.0004218
307.4	.3986	.010644	.0005322
312.3	.3986	.012089	.00060445
291.3	.3986	.00661	.0003305
317.3	.3986	.013751	.00068755
303	.3986	.009439	.00047195
286.8	.3986	.005529	.00027645
322.7	.3986	.01572	.000786
327.7	.3986	.017705	.00088525
295.4	.3986	.007522	.0003761
333.1	.3986	.020025	.00100125
316.5	.5975	.007539	.00037695
298.4	.5975	.00446	.000223
321.2	.5975	.008551	.00042755
312.1	.5975	.006642	.0003321
325.9	.5975	.009585	.00047925
293.1	.5975	.00382	.000191
303.1	.5975	.005128	.0002564
329.8	.5975	.010757	.00053785
287.3	.5975	.003052	.0001526
307.5	.5975	.005828	.0002914
334.6	.5975	.012024	.0006012
310.4	.7994	.002361	.00011805
326.6	.7994	.003659	.00018295
299.7	.7994	.00172	.000086
307	.7994	.002124	.0001062
322.4	.7994	.003272	.0001636
314.3	.7994	.002633	.00013165
331.4	.7994	.004098	.0002049
286.9	.7994	.001264	.0000632
318.2	.7994	.002936	.0001468
302.9	.7994	.001898	.0000949
334.8	.7994	.004485	.00022425
296.3	.7994	.001553	.00007765
284	.1002	.004722	.0002361
291.2	.1002	.005698	.0002849
296.2	.1002	.0067	.000335
302.3	.1002	.008053	.00040265
308.4	.1002	.009372	.0004686
313.7	.1002	.010964	.0005482
319.2	.1002	.012887	.00064435
324.3	.1002	.014608	.0007304
328.9	.1002	.016312	.0008156
333.8	.1002	.018209	.00091045

System: methanol + sodium 3-chloro-4-methylbenzenesulfonate + water; phases: Liquid, Crystal
Fixed: Pressure, kPa = 100
Property: Mole fraction of sodium 3-chloro-4-methylbenzenesulfonate (Liquid); method: Visual
Temperature, K	Solvent: Mole fraction of methanol	Mole fraction of sodium 3-chloro-4-methylbenzenesulfonate	uncertainty
282.4	.2082	.004151	.00020755
287.1	.2082	.00484	.000242
293.1	.2082	.005734	.0002867
297.3	.2082	.006557	.00032785
302.3	.2082	.007513	.00037565
306.9	.2082	.008559	.00042795
311.4	.2082	.009765	.00048825
316.4	.2082	.01113	.0005565
321.2	.2082	.012645	.00063225
326.1	.2082	.01441	.0007205
330.2	.2082	.016243	.00081215
279.9	.3985	.004257	.00021285
282.5	.3985	.004641	.00023205
285	.3985	.005027	.00025135
290.1	.3985	.005824	.0002912
293.9	.3985	.006644	.0003322
298.6	.3985	.007545	.00037725
303	.3985	.00861	.0004305
308.2	.3985	.00994	.000497
313.8	.3985	.011525	.00057625
319	.3985	.013171	.00065855
323.9	.3985	.014976	.0007488
283	.6023	.004053	.00020265
287.6	.6023	.004658	.0002329
291.7	.6023	.005281	.00026405
295.1	.6023	.005913	.00029565
299.2	.6023	.006589	.00032945
303.4	.6023	.007299	.00036495
307.2	.6023	.008032	.0004016
311.6	.6023	.008881	.00044405
314.8	.6023	.009597	.00047985
318.5	.6023	.010501	.00052505
324.7	.6023	.01221	.0006105
330.1	.6023	.013871	.00069355
334.3	.6023	.015393	.00076965
282.1	.8011	.004109	.00020545
285.5	.8011	.004318	.0002159
293.5	.8011	.005289	.00026445
300	.8011	.00606	.000303
307.1	.8011	.00694	.000347
313	.8011	.007681	.00038405
318	.8011	.00849	.0004245
324.7	.8011	.009321	.00046605
330.1	.8011	.010147	.00050735
287.1	1	.004095	.00020475
293	1	.004474	.0002237
297.1	1	.004704	.0002352
302.6	1	.004976	.0002488
306.1	1	.00524	.000262
311.8	1	.005498	.0002749
316.7	1	.005785	.00028925
321.5	1	.006066	.0003033
327	1	.006369	.00031845
333.1	1	.006696	.0003348
281	0	.004158	.0002079
284	0	.004366	.0002183
288.1	0	.004781	.00023905
292.2	0	.005302	.0002651
296.5	0	.005922	.0002961
301.2	0	.006607	.00033035
305.6	0	.007334	.0003667
310.7	0	.008352	.0004176
314.6	0	.009197	.00045985
318.7	0	.010144	.0005072
322.4	0	.011147	.00055735
326.2	0	.012198	.0006099
331.1	0	.013862	.0006931
335.1	0	.015374	.0007687
