Measured thermophysical data. Solubility Properties and Absorption Mechanism Investigation of Dilute SO2 in Propylene Glycol Monomethyl Ether + Dimethyl Sulfoxide System
Source: J. Chem. Eng. Data, 2017, 10.1021/acs.jced.6b00660
Compound 1: nitrogen, N2
Compound 2: dimethyl sulfoxide, C2H6OS
Compound 3: water, H2O
Compound 4: sodium thiosulfate, Na2O3S2, purity 99.9%
Compound 5: iodine, I2, purity 99.5%
Compound 6: sulfur dioxide, O2S
Compound 7: propylene glycol monomethyl ether, C4H10O2

System: dimethyl sulfoxide + propylene glycol monomethyl ether + sulfur dioxide; phases: Gas, Liquid
Property: Partial pressure, kPa of sulfur dioxide (Gas); method: IR Spectroscopy
Temperature, K	Solvent: Mass fraction of propylene glycol monomethyl ether	Molality, mol/kg of sulfur dioxide	Partial pressure, kPa of sulfur dioxide	uncertainty
298.15	0	.00773	.00861	
298.15	0	.01815	.0202	
298.15	0	.03041	.0288	
298.15	0	.0472	.0414	
298.15	0	.05948	.0512	
298.15	0	.08219	.0698	
298.15	0	.10124	.0826	
298.15	0	.11374	.0915	
298.15	0	.14036	.113	
298.15	0	.14776	.124	
298.15	.2	.0076	.0102	
298.15	.2	.01235	.0163	
298.15	.2	.01812	.0223	
298.15	.2	.02987	.0324	
298.15	.2	.0385	.0428	
298.15	.2	.04871	.054	
298.15	.2	.06436	.0719	
298.15	.2	.07485	.0805	
298.15	.2	.08523	.0928	
298.15	.2	.09639	.105	
298.15	.2	.10639	.116	
298.15	.2	.11409	.126	
298.15	.4	.00279	.00765	
298.15	.4	.0038	.01	
298.15	.4	.00525	.0138	
298.15	.4	.00593	.0154	
298.15	.4	.00951	.0219	
298.15	.4	.01108	.0248	
298.15	.4	.01311	.0291	
298.15	.4	.0168	.0337	
298.15	.4	.02044	.0393	
298.15	.4	.02382	.0496	
298.15	.4	.02838	.0587	
298.15	.4	.03327	.0697	
298.15	.4	.04007	.0821	
298.15	.4	.04489	.0903	
298.15	.4	.05006	.102	
298.15	.4	.06045	.121	
298.15	.6	.00371	.0107	
298.15	.6	.00614	.0181	
298.15	.6	.01262	.0346	
298.15	.6	.01656	.0427	
298.15	.6	.02076	.0539	
298.15	.6	.02519	.0616	
298.15	.6	.0269	.0683	
298.15	.6	.02935	.0766	
298.15	.6	.03345	.0843	
298.15	.6	.04012	.101	
298.15	.6	.04432	.111	
298.15	.6	.04948	.124	
298.15	.7	.00323	.01	
298.15	.7	.00393	.0136	
298.15	.7	.00666	.0248	
298.15	.7	.01024	.0383	
298.15	.7	.01626	.0607	
298.15	.7	.01913	.0721	
298.15	.7	.02376	.0874	
298.15	.7	.02802	.104	
298.15	.7	.03333	.127	
298.15	.7	.03088	.117	
298.15	.8	.00226	.0105	
298.15	.8	.00305	.0152	
298.15	.8	.00438	.0223	
298.15	.8	.00505	.0301	
298.15	.8	.00781	.0436	
298.15	.8	.00999	.0626	
298.15	.8	.01167	.0705	
298.15	.8	.01354	.0789	
298.15	.8	.0146	.0892	
298.15	.8	.01699	.101	
298.15	.8	.01888	.112	
298.15	.8	.02098	.122	
298.15	1	.00159	.0114	
298.15	1	.00336	.0244	
298.15	1	.00465	.0369	
298.15	1	.00575	.0504	
298.15	1	.00771	.0647	
298.15	1	.00868	.0733	
298.15	1	.00991	.087	
298.15	1	.01288	.1071	
298.15	1	.01354	.1107	
298.15	1	.01609	.1295	
303.15	0	.0047	.00632	
303.15	0	.00717	.0103	
303.15	0	.01403	.0178	
303.15	0	.02109	.0264	
303.15	0	.03063	.0356	
303.15	0	.04063	.0468	
303.15	0	.05099	.0563	
303.15	0	.06255	.068	
303.15	0	.07428	.0813	
303.15	0	.08657	.0953	
303.15	0	.09721	.108	
303.15	0	.10547	.116	
303.15	0	.11464	.126	
303.15	.2	.0038	.00656	
303.15	.2	.006	.0125	
303.15	.2	.01665	.0278	
303.15	.2	.02404	.0389	
303.15	.2	.03086	.0499	
303.15	.2	.0385	.0579	
303.15	.2	.04553	.0687	
303.15	.2	.06105	.0942	
303.15	.2	.05261	.0785	
303.15	.2	.06855	.101	
303.15	.2	.0754	.114	
303.15	.2	.08431	.127	
303.15	.4	.00203	.00333	
303.15	.4	.00253	.00668	
303.15	.4	.00478	.0145	
303.15	.4	.00768	.0221	
303.15	.4	.01118	.0307	
303.15	.4	.01474	.0393	
303.15	.4	.01814	.0451	
303.15	.4	.02439	.0613	
303.15	.4	.0277	.0694	
303.15	.4	.03173	.0762	
303.15	.4	.0365	.0863	
303.15	.4	.04621	.109	
303.15	.4	.05156	.124	
303.15	.6	.002	.00843	
303.15	.6	.00323	.0114	
303.15	.6	.00459	.0177	
303.15	.6	.00622	.0247	
303.15	.6	.00932	.0356	
303.15	.6	.01324	.0478	
303.15	.6	.01759	.0624	
303.15	.6	.02394	.0836	
303.15	.6	.02905	.0978	
303.15	.6	.03213	.11	
303.15	.6	.03497	.122	
303.15	.6	.03749	.126	
303.15	.7	.00221	.00804	
303.15	.7	.00272	.0116	
303.15	.7	.00398	.0193	
303.15	.7	.00538	.0279	
303.15	.7	.00712	.0361	
303.15	.7	.00861	.0443	
303.15	.7	.01005	.0546	
303.15	.7	.01226	.0636	
303.15	.7	.01612	.0867	
303.15	.7	.01783	.0953	
303.15	.7	.02004	.108	
303.15	.7	.02196	.115	
303.15	.7	.02441	.129	
303.15	.8	.00154	.00654	
303.15	.8	.00245	.0142	
303.15	.8	.00379	.0217	
303.15	.8	.00482	.0309	
303.15	.8	.00644	.0429	
303.15	.8	.00712	.0537	
303.15	.8	.00905	.0634	
303.15	.8	.01057	.0688	
303.15	.8	.01137	.0785	
303.15	.8	.01319	.089	
303.15	.8	.01549	.101	
303.15	.8	.01799	.115	
303.15	.8	.01888	.13	
303.15	1	.00116	.00799	
303.15	1	.00169	.015	
303.15	1	.0031	.0266	
303.15	1	.00446	.0442	
303.15	1	.00489	.0475	
303.15	1	.00589	.0559	
303.15	1	.00673	.0663	
303.15	1	.00746	.0791	
303.15	1	.00944	.0943	
303.15	1	.01097	.108	
308.15	0	.00264	.00467	
308.15	0	.00507	.0122	
308.15	0	.01225	.0188	
308.15	0	.014	.0255	
308.15	0	.0187	.0323	
308.15	0	.02764	.043	
308.15	0	.03492	.0558	
308.15	0	.04275	.0663	
308.15	0	.05196	.0794	
308.15	0	.06864	.103	
308.15	0	.07524	.113	
308.15	.2	.00589	.01314	
308.15	.2	.00881	.01925	
308.15	.2	.01244	.02715	
308.15	.2	.01776	.03619	
308.15	.2	.02523	.0502	
308.15	.2	.03116	.06189	
308.15	.2	.0358	.07022	
308.15	.2	.04013	.07957	
308.15	.2	.04578	.09197	
308.15	.2	.05143	.1034	
308.15	.2	.05664	.11367	
308.15	.2	.0621	.12551	
308.15	.4	.00571	.0144	
308.15	.4	.01014	.0248	
308.15	.4	.01494	.0327	
308.15	.4	.02067	.0469	
308.15	.4	.0266	.0626	
308.15	.4	.0323	.0783	
308.15	.4	.03759	.094	
308.15	.4	.04418	.1093	
308.15	.4	.04986	.1229	
308.15	.4	.05294	.13	
308.15	.6	.00398	.0172	
308.15	.6	.00587	.0253	
308.15	.6	.01052	.0413	
308.15	.6	.01481	.0601	
308.15	.6	.01993	.0778	
308.15	.6	.02574	.0966	
308.15	.6	.02819	.107	
308.15	.6	.03166	.1186	
308.15	.6	.03431	.13	
308.15	.7	.00334	.0185	
308.15	.7	.00424	.0255	
308.15	.7	.00592	.034	
308.15	.7	.00674	.0405	
308.15	.7	.00996	.0598	
308.15	.7	.01163	.0694	
308.15	.7	.0133	.0828	
308.15	.7	.01539	.0924	
308.15	.7	.01704	.102	
308.15	.7	.01896	.116	
308.15	.7	.02062	.129	
303.15	1	.01194	.117	
303.15	1	.01302	.124	
308.15	0	.08163	.119	
308.15	0	.08789	.128	
308.15	.8	.00112	.00814	
308.15	.8	.00285	.0163	
308.15	.8	.00304	.0249	
308.15	.8	.00481	.0329	
308.15	.8	.00622	.0411	
308.15	.8	.00791	.0557	
308.15	.8	.00928	.065	
308.15	.8	.01106	.0807	
308.15	.8	.01276	.094	
308.15	.8	.01421	.106	
308.15	.8	.01546	.114	
308.15	.8	.01702	.127	
308.15	1	.00079	.00764	
308.15	1	.00135	.0155	
308.15	1	.00258	.0283	
308.15	1	.00319	.0364	
308.15	1	.00418	.0475	
308.15	1	.0053	.0597	
308.15	1	.00645	.0732	
308.15	1	.00799	.0932	
308.15	1	.00885	.102	
308.15	1	.0104	.125	

System: dimethyl sulfoxide + sulfur dioxide; phases: Gas, Liquid
Property: Partial pressure, kPa of sulfur dioxide (Gas); method: IR Spectroscopy
Temperature, K	Molality, mol/kg of sulfur dioxide	Partial pressure, kPa of sulfur dioxide	uncertainty
298.15	.00773	.00861	
298.15	.01815	.0202	
298.15	.03041	.0288	
298.15	.0472	.0414	
298.15	.05948	.0512	
298.15	.08219	.0698	
298.15	.10124	.0826	
298.15	.11374	.0915	
298.15	.14036	.113	
298.15	.14776	.124	
303.15	.0047	.00632	
303.15	.00717	.0103	
303.15	.01403	.0178	
303.15	.02109	.0264	
303.15	.03063	.0356	
303.15	.04063	.0468	
303.15	.05099	.0563	
303.15	.06255	.068	
303.15	.07428	.0813	
303.15	.08657	.0953	
303.15	.09721	.108	
303.15	.10547	.116	
303.15	.11464	.126	
308.15	.00264	.00467	
308.15	.00507	.0122	
308.15	.01225	.0188	
308.15	.014	.0255	
308.15	.0187	.0323	
308.15	.02764	.043	
308.15	.03492	.0558	
308.15	.04275	.0663	
308.15	.05196	.0794	
308.15	.06864	.103	
308.15	.07524	.113	
308.15	.08163	.119	
308.15	.08789	.128	

System: propylene glycol monomethyl ether + sulfur dioxide; phases: Gas, Liquid
Property: Partial pressure, kPa of sulfur dioxide (Gas); method: IR Spectroscopy
Temperature, K	Molality, mol/kg of sulfur dioxide	Partial pressure, kPa of sulfur dioxide	uncertainty
298.15	.00159	.0114	
298.15	.00336	.0244	
298.15	.00465	.0369	
298.15	.00575	.0504	
298.15	.00771	.0647	
298.15	.00868	.0733	
298.15	.00991	.087	
298.15	.01288	.1071	
298.15	.01354	.1107	
298.15	.01609	.1295	
303.15	.00116	.00799	
303.15	.00169	.015	
303.15	.0031	.0266	
303.15	.00446	.0442	
303.15	.00489	.0475	
303.15	.00589	.0559	
303.15	.00673	.0663	
303.15	.00746	.0791	
303.15	.00944	.0943	
303.15	.01097	.108	
303.15	.01194	.117	
303.15	.01302	.124	
308.15	.00079	.00764	
308.15	.00135	.0155	
308.15	.00258	.0283	
308.15	.00319	.0364	
308.15	.00418	.0475	
308.15	.0053	.0597	
308.15	.00645	.0732	
308.15	.00799	.0932	
308.15	.00885	.102	
308.15	.0104	.125	
