Measured thermophysical data. Solubilities and Modeling of Glycine in Mixed NaCl MgCl2 Solutions in a Highly Concentrated Region
Source: J. Chem. Eng. Data, 2016, 10.1021/acs.jced.6b00403
Compound 1: glycine, C2H5NO2
Compound 2: magnesium dichloride, Cl2Mg
Compound 3: sodium chloride, ClNa
Compound 4: water, H2O, purity 99.9%

System: glycine + water + magnesium dichloride; phases: Liquid, Crystal
Fixed: Pressure, kPa = 100
Property: Molality, mol/kg of glycine (Liquid); method: Titration
Temperature, K	Molality, mol/kg of magnesium dichloride	Molality, mol/kg of glycine	uncertainty
283.15	0	2.333	
283.15	.498	2.7026	
283.15	.9999	3.3	
283.15	1.5001	3.7838	
283.15	2.0008	4.1453	
283.15	2.4988	4.8344	
283.15	2.998	5.4461	
283.15	3.4993	6.3359	
293.15	0	2.9865	
293.15	.498	3.5202	
293.15	.9999	4.0173	
293.15	1.5001	4.531	
293.15	2.0008	4.8282	
293.15	2.4988	5.4899	
293.15	2.998	6.2278	
293.15	3.4993	6.8816	
303.15	0	3.52	
303.15	.9999	4.6055	
303.15	1.5001	5.1392	
303.15	2.4988	5.9677	
303.15	2.998	6.921	
303.15	3.4993	7.3754	
313.15	0	4.42	
313.15	.498	4.6789	
313.15	.9999	5.3112	
313.15	1.5001	5.8252	
313.15	2.0008	5.9306	
313.15	2.4988	6.7009	
313.15	2.998	7.6685	
313.15	3.4993	8.0932	
323.15	0	5.21	
323.15	.498	5.4685	
323.15	.9999	6.2609	
323.15	1.5001	6.7488	
323.15	2.0008	6.8037	
323.15	2.4988	7.7246	
323.15	2.998	8.6465	
323.15	3.4993	9.0397	
333.15	0	6.03	
333.15	.498	6.3156	
333.15	.9999	7.1413	
333.15	1.5001	7.7084	
333.15	2.0008	7.66	
333.15	2.4988	8.6493	
333.15	2.998	9.7464	
333.15	3.4993	9.9501	

System: glycine + water + magnesium dichloride; phases: Liquid, Crystal of intercomponent compound 1
Fixed: Pressure, kPa = 100
Property: Molality, mol/kg of magnesium dichloride (Liquid); method: Titration
Temperature, K	Molality, mol/kg of glycine	Molality, mol/kg of magnesium dichloride	uncertainty
293.15	0	5.7499	
293.15	.1773	5.865	
293.15	.3481	5.95	
293.15	.5149	6.02	
293.15	.6789	6.06	
303.15	0	5.8795	
303.15	.0871	5.95	
303.15	.1726	6.001	
303.15	.3397	6.083	
303.15	.5016	6.1459	
303.15	.663	6.1717	
313.15	0	6.0583	
313.15	.0843	6.1183	
313.15	.1659	6.1688	
313.15	.3251	6.2333	
313.15	.4805	6.2754	
313.15	.633	6.3106	
323.15	0	6.2424	
323.15	.0799	6.2807	
323.15	.1575	6.3227	
323.15	.3072	6.3978	
323.15	.4566	6.423	
323.15	.5976	6.4741	
