Measured thermophysical data. Experimental Investigation of Interactions and Thermodynamic Properties of Poly(ethylene glycol) 200/400 + Dimethyl Adipate/Dimethyl Phthalate Binary Mixtures
Source: J. Chem. Eng. Data, 2015, 10.1021/acs.jced.5b00156
Compound 1: dimethyl adipate, C8H14O4, purity 99%
Compound 2: dimethyl phthalate, C10H10O4, purity 99%

System: dimethyl adipate; phases: Liquid
Fixed: Pressure, kPa = 101.325
Property: Mass density, kg/m3 (Liquid); method: Vibrating tube method
Temperature, K	Mass density, kg/m3	uncertainty
288.15	1.06679	.04
293.15	1.06192	.04
298.15	1.057047	.04
303.15	1.052176	.04
308.15	1.047295	.04
313.15	1.04241	.04
318.15	1.037519	.04
323.15	1.032622	.04

System: dimethyl adipate; phases: Liquid
Fixed: Pressure, kPa = 101.325
Property: Refractive index (Na D-line) (Liquid); method: Standard Abbe refractometry
Temperature, K	Refractive index (Na D-line)	uncertainty
288.15	1.43082	.00005
293.15	1.42876	.00005
298.15	1.42669	.00005
303.15	1.42463	.00005
308.15	1.42255	.00005
313.15	1.42048	.00005
318.15	1.41835	.00005
323.15	1.41631	.00005

System: dimethyl adipate; phases: Liquid
Fixed: Pressure, kPa = 101.325
Property: Viscosity, Pa*s (Liquid); method: Concentric cylinders viscometry
Temperature, K	Viscosity, Pa*s	uncertainty
288.15	.0037777	.000037777
293.15	.0033132	.000033132
298.15	.002937	.00002937
303.15	.0026289	.000026289
308.15	.002366	.00002366
313.15	.0021434	.000021434
318.15	.0019532	.000019532
323.15	.0017939	.000017939

System: dimethyl phthalate; phases: Liquid
Fixed: Pressure, kPa = 101.325
Property: Mass density, kg/m3 (Liquid); method: Vibrating tube method
Temperature, K	Mass density, kg/m3	uncertainty
288.15	1.196234	.04
293.15	1.191543	.04
298.15	1.186865	.04
303.15	1.182202	.04
308.15	1.177547	.04
313.15	1.172909	.04
318.15	1.168277	.04
323.15	1.163654	.04

System: dimethyl phthalate; phases: Liquid
Fixed: Pressure, kPa = 101.325
Property: Refractive index (Na D-line) (Liquid); method: Standard Abbe refractometry
Temperature, K	Refractive index (Na D-line)	uncertainty
288.15	1.51708	.00005
293.15	1.51494	.00005
298.15	1.51286	.00005
303.15	1.51083	.00005
308.15	1.50885	.00005
313.15	1.50693	.00005
318.15	1.50507	.00005
323.15	1.50303	.00005

System: dimethyl phthalate; phases: Liquid
Fixed: Pressure, kPa = 101.325
Property: Viscosity, Pa*s (Liquid); method: Concentric cylinders viscometry
Temperature, K	Viscosity, Pa*s	uncertainty
288.15	.023526	.00023526
293.15	.017704	.00017704
298.15	.013928	.00013928
303.15	.011152	.00011152
308.15	.009123	.00009123
313.15	.0076118	.000076118
318.15	.006453	.00006453
323.15	.0055783	.000055783
