Measured thermophysical data. Measurements and Correlations of the Density, Viscosity, and Vapor Pressure for Methyl Ricinoleate
Source: J. Chem. Eng. Data, 2016, 10.1021/acs.jced.5b00545
Compound 1: methyl ricinoleate, C19H36O3, purity 99%
Compound 2: methyl palmitate, C17H34O2, purity 99%

System: methyl ricinoleate; phases: Liquid
Fixed: Pressure, kPa = 101.325
Property: Mass density, kg/m3 (Liquid); method: Pycnometric method
Temperature, K	Mass density, kg/m3	uncertainty
293.16	928.5	7
303.17	921.2	7
313.33	916.7	7
323.05	910.3	7
333.25	904	7
343.32	895.8	7
353.06	883.3	7
363.38	875	7
373.26	865.8	7
383.23	857.5	7

System: methyl ricinoleate; phases: Liquid
Fixed: Pressure, kPa = 101.325
Property: Kinematic viscosity, m2/s (Liquid); method: Capillary tube (Ostwald; Ubbelohde) method
Temperature, K	Kinematic viscosity, m2/s	uncertainty
298.23	.0000295	.00000093515
303.13	.00002349	.000000744633
308.25	.00001805	.000000572185
313.15	.00001487	.000000471379
318.38	.00001205	.000000381985
323.08	.00001013	.000000321121
328.12	.00000852	.000000270084
333.15	.00000725	.000000229825
338.05	.00000626	.000000198442
343.1	.00000543	.000000172131
348.06	.00000476	.000000150892
353.11	.0000042	.00000013314
358.15	.00000373	.000000118241

System: methyl ricinoleate; phases: Liquid, Gas
Property: Vapor or sublimation pressure, kPa (Liquid); method: Closed cell (Static) method
Temperature, K	Vapor or sublimation pressure, kPa	uncertainty
451.58	.232	.026912
454.7	.276	.032016
457.23	.319	.037004
459.5	.361	.041876
461.85	.41	.04756
463.55	.449	.052084
465.2	.49	.05684
466.83	.533	.061828
469.55	.61	.07076
470.4	.637	.073892
471.25	.665	.07714
472.3	.7	.0812
473.15	.73	.08468
474.9	.794	.092104
476.8	.868	.100688

System: methyl palmitate; phases: Liquid, Gas
Property: Vapor or sublimation pressure, kPa (Liquid); method: Closed cell (Static) method
Temperature, K	Vapor or sublimation pressure, kPa	uncertainty
407.12	.13	.01456
414.26	.21	.02352
418.18	.24	.02688
422.34	.27	.03024
424.68	.305	.03416
427.54	.365	.04088
429.32	.415	.04648
432.32	.42	.04704
434.18	.515	.05768
437.3	.545	.06104
438.44	.56	.06272
439.6	.65	.0728
441	.66	.07392
445.36	.84	.09408
447.06	.85	.0952
