Measured thermophysical data. Reference Quality Vapor-Liquid Equilibrium Data for the Binary Systems Methane + Ethane, + Propane, + Butane and, + 2-Methylpropane, at Temperatures from (203 to 273) K and Pressures to 9 MPa
Source: J. Chem. Eng. Data, 2015, 10.1021/acs.jced.5b00610
Compound 1: methane, CH4, purity 99.999%
Compound 2: ethane, C2H6, purity 99.99%
Compound 3: propane, C3H8, purity 99.95%
Compound 4: isobutane, C4H10, purity 99.95%
Compound 5: n-butane, C4H10, purity 99.95%

System: methane + ethane; phases: Liquid, Gas
Property: Vapor or sublimation pressure, kPa (Liquid); method: Closed cell (Static) method
Temperature, K	Mole fraction of methane	Vapor or sublimation pressure, kPa	uncertainty
243.58	.3099	3949	20
203.22	.3653	2124	20
213.39	.3464	2517	20
223.5	.3315	2945	20
233.56	.3188	3417	20
243.6	.3082	3942	20
243.6	.3973	4831	20
243.6	.4553	5395	20
243.61	.5273	6080	20
243.61	.5673	6469	20
243.61	.5957	6691	20
243.6	.6218	6885	20
243.6	.5754	6487	20
243.6	.4741	5564	20
243.6	.4255	5094	20
243.61	.2865	3718	20
243.6	.2812	3675	20

System: methane + ethane; phases: Gas, Liquid
Property: Mole fraction of ethane (Gas); method: Chromatography
Temperature, K	Mole fraction of methane	Mole fraction of ethane	uncertainty
243.58	.3099	.3336	.0033
203.22	.3653	.1333	.0017
213.39	.3464	.1711	.002
223.5	.3315	.2195	.0022
233.56	.3188	.2755	.0018
243.6	.3082	.334	.0026
243.6	.3973	.2954	.0022
243.6	.4553	.2788	.0036
243.61	.5273	.2778	.0021
243.61	.5673	.2731	.0029
243.61	.5957	.2812	.0027
243.6	.6218	.2877	.0024
243.6	.5754	.2801	.0022
243.6	.4741	.2745	.0013
243.6	.4255	.2856	.0024
243.61	.2865	.3421	.0021
243.6	.2812	.349	.004

System: methane + propane; phases: Liquid, Gas
Property: Vapor or sublimation pressure, kPa (Liquid); method: Closed cell (Static) method
Temperature, K	Mole fraction of methane	Vapor or sublimation pressure, kPa	uncertainty
283.38	.4586	7630	20
273.48	.4589	7102	20
263.51	.4623	6597	20
263.56	.4601	6560	20
253.59	.4708	6100	20
243.61	.4857	5611	20
243.64	.4907	5635	20
243.62	.4832	5544	20
233.67	.5077	5119	20
233.61	.5037	5077	20
223.54	.5333	4622	20
223.36	.5331	4628	20
213.38	.5614	4108	20
203.4	.5952	3576	20
243.62	.071	891	20
243.62	.3442	3909	20
243.63	.4788	5500	20
243.61	.4764	5544	20
243.62	.5565	6402	20
243.63	.6082	6989	20
243.62	.6572	7530	20
243.62	.6961	7943	20
243.62	.7381	8320	20

System: methane + propane; phases: Gas, Liquid
Property: Mole fraction of propane (Gas); method: Chromatography
Temperature, K	Mole fraction of methane	Mole fraction of propane	uncertainty
283.38	.4586	.2045	.0006
273.48	.4589	.1614	.0003
263.51	.4623	.1197	.0012
263.56	.4601	.1174	.0018
253.59	.4708	.0947	.0004
243.61	.4857	.0715	.0001
243.64	.4907	.0719	.0001
243.62	.4832	.0715	.0002
233.67	.5077	.0518	.0003
233.61	.5037	.052	.0003
223.54	.5333	.0368	.0005
223.36	.5331	.0366	.0002
213.38	.5614	.0245	.0003
203.4	.5952	.0162	.0005
243.62	.071	.2076	.0003
243.62	.3442	.0743	.0004
243.63	.4788	.0704	.0002
243.61	.4764	.0734	.0002
243.62	.5565	.0726	.0006
243.63	.6082	.0768	.0005
243.62	.6572	.0779	.0016
243.62	.6961	.0855	.0005
243.62	.7381	.093	.0009

System: methane + isobutane; phases: Liquid, Gas
Property: Vapor or sublimation pressure, kPa (Liquid); method: Closed cell (Static) method
Temperature, K	Mole fraction of methane	Vapor or sublimation pressure, kPa	uncertainty
273.47	.516	8329	20
263.56	.5237	7819	20
253.6	.5371	7306	20
243.61	.5561	6785	20
243.6	.5523	6735	20
243.58	.5607	6824	20
233.57	.5817	6251	20
223.49	.6151	5714	20
213.39	.6565	5118	20
203.25	.7133	4503	20
243.6	.7043	8684	20
243.6	.6749	8280	20
243.6	.6345	7854	20
243.59	.6386	7847	20
243.6	.5523	6735	20
243.6	.4971	6041	20
243.6	.3734	4418	20
243.6	.23	2642	20

System: methane + isobutane; phases: Gas, Liquid
Property: Mole fraction of isobutane (Gas); method: Chromatography
Temperature, K	Mole fraction of methane	Mole fraction of isobutane	uncertainty
273.47	.516	.0753	.0008
263.56	.5237	.0572	.0006
253.6	.5371	.042	.0007
243.61	.5561	.0302	.0006
243.6	.5523	.0308	.0005
243.58	.5607	.0313	.0006
233.57	.5817	.0204	.0008
223.49	.6151	.0155	.0005
213.39	.6565	.0097	.0002
203.25	.7133	.0059	.0004
243.6	.7043	.0506	.0009
243.6	.6749	.0431	.0007
243.6	.6345	.0394	.0008
243.59	.6386	.0381	.0004
243.6	.5523	.0308	.0005
243.6	.4971	.0287	.0005
243.6	.3734	.0263	.0004
243.6	.23	.0305	.0004

System: methane + n-butane; phases: Liquid, Gas
Property: Vapor or sublimation pressure, kPa (Liquid); method: Closed cell (Static) method
Temperature, K	Mole fraction of methane	Vapor or sublimation pressure, kPa	uncertainty
273.42	.4246	7249	20
263.48	.4331	6842	20
253.52	.448	6431	20
244.52	.4601	6005	20
243.52	.4646	6010	20
233.5	.488	5593	20
233.49	.4882	5604	20
223.44	.5201	5163	20
213.36	.5615	4702	20
203.25	.6217	4224	20
244.52	.1071	1311	20
244.53	.2669	3318	20
244.48	.395	5058	20
244.52	.4601	6005	20
244.52	.5008	6593	20
244.51	.6002	8016	20
244.52	.618	8238	20
244.52	.6869	9161	20
244.52	.7522	9913	20
244.48	.7764	10132	20

System: methane + n-butane; phases: Gas, Liquid
Property: Mole fraction of n-butane (Gas); method: Chromatography
Temperature, K	Mole fraction of methane	Mole fraction of n-butane	uncertainty
273.42	.4246	.0482	.0017
263.48	.4331	.0357	.0016
253.52	.448	.0265	.0015
244.52	.4601	.0197	.0015
243.52	.4646	.0188	.0015
233.5	.488	.0126	.0015
233.49	.4882	.0146	.0016
223.44	.5201	.0075	.0016
213.36	.5615	.0061	.0015
203.25	.6217	.0036	.0015
244.52	.1071	.0289	.0015
244.53	.2669	.0175	.0015
244.48	.395	.0154	.0023
244.52	.4601	.0197	.0015
244.52	.5008	.0185	.0016
244.51	.6002	.0274	.0015
244.52	.618	.0251	.0062
244.52	.6869	.0399	.0015
244.52	.7522	.0515	.0019
244.48	.7764	.0594	.0016
