Measured thermophysical data. Solubilities and Thermodynamic Properties of Carbon Dioxide in Guaiacol-Based Deep Eutectic Solvents
Source: J. Chem. Eng. Data, 2017, 10.1021/acs.jced.6b01013
Compound 1: choline chloride, C5H14ClNO, purity 98.5%
Compound 2: diethylammonium chloride, C4H12ClN, purity 99%
Compound 3: acetylcholine chloride, C7H16ClNO2, purity 99%
Compound 4: guaiacol, C7H8O2, purity 99%
Compound 5: carbon dioxide, CO2

System: choline chloride + guaiacol; phases: Liquid
Fixed: Pressure, kPa = 100
Property: Mass density, kg/m3 (Liquid); method: Pycnometric method
Mole fraction of guaiacol	Temperature, K	Mass density, kg/m3	uncertainty
.75	293.15	1153.3	
.8	293.15	1155.6	
.83	293.15	1149.7	
.75	303.15	1147.5	
.8	303.15	1147.7	
.83	303.15	1143.4	
.75	313.15	1141.2	
.8	313.15	1140.6	
.83	313.15	1136.2	
.75	323.15	1134.1	
.8	323.15	1132.4	
.83	323.15	1128	

System: guaiacol + diethylammonium chloride; phases: Liquid
Fixed: Pressure, kPa = 100
Property: Mass density, kg/m3 (Liquid); method: Pycnometric method
Mole fraction of guaiacol	Temperature, K	Mass density, kg/m3	uncertainty
.75	293.15	1095.4	
.8	293.15	1102.4	
.83	293.15	1106.1	
.75	303.15	1093.1	
.8	303.15	1098.3	
.83	303.15	1103.5	
.75	313.15	1083.7	
.8	313.15	1089.8	
.83	313.15	1093.7	
.75	323.15	1075.8	
.8	323.15	1084.1	
.83	323.15	1083.5	

System: acetylcholine chloride + guaiacol; phases: Liquid
Fixed: Pressure, kPa = 100
Property: Mass density, kg/m3 (Liquid); method: Pycnometric method
Mole fraction of guaiacol	Temperature, K	Mass density, kg/m3	uncertainty
.75	293.15	1149.6	
.8	293.15	1149.3	
.83	293.15	1152.7	
.75	303.15	1146.1	
.8	303.15	1144.8	
.83	303.15	1148.1	
.75	313.15	1139.8	
.8	313.15	1138.1	
.83	313.15	1142.5	
.75	323.15	1133.8	
.8	323.15	1131.7	
.83	323.15	1135.1	

System: choline chloride + guaiacol + carbon dioxide; phases: Liquid, Gas
Property: Vapor or sublimation pressure, kPa (Liquid); method: CCell
Molality, mol/kg of carbon dioxide	Temperature, K	Solvent: Amount ratio of component to other component of binary solvent of guaiacol	Vapor or sublimation pressure, kPa	uncertainty
.0161	293.15	3	51.5	
.0432	293.15	3	138.1	
.0742	293.15	3	236.7	
.1039	293.15	3	329.2	
.1346	293.15	3	427.5	
.1714	293.15	3	529.4	
.0153	303.15	3	55.3	
.0351	303.15	3	132.3	
.0644	303.15	3	243.8	
.0892	303.15	3	335.5	
.1157	303.15	3	433.8	
.1419	303.15	3	533.2	
.0133	313.15	3	57.5	
.032	313.15	3	145.7	
.0512	313.15	3	233.2	
.0735	313.15	3	330.3	
.0962	313.15	3	429.6	
.1187	313.15	3	529.4	
.011	323.15	3	63.1	
.0304	323.15	3	160.6	
.0447	323.15	3	239.9	
.0653	323.15	3	341.4	
.0847	323.15	3	442.6	
.1013	323.15	3	536.5	
.0173	293.15	4	52.1	
.0469	293.15	4	143.2	
.0764	293.15	4	231.9	
.1082	293.15	4	326.5	
.1431	293.15	4	430	
.1765	293.15	4	526	
.0275	303.15	4	100.3	
.0422	303.15	4	151.3	
.0746	303.15	4	264.2	
.0956	303.15	4	341.7	
.1241	303.15	4	437.4	
.1549	303.15	4	545.9	
.0112	313.15	4	53.4	
.0347	313.15	4	142.5	
.0566	313.15	4	235.9	
.0817	313.15	4	335.5	
.1049	313.15	4	431.8	
.1311	313.15	4	542.9	
.0109	323.15	4	54.7	
.03	323.15	4	143.6	
.0493	323.15	4	238.5	
.0713	323.15	4	336.7	
.0921	323.15	4	435.2	
.1121	323.15	4	535.3	
.0188	293.15	5	52.8	
.0469	293.15	5	139.8	
.0862	293.15	5	246.1	
.1165	293.15	5	331.1	
.1488	293.15	5	419.5	
.1885	293.15	5	528.4	
.0137	303.15	5	46.9	
.0412	303.15	5	145.2	
.0704	303.15	5	239.4	
.0979	303.15	5	330.4	
.1289	303.15	5	431.8	
.161	303.15	5	538.9	
.015	313.15	5	55.3	
.0361	313.15	5	140.7	
.0608	313.15	5	235.9	
.0854	313.15	5	331.8	
.1139	313.15	5	434.8	
.1405	313.15	5	536.4	
.0115	323.15	5	48.5	
.0314	323.15	5	146.3	
.0519	323.15	5	237.5	
.075	323.15	5	334.9	
.0962	323.15	5	432	
.1182	323.15	5	529.2	

System: guaiacol + carbon dioxide + diethylammonium chloride; phases: Liquid, Gas
Property: Vapor or sublimation pressure, kPa (Liquid); method: CCell
Molality, mol/kg of carbon dioxide	Temperature, K	Solvent: Amount ratio of component to other component of binary solvent of guaiacol	Vapor or sublimation pressure, kPa	uncertainty
.0197	293.15	3	45.1	
.0545	293.15	3	137.1	
.0892	293.15	3	222.8	
.1299	293.15	3	320.6	
.1693	293.15	3	414.9	
.212	293.15	3	517.7	
.0199	303.15	3	53.9	
.0499	303.15	3	133.6	
.0862	303.15	3	241.5	
.1203	303.15	3	339.1	
.1525	303.15	3	428.8	
.1834	303.15	3	513.5	
.0201	313.15	3	59.2	
.0565	313.15	3	182.9	
.084	313.15	3	271.2	
.1103	313.15	3	357.5	
.1344	313.15	3	436.4	
.1602	313.15	3	524.6	
.016	323.15	3	56.6	
.0388	323.15	3	143.4	
.0665	323.15	3	246	
.0893	323.15	3	331.9	
.1154	323.15	3	428.9	
.1421	323.15	3	525.4	
.0209	293.15	4	49.6	
.0558	293.15	4	134.6	
.0936	293.15	4	224.4	
.1344	293.15	4	323.1	
.1736	293.15	4	411.3	
.2212	293.15	4	516.1	
.0233	303.15	4	61.7	
.0525	303.15	4	142.6	
.0837	303.15	4	227.5	
.1279	303.15	4	345.8	
.1577	303.15	4	425.4	
.1947	303.15	4	524.8	
.0163	313.15	4	54.2	
.0442	313.15	4	141.1	
.0759	313.15	4	242.2	
.1099	313.15	4	346.8	
.1371	313.15	4	431.8	
.1691	313.15	4	529.2	
.0156	323.15	4	58.9	
.0415	323.15	4	148.4	
.0641	323.15	4	230.1	
.0952	323.15	4	337.7	
.1217	323.15	4	430.4	
.1483	323.15	4	526.8	
.0218	293.15	5	48.8	
.0584	293.15	5	131.9	
.1077	293.15	5	245.3	
.144	293.15	5	326.5	
.1862	293.15	5	419.2	
.2321	293.15	5	522.3	
.022	303.15	5	57	
.0557	303.15	5	148.3	
.093	303.15	5	244.9	
.13	303.15	5	341.2	
.1629	303.15	5	424.4	
.1995	303.15	5	520.1	
.0196	313.15	5	58.8	
.0514	313.15	5	156	
.0904	313.15	5	273.6	
.1109	313.15	5	336.3	
.1425	313.15	5	428.6	
.1842	313.15	5	550.7	
.0166	323.15	5	59.9	
.0563	323.15	5	193.1	
.0732	323.15	5	253.3	
.0975	323.15	5	333.8	
.127	323.15	5	431.5	
.1592	323.15	5	535.8	

System: acetylcholine chloride + guaiacol + carbon dioxide; phases: Liquid, Gas
Property: Vapor or sublimation pressure, kPa (Liquid); method: CCell
Molality, mol/kg of carbon dioxide	Temperature, K	Solvent: Amount ratio of component to other component of binary solvent of guaiacol	Vapor or sublimation pressure, kPa	uncertainty
.0183	293.15	3	53.7	
.0476	293.15	3	144.3	
.0803	293.15	3	234.1	
.1158	293.15	3	331.7	
.151	293.15	3	428.8	
.1873	293.15	3	528.6	
.0164	303.15	3	53.8	
.0407	303.15	3	139.6	
.0667	303.15	3	227.1	
.0969	303.15	3	329.5	
.1267	303.15	3	431.7	
.1559	303.15	3	531.2	
.0134	313.15	3	54.1	
.0363	313.15	3	147.8	
.0586	313.15	3	235	
.0844	313.15	3	338	
.1089	313.15	3	434.5	
.1347	313.15	3	535.3	
.0132	323.15	3	55.9	
.0329	323.15	3	143.5	
.0536	323.15	3	239.4	
.0756	323.15	3	337.9	
.0978	323.15	3	438	
.1179	323.15	3	533	
.0194	293.15	4	55.1	
.0507	293.15	4	138.4	
.0828	293.15	4	227.6	
.1182	293.15	4	326.4	
.1544	293.15	4	422.1	
.1903	293.15	4	524.9	
.0163	303.15	4	54.8	
.0419	303.15	4	140.6	
.0804	303.15	4	263.7	
.1041	303.15	4	338.6	
.1327	303.15	4	431.8	
.1722	303.15	4	558.6	
.0163	313.15	4	55.5	
.0393	313.15	4	140.8	
.0651	313.15	4	235.8	
.0914	313.15	4	330.2	
.1207	313.15	4	438.8	
.147	313.15	4	531.5	
.0125	323.15	4	53	
.0392	323.15	4	165.3	
.0581	323.15	4	241.6	
.0815	323.15	4	339.3	
.1058	323.15	4	437.4	
.1297	323.15	4	536	
.0171	293.15	5	49.3	
.0491	293.15	5	137.3	
.0845	293.15	5	230	
.1216	293.15	5	325.5	
.1588	293.15	5	421.7	
.1957	293.15	5	522.2	
.0171	303.15	5	52	
.0445	303.15	5	138.8	
.0716	303.15	5	222.9	
.1083	303.15	5	333.2	
.1401	303.15	5	428	
.173	303.15	5	528.2	
.0131	313.15	5	49.9	
.0408	313.15	5	145	
.0667	313.15	5	237	
.0947	313.15	5	335.1	
.1239	313.15	5	432.8	
.1505	313.15	5	526.5	
.0124	323.15	5	48.6	
.0368	323.15	5	144.3	
.0593	323.15	5	238.7	
.0863	323.15	5	341.3	
.1118	323.15	5	436.2	
.1384	323.15	5	535.8	
