Measured thermophysical data. Ternary Liquid Liquid Equilibrium of Azeotropes (Water +2-Propanol) with Ionic Liquids ([Dmim][NTf2]) at Different Temperatures
Source: J. Chem. Eng. Data, 2017, 10.1021/acs.jced.7b00058
Compound 1: ethanol, C2H6O, purity 99.5%
Compound 2: 2-propanol, C3H8O, purity 99.5%
Compound 3: 1-decyl-3-methylimidazolium bis(trifluoromethylsulfonyl)imide, C16H27F6N3O4S2, purity 99.0%
Compound 4: water, H2O, purity 99.9%

System: 2-propanol + water + 1-decyl-3-methylimidazolium bis(trifluoromethylsulfonyl)imide; phases: Liquid mixture 1, Liquid mixture 2
Fixed: Pressure, kPa = 100
Property: Mole fraction of 2-propanol (Liquid mixture 1); method: Chromatography
Property: Mole fraction of water (Liquid mixture 2); method: Chromatography
Property: Mole fraction of 2-propanol (Liquid mixture 2); method: Chromatography
Temperature, K	Mole fraction of water	Mole fraction of 2-propanol	uncertainty	Mole fraction of water	uncertainty	Mole fraction of 2-propanol	uncertainty
278.15	1	0	.005	.105	.005	0	.005
278.15	.929	.071	.005	.141	.005	.217	.005
278.15	.9	.1	.005	.16	.005	.321	.005
278.15	.873	.127	.005	.251	.005	.393	.005
278.15	.861	.139	.005	.325	.005	.416	.005
278.15	.842	.157	.005	.374	.005	.418	.005
278.15	.823	.176	.005	.419	.005	.411	.005
288.15	1	0	.005	.188	.005	0	.005
288.15	.971	.029	.005	.228	.005	.165	.005
288.15	.957	.043	.005	.268	.005	.247	.005
288.15	.94	.06	.005	.304	.005	.312	.005
288.15	.92	.079	.005	.382	.005	.358	.005
288.15	.909	.09	.005	.443	.005	.368	.005
288.15	.888	.111	.005	.464	.005	.391	.005
288.15	.87	.127	.005	.533	.005	.353	.005
278.15	.9475	.0525	.005	.116	.005	.144	.005

System: water + 1-decyl-3-methylimidazolium bis(trifluoromethylsulfonyl)imide; phases: Liquid mixture 2, Liquid mixture 1
Property: Mole fraction of water (Liquid mixture 2); method: Chromatography
Temperature, K	Pressure, kPa	Mole fraction of water	uncertainty
278.15	100	.105	
288.15	100	.188	
