Measured thermophysical data. Thermodynamic Difference between Protocatechualdehyde and p-Hydroxybenzaldehyde in Aqueous Sodium Chloride Solutions
Source: J. Chem. Eng. Data, 2017, 10.1021/acs.jced.6b00458
Compound 1: parahydroxybenzaldehyde, C7H6O2, purity 99%
Compound 2: 3,4-dihydroxybenzaldehyde, C7H6O3, purity 99%
Compound 3: sodium chloride, ClNa, purity 99.8%
Compound 4: water, H2O, purity 99.8%

System: parahydroxybenzaldehyde + sodium chloride + water; phases: Liquid
Fixed: Temperature, K = 298.15
Fixed: Pressure, kPa = 100
Property: Molar enthalpy of dilution, kJ/mol (Liquid); method: Flow calorimetry
Solvent: Molality, mol/kg of sodium chloride	Initial molality of solute, mol/kg	Final molality of solute, mol/kg	Molar enthalpy of dilution, kJ/mol	uncertainty
0	.025	.011	.15099	
.1	.025	.0112	.16402	
.2	.025	.0109	.14046	
.3	.025	.0105	.16314	
.4	.025	.0114	.16293	
.5	.025	.0107	.17855	
.6	.025	.0106	.16657	
0	.03	.0132	.17666	
.1	.03	.0136	.19049	
.2	.03	.0131	.16492	
.3	.03	.0123	.19704	
.4	.03	.0136	.19303	
.5	.03	.0131	.20627	
.6	.03	.0127	.19773	
0	.04	.0177	.22619	
.2	.04	.0175	.20949	
.3	.04	.0167	.24861	
.4	.04	.0182	.24908	
.1	.04	.0181	.24381	
.5	.04	.0176	.2591	
.6	.04	.0168	.25749	
.2	.045	.0195	.23256	
0	.045	.0199	.25046	
.3	.045	.0188	.27479	
.4	.045	.0205	.27574	
.5	.045	.0199	.2837	
.1	.045	.0203	.27118	
.6	.045	.0189	.28398	
.3	.05	.0209	.29896	
0	.05	.0221	.27461	
.2	.05	.0219	.25203	
.4	.05	.0227	.30353	
.5	.05	.0219	.30973	
.1	.05	.0227	.29468	
.6	.05	.0212	.30728	
.3	.055	.023	.32328	
.1	.055	.0247	.32251	
.4	.055	.0249	.33031	
0	.055	.0243	.29749	
.2	.055	.024	.27238	
.5	.055	.0241	.33395	
.6	.055	.0229	.33696	
.3	.06	.025	.34787	
.4	.06	.0273	.35383	
.1	.06	.0272	.34381	
.5	.06	.0262	.3585	
0	.06	.0264	.32193	
.2	.06	.0261	.29332	
.6	.06	.0252	.35849	
0	.065	.0288	.34219	
.3	.065	.0272	.36996	
.5	.065	.0284	.38182	
.1	.065	.0293	.36852	
.4	.065	.0296	.37784	
.2	.065	.0282	.3148	
.6	.065	.0274	.38147	
.3	.07	.0291	.39497	
.1	.07	.0316	.39139	
.5	.07	.0306	.40495	
.2	.07	.0305	.3342	
0	.07	.031	.36453	
.4	.07	.0318	.4046	
.6	.07	.0293	.40873	
.4	.08	.036	.45845	
.5	.08	.0354	.44915	
.1	.08	.0362	.43542	
.3	.08	.0335	.4373	
.2	.08	.0349	.37603	
0	.08	.0351	.41169	
.6	.08	.0337	.45985	

System: parahydroxybenzaldehyde + sodium chloride + water; phases: Liquid
Fixed: Pressure, kPa = 100
Property: Mass density, kg/m3 (Liquid); method: Vibrating tube method
Temperature, K	Solvent: Molality, mol/kg of sodium chloride	Molality, mol/kg of parahydroxybenzaldehyde	Mass density, kg/m3	uncertainty
293.15	.1	0	1002.423	
293.15	.1	.01	1002.652	
293.15	.1	.015	1002.763	
293.15	.1	.02	1002.872	
293.15	.1	.025	1002.98	
293.15	.1	.03	1003.084	
293.15	.1	.035	1003.19	
293.15	.1	.04	1003.292	
293.15	.1	.045	1003.392	
293.15	.1	.05	1003.491	
298.15	.1	0	1001.209	
298.15	.1	.01	1001.434	
298.15	.1	.015	1001.543	
298.15	.1	.02	1001.652	
298.15	.1	.025	1001.759	
298.15	.1	.03	1001.863	
298.15	.1	.035	1001.966	
298.15	.1	.04	1002.067	
298.15	.1	.045	1002.166	
298.15	.1	.05	1002.263	
303.15	.1	0	999.767	
303.15	.1	.01	999.99	
303.15	.1	.015	1000.099	
303.15	.1	.02	1000.206	
303.15	.1	.025	1000.312	
303.15	.1	.03	1000.417	
303.15	.1	.035	1000.518	
303.15	.1	.04	1000.618	
303.15	.1	.045	1000.717	
303.15	.1	.05	1000.814	
308.15	.1	0	998.116	
308.15	.1	.01	998.338	
308.15	.1	.015	998.447	
308.15	.1	.02	998.554	
308.15	.1	.025	998.66	
308.15	.1	.03	998.762	
308.15	.1	.035	998.864	
308.15	.1	.04	998.964	
308.15	.1	.045	999.063	
308.15	.1	.05	999.16	
313.15	.1	0	996.272	
313.15	.1	.01	996.491	
313.15	.1	.015	996.598	
313.15	.1	.02	996.704	
313.15	.1	.025	996.807	
313.15	.1	.03	996.911	
313.15	.1	.035	997.01	
313.15	.1	.04	997.109	
313.15	.1	.045	997.207	
313.15	.1	.05	997.303	
293.15	.2	0	1006.57	
293.15	.2	.01	1006.81	
293.15	.2	.015	1006.927	
293.15	.2	.02	1007.04	
293.15	.2	.025	1007.154	
293.15	.2	.03	1007.264	
293.15	.2	.035	1007.372	
293.15	.2	.04	1007.478	
293.15	.2	.045	1007.581	
293.15	.2	.05	1007.683	
298.15	.2	0	1005.309	
298.15	.2	.01	1005.547	
298.15	.2	.015	1005.663	
298.15	.2	.02	1005.776	
298.15	.2	.025	1005.889	
298.15	.2	.03	1005.997	
298.15	.2	.035	1006.104	
298.15	.2	.04	1006.21	
298.15	.2	.045	1006.313	
298.15	.2	.05	1006.414	
303.15	.2	0	1003.825	
303.15	.2	.01	1004.061	
303.15	.2	.015	1004.175	
303.15	.2	.02	1004.288	
303.15	.2	.025	1004.399	
303.15	.2	.03	1004.508	
303.15	.2	.035	1004.614	
303.15	.2	.04	1004.719	
303.15	.2	.045	1004.821	
303.15	.2	.05	1004.921	
308.15	.2	0	1002.141	
308.15	.2	.01	1002.375	
308.15	.2	.015	1002.489	
308.15	.2	.02	1002.601	
308.15	.2	.025	1002.71	
308.15	.2	.03	1002.818	
308.15	.2	.035	1002.924	
308.15	.2	.04	1003.028	
308.15	.2	.045	1003.131	
308.15	.2	.05	1003.229	
313.15	.2	0	1000.267	
313.15	.2	.01	1000.5	
313.15	.2	.015	1000.614	
313.15	.2	.02	1000.726	
313.15	.2	.025	1000.835	
313.15	.2	.03	1000.943	
313.15	.2	.035	1001.049	
313.15	.2	.04	1001.153	
313.15	.2	.045	1001.255	
313.15	.2	.05	1001.355	
293.15	.3	0	1010.635	
293.15	.3	.01	1010.886	
293.15	.3	.015	1011.008	
293.15	.3	.02	1011.129	
293.15	.3	.025	1011.245	
293.15	.3	.03	1011.36	
293.15	.3	.035	1011.473	
293.15	.3	.04	1011.583	
293.15	.3	.045	1011.691	
293.15	.3	.05	1011.796	
298.15	.3	0	1009.326	
298.15	.3	.01	1009.575	
298.15	.3	.015	1009.697	
298.15	.3	.02	1009.816	
298.15	.3	.025	1009.932	
298.15	.3	.03	1010.046	
298.15	.3	.035	1010.158	
298.15	.3	.04	1010.268	
298.15	.3	.045	1010.374	
298.15	.3	.05	1010.479	
303.15	.3	0	1007.803	
303.15	.3	.01	1008.05	
303.15	.3	.015	1008.171	
303.15	.3	.02	1008.288	
303.15	.3	.025	1008.403	
303.15	.3	.03	1008.516	
303.15	.3	.035	1008.627	
303.15	.3	.04	1008.737	
303.15	.3	.045	1008.842	
303.15	.3	.05	1008.946	
308.15	.3	0	1006.083	
308.15	.3	.01	1006.328	
308.15	.3	.015	1006.449	
308.15	.3	.02	1006.565	
308.15	.3	.025	1006.679	
308.15	.3	.03	1006.792	
308.15	.3	.035	1006.902	
308.15	.3	.04	1007.01	
308.15	.3	.045	1007.116	
308.15	.3	.05	1007.22	
313.15	.3	0	1004.184	
313.15	.3	.01	1004.429	
313.15	.3	.015	1004.548	
313.15	.3	.02	1004.665	
313.15	.3	.025	1004.779	
313.15	.3	.03	1004.891	
313.15	.3	.035	1005.001	
313.15	.3	.04	1005.109	
313.15	.3	.045	1005.215	
313.15	.3	.05	1005.319	
293.15	.4	0	1014.732	
293.15	.4	.01	1014.996	
293.15	.4	.015	1015.124	
293.15	.4	.02	1015.25	
293.15	.4	.025	1015.371	
293.15	.4	.03	1015.491	
293.15	.4	.035	1015.608	
293.15	.4	.04	1015.722	
293.15	.4	.045	1015.834	
293.15	.4	.05	1015.943	
298.15	.4	0	1013.378	
298.15	.4	.01	1013.64	
298.15	.4	.015	1013.767	
298.15	.4	.02	1013.891	
298.15	.4	.025	1014.011	
298.15	.4	.03	1014.131	
298.15	.4	.035	1014.247	
298.15	.4	.04	1014.361	
298.15	.4	.045	1014.472	
298.15	.4	.05	1014.58	
303.15	.4	0	1011.817	
303.15	.4	.01	1012.076	
303.15	.4	.015	1012.202	
303.15	.4	.02	1012.326	
303.15	.4	.025	1012.446	
303.15	.4	.03	1012.564	
303.15	.4	.035	1012.68	
303.15	.4	.04	1012.792	
303.15	.4	.045	1012.903	
303.15	.4	.05	1013.01	
308.15	.4	0	1010.066	
308.15	.4	.01	1010.324	
308.15	.4	.015	1010.449	
308.15	.4	.02	1010.572	
308.15	.4	.025	1010.692	
308.15	.4	.03	1010.811	
308.15	.4	.035	1010.925	
308.15	.4	.04	1011.037	
308.15	.4	.045	1011.147	
308.15	.4	.05	1011.255	
313.15	.4	0	1008.139	
313.15	.4	.01	1008.395	
313.15	.4	.015	1008.519	
313.15	.4	.02	1008.641	
313.15	.4	.025	1008.761	
313.15	.4	.03	1008.877	
313.15	.4	.035	1008.991	
313.15	.4	.04	1009.102	
313.15	.4	.045	1009.213	
313.15	.4	.05	1009.319	
293.15	.5	0	1018.778	
293.15	.5	.01	1019.054	
293.15	.5	.015	1019.187	
293.15	.5	.02	1019.319	
293.15	.5	.025	1019.445	
293.15	.5	.03	1019.569	
293.15	.5	.035	1019.691	
293.15	.5	.04	1019.81	
293.15	.5	.045	1019.925	
293.15	.5	.05	1020.038	
298.15	.5	0	1017.375	
298.15	.5	.01	1017.649	
298.15	.5	.015	1017.782	
298.15	.5	.02	1017.911	
298.15	.5	.025	1018.037	
298.15	.5	.03	1018.161	
298.15	.5	.035	1018.281	
298.15	.5	.04	1018.399	
298.15	.5	.045	1018.514	
298.15	.5	.05	1018.626	
303.15	.5	0	1015.775	
303.15	.5	.01	1016.046	
303.15	.5	.015	1016.178	
303.15	.5	.02	1016.307	
303.15	.5	.025	1016.432	
303.15	.5	.03	1016.556	
303.15	.5	.035	1016.675	
303.15	.5	.04	1016.792	
303.15	.5	.045	1016.907	
303.15	.5	.05	1017.018	
308.15	.5	0	1013.992	
308.15	.5	.01	1014.262	
308.15	.5	.015	1014.392	
308.15	.5	.02	1014.521	
308.15	.5	.025	1014.645	
308.15	.5	.03	1014.767	
308.15	.5	.035	1014.886	
308.15	.5	.04	1015.003	
308.15	.5	.045	1015.116	
308.15	.5	.05	1015.227	
313.15	.5	0	1012.038	
313.15	.5	.01	1012.306	
313.15	.5	.015	1012.436	
313.15	.5	.02	1012.562	
313.15	.5	.025	1012.687	
313.15	.5	.03	1012.808	
313.15	.5	.035	1012.927	
313.15	.5	.04	1013.043	
313.15	.5	.045	1013.157	
313.15	.5	.05	1013.267	
293.15	.6	0	1022.598	
293.15	.6	.01	1022.886	
293.15	.6	.015	1023.027	
293.15	.6	.02	1023.162	
293.15	.6	.025	1023.294	
293.15	.6	.03	1023.424	
293.15	.6	.035	1023.55	
293.15	.6	.04	1023.673	
293.15	.6	.045	1023.792	
293.15	.6	.05	1023.909	
298.15	.6	0	1021.155	
298.15	.6	.01	1021.441	
298.15	.6	.015	1021.58	
298.15	.6	.02	1021.714	
298.15	.6	.025	1021.846	
298.15	.6	.03	1021.975	
298.15	.6	.035	1022.1	
298.15	.6	.04	1022.223	
298.15	.6	.045	1022.342	
298.15	.6	.05	1022.458	
303.15	.6	0	1019.517	
303.15	.6	.01	1019.801	
303.15	.6	.015	1019.938	
303.15	.6	.02	1020.072	
303.15	.6	.025	1020.204	
303.15	.6	.03	1020.33	
303.15	.6	.035	1020.455	
303.15	.6	.04	1020.576	
303.15	.6	.045	1020.695	
303.15	.6	.05	1020.81	
308.15	.6	0	1017.705	
308.15	.6	.01	1017.987	
308.15	.6	.015	1018.125	
308.15	.6	.02	1018.258	
308.15	.6	.025	1018.388	
308.15	.6	.03	1018.515	
308.15	.6	.035	1018.64	
308.15	.6	.04	1018.761	
308.15	.6	.045	1018.879	
308.15	.6	.05	1018.994	
313.15	.6	0	1015.725	
313.15	.6	.01	1016.006	
313.15	.6	.015	1016.144	
313.15	.6	.02	1016.276	
313.15	.6	.025	1016.406	
313.15	.6	.03	1016.533	
313.15	.6	.035	1016.657	
313.15	.6	.04	1016.779	
313.15	.6	.045	1016.897	
313.15	.6	.05	1017.012	

System: 3,4-dihydroxybenzaldehyde + sodium chloride + water; phases: Liquid
Fixed: Temperature, K = 298.15
Fixed: Pressure, kPa = 100
Property: Molar enthalpy of dilution, kJ/mol (Liquid); method: Flow calorimetry
Solvent: Molality, mol/kg of sodium chloride	Initial molality of solute, mol/kg	Final molality of solute, mol/kg	Molar enthalpy of dilution, kJ/mol	uncertainty
0	.025	.012	.33759	
.1	.025	.0119	.35444	
.2	.025	.0121	.36742	
.3	.025	.012	.35643	
.4	.025	.0124	.36088	
.5	.025	.0117	.37326	
.6	.025	.0122	.36275	
0	.03	.0141	.38992	
.1	.03	.0143	.40521	
.2	.03	.0148	.41247	
.3	.03	.0143	.41165	
.4	.03	.0147	.41973	
.5	.03	.0141	.42908	
.6	.03	.0144	.4281	
.1	.04	.0193	.49924	
0	.04	.0185	.49211	
.2	.04	.0194	.51303	
.3	.04	.0194	.50951	
.4	.04	.0195	.52648	
.5	.04	.0183	.54592	
.6	.04	.0191	.53621	
.1	.045	.0217	.54681	
.2	.045	.0221	.55221	
0	.045	.0206	.54777	
.3	.045	.0216	.55722	
.4	.045	.0222	.57043	
.5	.045	.0213	.58091	
.6	.045	.0215	.58324	
.2	.05	.0243	.6015	
.3	.05	.0243	.59741	
0	.05	.0237	.5776	
.4	.05	.0242	.6273	
.1	.05	.0239	.59659	
.5	.05	.0232	.63608	
.6	.05	.0238	.63175	
.1	.055	.0263	.64046	
.2	.055	.0269	.64021	
.3	.055	.0265	.64562	
.4	.055	.027	.66155	
0	.055	.0254	.63328	
.5	.055	.026	.66908	
.6	.055	.0264	.67137	
.3	.06	.0288	.68806	
.2	.06	.0291	.68675	
.1	.06	.0282	.69232	
.4	.06	.0288	.71884	
.5	.06	.0283	.71203	
0	.06	.0274	.66919	
.6	.06	.028	.73098	
.2	.065	.0321	.71332	
.4	.065	.0313	.75635	
0	.065	.03	.7232	
.1	.065	.0309	.7271	
.5	.065	.03	.76403	
.3	.065	.0311	.72984	
.6	.065	.0306	.76536	
.4	.07	.0345	.77423	
.2	.07	.0345	.75025	
.5	.07	.033	.7831	
0	.07	.0322	.759	
.1	.07	.0336	.75913	
.3	.07	.0333	.76966	
.6	.07	.0332	.79698	
.4	.075	.0366	.81658	
.2	.075	.0369	.78591	
.5	.075	.0354	.81293	
.1	.075	.0357	.80046	
.3	.075	.0355	.80762	
0	.075	.0348	.7978	
.6	.075	.0353	.83955	
.5	.08	.0375	.84722	
.3	.08	.0384	.83005	
.1	.08	.0374	.84843	
.2	.08	.0396	.81451	
0	.08	.0377	.81577	
.4	.08	.0381	.86705	
.6	.08	.0376	.87795	
.5	.09	.0424	.88993	
.2	.09	.0444	.87467	
.3	.09	.0434	.88023	
0	.09	.041	.89343	
.1	.09	.0425	.89982	
.4	.09	.0438	.90246	
.6	.09	.0428	.93194	

System: 3,4-dihydroxybenzaldehyde + sodium chloride + water; phases: Liquid
Fixed: Pressure, kPa = 100
Property: Mass density, kg/m3 (Liquid); method: Vibrating tube method
Temperature, K	Solvent: Molality, mol/kg of sodium chloride	Molality, mol/kg of 3,4-dihydroxybenzaldehyde	Mass density, kg/m3	uncertainty
293.15	.1	0	1002.423	
293.15	.1	.01	1002.788	
293.15	.1	.025	1003.323	
293.15	.1	.03	1003.501	
293.15	.1	.04	1003.849	
293.15	.1	.055	1004.361	
293.15	.1	.065	1004.695	
293.15	.1	.075	1005.024	
293.15	.1	.08	1005.186	
293.15	.1	.09	1005.507	
298.15	.1	0	1001.209	
298.15	.1	.01	1001.572	
298.15	.1	.025	1002.106	
298.15	.1	.03	1002.284	
298.15	.1	.04	1002.628	
298.15	.1	.055	1003.139	
298.15	.1	.065	1003.472	
298.15	.1	.075	1003.8	
298.15	.1	.08	1003.962	
298.15	.1	.09	1004.281	
303.15	.1	0	999.767	
303.15	.1	.01	1000.129	
303.15	.1	.025	1000.662	
303.15	.1	.03	1000.838	
303.15	.1	.04	1001.186	
303.15	.1	.055	1001.695	
303.15	.1	.065	1002.028	
303.15	.1	.075	1002.357	
303.15	.1	.08	1002.52	
303.15	.1	.09	1002.841	
308.15	.1	0	998.116	
308.15	.1	.01	998.477	
308.15	.1	.025	999.01	
308.15	.1	.03	999.185	
308.15	.1	.04	999.532	
308.15	.1	.055	1000.041	
308.15	.1	.065	1000.377	
308.15	.1	.075	1000.706	
308.15	.1	.08	1000.869	
308.15	.1	.09	1001.191	
313.15	.1	0	996.272	
313.15	.1	.01	996.633	
313.15	.1	.025	997.168	
313.15	.1	.03	997.341	
313.15	.1	.04	997.688	
313.15	.1	.055	998.2	
313.15	.1	.065	998.535	
313.15	.1	.075	998.865	
313.15	.1	.08	999.029	
313.15	.1	.09	999.353	
293.15	.2	0	1006.57	
293.15	.2	.01	1006.941	
293.15	.2	.025	1007.486	
293.15	.2	.03	1007.662	
293.15	.2	.04	1008.013	
293.15	.2	.055	1008.527	
293.15	.2	.065	1008.861	
293.15	.2	.075	1009.189	
293.15	.2	.08	1009.35	
293.15	.2	.09	1009.668	
298.15	.2	0	1005.309	
298.15	.2	.01	1005.678	
298.15	.2	.025	1006.22	
298.15	.2	.03	1006.395	
298.15	.2	.04	1006.747	
298.15	.2	.055	1007.26	
298.15	.2	.065	1007.593	
298.15	.2	.075	1007.921	
298.15	.2	.08	1008.082	
298.15	.2	.09	1008.4	
303.15	.2	0	1003.825	
303.15	.2	.01	1004.193	
303.15	.2	.025	1004.733	
303.15	.2	.03	1004.91	
303.15	.2	.04	1005.261	
303.15	.2	.055	1005.772	
303.15	.2	.065	1006.105	
303.15	.2	.075	1006.433	
303.15	.2	.08	1006.595	
303.15	.2	.09	1006.913	
308.15	.2	0	1002.141	
308.15	.2	.01	1002.508	
308.15	.2	.025	1003.048	
308.15	.2	.03	1003.224	
308.15	.2	.04	1003.574	
308.15	.2	.055	1004.09	
308.15	.2	.065	1004.42	
308.15	.2	.075	1004.749	
308.15	.2	.08	1004.911	
308.15	.2	.09	1005.23	
313.15	.2	0	1000.267	
313.15	.2	.01	1000.635	
313.15	.2	.025	1001.178	
313.15	.2	.03	1001.354	
313.15	.2	.04	1001.704	
313.15	.2	.055	1002.219	
313.15	.2	.065	1002.555	
313.15	.2	.075	1002.885	
313.15	.2	.08	1003.048	
313.15	.2	.09	1003.369	
293.15	.3	0	1010.635	
293.15	.3	.01	1011.012	
293.15	.3	.025	1011.566	
293.15	.3	.03	1011.744	
293.15	.3	.04	1012.098	
293.15	.3	.055	1012.615	
293.15	.3	.065	1012.95	
293.15	.3	.075	1013.278	
293.15	.3	.08	1013.438	
293.15	.3	.09	1013.754	
298.15	.3	0	1009.326	
298.15	.3	.01	1009.702	
298.15	.3	.025	1010.252	
298.15	.3	.03	1010.433	
298.15	.3	.04	1010.785	
298.15	.3	.055	1011.301	
298.15	.3	.065	1011.636	
298.15	.3	.075	1011.963	
298.15	.3	.08	1012.124	
298.15	.3	.09	1012.44	
303.15	.3	0	1007.803	
303.15	.3	.01	1008.178	
303.15	.3	.025	1008.727	
303.15	.3	.03	1008.906	
303.15	.3	.04	1009.263	
303.15	.3	.055	1009.776	
303.15	.3	.065	1010.111	
303.15	.3	.075	1010.439	
303.15	.3	.08	1010.601	
303.15	.3	.09	1010.918	
308.15	.3	0	1006.083	
308.15	.3	.01	1006.457	
308.15	.3	.025	1007.005	
308.15	.3	.03	1007.186	
308.15	.3	.04	1007.537	
308.15	.3	.055	1008.054	
308.15	.3	.065	1008.39	
308.15	.3	.075	1008.718	
308.15	.3	.08	1008.88	
308.15	.3	.09	1009.198	
313.15	.3	0	1004.184	
313.15	.3	.01	1004.558	
313.15	.3	.025	1005.105	
313.15	.3	.03	1005.286	
313.15	.3	.04	1005.64	
313.15	.3	.055	1006.158	
313.15	.3	.065	1006.494	
313.15	.3	.075	1006.824	
313.15	.3	.08	1006.987	
313.15	.3	.09	1007.306	
293.15	.4	0	1014.732	
293.15	.4	.01	1015.117	
293.15	.4	.025	1015.675	
293.15	.4	.03	1015.86	
293.15	.4	.04	1016.218	
293.15	.4	.055	1016.74	
293.15	.4	.065	1017.076	
293.15	.4	.075	1017.404	
293.15	.4	.08	1017.564	
293.15	.4	.09	1017.879	
298.15	.4	0	1013.378	
298.15	.4	.01	1013.762	
298.15	.4	.025	1014.321	
298.15	.4	.03	1014.505	
298.15	.4	.04	1014.86	
298.15	.4	.055	1015.381	
298.15	.4	.065	1015.717	
298.15	.4	.075	1016.045	
298.15	.4	.08	1016.206	
298.15	.4	.09	1016.521	
303.15	.4	0	1011.817	
303.15	.4	.01	1012.199	
303.15	.4	.025	1012.757	
303.15	.4	.03	1012.939	
303.15	.4	.04	1013.298	
303.15	.4	.055	1013.817	
303.15	.4	.065	1014.154	
303.15	.4	.075	1014.482	
303.15	.4	.08	1014.643	
303.15	.4	.09	1014.959	
308.15	.4	0	1010.066	
308.15	.4	.01	1010.447	
308.15	.4	.025	1011.004	
308.15	.4	.03	1011.185	
308.15	.4	.04	1011.542	
308.15	.4	.055	1012.061	
308.15	.4	.065	1012.399	
308.15	.4	.075	1012.728	
308.15	.4	.08	1012.889	
308.15	.4	.09	1013.206	
313.15	.4	0	1008.139	
313.15	.4	.01	1008.52	
313.15	.4	.025	1009.075	
313.15	.4	.03	1009.258	
313.15	.4	.04	1009.615	
313.15	.4	.055	1010.137	
313.15	.4	.065	1010.474	
313.15	.4	.075	1010.804	
313.15	.4	.08	1010.966	
313.15	.4	.09	1011.284	
293.15	.5	0	1018.778	
293.15	.5	.01	1019.17	
293.15	.5	.025	1019.741	
293.15	.5	.03	1019.924	
293.15	.5	.04	1020.286	
293.15	.5	.055	1020.811	
293.15	.5	.065	1021.148	
293.15	.5	.075	1021.475	
293.15	.5	.08	1021.635	
293.15	.5	.09	1021.948	
298.15	.5	0	1017.375	
298.15	.5	.01	1017.766	
298.15	.5	.025	1018.334	
298.15	.5	.03	1018.516	
298.15	.5	.04	1018.88	
298.15	.5	.055	1019.405	
298.15	.5	.065	1019.742	
298.15	.5	.075	1020.07	
298.15	.5	.08	1020.231	
298.15	.5	.09	1020.545	
303.15	.5	0	1015.775	
303.15	.5	.01	1016.162	
303.15	.5	.025	1016.726	
303.15	.5	.03	1016.909	
303.15	.5	.04	1017.27	
303.15	.5	.055	1017.789	
303.15	.5	.065	1018.124	
303.15	.5	.075	1018.45	
303.15	.5	.08	1018.61	
303.15	.5	.09	1018.922	
308.15	.5	0	1013.992	
308.15	.5	.01	1014.38	
308.15	.5	.025	1014.946	
308.15	.5	.03	1015.13	
308.15	.5	.04	1015.49	
308.15	.5	.055	1016.013	
308.15	.5	.065	1016.352	
308.15	.5	.075	1016.681	
308.15	.5	.08	1016.842	
308.15	.5	.09	1017.157	
313.15	.5	0	1012.038	
313.15	.5	.01	1012.426	
313.15	.5	.025	1012.99	
313.15	.5	.03	1013.176	
313.15	.5	.04	1013.537	
313.15	.5	.055	1014.063	
313.15	.5	.065	1014.401	
313.15	.5	.075	1014.731	
313.15	.5	.08	1014.893	
313.15	.5	.09	1015.21	
293.15	.6	0	1022.598	
293.15	.6	.01	1022.997	
293.15	.6	.025	1023.573	
293.15	.6	.03	1023.763	
293.15	.6	.04	1024.129	
293.15	.6	.055	1024.658	
293.15	.6	.065	1024.996	
293.15	.6	.075	1025.323	
293.15	.6	.08	1025.483	
293.15	.6	.09	1025.794	
298.15	.6	0	1021.155	
298.15	.6	.01	1021.553	
298.15	.6	.025	1022.131	
298.15	.6	.03	1022.316	
298.15	.6	.04	1022.684	
298.15	.6	.055	1023.213	
298.15	.6	.065	1023.551	
298.15	.6	.075	1023.88	
298.15	.6	.08	1024.04	
298.15	.6	.09	1024.352	
303.15	.6	0	1019.517	
303.15	.6	.01	1019.914	
303.15	.6	.025	1020.49	
303.15	.6	.03	1020.677	
303.15	.6	.04	1021.044	
303.15	.6	.055	1021.57	
303.15	.6	.065	1021.909	
303.15	.6	.075	1022.237	
303.15	.6	.08	1022.398	
303.15	.6	.09	1022.71	
308.15	.6	0	1017.705	
308.15	.6	.01	1018.101	
308.15	.6	.025	1018.677	
308.15	.6	.03	1018.863	
308.15	.6	.04	1019.229	
308.15	.6	.055	1019.76	
308.15	.6	.065	1020.097	
308.15	.6	.075	1020.427	
308.15	.6	.08	1020.588	
308.15	.6	.09	1020.902	
313.15	.6	0	1015.725	
313.15	.6	.01	1016.12	
313.15	.6	.025	1016.693	
313.15	.6	.03	1016.881	
313.15	.6	.04	1017.246	
313.15	.6	.055	1017.775	
313.15	.6	.065	1018.115	
313.15	.6	.075	1018.445	
313.15	.6	.08	1018.606	
313.15	.6	.09	1018.921	

System: parahydroxybenzaldehyde + water; phases: Liquid
Fixed: Pressure, kPa = 100
Property: Molar enthalpy of dilution, kJ/mol (Liquid); method: Flow calorimetry
Initial molality of solute, mol/kg	Final molality of solute, mol/kg	Temperature, K	Molar enthalpy of dilution, kJ/mol	uncertainty
.025	.011	298.15	.15099	
.03	.0132	298.15	.17666	
.04	.0177	298.15	.22619	
.045	.0199	298.15	.25046	
.05	.0221	298.15	.27461	
.055	.0243	298.15	.29749	
.06	.0264	298.15	.32193	
.065	.0288	298.15	.34219	
.07	.031	298.15	.36453	
.08	.0351	298.15	.41169	

System: sodium chloride + water; phases: Liquid
Property: Mass density, kg/m3 (Liquid); method: Vibrating tube method
Temperature, K	Molality, mol/kg of sodium chloride	Pressure, kPa	Mass density, kg/m3	uncertainty
293.15	.1	100	1002.423	
298.15	.1	100	1001.209	
303.15	.1	100	999.767	
308.15	.1	100	998.116	
313.15	.1	100	996.272	
293.15	.2	100	1006.57	
298.15	.2	100	1005.309	
303.15	.2	100	1003.825	
308.15	.2	100	1002.141	
313.15	.2	100	1000.267	
293.15	.3	100	1010.635	
298.15	.3	100	1009.326	
303.15	.3	100	1007.803	
308.15	.3	100	1006.083	
313.15	.3	100	1004.184	
293.15	.4	100	1014.732	
298.15	.4	100	1013.378	
303.15	.4	100	1011.817	
308.15	.4	100	1010.066	
313.15	.4	100	1008.139	
293.15	.5	100	1018.778	
298.15	.5	100	1017.375	
303.15	.5	100	1015.775	
308.15	.5	100	1013.992	
313.15	.5	100	1012.038	
293.15	.6	100	1022.598	
298.15	.6	100	1021.155	
303.15	.6	100	1019.517	
308.15	.6	100	1017.705	
313.15	.6	100	1015.725	

System: 3,4-dihydroxybenzaldehyde + water; phases: Liquid
Fixed: Pressure, kPa = 100
Property: Molar enthalpy of dilution, kJ/mol (Liquid); method: Flow calorimetry
Initial molality of solute, mol/kg	Final molality of solute, mol/kg	Temperature, K	Molar enthalpy of dilution, kJ/mol	uncertainty
.025	.012	298.15	.33759	
.03	.0141	298.15	.38992	
.04	.0185	298.15	.49211	
.045	.0206	298.15	.54777	
.05	.0237	298.15	.5776	
.055	.0254	298.15	.63328	
.06	.0274	298.15	.66919	
.065	.03	298.15	.7232	
.07	.0322	298.15	.759	
.075	.0348	298.15	.7978	
.08	.0377	298.15	.81577	
.09	.041	298.15	.89343	
