Measured thermophysical data. Phase Behavior Data of (CO2 + Toluene + Phenanthrene) and (CO2 + (Methanol + Phenanthrene) Systems at High Pressure
Source: J. Chem. Eng. Data, 2017, 10.1021/acs.jced.7b00126
Compound 1: phenanthrene, C14H10, purity 99.2%
Compound 2: toluene, C7H8, purity 99.9%
Compound 3: carbon dioxide, CO2, purity 99.9%
Compound 4: methanol, CH4O, purity 99.9%

System: carbon dioxide + methanol; phases: Liquid, Gas
Property: Vapor or sublimation pressure, kPa (Liquid); method: Closed cell (Static) method
Temperature, K	Mole fraction of carbon dioxide	Vapor or sublimation pressure, kPa	uncertainty
303.1	.4213	5120	
313.2	.4213	6190	
323.1	.4213	7490	
333.3	.4213	8400	
343.2	.4213	9760	
353.1	.4213	10690	

System: carbon dioxide + toluene + phenanthrene; phases: Liquid, Gas
Property: Vapor or sublimation pressure, kPa (Liquid); method: Closed cell (Static) method
Temperature, K	Mole fraction of carbon dioxide	Mole fraction of toluene	Vapor or sublimation pressure, kPa	uncertainty
363.2	.6128	.3319	9340	
353.4	.6128	.3319	8480	
343.6	.6128	.3319	7530	
333.9	.6128	.3319	6590	
323.7	.6128	.3319	5680	
313.5	.6128	.3319	4760	
303.7	.6128	.3319	3950	
298.9	.6128	.3319	3520	
297.7	.6128	.3319	3330	
295.9	.6128	.3319	3220	
363	.7807	.188	11350	
353.3	.7807	.188	10040	
343.4	.7807	.188	8990	
334	.7807	.188	7730	
323.7	.7807	.188	6580	
313.7	.7807	.188	5530	
358.5	.9047	.0187	15190	
353.4	.9047	.0187	13920	
348.6	.9047	.0187	13530	
343.7	.9047	.0187	12460	
338.9	.9047	.0187	11860	
334.1	.9047	.0187	11270	
363.2	.5994	.3698	8970	
353.4	.5994	.3698	8180	
343.6	.5994	.3698	7390	
333.5	.5994	.3698	6560	
323.7	.5994	.3698	5620	
313.5	.5994	.3698	4810	
303.7	.5994	.3698	4160	
298.7	.5994	.3698	3680	
362.7	.771	.2114	11290	
353.2	.771	.2114	10100	
343.6	.771	.2114	8910	
333.8	.771	.2114	7700	
323.4	.771	.2114	6600	
313.6	.771	.2114	5560	
303.5	.771	.2114	4670	
298.6	.771	.2114	4150	
292.8	.771	.2114	3540	
352.5	.8998	.0925	13410	
343.3	.8998	.0925	12960	
333.5	.8998	.0925	11270	
323.6	.8998	.0925	9950	

System: carbon dioxide + toluene + phenanthrene; phases: Liquid, Crystal
Property: Phase boundary pressure, kPa (Liquid); method: Closed cell (Static) method
Temperature, K	Mole fraction of carbon dioxide	Mole fraction of toluene	Phase boundary pressure, kPa	uncertainty
291.8	.6128	.3319	4000	
290.8	.6128	.3319	5000	
290	.6128	.3319	6000	
307.6	.7807	.188	6500	
306.4	.7807	.188	7000	
306.4	.7807	.188	8000	
306	.7807	.188	9000	
306	.7807	.188	10000	
329.5	.9047	.0187	11000	
324.9	.9047	.0187	13000	
277.3	.5994	.3698	4000	
291.4	.771	.2114	4000	
290.6	.771	.2114	5000	
289.4	.771	.2114	6000	
289	.771	.2114	7000	
288.8	.771	.2114	8000	
315.2	.8998	.0925	9000	
309.8	.8998	.0925	11000	

System: carbon dioxide + methanol + phenanthrene; phases: Liquid, Gas
Property: Vapor or sublimation pressure, kPa (Liquid); method: Closed cell (Static) method
Temperature, K	Mole fraction of carbon dioxide	Mole fraction of methanol	Vapor or sublimation pressure, kPa	uncertainty
362.8	.3334	.6622	8420	
353	.3334	.6622	7720	
343.3	.3334	.6622	6910	
333.7	.3334	.6622	6140	
323.2	.3334	.6622	5350	
313.2	.3334	.6622	4640	
303.2	.3334	.6622	3980	
363.2	.5295	.4674	11510	
353.5	.5295	.4674	10550	
343.7	.5295	.4674	9450	
334	.5295	.4674	8280	
323.7	.5295	.4674	7080	
313.8	.5295	.4674	5970	
304	.5295	.4674	4990	
314	.75	.2483	6160	
304.1	.75	.2483	5050	
294.2	.75	.2483	4120	
284.2	.75	.2483	3280	
363.1	.3308	.6665	8270	
353.2	.3308	.6665	7550	
343.4	.3308	.6665	6780	
334.1	.3308	.6665	6000	
323.5	.3308	.6665	5800	
313.6	.3308	.6665	4560	
303.8	.3308	.6665	3860	
293.7	.3308	.6665	3060	
363.1	.5265	.4716	10960	
354.1	.5265	.4716	10140	
344.2	.5265	.4716	9130	
334.5	.5265	.4716	8030	
324.1	.5265	.4716	6920	
303.9	.5265	.4716	5780	
303.9	.5265	.4716	4780	
294	.5265	.4716	3760	
333.7	.7478	.2512	9690	
323.9	.7478	.2512	8190	
313.9	.7478	.2512	6470	
304	.7478	.2512	5020	
294.1	.7478	.2512	4120	
284.4	.7478	.2512	3180	

System: carbon dioxide + methanol + phenanthrene; phases: Liquid, Crystal
Property: Phase boundary pressure, kPa (Liquid); method: Closed cell (Static) method
Temperature, K	Mole fraction of carbon dioxide	Mole fraction of methanol	Phase boundary pressure, kPa	uncertainty
297.7	.3334	.6622	4500	
295.9	.3334	.6622	5000	
292.3	.3334	.6622	6000	
291.2	.3334	.6622	7000	
288.7	.3334	.6622	8000	
287.7	.3334	.6622	9000	
287	.5295	.4674	9000	
287.9	.5295	.4674	7000	
289.9	.5295	.4674	6000	
291.9	.5295	.4674	4000	
284.2	.75	.2483	3420	
280.8	.75	.2483	5000	
280.6	.75	.2483	6000	
277.2	.75	.2483	8000	
