Measured thermophysical data. Vapor Liquid Equilibrium Data for Binary Mixtures of Acetic Acid + Anisole, Acetone + Anisole, and Isopropanol + Anisole at Pressure 96.15 kPa
Source: J. Chem. Eng. Data, 2017, 10.1021/acs.jced.6b00700
Compound 1: anisole, C7H8O, purity 99%
Compound 2: acetic acid, C2H4O2, purity 99.9%
Compound 3: acetone, C3H6O, purity 99.8%
Compound 4: isopropanol, C3H8O, purity 99.8%
Compound 5: aniline, C6H7N, purity 99%
Compound 6: N,N-dimethylformamide, C3H7NO, purity 99%

System: anisole; phases: Liquid, Gas
Property: Vapor or sublimation pressure, kPa (Liquid); method: Ebulliometric method (Recirculating still)
Temperature, K	Vapor or sublimation pressure, kPa	uncertainty
424.61	96.15	
424.55	96.15	
424.79	96.15	

System: anisole; phases: Liquid
Property: Refractive index (Na D-line) (Liquid); method: Standard Abbe refractometry
Pressure, kPa	Temperature, K	Refractive index (Na D-line)	uncertainty
96.15	293	1.5175	

System: acetic acid; phases: Liquid, Gas
Property: Vapor or sublimation pressure, kPa (Liquid); method: Ebulliometric method (Recirculating still)
Temperature, K	Vapor or sublimation pressure, kPa	uncertainty
388.91	96.15	

System: acetic acid; phases: Liquid
Property: Refractive index (Na D-line) (Liquid); method: Standard Abbe refractometry
Pressure, kPa	Temperature, K	Refractive index (Na D-line)	uncertainty
96.15	293	1.3724	

System: acetone; phases: Liquid, Gas
Property: Vapor or sublimation pressure, kPa (Liquid); method: Ebulliometric method (Recirculating still)
Temperature, K	Vapor or sublimation pressure, kPa	uncertainty
327.9	96.15	

System: acetone; phases: Liquid
Property: Refractive index (Na D-line) (Liquid); method: Standard Abbe refractometry
Pressure, kPa	Temperature, K	Refractive index (Na D-line)	uncertainty
96.15	293	1.3606	

System: isopropanol; phases: Liquid, Gas
Property: Vapor or sublimation pressure, kPa (Liquid); method: Ebulliometric method (Recirculating still)
Temperature, K	Vapor or sublimation pressure, kPa	uncertainty
354.17	96.15	

System: isopropanol; phases: Liquid
Property: Refractive index (Na D-line) (Liquid); method: Standard Abbe refractometry
Pressure, kPa	Temperature, K	Refractive index (Na D-line)	uncertainty
96.15	293	1.3758	

System: aniline; phases: Liquid, Gas
Property: Vapor or sublimation pressure, kPa (Liquid); method: Ebulliometric method (Recirculating still)
Temperature, K	Vapor or sublimation pressure, kPa	uncertainty
455.4	96.15	

System: aniline; phases: Liquid
Property: Refractive index (Na D-line) (Liquid); method: Standard Abbe refractometry
Pressure, kPa	Temperature, K	Refractive index (Na D-line)	uncertainty
96.15	293	1.5868	

System: N,N-dimethylformamide; phases: Liquid, Gas
Property: Vapor or sublimation pressure, kPa (Liquid); method: Ebulliometric method (Recirculating still)
Temperature, K	Vapor or sublimation pressure, kPa	uncertainty
424.53	96.15	
424.6	96.15	

System: N,N-dimethylformamide; phases: Liquid
Property: Refractive index (Na D-line) (Liquid); method: Standard Abbe refractometry
Pressure, kPa	Temperature, K	Refractive index (Na D-line)	uncertainty
96.15	293	1.4318	

System: aniline + N,N-dimethylformamide; phases: Liquid, Gas
Property: Boiling temperature at pressure P, K (Liquid); method: Ebulliometric method (Recirculating still)
Mole fraction of N,N-dimethylformamide	Pressure, kPa	Boiling temperature at pressure P, K	uncertainty
0	96.15	455.4	
.0696	96.15	454.6	
.1256	96.15	453.6	
.2392	96.15	450.8	
.4088	96.15	445.5	
.4771	96.15	442.9	
.5626	96.15	439.7	
.6548	96.15	436.3	
.7507	96.15	433	
.8322	96.15	430	
.9082	96.15	427.5	
.9706	96.15	425.5	
1	96.15	424.6	

System: aniline + N,N-dimethylformamide; phases: Gas, Liquid
Property: Mole fraction of N,N-dimethylformamide (Gas); method: Index of refraction calibration data
Mole fraction of N,N-dimethylformamide	Pressure, kPa	Mole fraction of N,N-dimethylformamide	uncertainty
0	96.15	0	
.0696	96.15	.1078	
.1256	96.15	.1926	
.2392	96.15	.3728	
.4088	96.15	.5905	
.4771	96.15	.6775	
.5626	96.15	.7645	
.6548	96.15	.8355	
.7507	96.15	.8938	
.8322	96.15	.9359	
.9082	96.15	.9723	
.9706	96.15	.9941	
1	96.15	1	

System: aniline + N,N-dimethylformamide; phases: Liquid
Fixed: Pressure, kPa = 96.15
Fixed: Temperature, K = 293
Property: Refractive index (Na D-line) (Liquid); method: Standard Abbe refractometry
Mole fraction of N,N-dimethylformamide	Refractive index (Na D-line)	uncertainty
0	1.5868	
.0624	1.5795	
.1252	1.5723	
.2423	1.5575	
.3527	1.543	
.459	1.5267	
.5592	1.5119	
.6561	1.4975	
.7474	1.4799	
.8363	1.4638	
.9206	1.4477	
.9602	1.4401	
1	1.4318	

System: acetic acid + anisole; phases: Liquid, Gas
Property: Boiling temperature at pressure P, K (Liquid); method: Ebulliometric method (Recirculating still)
Mole fraction of acetic acid	Pressure, kPa	Boiling temperature at pressure P, K	uncertainty
1	96.15	388.91	
.9732	96.15	388.61	
.9512	96.15	388.51	
.8832	96.15	388.53	
.8179	96.15	388.82	
.7395	96.15	389.32	
.6446	96.15	390.12	
.5491	96.15	391.18	
.4387	96.15	392.75	
.3151	96.15	395.94	
.185	96.15	402.22	
.0802	96.15	410.27	
0	96.15	424.61	

System: acetic acid + anisole; phases: Gas, Liquid
Property: Mole fraction of acetic acid (Gas); method: Index of refraction calibration data
Mole fraction of acetic acid	Pressure, kPa	Mole fraction of acetic acid	uncertainty
1	96.15	1	
.9732	96.15	.9666	
.9512	96.15	.9471	
.8832	96.15	.9092	
.8179	96.15	.8715	
.7395	96.15	.839	
.6446	96.15	.806	
.5491	96.15	.7635	
.4387	96.15	.7268	
.3151	96.15	.6713	
.185	96.15	.5482	
.0802	96.15	.3739	
0	96.15	0	

System: acetic acid + anisole; phases: Liquid
Fixed: Pressure, kPa = 96.15
Fixed: Temperature, K = 293
Property: Refractive index (Na D-line) (Liquid); method: Standard Abbe refractometry
Mole fraction of acetic acid	Refractive index (Na D-line)	uncertainty
1	1.3724	
.9711	1.3807	
.9413	1.3874	
.877	1.4018	
.8075	1.4155	
.7302	1.4295	
.6416	1.4441	
.5453	1.4584	
.4358	1.4731	
.3109	1.4878	
.167	1.503	
.0875	1.5107	
0	1.5175	

System: acetone + anisole; phases: Liquid, Gas
Property: Boiling temperature at pressure P, K (Liquid); method: Ebulliometric method (Recirculating still)
Mole fraction of acetone	Pressure, kPa	Boiling temperature at pressure P, K	uncertainty
0	96.15	424.55	
.0514	96.15	400.61	
.1043	96.15	385.85	
.2287	96.15	365.63	
.3482	96.15	354.81	
.4501	96.15	347.35	
.5569	96.15	342.03	
.6361	96.15	338.7	
.7975	96.15	333.12	
.8434	96.15	331.8	
.9503	96.15	328.54	
.9684	96.15	328.35	
1	96.15	327.9	

System: acetone + anisole; phases: Gas, Liquid
Property: Mole fraction of acetone (Gas); method: Index of refraction calibration data
Mole fraction of acetone	Pressure, kPa	Mole fraction of acetone	uncertainty
0	96.15	0	
.0514	96.15	.4977	
.1043	96.15	.703	
.2287	96.15	.8755	
.3482	96.15	.9295	
.4501	96.15	.9532	
.5569	96.15	.9687	
.6361	96.15	.9755	
.7975	96.15	.9876	
.8434	96.15	.9907	
.9503	96.15	.9955	
.9684	96.15	.9968	
1	96.15	1	

System: acetone + anisole; phases: Liquid
Fixed: Pressure, kPa = 96.15
Fixed: Temperature, K = 293
Property: Refractive index (Na D-line) (Liquid); method: Standard Abbe refractometry
Mole fraction of acetone	Refractive index (Na D-line)	uncertainty
0	1.5175	
.0888	1.5095	
.1723	1.4998	
.3184	1.4879	
.4448	1.4709	
.5541	1.459	
.6508	1.4441	
.736	1.4285	
.8121	1.406	
.8816	1.3923	
.9434	1.3746	
.9725	1.3678	
1	1.3606	

System: isopropanol + anisole; phases: Liquid, Gas
Property: Boiling temperature at pressure P, K (Liquid); method: Ebulliometric method (Recirculating still)
Mole fraction of isopropanol	Pressure, kPa	Boiling temperature at pressure P, K	uncertainty
1	96.15	354.17	
.9486	96.15	354.98	
.9276	96.15	354.86	
.8653	96.15	356.2	
.7998	96.15	357.46	
.7034	96.15	358.31	
.6214	96.15	358.83	
.509	96.15	359.84	
.4071	96.15	361.34	
.311	96.15	363.6	
.1623	96.15	371.77	
.1047	96.15	377.95	
0	96.15	424.79	

System: isopropanol + anisole; phases: Gas, Liquid
Property: Mole fraction of isopropanol (Gas); method: Index of refraction calibration data
Mole fraction of isopropanol	Pressure, kPa	Mole fraction of isopropanol	uncertainty
1	96.15	1	
.9486	96.15	.9841	
.9276	96.15	.9783	
.8653	96.15	.9643	
.7998	96.15	.9519	
.7034	96.15	.9399	
.6214	96.15	.9294	
.509	96.15	.9128	
.4071	96.15	.9027	
.311	96.15	.8926	
.1623	96.15	.8255	
.1047	96.15	.78	
0	96.15	0	

System: isopropanol + anisole; phases: Liquid
Fixed: Pressure, kPa = 96.15
Fixed: Temperature, K = 293
Property: Refractive index (Na D-line) (Liquid); method: Standard Abbe refractometry
Mole fraction of isopropanol	Refractive index (Na D-line)	uncertainty
1	1.3758	
.9693	1.3861	
.9372	1.3911	
.879	1.4019	
.8063	1.4143	
.7293	1.4272	
.6429	1.4403	
.5438	1.4543	
.4359	1.4688	
.3122	1.484	
.1663	1.5011	
.0879	1.5092	
0	1.5175	
