Measured thermophysical data. Determination and Correlation of Solubility of N-tertbutylacrylamide in Seven Different Solvents at Temperatures between (279.15 and 353.15) K
Source: J. Chem. Eng. Data, 2015, 10.1021/acs.jced.5b00135
Compound 1: N-tert-butylacrylamide, C7H13NO, purity 99.3%
Compound 2: ethyl acetate, C4H8O2, purity 99.8%
Compound 3: ethanol, C2H6O, purity 99.8%
Compound 4: dichloromethane, CH2Cl2, purity 99.8%
Compound 5: water, H2O, purity 99.9%
Compound 6: formamide, CH3NO, purity 99.8%
Compound 7: dimethylformamide, C3H7NO, purity 99.8%
Compound 8: N,N-dimethylacetamide, C4H9NO, purity 99.8%

System: N-tert-butylacrylamide; phases: Crystal, Liquid, Air at 1 atmosphere
Property: Molar enthalpy of transition or fusion, kJ/mol (Crystal); method: DSC
Molar enthalpy of transition or fusion, kJ/mol	uncertainty
21.57	.5

System: N-tert-butylacrylamide; phases: Crystal, Liquid, Air at 1 atmosphere
Property: Normal melting temperature, K (Crystal); method: DSC/DTA
Normal melting temperature, K	uncertainty
401.65	.3

System: N-tert-butylacrylamide + ethyl acetate; phases: Liquid, Crystal
Fixed: Pressure, kPa = 100
Property: Mole fraction of N-tert-butylacrylamide (Liquid); method: laser monitoring system
Temperature, K	Mole fraction of N-tert-butylacrylamide	uncertainty
287.15	.01504	.0003008
290.15	.01554	.0003108
293.15	.0166	.000332
296.15	.01779	.0003558
299.15	.01876	.0003752
302.15	.02037	.0004074
305.15	.02245	.000449
310.15	.02557	.0005114
315.15	.02889	.0005778
320.15	.03269	.0006538
325.15	.03626	.0007252
330.15	.04064	.0008128
335.15	.04502	.0009004
340.15	.05061	.0010122

System: ethanol + N-tert-butylacrylamide; phases: Liquid, Crystal
Fixed: Pressure, kPa = 100
Property: Mole fraction of N-tert-butylacrylamide (Liquid); method: laser monitoring system
Temperature, K	Mole fraction of N-tert-butylacrylamide	uncertainty
284.95	.001359	.00002718
287.95	.001519	.00003038
291.15	.001704	.00003408
294.15	.002097	.00004194
297.15	.002404	.00004808
300.15	.002829	.00005658
304.15	.003441	.00006882
307.15	.00392	.0000784
310.15	.004631	.00009262
313.15	.005219	.00010438
316.15	.005976	.00011952
319.15	.006771	.00013542
324.15	.008637	.00017274
330.15	.01126	.0002252
335.15	.01417	.0002834

System: dichloromethane + N-tert-butylacrylamide; phases: Liquid, Crystal
Fixed: Pressure, kPa = 100
Property: Mole fraction of N-tert-butylacrylamide (Liquid); method: laser monitoring system
Temperature, K	Mole fraction of N-tert-butylacrylamide	uncertainty
279.15	.005408	.00010816
283.15	.006499	.00012998
285.15	.007199	.00014398
287.15	.00798	.0001596
289.15	.008885	.0001777
291.15	.009618	.00019236
293.15	.01057	.0002114
296.15	.01169	.0002338
298.15	.01278	.0002556
301.15	.01416	.0002832
304.15	.01604	.0003208

System: N-tert-butylacrylamide + water; phases: Liquid, Crystal
Fixed: Pressure, kPa = 100
Property: Mole fraction of N-tert-butylacrylamide (Liquid); method: laser monitoring system
Temperature, K	Mole fraction of N-tert-butylacrylamide	uncertainty
294.15	.0008948	.000017896
298.15	.0009937	.000019874
303.15	.001107	.00002214
308.15	.001219	.00002438
313.15	.001358	.00002716
318.15	.001527	.00003054
323.15	.001721	.00003442
328.15	.001915	.0000383
333.15	.00215	.000043
338.15	.002398	.00004796
343.15	.002671	.00005342
348.15	.002967	.00005934
353.15	.003379	.00006758

System: formamide + N-tert-butylacrylamide; phases: Liquid, Crystal
Fixed: Pressure, kPa = 100
Property: Mole fraction of N-tert-butylacrylamide (Liquid); method: laser monitoring system
Temperature, K	Mole fraction of N-tert-butylacrylamide	uncertainty
284.15	.0007801	.000015602
288.15	.0009289	.000018578
294.15	.001169	.00002338
305.15	.001987	.00003974
308.15	.002287	.00004574
312.15	.002769	.00005538
316.15	.003478	.00006956
320.15	.004295	.0000859
324.15	.005121	.00010242
329.15	.006388	.00012776
334.15	.007761	.00015522
340.15	.009944	.00019888
345.15	.01223	.0002446
350.15	.01502	.0003004

System: dimethylformamide + N-tert-butylacrylamide; phases: Liquid, Crystal
Fixed: Pressure, kPa = 100
Property: Mole fraction of N-tert-butylacrylamide (Liquid); method: laser monitoring system
Temperature, K	Mole fraction of N-tert-butylacrylamide	uncertainty
288.15	.02071	.0004142
293.15	.02365	.000473
298.15	.02831	.0005662
303.15	.03335	.000667
308.15	.04033	.0008066
313.15	.04632	.0009264
318.15	.05287	.0010574
323.15	.05987	.0011974
328.15	.07086	.0014172
333.15	.08331	.0016662
338.15	.09869	.0019738
343.15	.1174	.002348
348.15	.1379	.002758
353.15	.1656	.003312

System: N-tert-butylacrylamide + N,N-dimethylacetamide; phases: Liquid, Crystal
Fixed: Pressure, kPa = 100
Property: Mole fraction of N-tert-butylacrylamide (Liquid); method: laser monitoring system
Temperature, K	Mole fraction of N-tert-butylacrylamide	uncertainty
293.15	.08144	.0016288
298.15	.08967	.0017934
303.15	.0979	.001958
308.15	.11	.0022
313.15	.127	.00254
318.15	.146	.00292
323.15	.1719	.003438
328.15	.2028	.004056
333.15	.2361	.004722
338.15	.2738	.005476
343.15	.3165	.00633
348.15	.3639	.007278
353.15	.4298	.008596
