Measured thermophysical data. Isobaric Vapor Liquid Equilibria for Binary Systems of Diethyl Carbonate + Propylene Carbonate, Diethyl Carbonate + Propylene Glycol, and Ethanol + Propylene Carbonate at 101.3 kPa
Source: J. Chem. Eng. Data, 2015, 10.1021/acs.jced.5b00064
Compound 1: ethanol, C2H6O, purity 99.8%
Compound 2: diethyl carbonate, C5H10O3, purity 99%
Compound 3: propylene glycol, C3H8O2, purity 99%
Compound 4: propylene carbonate, C4H6O3, purity 99.5%

System: ethanol; phases: Liquid
Fixed: Pressure, kPa = 101.325
Property: Mass density, kg/m3 (Liquid); method: Vibrating tube method
Temperature, K	Mass density, kg/m3	uncertainty
298.15	785.3	.1

System: ethanol; phases: Liquid, Gas
Property: Vapor or sublimation pressure, kPa (Liquid); method: Ebulliometric method (Recirculating still)
Temperature, K	Vapor or sublimation pressure, kPa	uncertainty
351.4	101.3	.1

System: diethyl carbonate; phases: Liquid
Fixed: Pressure, kPa = 101.325
Property: Mass density, kg/m3 (Liquid); method: Vibrating tube method
Temperature, K	Mass density, kg/m3	uncertainty
298.15	969	.1

System: diethyl carbonate; phases: Liquid, Gas
Property: Vapor or sublimation pressure, kPa (Liquid); method: Ebulliometric method (Recirculating still)
Temperature, K	Vapor or sublimation pressure, kPa	uncertainty
399.9	101.3	.1

System: propylene glycol; phases: Liquid
Fixed: Pressure, kPa = 101.325
Property: Mass density, kg/m3 (Liquid); method: Vibrating tube method
Temperature, K	Mass density, kg/m3	uncertainty
298.15	1032.3	.1

System: propylene glycol; phases: Liquid, Gas
Property: Vapor or sublimation pressure, kPa (Liquid); method: Ebulliometric method (Recirculating still)
Temperature, K	Vapor or sublimation pressure, kPa	uncertainty
460.7	101.3	.1

System: propylene carbonate; phases: Liquid
Fixed: Pressure, kPa = 101.325
Property: Mass density, kg/m3 (Liquid); method: Vibrating tube method
Temperature, K	Mass density, kg/m3	uncertainty
298.15	1197.6	.1

System: propylene carbonate; phases: Liquid, Gas
Property: Vapor or sublimation pressure, kPa (Liquid); method: Ebulliometric method (Recirculating still)
Temperature, K	Vapor or sublimation pressure, kPa	uncertainty
514.8	101.3	.1

System: diethyl carbonate + propylene carbonate; phases: Liquid, Gas
Fixed: Pressure, kPa = 101.3
Property: Boiling temperature at pressure P, K (Liquid); method: Ebulliometric method (Recirculating still)
Mole fraction of diethyl carbonate	Boiling temperature at pressure P, K	uncertainty
0	514.8	.1
.02	505.1	.1
.046	494.5	.1
.076	484.4	.1
.103	476.5	.1
.152	465.3	.1
.207	455	.1
.248	448.9	.1
.299	442.3	.1
.343	437.4	.1
.402	431.8	.1
.506	423.7	.1
.598	417.8	.1
.701	412.2	.1
.805	407.5	.1
.849	405.7	.1
.897	403.7	.1
.96	401.4	.1
1	399.9	.1

System: diethyl carbonate + propylene carbonate; phases: Gas, Liquid
Fixed: Pressure, kPa = 101.3
Property: Mole fraction of diethyl carbonate (Gas); method: Chromatography
Mole fraction of diethyl carbonate	Mole fraction of diethyl carbonate	uncertainty
0	0	.003
.02	.221	.003
.046	.415	.003
.076	.562	.003
.103	.657	.003
.152	.763	.003
.207	.836	.003
.248	.871	.003
.299	.903	.003
.343	.923	.003
.402	.942	.003
.506	.963	.003
.598	.976	.003
.701	.985	.003
.805	.992	.003
.849	.994	.003
.897	.996	.003
.96	.998	.003
1	1	.003

System: propylene glycol + diethyl carbonate; phases: Liquid, Gas
Fixed: Pressure, kPa = 101.3
Property: Boiling temperature at pressure P, K (Liquid); method: Ebulliometric method (Recirculating still)
Mole fraction of diethyl carbonate	Boiling temperature at pressure P, K	uncertainty
0	460.7	.1
.025	450.8	.1
.051	442.8	.1
.071	437.6	.1
.106	430.4	.1
.147	424.4	.1
.202	418.8	.1
.303	412.7	.1
.399	409.5	.1
.5	407.4	.1
.601	405.9	.1
.702	404.6	.1
.798	403.2	.1
.859	402.3	.1
.899	401.7	.1
.924	401.3	.1
.95	400.8	.1
.975	400.4	.1
1	399.9	.1

System: propylene glycol + diethyl carbonate; phases: Gas, Liquid
Fixed: Pressure, kPa = 101.3
Property: Mole fraction of diethyl carbonate (Gas); method: Chromatography
Mole fraction of diethyl carbonate	Mole fraction of diethyl carbonate	uncertainty
0	0	.003
.025	.268	.003
.051	.447	.003
.071	.541	.003
.106	.649	.003
.147	.727	.003
.202	.784	.003
.303	.845	.003
.399	.871	.003
.5	.889	.003
.601	.906	.003
.702	.925	.003
.798	.933	.003
.859	.947	.003
.899	.96	.003
.924	.969	.003
.95	.975	.003
.975	.988	.003
1	1	.003

System: ethanol + propylene carbonate; phases: Liquid, Gas
Fixed: Pressure, kPa = 101.3
Property: Boiling temperature at pressure P, K (Liquid); method: Ebulliometric method (Recirculating still)
Mole fraction of ethanol	Boiling temperature at pressure P, K	uncertainty
0	514.8	.1
.012	474.7	.1
.02	456.9	.1
.028	443.4	.1
.036	433.1	.1
.044	425	.1
.057	414.8	.1
.072	406.6	.1
.115	393	.1
.207	377.1	.1
.299	369.5	.1
.402	364.3	.1
.506	361.3	.1
.609	359.1	.1
.713	357	.1
.805	355.9	.1
.897	353.8	.1
.954	352.5	.1
1	351.4	.1

System: ethanol + propylene carbonate; phases: Gas, Liquid
Fixed: Pressure, kPa = 101.3
Property: Mole fraction of ethanol (Gas); method: Chromatography
Mole fraction of ethanol	Mole fraction of ethanol	uncertainty
0	0	.003
.012	.621	.003
.02	.753	.003
.028	.831	.003
.036	.874	.003
.044	.907	.003
.057	.932	.003
.072	.954	.003
.115	.973	.003
.207	.99	.003
.299	.993	.003
.402	.995	.003
.506	.996	.003
.609	.997	.003
.713	.997	.003
.805	.998	.003
.897	.999	.003
.954	.999	.003
1	1	.003
