Measured thermophysical data. Liquid Liquid Equilibria for Systems Containing 4-Phenylbutan-2-one or Benzyl Ethanoate and Selected Alkanes
Source: J. Chem. Eng. Data, 2017, 10.1021/acs.jced.6b00803
Compound 1: 4-phenyl-2-butanone, C10H12O, purity 98%
Compound 2: benzyl ethanoate, C9H10O2, purity 99%
Compound 3: dodecane, C12H26, purity 98%
Compound 4: tetradecane, C14H30, purity 99%
Compound 5: hexadecane, C16H34, purity 99%

System: 4-phenyl-2-butanone; phases: Liquid
Fixed: Pressure, kPa = 101.325
Property: Mass density, kg/m3 (Liquid); method: Vibrating tube method
Temperature, K	Mass density, kg/m3	uncertainty
298.15	984.742	1.969484

System: benzyl ethanoate; phases: Liquid
Fixed: Pressure, kPa = 101.325
Property: Mass density, kg/m3 (Liquid); method: Vibrating tube method
Temperature, K	Mass density, kg/m3	uncertainty
298.15	1051.1	2.1022

System: dodecane; phases: Liquid
Fixed: Pressure, kPa = 101.325
Property: Mass density, kg/m3 (Liquid); method: Vibrating tube method
Temperature, K	Mass density, kg/m3	uncertainty
298.15	745.508	1.491016

System: tetradecane; phases: Liquid
Fixed: Pressure, kPa = 101.325
Property: Mass density, kg/m3 (Liquid); method: Vibrating tube method
Temperature, K	Mass density, kg/m3	uncertainty
298.15	759.275	1.51855

System: hexadecane; phases: Liquid
Fixed: Pressure, kPa = 101.325
Property: Mass density, kg/m3 (Liquid); method: Vibrating tube method
Temperature, K	Mass density, kg/m3	uncertainty
298.15	770.221	1.540442

System: dodecane + 4-phenyl-2-butanone; phases: Liquid mixture 1, Liquid mixture 2
Fixed: Pressure, kPa = 100
Property: Liquid-liquid equilibrium temperature, K (Liquid mixture 1); method: Visual observation
Mole fraction of 4-phenyl-2-butanone	Liquid-liquid equilibrium temperature, K	uncertainty
.2232	279.3	
.2653	285.2	
.2833	286.4	
.2929	287.1	
.325	288.9	
.3431	289.6	
.3688	290.6	
.4059	291.4	
.4605	292.3	
.4775	292.4	
.4844	292.5	
.4853	292.5	
.5528	292.4	
.5673	292.4	
.5993	292.3	
.6316	292.2	
.6521	292.2	
.6695	291.9	
.6939	291.6	
.7211	291	
.7534	289.9	
.7684	289.1	
.7997	286.8	
.8176	285.5	
.8341	283.2	
.8683	278.3	

System: tetradecane + 4-phenyl-2-butanone; phases: Liquid mixture 1, Liquid mixture 2
Fixed: Pressure, kPa = 100
Property: Liquid-liquid equilibrium temperature, K (Liquid mixture 1); method: Visual observation
Mole fraction of 4-phenyl-2-butanone	Liquid-liquid equilibrium temperature, K	uncertainty
.2262	285.8	
.2421	287.3	
.2911	291.6	
.3173	293.4	
.3346	294.7	
.3524	295.5	
.3731	296.4	
.3958	297.4	
.4479	299	
.461	299.3	
.504	300	
.5259	300.1	
.5511	300.1	
.5826	300	
.5949	300	
.6374	299.9	
.6873	299.8	
.7021	299.7	
.7183	299.5	
.7218	299.4	
.7475	298.9	
.774	297.1	
.7958	295.6	
.8233	293.6	
.8566	289.9	
.8629	289	
.892	285.7	

System: hexadecane + 4-phenyl-2-butanone; phases: Liquid mixture 1, Liquid mixture 2
Fixed: Pressure, kPa = 100
Property: Liquid-liquid equilibrium temperature, K (Liquid mixture 1); method: Visual observation
Mole fraction of 4-phenyl-2-butanone	Liquid-liquid equilibrium temperature, K	uncertainty
.2459	290.2	
.2521	290.8	
.2903	295.3	
.3035	296.2	
.3438	299.1	
.3533	299.8	
.3862	301.8	
.4053	302.9	
.4257	303.6	
.4397	304.1	
.4676	305.7	
.5174	306.4	
.5433	306.8	
.592	307	
.6483	307	
.6709	306.9	
.7028	306.7	
.7288	306.5	
.7457	306.4	
.776	306	
.7991	305.3	
.8161	304.4	
.8521	302	
.8714	299.3	
.8981	294.5	

System: benzyl ethanoate + tetradecane; phases: Liquid mixture 1, Liquid mixture 2
Fixed: Pressure, kPa = 100
Property: Liquid-liquid equilibrium temperature, K (Liquid mixture 1); method: Visual observation
Mole fraction of benzyl ethanoate	Liquid-liquid equilibrium temperature, K	uncertainty
.348	280	
.3762	281.9	
.4014	283.2	
.4429	285.1	
.4452	285.1	
.4756	286.2	
.5098	287	
.5244	287.3	
.5582	287.8	
.578	287.9	
.5898	288	
.6211	288.1	
.6501	288.3	
.6619	288.2	
.6909	288.2	
.7069	288.1	
.7088	288.1	
.7198	288.1	
.7213	288.1	
.7619	287.7	
.7887	287.1	
.7958	286.9	
.8243	285.6	
.8476	283.2	
.8721	280.2	

System: benzyl ethanoate + hexadecane; phases: Liquid mixture 1, Liquid mixture 2
Fixed: Pressure, kPa = 100
Property: Liquid-liquid equilibrium temperature, K (Liquid mixture 1); method: Visual observation
Mole fraction of benzyl ethanoate	Liquid-liquid equilibrium temperature, K	uncertainty
.3915	287.8	
.4011	288.2	
.4319	289.4	
.4512	290.5	
.4616	290.9	
.4634	290.9	
.511	292.9	
.5289	293.4	
.5609	294	
.5745	294.3	
.6006	294.7	
.6235	295	
.6463	295.1	
.6695	295.1	
.6952	295.1	
.7127	295	
.7487	295	
.7671	294.9	
.8052	294.3	
.8184	293.6	
.839	293.2	
.8676	291.2	
.8917	288.1	
.9109	285.4	
