Measured thermophysical data. Liquid-Liquid Equilibrium of Alcohols + Ammonium/Potassium/Sodium Acetate + Water Systems: Experimental and Correlation
Source: J. Chem. Eng. Data, 2015, 10.1021/acs.jced.5b00200
Compound 1: ethanol, C2H6O, purity 99%
Compound 2: 1-propanol, C3H8O, purity 99%
Compound 3: 2-propanol, C3H8O, purity 99%
Compound 4: 2-butanol, C4H10O, purity 99%
Compound 5: sodium acetate, C2H3NaO2, purity 99%
Compound 6: potassium acetate, C2H3KO2, purity 99%
Compound 7: ammonium acetate, C2H7NO2, purity 99%
Compound 8: water, H2O

System: 2-butanol + ammonium acetate + water; phases: Liquid mixture 1, Liquid mixture 2
Fixed: Pressure, kPa = 101
Fixed: Temperature, K = 297.15
Property: Mass fraction of ammonium acetate (Liquid mixture 1); method: Titration method
Mass fraction of 2-butanol	Mass fraction of ammonium acetate	uncertainty
.1574	.0045	.0006
.1552	.0133	.0006
.1543	.0088	.0006
.1278	.0426	.0006
.1241	.0496	.0006
.121	.0545	.0006
.0977	.1075	.0006
.0845	.1776	.0006
.0537	.3719	.0006
.0497	.3977	.0006
.0424	.433	.0006
.0401	.4579	.0006

System: 2-butanol + ammonium acetate + water; phases: Liquid mixture 1, Liquid mixture 2
Fixed: Temperature, K = 297.15
Fixed: Pressure, kPa = 101
Property: Mass fraction of ammonium acetate (Liquid mixture 1); method: Other
Property: Mass fraction of ammonium acetate (Liquid mixture 2); method: Other
Property: Mass fraction of 2-butanol (Liquid mixture 2); method: Other
Mass fraction of 2-butanol	Mass fraction of ammonium acetate	uncertainty	Mass fraction of ammonium acetate	uncertainty	Mass fraction of 2-butanol	uncertainty
.7591	.0153	.003	.3719	.003	.0537	.003
.7549	.0173	.003	.3977	.003	.0497	.003
.7518	.0195	.003	.433	.003	.0424	.003
.7465	.0218	.003	.4579	.003	.0401	.003

System: 2-butanol + ammonium acetate + water; phases: Liquid
Fixed: Pressure, kPa = 100
Fixed: Temperature, K = 297.15
Property: Electrical conductivity, S/m (Liquid); method: Alternating current cell with electrodes
Mass fraction of 2-butanol	Mass fraction of ammonium acetate	Electrical conductivity, S/m	uncertainty
0	.047	.0479	.00958
.01	.04	.0409	.00818
.02	.35	.0367	.00734
.03	.3	.0311	.00622
.04	.25	.0267	.00534
.05	.2	.0217	.00434
.06	.15	.0165	.0033
.07	.1	.0111	.00222
.08	.05	.0063	.00126
.097	0	.0001	.00002

System: 1-propanol + sodium acetate + water; phases: Liquid mixture 1, Liquid mixture 2
Fixed: Pressure, kPa = 101
Fixed: Temperature, K = 297.15
Property: Mass fraction of sodium acetate (Liquid mixture 1); method: Titration method
Mass fraction of 1-propanol	Mass fraction of sodium acetate	uncertainty
.7165	.0423	.0035
.7012	.042	.0035
.6854	.045	.0035
.6693	.0476	.0035
.5825	.0583	.0035
.4819	.0803	.0035
.3233	.1167	.0035
.2817	.1315	.0035
.2128	.156	.0035
.2	.16	.0035
.1908	.1679	.0035
.1783	.1765	.0035
.176	.176	.0035
.1617	.186	.0035
.1612	.1917	.0035
.1279	.2139	.0035
.1158	.2315	.0035

System: 1-propanol + sodium acetate + water; phases: Liquid mixture 2, Liquid mixture 1
Fixed: Pressure, kPa = 101
Fixed: Temperature, K = 297.15
Property: Mass fraction of sodium acetate (Liquid mixture 2); method: Other
Property: Mass fraction of 1-propanol (Liquid mixture 1); method: Other
Property: Mass fraction of sodium acetate (Liquid mixture 1); method: Other
Mass fraction of 1-propanol	Mass fraction of sodium acetate	uncertainty	Mass fraction of 1-propanol	uncertainty	Mass fraction of sodium acetate	uncertainty
.1783	.1765	.0106	.6693	.0106	.0476	.0106
.1612	.1917	.0106	.6854	.0106	.045	.0106
.1279	.2139	.0106	.7012	.0106	.042	.0106
.1158	.2315	.0106	.7165	.0106	.0423	.0106

System: 1-propanol + sodium acetate + water; phases: Liquid
Fixed: Pressure, kPa = 100
Fixed: Temperature, K = 297.15
Property: Electrical conductivity, S/m (Liquid); method: Alternating current cell with electrodes
Mass fraction of 1-propanol	Mass fraction of sodium acetate	Electrical conductivity, S/m	uncertainty
0	.047	.0438	.00876
.01	.04	.038	.0076
.02	.35	.0331	.00662
.03	.3	.0287	.00574
.04	.25	.0241	.00482
.05	.2	.0189	.00378
.06	.15	.0143	.00286
.07	.1	.0098	.00196
.08	.05	.0051	.00102
.097	0	0	0

System: 1-propanol + potassium acetate + water; phases: Liquid mixture 1, Liquid mixture 2
Fixed: Pressure, kPa = 101
Fixed: Temperature, K = 297.15
Property: Mass fraction of potassium acetate (Liquid mixture 1); method: Titration method
Mass fraction of 1-propanol	Mass fraction of potassium acetate	uncertainty
.7091	.0382	.0022
.6829	.042	.0022
.676	.0432	.0022
.6549	.0466	.0022
.5102	.085	.0022
.4771	.0954	.0022
.4752	.095	.0022
.3063	.1378	.0022
.2896	.1448	.0022
.2712	.1492	.0022
.2562	.1537	.0022
.2131	.1705	.0022
.2128	.1702	.0022
.2104	.1731	.0022
.1668	.1895	.0022
.1539	.2014	.0022
.1533	.1992	.0022
.1347	.2271	.0022

System: 1-propanol + potassium acetate + water; phases: Liquid mixture 1, Liquid mixture 2
Fixed: Temperature, K = 297.15
Fixed: Pressure, kPa = 101
Property: Mass fraction of potassium acetate (Liquid mixture 1); method: Other
Property: Mass fraction of 1-propanol (Liquid mixture 2); method: Other
Property: Mass fraction of potassium acetate (Liquid mixture 2); method: Other
Mass fraction of 1-propanol	Mass fraction of potassium acetate	uncertainty	Mass fraction of 1-propanol	uncertainty	Mass fraction of potassium acetate	uncertainty
.676	.0432	.015	.1668	.015	.1895	.015
.6549	.0466	.015	.2104	.015	.1731	.015
.6829	.042	.015	.1539	.015	.2014	.015
.7091	.0382	.015	.1347	.015	.2271	.015

System: 1-propanol + potassium acetate + water; phases: Liquid
Fixed: Pressure, kPa = 100
Fixed: Temperature, K = 297.15
Property: Electrical conductivity, S/m (Liquid); method: Alternating current cell with electrodes
Mass fraction of 1-propanol	Mass fraction of potassium acetate	Electrical conductivity, S/m	uncertainty
0	.047	.0484	.00968
.01	.04	.0416	.00832
.02	.035	.0367	.00734
.03	.03	.031	.0062
.04	.025	.0263	.00526
.05	.02	.021	.0042
.06	.015	.0155	.0031
.08	.005	.0055	.0011
.097	0	0	0

System: 2-propanol + sodium acetate + water; phases: Liquid mixture 1, Liquid mixture 2
Fixed: Pressure, kPa = 101
Fixed: Temperature, K = 297.15
Property: Mass fraction of sodium acetate (Liquid mixture 1); method: Titration method
Mass fraction of 2-propanol	Mass fraction of sodium acetate	uncertainty
.8714	.0396	.0093
.864	.0401	.0093
.8322	.0436	.0093
.7941	.0496	.0093
.7897	.0528	.0093
.7679	.0555	.0093
.6433	.0792	.0093
.4988	.1197	.0093
.4439	.1381	.0093
.2938	.1958	.0093
.229	.229	.0093
.191	.2503	.0093
.1794	.2584	.0093
.1664	.2659	.0093
.1442	.2825	.0093

System: 2-propanol + sodium acetate + water; phases: Liquid mixture 2, Liquid mixture 1
Fixed: Temperature, K = 297.15
Fixed: Pressure, kPa = 101
Property: Mass fraction of sodium acetate (Liquid mixture 2); method: Other
Property: Mass fraction of 2-propanol (Liquid mixture 1); method: Other
Property: Mass fraction of sodium acetate (Liquid mixture 1); method: Other
Mass fraction of 2-propanol	Mass fraction of sodium acetate	uncertainty	Mass fraction of 2-propanol	uncertainty	Mass fraction of sodium acetate	uncertainty
.191	.2503	.0325	.7679	.0325	.0555	.0325
.1794	.2584	.0325	.7897	.0325	.0528	.0325
.1664	.2659	.0325	.8322	.0325	.0436	.0325
.1442	.2825	.0325	.864	.0325	.0401	.0325

System: 2-propanol + sodium acetate + water; phases: Liquid
Fixed: Pressure, kPa = 100
Fixed: Temperature, K = 297.15
Property: Electrical conductivity, S/m (Liquid); method: Alternating current cell with electrodes
Mass fraction of 2-propanol	Mass fraction of sodium acetate	Electrical conductivity, S/m	uncertainty
0	.047	.0441	.00882
.01	.04	.0372	.00744
.02	.35	.0331	.00662
.03	.3	.0289	.00578
.04	.25	.0242	.00484
.05	.2	.019	.0038
.06	.15	.0144	.00288
.07	.1	.0096	.00192
.08	.05	.0053	.00106
.097	0	.0001	.00002

System: 2-propanol + potassium acetate + water; phases: Liquid mixture 1, Liquid mixture 2
Fixed: Pressure, kPa = 101
Fixed: Temperature, K = 297.15
Property: Mass fraction of potassium acetate (Liquid mixture 1); method: Titration method
Mass fraction of 2-propanol	Mass fraction of potassium acetate	uncertainty
.8863	.0577	.0116
.861	.0586	.0116
.8321	.0605	.0116
.7968	.0638	.0116
.6573	.1013	.0116
.6315	.1122	.0116
.4959	.1622	.0116
.2679	.2624	.0116
.2347	.2813	.0116
.1942	.3006	.0116
.1726	.3212	.0116
.143	.3444	.0116
.1315	.3612	.0116
.1242	.3725	.0116

System: 2-propanol + potassium acetate + water; phases: Liquid mixture 1, Liquid mixture 2
Fixed: Temperature, K = 297.15
Fixed: Pressure, kPa = 101
Property: Mass fraction of potassium acetate (Liquid mixture 1); method: Other
Property: Mass fraction of 2-propanol (Liquid mixture 2); method: Other
Property: Mass fraction of potassium acetate (Liquid mixture 2); method: Other
Mass fraction of 2-propanol	Mass fraction of potassium acetate	uncertainty	Mass fraction of 2-propanol	uncertainty	Mass fraction of potassium acetate	uncertainty
.7968	.0638	.0024	.1726	.0024	.3212	.0024
.8321	.0605	.0024	.143	.0024	.3444	.0024
.861	.0586	.0024	.1315	.0024	.3612	.0024
.8863	.0577	.0024	.1242	.0024	.3725	.0024

System: 2-propanol + potassium acetate + water; phases: Liquid
Fixed: Pressure, kPa = 100
Fixed: Temperature, K = 297.15
Property: Electrical conductivity, S/m (Liquid); method: Alternating current cell with electrodes
Mass fraction of 2-propanol	Mass fraction of potassium acetate	Electrical conductivity, S/m	uncertainty
0	.047	.0479	.00958
.01	.04	.0407	.00814
.02	.35	.0361	.00722
.03	.3	.0308	.00616
.04	.25	.0261	.00522
.05	.2	.0208	.00416
.06	.15	.0157	.00314
.07	.1	.0105	.0021
.08	.05	.0057	.00114
.097	0	0	0

System: ammonium acetate + water; phases: Liquid
Property: Electrical conductivity, S/m (Liquid); method: Alternating current cell with electrodes
Mass fraction of ammonium acetate	Pressure, kPa	Temperature, K	Electrical conductivity, S/m	uncertainty
.047	100	297.15	.0479	.00958

System: 2-butanol + water; phases: Liquid
Property: Electrical conductivity, S/m (Liquid); method: Alternating current cell with electrodes
Mass fraction of 2-butanol	Pressure, kPa	Temperature, K	Electrical conductivity, S/m	uncertainty
.097	100	297.15	.0001	.00002

System: sodium acetate + water; phases: Liquid
Property: Electrical conductivity, S/m (Liquid); method: Alternating current cell with electrodes
Mass fraction of sodium acetate	Pressure, kPa	Temperature, K	Electrical conductivity, S/m	uncertainty
.047	100	297.15	.0438	.00876
.047	100	297.15	.0441	.00882

System: 1-propanol + water; phases: Liquid
Property: Electrical conductivity, S/m (Liquid); method: Alternating current cell with electrodes
Mass fraction of 1-propanol	Pressure, kPa	Temperature, K	Electrical conductivity, S/m	uncertainty
.097	100	297.15	0	0

System: potassium acetate + water; phases: Liquid
Property: Electrical conductivity, S/m (Liquid); method: Alternating current cell with electrodes
Mass fraction of potassium acetate	Pressure, kPa	Temperature, K	Electrical conductivity, S/m	uncertainty
.047	100	297.15	.0484	.00968
.047	100	297.15	.0479	.00958

System: 2-propanol + water; phases: Liquid
Property: Electrical conductivity, S/m (Liquid); method: Alternating current cell with electrodes
Mass fraction of 2-propanol	Pressure, kPa	Temperature, K	Electrical conductivity, S/m	uncertainty
.097	100	297.15	.0001	.00002
.097	100	297.15	0	0
