Measured thermophysical data. Solid Liquid Phase Equilibria of Ternary Systems LiCl LiBr H2O and CaCl2 CaBr2 H2O at 288.15 K
Source: J. Chem. Eng. Data, 2017, 10.1021/acs.jced.6b00855
Compound 1: lithium chloride, ClLi, purity 99%
Compound 2: lithium bromide, BrLi, purity 99%
Compound 3: calcium chloride, CaCl2, purity 96%
Compound 4: calcium bromide, Br2Ca, purity 98%
Compound 5: water, H2O, purity 99.8%

System: lithium chloride + lithium bromide + water; phases: Liquid
Fixed: Pressure, kPa = 100
Fixed: Temperature, K = 288.15
Property: Refractive index (Na D-line) (Liquid); method: Standard Abbe refractometry
Mass fraction of lithium chloride	Mass fraction of lithium bromide	Refractive index (Na D-line)	uncertainty
0	.5929	1.4744	
.0583	.5435	1.4737	
.0983	.4888	1.4731	
.1267	.4553	1.4684	
.1329	.4425	1.4672	
.186	.3708	1.4651	
.2565	.2478	1.4553	
.2872	.2163	1.4479	
.3638	.0787	1.4451	
.4145	.0349	1.4357	
.4395	0	1.4343	

System: water + calcium bromide + calcium chloride; phases: Liquid
Fixed: Pressure, kPa = 100
Fixed: Temperature, K = 288.15
Property: Refractive index (Na D-line) (Liquid); method: Standard Abbe refractometry
Mass fraction of calcium chloride	Mass fraction of calcium bromide	Refractive index (Na D-line)	uncertainty
0	.5794	1.4892	
.0739	.4948	1.4859	
.1298	.4281	1.4842	
.1724	.3824	1.4801	
.2421	.2707	1.4634	
.2723	.2145	1.4592	
.3153	.1434	1.4561	
.3415	.1047	1.4529	
.3854	.0512	1.4487	
.4075	0	1.4428	

System: lithium bromide + water; phases: Liquid
Property: Refractive index (Na D-line) (Liquid); method: Standard Abbe refractometry
Mass fraction of lithium bromide	Pressure, kPa	Temperature, K	Refractive index (Na D-line)	uncertainty
.5929	100	288.15	1.4744	

System: lithium chloride + water; phases: Liquid
Property: Refractive index (Na D-line) (Liquid); method: Standard Abbe refractometry
Mass fraction of lithium chloride	Pressure, kPa	Temperature, K	Refractive index (Na D-line)	uncertainty
.4395	100	288.15	1.4343	

System: water + calcium bromide; phases: Liquid
Property: Refractive index (Na D-line) (Liquid); method: Standard Abbe refractometry
Mass fraction of calcium bromide	Pressure, kPa	Temperature, K	Refractive index (Na D-line)	uncertainty
.5794	100	288.15	1.4892	

System: water + calcium chloride; phases: Liquid
Property: Refractive index (Na D-line) (Liquid); method: Standard Abbe refractometry
Mass fraction of calcium chloride	Pressure, kPa	Temperature, K	Refractive index (Na D-line)	uncertainty
.4075	100	288.15	1.4428	
