Measured thermophysical data. Thermal Diffusivity of Methanol to a Pressure of 5 GPa
Source: J. Chem. Eng. Data, 2017, 10.1021/acs.jced.7b00222
Compound 1: methanol, CH4O

System: methanol; phases: Liquid
Property: Thermal diffusivity, m2/s (Liquid); method: Optical interferometry
Pressure, kPa	Temperature, K	Thermal diffusivity, m2/s	uncertainty
0	299.15	.000000097	
370000	300.15	.000000135	
400000	299.85	.000000132	
860000	300.95	.000000157	
880000	299.15	.000000159	
1290000	301.05	.00000017	
1290000	301.05	.000000166	
1750000	300.75	.00000018	
2430000	299.15	.000000186	
3100000	299.15	.000000192	
3120000	299.15	.000000199	
4220000	298.15	.000000217	
5000000	299.75	.000000237	
5300000	297.95	.000000219	

System: methanol; phases: Liquid, Gas
Property: Thermal diffusivity, m2/s (Liquid); method: Optical interferometry
Temperature, K	Thermal diffusivity, m2/s	uncertainty
299.15	.000000097	
