Measured thermophysical data. Solubility of CO in the Mixture of Ionic Liquid and ZIF: An Experimental and Modeling Study
Source: J. Chem. Eng. Data, 2016, 10.1021/acs.jced.5b00707
Compound 1: 1-butyl-3-methylimidazolium tetrafluoroborate, C8H15BF4N2, purity 99%
Compound 2: carbon monoxide, CO, purity 99.99%

System: carbon monoxide + 1-butyl-3-methylimidazolium tetrafluoroborate; phases: Liquid, Gas
Property: Vapor or sublimation pressure, kPa (Liquid); method: Closed cell (Static) method
Temperature, K	Mass fraction of carbon monoxide	Vapor or sublimation pressure, kPa	uncertainty
298.2	.0033	3491	50
298.2	.0024	2684	60
298.2	.0019	2023	50
298.2	.0015	1505	60
298.2	.0009	1016	50
298.2	.0005	515	50
288.2	.0033	3359	50
288.2	.0027	2809	50
288.2	.002	2012	60
288.2	.0014	1517	50
288.2	.0009	941	50
288.2	.0006	590	50
273.2	.0033	3172	50
273.2	.0025	2438	50
273.2	.0019	1843	50
273.2	.0014	1373	60
273.2	.001	928	50
273.2	.0005	472	50
258.2	.0033	2978	60
258.2	.0024	2290	50
258.2	.0019	1739	50
258.2	.0015	1293	50
258.2	.001	874	50
258.2	.0005	446	50
243.2	.0033	2788	50
243.2	.0026	2148	60
243.2	.002	1631	50
243.2	.0015	1213	50
243.2	.0011	820	50
243.2	.0006	418	70
