Measured thermophysical data. Measurement and Calculation of CO2 Frost Points in CH4 + CO2/CH4 + CO2 + N2/CH4 + CO2 + C2H6 Mixtures at Low Temperatures
Source: J. Chem. Eng. Data, 2015, 10.1021/acs.jced.5b00059
Compound 1: methane, CH4, purity 99%
Compound 2: carbon dioxide, CO2, purity 99%
Compound 3: molecular nitrogen, N2, purity 99%
Compound 4: ethane, C2H6, purity 99%

System: methane + carbon dioxide + molecular nitrogen; phases: Gas, Crystal
Property: Vapor or sublimation pressure, kPa (Gas); method: Closed cell (Static) method
Temperature, K	Mole fraction of carbon dioxide	Mole fraction of molecular nitrogen	Vapor or sublimation pressure, kPa	uncertainty
153.15	.001	0	1235	5
153.15	.0013	0	996	5
153.15	.0016	0	878	5
153.15	.002	0	726	5
153.15	.0022	0	652	5
153.15	.0025	0	559	5
153.15	.0029	0	490	5
153.15	.0032	0	437	5
153.15	.0036	0	380	5
153.15	.005	0	270	5
153.15	.0063	0	219	5
153.15	.0016	.0318	1183	5
153.15	.0013	.0313	970	5
153.15	.0015	.0311	786	5
153.15	.0025	.0304	590	5
153.15	.0032	.0297	423	5
153.15	.0048	.0293	273	5
153.15	.0012	.0567	1067	5
153.15	.0024	.0532	882	5
153.15	.0021	.0486	679	5
153.15	.0027	.0434	525	5
153.15	.0031	.0497	400	5
153.15	.0042	.0513	279	5
158.15	.0048	0	1074	5
158.15	.0041	0	970	5
158.15	.0033	0	865	5
158.15	.0039	0	761	5
158.15	.0048	0	649	5
158.15	.0056	0	561	5
158.15	.0066	0	474	5
158.15	.0075	0	415	5
158.15	.0092	0	341	5
158.15	.0113	0	271	5
168.15	.0082	0	1510	5
168.15	.0071	0	1335	5
168.15	.0091	0	1130	5
168.15	.0108	0	953	5
168.15	.0125	0	791	5
168.15	.0145	0	669	5
168.15	.017	0	562	5
168.15	.0209	0	467	5
168.15	.0252	0	369	5
168.15	.0331	0	277	5
168.15	.008	.0307	1408	5
168.15	.0083	.0306	1050	5
168.15	.0093	.0305	853	5
168.15	.014	.0303	673	5
168.15	.0164	.0298	492	5
168.15	.0337	.0294	267	5
168.15	.0041	.0522	1703	5
168.15	.0053	.0503	1564	5
168.15	.0054	.0504	1260	5
168.15	.0077	.0499	969	5
168.15	.0102	.0501	752	5
168.15	.0146	.0504	570	5
168.15	.0195	.0511	415	5
168.15	.0272	.0518	272	5
178.15	.0185	.0345	1920	5
178.15	.0201	.0344	1765	5
178.15	.0225	.0337	1592	5
178.15	.0252	.0325	1402	5
178.15	.0257	.0319	1198	5
178.15	.0322	.0313	912	5
178.15	.0389	.0319	718	5
178.15	.0533	.0312	532	5
178.15	.0675	.0308	389	5
178.15	.0937	.03	275	5
178.15	.0161	.0562	1930	5
178.15	.0163	.0544	1622	5
178.15	.0201	.0524	1332	5
178.15	.0264	.0529	1032	5
178.15	.0328	.0525	831	5
178.15	.0433	.0524	635	5
178.15	.0655	.0507	424	5
178.15	.0991	.0486	275	5
178.15	.0154	0	1983	5
178.15	.0158	0	1775	5
178.15	.0222	0	1563	5
178.15	.0252	0	1305	5
178.15	.0283	0	1090	5
178.15	.0316	0	933	5
178.15	.0383	0	768	5
178.15	.0467	0	589	5
178.15	.07	0	397	5
178.15	.0903	0	278	5
178.15	.0161	0	2183	5
188.15	.1692	.0296	390	5
188.15	.2373	.0262	276	5
188.15	.04	.0547	2138	5
188.15	.0448	.0539	1876	5
188.15	.0512	.0519	1572	5
188.15	.0578	.0503	1250	5
188.15	.0707	.0476	960	5
188.15	.0867	.0543	775	5
188.15	.1138	.0525	574	5
188.15	.1604	.0491	400	5
188.15	.229	.0528	268	5
188.15	.0412	.0334	2088	5
188.15	.0455	.0335	1791	5
188.15	.055	.0344	1472	5
188.15	.0673	.0327	1131	5
188.15	.0871	.0314	783	5
188.15	.0392	0	2982	5
188.15	.0377	0	2644	5
188.15	.0375	0	2124	5
188.15	.0476	0	1841	5
188.15	.0495	0	1660	5
188.15	.0517	0	1468	5
188.15	.0639	0	1168	5
188.15	.0814	0	852	5
188.15	.1025	0	654	5
188.15	.1633	0	390	5
188.15	.2249	0	273	5
188.15	.1167	.0315	581	5
193.15	.0794	.0558	1450	5
193.15	.0925	.0549	1223	5
193.15	.1184	.0536	924	5
193.15	.156	.0452	674	5
193.15	.2332	.045	432	5
193.15	.3479	.0489	277	5
193.15	.0719	0	1620	5
193.15	.0811	0	1389	5
193.15	.1029	0	1051	5
193.15	.1157	0	921	5
193.15	.1263	0	803	5
193.15	.0546	0	3038	5
193.15	.0526	0	2746	5
193.15	.0519	0	2418	5
193.15	.0685	0	1752	5
193.15	.1932	0	533	5
193.15	.3407	0	284	5
193.15	.06	.0311	2010	5
193.15	.0639	.0345	1784	5
193.15	.0704	.034	1498	5
193.15	.0864	.0329	1180	5
193.15	.1127	.0327	889	5
193.15	.1404	.0316	685	5
193.15	.1905	.0296	497	5
193.15	.3214	.025	283	5
193.15	.0632	.0574	2200	5
193.15	.0685	.0571	1740	5

System: methane + ethane + carbon dioxide; phases: Gas, Crystal
Property: Vapor or sublimation pressure, kPa (Gas); method: Closed cell (Static) method
Temperature, K	Mole fraction of carbon dioxide	Mole fraction of ethane	Vapor or sublimation pressure, kPa	uncertainty
193.15	.0546	0	3038	5
193.15	.0526	0	2746	5
193.15	.0519	0	2418	5
193.15	.0685	0	1752	5
193.15	.0719	0	1620	5
193.15	.0811	0	1389	5
193.15	.1029	0	1051	5
193.15	.1157	0	921	5
193.15	.1263	0	803	5
193.15	.1932	0	533	5
193.15	.3407	0	284	5
188.15	.0392	0	2982	5
188.15	.0377	0	2644	5
188.15	.0375	0	2124	5
188.15	.0476	0	1841	5
188.15	.0495	0	1660	5
188.15	.0517	0	1468	5
188.15	.0639	0	1168	5
188.15	.0814	0	852	5
188.15	.1025	0	654	5
188.15	.1633	0	390	5
188.15	.2249	0	273	5
178.15	.0161	0	2183	5
178.15	.0154	0	1983	5
178.15	.0158	0	1775	5
178.15	.0222	0	1563	5
178.15	.0252	0	1305	5
178.15	.0283	0	1090	5
178.15	.0316	0	933	5
178.15	.0383	0	768	5
178.15	.0467	0	589	5
178.15	.07	0	397	5
178.15	.0903	0	278	5
168.15	.0082	0	1510	5
168.15	.0071	0	1335	5
168.15	.0091	0	1130	5
168.15	.0108	0	953	5
168.15	.0125	0	791	5
168.15	.0145	0	669	5
168.15	.017	0	562	5
168.15	.0209	0	467	5
168.15	.0252	0	369	5
168.15	.0331	0	277	5
158.15	.0048	0	1074	5
158.15	.0041	0	970	5
158.15	.0033	0	865	5
158.15	.0039	0	761	5
158.15	.0048	0	649	5
158.15	.0056	0	561	5
158.15	.0066	0	474	5
158.15	.0075	0	415	5
158.15	.0092	0	341	5
158.15	.0113	0	271	5
153.15	.001	0	1235	5
153.15	.0013	0	996	5
153.15	.0016	0	878	5
153.15	.002	0	726	5
153.15	.0022	0	652	5
153.15	.0025	0	559	5
153.15	.0029	0	490	5
153.15	.0032	0	437	5
153.15	.0036	0	380	5
153.15	.005	0	270	5
153.15	.0063	0	219	5
193.15	.0645	.0307	2010	5
193.15	.068	.0306	1820	5
193.15	.0804	.0306	1488	5
193.15	.1037	.0296	1158	5
193.15	.118	.0285	836	5
193.15	.1594	.0305	633	5
193.15	.2249	.028	429	5
193.15	.3331	.0241	272	5
193.15	.0581	.0516	2195	5
193.15	.0677	.0594	1847	5
193.15	.0814	.0579	1548	5
193.15	.0966	.0566	1253	5
193.15	.114	.0562	924	5
193.15	.1632	.0527	673	5
193.15	.2338	.0486	446	5
193.15	.3365	.0514	274	5
188.15	.0427	.0349	1835	5
188.15	.049	.035	1545	5
188.15	.0636	.0344	1286	5
188.15	.0832	.0311	959	5
188.15	.1004	.0305	738	5
188.15	.1251	.0282	574	5
188.15	.1731	.0268	408	5
188.15	.2511	.0244	277	5
188.15	.0404	.0498	2055	5
188.15	.0476	.0533	1790	5
188.15	.0561	.0547	1514	5
188.15	.0618	.0516	1200	5
188.15	.0751	.0506	896	5
188.15	.1018	.0525	697	5
188.15	.1487	.0487	464	5
188.15	.2307	.0507	274	5
178.15	.0196	.0339	1640	5
178.15	.0235	.0337	1336	5
178.15	.0304	.0319	1036	5
178.15	.0367	.032	810	5
178.15	.0469	.0315	600	5
178.15	.0682	.0307	418	5
178.15	.0999	.0297	274	5
178.15	.0272	.0531	1206	5
178.15	.0326	.0533	914	5
178.15	.044	.0525	676	5
178.15	.0608	.0514	462	5
178.15	.0939	.0531	286	5
168.15	.0118	.0327	1029	5
168.15	.0142	.0346	833	5
168.15	.0176	.0347	649	5
168.15	.0277	.0348	412	5
168.15	.0408	.0305	282	5
168.15	.0178	.0516	644	5
168.15	.0224	.0506	443	5
168.15	.0325	.0481	275	5
153.15	.0065	.0308	273	5

System: methane + carbon dioxide; phases: Gas, Crystal
Property: Vapor or sublimation pressure, kPa (Gas); method: Closed cell (Static) method
Temperature, K	Mole fraction of carbon dioxide	Vapor or sublimation pressure, kPa	uncertainty
193.15	.0546	3038	5
193.15	.0526	2746	5
193.15	.0519	2418	5
193.15	.0685	1752	5
193.15	.0719	1620	5
193.15	.0811	1389	5
193.15	.1029	1051	5
193.15	.1157	921	5
193.15	.1263	803	5
193.15	.1932	533	5
193.15	.3407	284	5
188.15	.0392	2982	5
188.15	.0377	2644	5
188.15	.0375	2124	5
188.15	.0476	1841	5
188.15	.0495	1660	5
188.15	.0517	1468	5
188.15	.0639	1168	5
188.15	.0814	852	5
188.15	.1025	654	5
188.15	.1633	390	5
188.15	.2249	273	5
178.15	.0161	2183	5
178.15	.0154	1983	5
178.15	.0158	1775	5
178.15	.0222	1563	5
178.15	.0252	1305	5
178.15	.0283	1090	5
178.15	.0316	933	5
178.15	.0383	768	5
178.15	.0467	589	5
178.15	.07	397	5
178.15	.0903	278	5
168.15	.0082	1510	5
168.15	.0071	1335	5
168.15	.0091	1130	5
168.15	.0108	953	5
168.15	.0125	791	5
168.15	.0145	669	5
168.15	.017	562	5
168.15	.0209	467	5
168.15	.0252	369	5
168.15	.0331	277	5
158.15	.0048	1074	5
158.15	.0041	970	5
158.15	.0033	865	5
158.15	.0039	761	5
158.15	.0048	649	5
158.15	.0056	561	5
158.15	.0066	474	5
158.15	.0075	415	5
158.15	.0092	341	5
158.15	.0113	271	5
153.15	.001	1235	5
153.15	.0013	996	5
153.15	.0016	878	5
153.15	.002	726	5
153.15	.0022	652	5
153.15	.0025	559	5
153.15	.0029	490	5
153.15	.0032	437	5
153.15	.0036	380	5
153.15	.005	270	5
153.15	.0063	219	5
