Measured thermophysical data. Isobaric Vapor Liquid Equilibrium for the Binary Systems Dimethyl Disulfide + C1 C4 n-Alkanol at 40.000 and 101.325 kPa
Source: J. Chem. Eng. Data, 2017, 10.1021/acs.jced.7b00078
Compound 1: dimethyl disulfide, C2H6S2, purity 99.5%
Compound 2: methanol, CH4O, purity 99.8%
Compound 3: ethanol, C2H6O, purity 99.8%
Compound 4: 1-propanol, C3H8O, purity 99.8%
Compound 5: 1-butanol, C4H10O, purity 99.9%

System: dimethyl disulfide; phases: Liquid
Fixed: Pressure, kPa = 101.325
Property: Mass density, kg/m3 (Liquid); method: Vibrating tube method
Temperature, K	Mass density, kg/m3	uncertainty
303.15	1051.14	

System: dimethyl disulfide; phases: Liquid, Gas
Property: Vapor or sublimation pressure, kPa (Liquid); method: Ebulliometric method (Recirculating still)
Temperature, K	Vapor or sublimation pressure, kPa	uncertainty
353.42	40	
382.87	101.325	

System: methanol; phases: Liquid
Fixed: Pressure, kPa = 101.325
Property: Mass density, kg/m3 (Liquid); method: Vibrating tube method
Temperature, K	Mass density, kg/m3	uncertainty
303.15	781.81	

System: methanol; phases: Liquid, Gas
Property: Vapor or sublimation pressure, kPa (Liquid); method: Ebulliometric method (Recirculating still)
Temperature, K	Vapor or sublimation pressure, kPa	uncertainty
315.8	40	
337.97	101.325	

System: ethanol; phases: Liquid
Fixed: Pressure, kPa = 101.325
Property: Mass density, kg/m3 (Liquid); method: Vibrating tube method
Temperature, K	Mass density, kg/m3	uncertainty
303.15	780.78	

System: ethanol; phases: Liquid, Gas
Property: Vapor or sublimation pressure, kPa (Liquid); method: Ebulliometric method (Recirculating still)
Temperature, K	Vapor or sublimation pressure, kPa	uncertainty
329.63	40	
351.51	101.325	

System: 1-propanol; phases: Liquid
Fixed: Pressure, kPa = 101.325
Property: Mass density, kg/m3 (Liquid); method: Vibrating tube method
Temperature, K	Mass density, kg/m3	uncertainty
303.15	795.54	

System: 1-propanol; phases: Liquid, Gas
Property: Vapor or sublimation pressure, kPa (Liquid); method: Ebulliometric method (Recirculating still)
Temperature, K	Vapor or sublimation pressure, kPa	uncertainty
347.65	40	
370.23	101.325	

System: 1-butanol; phases: Liquid
Fixed: Pressure, kPa = 101.325
Property: Mass density, kg/m3 (Liquid); method: Vibrating tube method
Temperature, K	Mass density, kg/m3	uncertainty
303.15	801.92	

System: 1-butanol; phases: Liquid, Gas
Property: Vapor or sublimation pressure, kPa (Liquid); method: Ebulliometric method (Recirculating still)
Temperature, K	Vapor or sublimation pressure, kPa	uncertainty
366.81	40	
390.72	101.325	

System: dimethyl disulfide + methanol; phases: Liquid, Gas
Property: Boiling temperature at pressure P, K (Liquid); method: Ebulliometric method (Recirculating still)
Mole fraction of dimethyl disulfide	Pressure, kPa	Boiling temperature at pressure P, K	uncertainty
0	40	315.8	
.0508	40	315.3	
.0842	40	314.97	
.1472	40	314.92	
.1147	40	314.89	
.1971	40	315.01	
.239	40	315.09	
.2767	40	315.23	
.3171	40	315.36	
.39	40	315.57	
.5019	40	315.94	
.5717	40	316.35	
.6799	40	316.7	
.734	40	317.28	
.8219	40	319.21	
.8757	40	320.7	
.9129	40	323.33	
.9629	40	332.37	
.9829	40	340.05	
1	40	353.42	
0	101.325	337.97	
.0267	101.325	337.32	
.0539	101.325	337.14	
.0789	101.325	337.02	
.1215	101.325	337.05	
.2175	101.325	337.03	
.2699	101.325	337.37	
.3133	101.325	337.63	
.4138	101.325	338.06	
.5397	101.325	338.27	
.6038	101.325	338.77	
.7036	101.325	340.04	
.7417	101.325	341	
.8584	101.325	343.82	
.9149	101.325	349.18	
.9647	101.325	359.54	
.9805	101.325	366.78	
1	101.325	382.87	

System: dimethyl disulfide + methanol; phases: Gas, Liquid
Property: Mole fraction of dimethyl disulfide (Gas); method: Density calibration data
Mole fraction of dimethyl disulfide	Pressure, kPa	Mole fraction of dimethyl disulfide	uncertainty
0	40	0	
.0508	40	.0665	
.0842	40	.1007	
.1472	40	.1353	
.1147	40	.1124	
.1971	40	.1518	
.239	40	.1608	
.2767	40	.168	
.3171	40	.1746	
.39	40	.1805	
.5019	40	.193	
.5717	40	.2001	
.6799	40	.2065	
.734	40	.2146	
.8219	40	.2311	
.8757	40	.2575	
.9129	40	.2954	
.9629	40	.4509	
.9829	40	.6125	
1	40	1	
0	101.325	0	
.0267	101.325	.0389	
.0539	101.325	.0687	
.0789	101.325	.0889	
.1215	101.325	.1086	
.2175	101.325	.1501	
.2699	101.325	.1585	
.3133	101.325	.1624	
.4138	101.325	.1758	
.5397	101.325	.188	
.6038	101.325	.1955	
.7036	101.325	.208	
.7417	101.325	.2235	
.8584	101.325	.2563	
.9149	101.325	.3333	
.9647	101.325	.4812	
.9805	101.325	.6114	
1	101.325	1	

System: dimethyl disulfide + ethanol; phases: Liquid, Gas
Property: Boiling temperature at pressure P, K (Liquid); method: Ebulliometric method (Recirculating still)
Mole fraction of dimethyl disulfide	Pressure, kPa	Boiling temperature at pressure P, K	uncertainty
0	40	329.63	
.0384	40	328.9	
.0904	40	328.26	
.1234	40	327.97	
.1487	40	327.75	
.1797	40	327.61	
.2034	40	327.56	
.2458	40	327.52	
.2738	40	327.53	
.3103	40	327.55	
.3529	40	327.6	
.428	40	327.91	
.5057	40	328.21	
.5834	40	328.5	
.6472	40	328.92	
.6949	40	329.26	
.7543	40	329.61	
.8055	40	330.22	
.902	40	332.95	
.9594	40	338.23	
.9844	40	345.01	
1	40	353.42	
0	101.325	351.51	
.0426	101.325	350.77	
.0901	101.325	350.31	
.1252	101.325	350.13	
.1526	101.325	350.09	
.1886	101.325	350.17	
.2248	101.325	350.12	
.2804	101.325	350.08	
.3255	101.325	350.11	
.3545	101.325	350.13	
.4331	101.325	350.71	
.5097	101.325	351.2	
.5623	101.325	351.55	
.6163	101.325	352.02	
.6829	101.325	353.03	
.7239	101.325	353.64	
.7718	101.325	354.48	
.8783	101.325	358.77	
.9109	101.325	362.28	
.9577	101.325	369.18	
.9831	101.325	376.25	
1	101.325	382.87	

System: dimethyl disulfide + ethanol; phases: Gas, Liquid
Property: Mole fraction of dimethyl disulfide (Gas); method: Density calibration data
Mole fraction of dimethyl disulfide	Pressure, kPa	Mole fraction of dimethyl disulfide	uncertainty
0	40	0	
.0384	40	.0714	
.0904	40	.1378	
.1234	40	.172	
.1487	40	.1918	
.1797	40	.2116	
.2034	40	.229	
.2458	40	.243	
.2738	40	.2534	
.3103	40	.2655	
.3529	40	.2859	
.428	40	.3027	
.5057	40	.3281	
.5834	40	.343	
.6472	40	.347	
.6949	40	.3553	
.7543	40	.3689	
.8055	40	.3822	
.902	40	.4405	
.9594	40	.5617	
.9844	40	.7355	
1	40	1	
0	101.325	0	
.0426	101.325	.0621	
.0901	101.325	.1168	
.1252	101.325	.1456	
.1526	101.325	.1646	
.1886	101.325	.1843	
.2248	101.325	.2011	
.2804	101.325	.2203	
.3255	101.325	.2352	
.3545	101.325	.2411	
.4331	101.325	.2786	
.5097	101.325	.2838	
.5623	101.325	.2912	
.6163	101.325	.3001	
.6829	101.325	.3219	
.7239	101.325	.3361	
.7718	101.325	.3597	
.8783	101.325	.439	
.9109	101.325	.4946	
.9577	101.325	.6473	
.9831	101.325	.8066	
1	101.325	1	

System: dimethyl disulfide + 1-propanol; phases: Liquid, Gas
Property: Boiling temperature at pressure P, K (Liquid); method: Ebulliometric method (Recirculating still)
Mole fraction of dimethyl disulfide	Pressure, kPa	Boiling temperature at pressure P, K	uncertainty
0	40	347.65	
.0413	40	345.57	
.0906	40	344.11	
.1389	40	343.18	
.1868	40	342.39	
.2287	40	341.92	
.2758	40	341.53	
.3197	40	341.39	
.3701	40	341.15	
.4172	40	341.09	
.4685	40	341.06	
.5203	40	341.05	
.5815	40	341.09	
.6401	40	341.17	
.7181	40	341.51	
.7952	40	342.29	
.8527	40	343.4	
.905	40	344.74	
.9575	40	347.75	
1	40	353.42	
0	101.325	370.23	
.0362	101.325	368.93	
.0625	101.325	368.55	
.1215	101.325	367.51	
.1586	101.325	367.12	
.2095	101.325	366.62	
.2488	101.325	366.41	
.32	101.325	366.3	
.3644	101.325	366.2	
.4294	101.325	366.13	
.5	101.325	366.25	
.569	101.325	366.57	
.6112	101.325	366.78	
.6707	101.325	367.39	
.759	101.325	368.61	
.8241	101.325	370.2	
.8991	101.325	373.04	
.9458	101.325	376.44	
1	101.325	382.87	

System: dimethyl disulfide + 1-propanol; phases: Gas, Liquid
Property: Mole fraction of dimethyl disulfide (Gas); method: Density calibration data
Mole fraction of dimethyl disulfide	Pressure, kPa	Mole fraction of dimethyl disulfide	uncertainty
0	40	0	
.0413	40	.1088	
.0906	40	.2016	
.1389	40	.2703	
.1868	40	.3251	
.2287	40	.3609	
.2758	40	.3884	
.3197	40	.4118	
.3701	40	.4355	
.4172	40	.4536	
.4685	40	.47	
.5203	40	.4868	
.5815	40	.5061	
.6401	40	.5252	
.7181	40	.5516	
.7952	40	.5852	
.8527	40	.6284	
.905	40	.6822	
.9575	40	.8013	
1	40	1	
0	101.325	0	
.0362	101.325	.073	
.0625	101.325	.1171	
.1215	101.325	.1919	
.1586	101.325	.2309	
.2095	101.325	.2736	
.2488	101.325	.3018	
.32	101.325	.3422	
.3644	101.325	.3637	
.4294	101.325	.3944	
.5	101.325	.4272	
.569	101.325	.4544	
.6112	101.325	.4598	
.6707	101.325	.4978	
.759	101.325	.5458	
.8241	101.325	.5954	
.8991	101.325	.6759	
.9458	101.325	.7965	
1	101.325	1	

System: dimethyl disulfide + 1-butanol; phases: Liquid, Gas
Property: Boiling temperature at pressure P, K (Liquid); method: Ebulliometric method (Recirculating still)
Mole fraction of dimethyl disulfide	Pressure, kPa	Boiling temperature at pressure P, K	uncertainty
0	40	366.81	
.0252	40	364.38	
.0886	40	359.99	
.1402	40	357.82	
.1782	40	356.43	
.2347	40	354.91	
.2829	40	354.18	
.3194	40	353.54	
.3902	40	352.59	
.4493	40	351.99	
.5166	40	351.59	
.5689	40	351.21	
.6252	40	351.02	
.6872	40	350.85	
.7795	40	350.75	
.8488	40	351	
.9005	40	351.4	
.9659	40	352.31	
1	40	353.42	
0	101.325	390.72	
.0727	101.325	386.91	
.2118	101.325	382.65	
.1388	101.325	384.86	
.2517	101.325	381.82	
.3028	101.325	380.88	
.3767	101.325	380.02	
.4267	101.325	379.28	
.4746	101.325	378.91	
.5197	101.325	378.77	
.5663	101.325	378.64	
.6071	101.325	378.54	
.6335	101.325	378.45	
.6939	101.325	378.36	
.7365	101.325	378.44	
.7784	101.325	378.79	
.811	101.325	378.96	
.8427	101.325	379.24	
.8774	101.325	379.7	
.9142	101.325	380.28	
.9563	101.325	381.34	
1	101.325	382.87	

System: dimethyl disulfide + 1-butanol; phases: Gas, Liquid
Property: Mole fraction of dimethyl disulfide (Gas); method: Density calibration data
Mole fraction of dimethyl disulfide	Pressure, kPa	Mole fraction of dimethyl disulfide	uncertainty
0	40	0	
.0252	40	.1178	
.0886	40	.3058	
.1402	40	.3963	
.1782	40	.4483	
.2347	40	.5111	
.2829	40	.5464	
.3194	40	.5743	
.3902	40	.6077	
.4493	40	.6399	
.5166	40	.6579	
.5689	40	.6714	
.6252	40	.6914	
.6872	40	.7288	
.7795	40	.7743	
.8488	40	.8098	
.9005	40	.8604	
.9659	40	.9385	
1	40	1	
0	101.325	0	
.0727	101.325	.1909	
.2118	101.325	.3921	
.1388	101.325	.3042	
.2517	101.325	.434	
.3028	101.325	.4756	
.3767	101.325	.5302	
.4267	101.325	.5559	
.4746	101.325	.5816	
.5197	101.325	.6035	
.5663	101.325	.6296	
.6071	101.325	.637	
.6335	101.325	.6604	
.6939	101.325	.6884	
.7365	101.325	.7116	
.7784	101.325	.7358	
.811	101.325	.7578	
.8427	101.325	.7797	
.8774	101.325	.8096	
.9142	101.325	.8539	
.9563	101.325	.9081	
1	101.325	1	
