Measured thermophysical data. Influence of the Salting-Out Ability and Temperature on the Liquid Liquid Equilibria of Aqueous Two-Phase Systems Based on Ionic Liquid Organic Salts Water
Source: J. Chem. Eng. Data, 2016, 10.1021/acs.jced.5b00657
Compound 1: 1-butylpyridinium triflate, C10H14F3NO3S, purity 99%
Compound 2: triammonium citrate, C6H17N3O7, purity 99%
Compound 3: disodium succinate, C4H4Na2O4, purity 99%
Compound 4: water, H2O

System: triammonium citrate + water + 1-butylpyridinium triflate; phases: Liquid mixture 1, Liquid mixture 2
Fixed: Pressure, kPa = 100
Property: Mass fraction of triammonium citrate (Liquid mixture 1); method: Titration method
Temperature, K	Mass fraction of 1-butylpyridinium triflate	Mass fraction of triammonium citrate	uncertainty
298.15	.6472	.0164	.001
298.15	.6309	.0191	.001
298.15	.6069	.0214	.001
298.15	.593	.0221	.001
298.15	.5666	.0248	.001
298.15	.5524	.0256	.001
298.15	.534	.0282	.001
298.15	.5084	.0312	.001
298.15	.496	.0327	.001
298.15	.4815	.0331	.001
298.15	.4716	.0352	.001
298.15	.4544	.0367	.001
298.15	.4438	.0386	.001
298.15	.42	.0421	.001
298.15	.4043	.0443	.001
298.15	.3919	.0462	.001
298.15	.3821	.0478	.001
298.15	.3769	.0488	.001
298.15	.3663	.0508	.001
298.15	.3574	.0523	.001
298.15	.3491	.0543	.001
298.15	.34	.0557	.001
298.15	.3292	.0587	.001
298.15	.3196	.0608	.001
298.15	.3087	.0637	.001
298.15	.3016	.0649	.001
298.15	.2842	.0695	.001
298.15	.2821	.071	.001
298.15	.2731	.0737	.001
298.15	.2663	.0756	.001
298.15	.2603	.0778	.001
298.15	.2531	.08	.001
298.15	.2484	.0819	.001
298.15	.2417	.0843	.001
298.15	.2357	.0862	.001
298.15	.232	.088	.001
298.15	.225	.0908	.001
298.15	.22	.0915	.001
298.15	.2168	.0942	.001
298.15	.206	.0984	.001
298.15	.2015	.1011	.001
298.15	.1945	.1045	.001
298.15	.1899	.1068	.001
298.15	.1839	.1098	.001
298.15	.1796	.1123	.001
298.15	.1747	.115	.001
298.15	.1706	.1174	.001
298.15	.1653	.1201	.001
298.15	.1624	.1223	.001
298.15	.1577	.1253	.001
298.15	.154	.1277	.001
298.15	.1494	.1304	.001
298.15	.1426	.1356	.001
298.15	.1385	.1386	.001
298.15	.135	.1413	.001
298.15	.1309	.1441	.001
298.15	.1263	.1482	.001
298.15	.1215	.1523	.001
298.15	.1168	.1552	.001
298.15	.1131	.1598	.001
298.15	.1088	.1639	.001
298.15	.1065	.1659	.001
298.15	.1034	.1684	.001
298.15	.1017	.171	.001
298.15	.0984	.1745	.001
298.15	.0944	.1802	.001
298.15	.0919	.1831	.001
298.15	.0882	.1861	.001
298.15	.086	.189	.001
298.15	.0846	.1924	.001
298.15	.0812	.1963	.001
298.15	.0801	.1994	.001
298.15	.077	.2035	.001
298.15	.0748	.2079	.001
298.15	.0714	.2129	.001
298.15	.0689	.2181	.001
298.15	.068	.2236	.001
298.15	.0658	.2274	.001
298.15	.4323	.0393	.001
298.15	.294	.0676	.001
298.15	.2113	.0966	.001
298.15	.1461	.1331	.001
298.15	.0966	.1772	.001
318.15	.5864	.0256	.001
318.15	.5677	.027	.001
318.15	.5494	.0292	.001
318.15	.513	.0333	.001
318.15	.4795	.0371	.001
318.15	.4625	.038	.001
318.15	.4527	.0398	.001
318.15	.4363	.0415	.001
318.15	.4228	.0437	.001
318.15	.4121	.0455	.001
318.15	.4003	.0476	.001
318.15	.3641	.0546	.001
318.15	.3625	.0549	.001
318.15	.3562	.0563	.001
318.15	.3478	.0581	.001
318.15	.3429	.0592	.001
318.15	.3358	.0609	.001
318.15	.323	.0641	.001
318.15	.3106	.0673	.001
318.15	.3056	.0687	.001
318.15	.3019	.0697	.001
318.15	.2977	.0709	.001
318.15	.2963	.0713	.001
318.15	.2876	.0739	.001
318.15	.2663	.0808	.001
318.15	.2633	.0819	.001
318.15	.2615	.0825	.001
318.15	.258	.0837	.001
318.15	.2557	.0845	.001
318.15	.2546	.0849	.001
318.15	.2434	.0884	.001
318.15	.2401	.0891	.001
318.15	.2382	.0907	.001
318.15	.2361	.091	.001
318.15	.2337	.0914	.001
318.15	.2326	.0919	.001
318.15	.2307	.0925	.001
318.15	.2296	.0934	.001
318.15	.2275	.0938	.001
318.15	.226	.094	.001
318.15	.225	.0945	.001
318.15	.2242	.0952	.001
318.15	.2211	.0967	.001
318.15	.2167	.098	.001
318.15	.2152	.0983	.001
318.15	.2141	.099	.001
318.15	.2125	.0993	.001
318.15	.2111	.1005	.001
318.15	.2091	.1007	.001
318.15	.2077	.1016	.001
318.15	.2062	.1016	.001
318.15	.2054	.102	.001
318.15	.2045	.1025	.001
318.15	.2032	.1027	.001
318.15	.2018	.1036	.001
318.15	.2008	.1039	.001
318.15	.1986	.1051	.001
318.15	.198	.1064	.001
318.15	.1933	.1086	.001
318.15	.1928	.1089	.001
318.15	.1895	.1105	.001
318.15	.1887	.1109	.001
318.15	.1872	.1116	.001
318.15	.1867	.1119	.001
318.15	.1865	.112	.001
318.15	.1853	.1126	.001
318.15	.1845	.113	.001
318.15	.1826	.114	.001
318.15	.1786	.1162	.001
318.15	.1782	.1164	.001
318.15	.1756	.1178	.001
318.15	.1749	.1182	.001
318.15	.1747	.1183	.001
318.15	.1744	.1185	.001
318.15	.1742	.1186	.001
318.15	.1735	.119	.001
318.15	.1725	.1195	.001
318.15	.1724	.1196	.001
318.15	.1716	.1201	.001
318.15	.1713	.1202	.001
318.15	.1712	.1203	.001
318.15	.1702	.1209	.001
318.15	.17	.121	.001
318.15	.1694	.1213	.001
318.15	.1682	.122	.001
318.15	.1678	.1223	.001
318.15	.1676	.1224	.001
318.15	.1668	.1229	.001
318.15	.1668	.1229	.001
318.15	.1661	.1233	.001
318.15	.1645	.1243	.001
318.15	.1642	.1245	.001
318.15	.1638	.1247	.001
318.15	.1634	.125	.001
318.15	.1628	.1253	.001
318.15	.1624	.1255	.001
318.15	.1613	.1263	.001
318.15	.1612	.1263	.001
318.15	.161	.1265	.001
318.15	.1604	.1268	.001
318.15	.1591	.1277	.001
318.15	.1589	.1278	.001
318.15	.1587	.1279	.001
318.15	.1572	.1289	.001
318.15	.156	.1297	.001
318.15	.1556	.13	.001
318.15	.1537	.1312	.001
318.15	.1537	.1313	.001
318.15	.1514	.1328	.001
318.15	.1505	.1335	.001
318.15	.1495	.1341	.001
318.15	.1469	.136	.001
318.15	.1451	.1373	.001
318.15	.1416	.1399	.001
318.15	.1379	.1429	.001
318.15	.1363	.1441	.001
318.15	.135	.1452	.001
318.15	.1334	.1466	.001
318.15	.1325	.1473	.001
318.15	.1319	.1478	.001
318.15	.127	.1521	.001
318.15	.1257	.1533	.001
318.15	.1252	.1538	.001
318.15	.124	.1549	.001
318.15	.1236	.1553	.001
318.15	.1222	.1566	.001
318.15	.1218	.157	.001
318.15	.12	.1587	.001
318.15	.1186	.1601	.001
318.15	.1179	.1608	.001
318.15	.1167	.162	.001
318.15	.1149	.1639	.001
318.15	.1125	.1664	.001
318.15	.1124	.1666	.001
318.15	.1106	.1685	.001
318.15	.1093	.17	.001
318.15	.108	.1715	.001
318.15	.1061	.1736	.001
318.15	.1055	.1744	.001
318.15	.1038	.1764	.001
318.15	.1023	.1783	.001
318.15	.1022	.1784	.001
318.15	.1005	.1806	.001
318.15	.0994	.1821	.001
318.15	.0988	.1828	.001
318.15	.0979	.1841	.001
318.15	.0963	.1862	.001
318.15	.0951	.1879	.001
318.15	.0943	.189	.001
318.15	.0933	.1904	.001
318.15	.0894	.1962	.001
318.15	.088	.1985	.001
318.15	.0866	.2008	.001
318.15	.0851	.2016	.001
318.15	.0844	.2026	.001
318.15	.0831	.2046	.001
318.15	.081	.2078	.001
318.15	.0794	.2092	.001
318.15	.0786	.212	.001
318.15	.0767	.2153	.001
318.15	.0761	.2158	.001
318.15	.0745	.2185	.001
318.15	.0726	.2226	.001
318.15	.0711	.2282	.001
318.15	.0684	.233	.001
318.15	.0663	.2377	.001
318.15	.0638	.2411	.001
318.15	.0633	.2455	.001
318.15	.0592	.252	.001
318.15	.058	.2628	.001
318.15	.0539	.2734	.001
318.15	.0502	.2785	.001
318.15	.0472	.2981	.001
318.15	.0432	.3257	.001
318.15	.0327	.3674	.001
318.15	.0292	.3952	.001
318.15	.0217	.4181	.001
318.15	.0205	.4695	.001
318.15	.2481	.0874	.001
318.15	.2461	.0881	.001
318.15	.1924	.1091	.001
318.15	.1906	.1099	.001
318.15	.1652	.1239	.001
318.15	.1648	.1241	.001
318.15	.13	.1494	.001
318.15	.1294	.15	.001
318.15	.0918	.1926	.001
318.15	.0914	.1932	.001
328.15	.8184	.0138	.001
328.15	.7818	.0155	.001
328.15	.7677	.0162	.001
328.15	.7467	.0171	.001
328.15	.7235	.0186	.001
328.15	.7133	.0192	.001
328.15	.7007	.0198	.001
328.15	.692	.0203	.001
328.15	.6782	.0214	.001
328.15	.6592	.0227	.001
328.15	.6411	.024	.001
328.15	.6292	.0249	.001
328.15	.6152	.0258	.001
328.15	.6034	.0266	.001
328.15	.5901	.0281	.001
328.15	.5777	.0292	.001
328.15	.5591	.0306	.001
328.15	.5434	.0325	.001
328.15	.5309	.0338	.001
328.15	.5179	.0358	.001
328.15	.5057	.0366	.001
328.15	.4907	.0383	.001
328.15	.4854	.0393	.001
328.15	.4739	.0405	.001
328.15	.4649	.0419	.001
328.15	.4605	.0424	.001
328.15	.4518	.0435	.001
328.15	.4439	.0444	.001
328.15	.4341	.0453	.001
328.15	.4254	.0466	.001
328.15	.4128	.0485	.001
328.15	.403	.0497	.001
328.15	.3968	.0507	.001
328.15	.3879	.0526	.001
328.15	.38	.0544	.001
328.15	.3691	.0561	.001
328.15	.3668	.0566	.001
328.15	.3618	.0578	.001
328.15	.3562	.0599	.001
328.15	.3498	.0614	.001
328.15	.3427	.0632	.001
328.15	.3338	.065	.001
328.15	.3234	.0675	.001
328.15	.3203	.0687	.001
328.15	.3085	.0708	.001
328.15	.2975	.0743	.001
328.15	.2908	.0762	.001
328.15	.2854	.0778	.001
328.15	.2763	.0811	.001
328.15	.2719	.082	.001
328.15	.2637	.0847	.001
328.15	.2567	.0871	.001
328.15	.2503	.0894	.001
328.15	.2427	.0924	.001
328.15	.237	.0939	.001
328.15	.2312	.0957	.001
328.15	.2256	.098	.001
328.15	.2219	.1007	.001
328.15	.2174	.1023	.001
328.15	.2107	.1042	.001
328.15	.2081	.1054	.001
328.15	.2042	.1071	.001
328.15	.1983	.1119	.001
328.15	.1946	.1138	.001
328.15	.1936	.1151	.001
328.15	.1869	.1182	.001
328.15	.1835	.1205	.001
328.15	.1766	.124	.001
328.15	.1732	.1261	.001
328.15	.1665	.1304	.001
328.15	.1588	.1356	.001
328.15	.158	.1362	.001
328.15	.1541	.138	.001
328.15	.1487	.1431	.001
328.15	.1474	.1441	.001
328.15	.1425	.148	.001
328.15	.1396	.1504	.001
328.15	.1377	.152	.001
328.15	.1347	.1546	.001
328.15	.1298	.159	.001
328.15	.1295	.1593	.001
328.15	.1258	.1628	.001
328.15	.1217	.1669	.001
328.15	.1184	.1703	.001
328.15	.116	.1728	.001
328.15	.1145	.1747	.001
328.15	.1112	.178	.001
328.15	.1079	.182	.001
328.15	.1078	.1821	.001
328.15	.1038	.187	.001
328.15	.1032	.1877	.001
328.15	.1003	.1914	.001
328.15	.0967	.1962	.001
328.15	.0925	.2022	.001
328.15	.0907	.2087	.001
328.15	.0831	.2167	.001
328.15	.0782	.2251	.001
328.15	.0782	.2251	.001
328.15	.074	.2329	.001
328.15	.0719	.2426	.001
328.15	.0643	.2531	.001
328.15	.0621	.2665	.001
328.15	.0588	.2772	.001

System: triammonium citrate + water + 1-butylpyridinium triflate; phases: Liquid mixture 1, Liquid mixture 2
Fixed: Pressure, kPa = 100
Property: Mass fraction of triammonium citrate (Liquid mixture 1); method: UV spectrometer
Property: Mass fraction of 1-butylpyridinium triflate (Liquid mixture 2); method: UV spectrometer
Property: Mass fraction of triammonium citrate (Liquid mixture 2); method: UV spectrometer
Temperature, K	Mass fraction of 1-butylpyridinium triflate	Mass fraction of triammonium citrate	uncertainty	Mass fraction of 1-butylpyridinium triflate	uncertainty	Mass fraction of triammonium citrate	uncertainty
298.15	.1941	.1049	.001	.4031	.001	.0442	.001
328.15	.1252	.1634	.001	.3704	.001	.0568	.001
328.15	.116	.173	.001	.3928	.001	.0526	.001
328.15	.1098	.1802	.001	.4103	.001	.0496	.001
328.15	.1019	.1901	.001	.4337	.001	.0459	.001
298.15	.1821	.1112	.001	.4239	.001	.0409	.001
298.15	.1742	.1156	.001	.4388	.001	.0387	.001
298.15	.1653	.1209	.001	.4562	.001	.0363	.001
298.15	.1508	.1303	.001	.4874	.001	.0324	.001
318.15	.1293	.1517	.001	.4178	.001	.0452	.001
318.15	.1176	.1629	.001	.4488	.001	.0407	.001
318.15	.1114	.1695	.001	.467	.001	.0383	.001
318.15	.1045	.1773	.001	.4882	.001	.0357	.001
318.15	.0984	.1849	.001	.5094	.001	.0333	.001
328.15	.1374	.1521	.001	.344	.001	.0623	.001

System: disodium succinate + water + 1-butylpyridinium triflate; phases: Liquid mixture 1, Liquid mixture 2
Fixed: Pressure, kPa = 100
Property: Mass fraction of disodium succinate (Liquid mixture 1); method: Titration method
Temperature, K	Mass fraction of 1-butylpyridinium triflate	Mass fraction of disodium succinate	uncertainty
298.15	.7278	.0081	.001
298.15	.6505	.0101	.001
298.15	.5937	.0128	.001
298.15	.5558	.0138	.001
298.15	.5334	.016	.001
298.15	.5071	.0177	.001
298.15	.4886	.0197	.001
298.15	.4669	.0209	.001
298.15	.4521	.0225	.001
298.15	.434	.024	.001
298.15	.4165	.0255	.001
298.15	.4049	.0267	.001
298.15	.3943	.0278	.001
298.15	.3851	.029	.001
298.15	.3803	.0296	.001
298.15	.371	.0308	.001
298.15	.3654	.0316	.001
298.15	.3577	.0327	.001
298.15	.352	.0335	.001
298.15	.3471	.0342	.001
298.15	.3424	.035	.001
298.15	.332	.0366	.001
298.15	.3276	.0374	.001
298.15	.3229	.0382	.001
298.15	.3193	.0388	.001
298.15	.315	.0396	.001
298.15	.3111	.0403	.001
298.15	.3072	.041	.001
298.15	.3032	.0418	.001
298.15	.299	.0426	.001
298.15	.2962	.0431	.001
298.15	.2913	.0441	.001
298.15	.2888	.0446	.001
298.15	.2855	.0453	.001
298.15	.2831	.0459	.001
298.15	.282	.0461	.001
298.15	.2804	.0464	.001
298.15	.28	.0465	.001
298.15	.2773	.0471	.001
298.15	.274	.0479	.001
298.15	.2725	.0482	.001
298.15	.2665	.0496	.001
298.15	.2644	.0501	.001
298.15	.262	.0507	.001
298.15	.2617	.0508	.001
298.15	.2604	.0511	.001
298.15	.259	.0514	.001
298.15	.2581	.0517	.001
298.15	.2519	.0532	.001
298.15	.2495	.0539	.001
298.15	.2477	.0543	.001
298.15	.2458	.0549	.001
298.15	.2437	.0554	.001
298.15	.2414	.0561	.001
298.15	.2384	.0569	.001
298.15	.2356	.0577	.001
298.15	.2326	.0586	.001
298.15	.2326	.0586	.001
298.15	.2325	.0586	.001
298.15	.2308	.0591	.001
298.15	.2299	.0594	.001
298.15	.2284	.0598	.001
298.15	.227	.0603	.001
298.15	.2219	.0632	.001
298.15	.2142	.0651	.001
298.15	.208	.0668	.001
298.15	.2041	.068	.001
298.15	.2001	.0693	.001
298.15	.1951	.0707	.001
298.15	.1912	.0721	.001
298.15	.1866	.0736	.001
298.15	.1832	.0748	.001
298.15	.1804	.0757	.001
298.15	.178	.0767	.001
298.15	.1756	.0778	.001
298.15	.1721	.0791	.001
298.15	.1689	.0805	.001
298.15	.1637	.0828	.001
298.15	.1614	.0838	.001
298.15	.1582	.0851	.001
298.15	.1551	.0865	.001
298.15	.1521	.0882	.001
298.15	.1505	.0894	.001
298.15	.1482	.0906	.001
298.15	.1463	.0925	.001
298.15	.1419	.0938	.001
298.15	.139	.0958	.001
298.15	.1366	.0972	.001
298.15	.1348	.099	.001
298.15	.1325	.1003	.001
298.15	.13	.1017	.001
298.15	.1291	.1027	.001
298.15	.1264	.1051	.001
298.15	.1266	.1061	.001
298.15	.1263	.1063	.001
298.15	.1253	.1071	.001
298.15	.1242	.1079	.001
298.15	.1225	.1087	.001
298.15	.1219	.1092	.001
298.15	.1207	.11	.001
298.15	.1181	.1104	.001
298.15	.1185	.1112	.001
298.15	.1165	.113	.001
298.15	.1161	.1137	.001
298.15	.1145	.1158	.001
298.15	.113	.1168	.001
298.15	.1098	.1192	.001
298.15	.1091	.1203	.001
298.15	.1075	.1218	.001
298.15	.106	.1231	.001
298.15	.1042	.1252	.001
298.15	.1022	.1268	.001
298.15	.1015	.1287	.001
298.15	.0983	.1306	.001
298.15	.0973	.1319	.001
298.15	.0955	.1334	.001
298.15	.0935	.135	.001
298.15	.0923	.137	.001
298.15	.0907	.1391	.001
298.15	.089	.1404	.001
298.15	.0878	.1416	.001
298.15	.0838	.1454	.001
298.15	.0819	.1475	.001
298.15	.0801	.1515	.001
298.15	.0779	.1539	.001
298.15	.073	.1572	.001
298.15	.0672	.1628	.001
298.15	.066	.167	.001
298.15	.0632	.1701	.001
298.15	.0615	.1749	.001
298.15	.0591	.1813	.001
298.15	.0566	.187	.001
298.15	.0538	.1924	.001
298.15	.05	.1994	.001
298.15	.0473	.2033	.001
298.15	.0463	.2139	.001
298.15	.0417	.2241	.001
298.15	.0354	.2308	.001
298.15	.0314	.238	.001
318.15	.7335	.011	.001
318.15	.7023	.0127	.001
318.15	.6446	.0164	.001
318.15	.604	.0195	.001
318.15	.5728	.0222	.001
318.15	.5368	.0257	.001
318.15	.5118	.0284	.001
318.15	.4913	.0308	.001
318.15	.4751	.0328	.001
318.15	.4576	.0351	.001
318.15	.4424	.0372	.001
318.15	.43	.039	.001
318.15	.4167	.041	.001
318.15	.4045	.0429	.001
318.15	.3946	.0445	.001
318.15	.3762	.0476	.001
318.15	.3615	.0502	.001
318.15	.348	.0527	.001
318.15	.3333	.0555	.001
318.15	.3232	.0577	.001
318.15	.3109	.0602	.001
318.15	.3014	.0626	.001
318.15	.2944	.0638	.001
318.15	.2852	.066	.001
318.15	.2771	.0678	.001
318.15	.2696	.07	.001
318.15	.2619	.0716	.001
318.15	.2546	.0738	.001
318.15	.248	.0752	.001
318.15	.2418	.077	.001
318.15	.2362	.0787	.001
318.15	.2282	.081	.001
318.15	.2247	.0819	.001
318.15	.2161	.0849	.001
318.15	.206	.089	.001
318.15	.1959	.0937	.001
318.15	.1901	.0963	.001
318.15	.1877	.0975	.001
318.15	.1834	.0995	.001
318.15	.1798	.1013	.001
318.15	.1746	.104	.001
318.15	.1709	.106	.001
318.15	.1662	.1086	.001
318.15	.1615	.1114	.001
318.15	.1605	.112	.001
318.15	.1566	.1144	.001
318.15	.1517	.1176	.001
318.15	.1489	.1195	.001
318.15	.1469	.1209	.001
318.15	.1444	.1227	.001
318.15	.1417	.1247	.001
318.15	.139	.1267	.001
318.15	.1344	.1304	.001
318.15	.131	.1333	.001
318.15	.1276	.1363	.001
318.15	.125	.1386	.001
318.15	.1218	.1417	.001
318.15	.1194	.1441	.001
318.15	.1192	.1446	.001
318.15	.1158	.1479	.001
318.15	.1124	.1516	.001
318.15	.1087	.156	.001
318.15	.105	.1602	.001
318.15	.1032	.1624	.001
318.15	.0985	.1679	.001
318.15	.0958	.172	.001
318.15	.0912	.1789	.001
318.15	.0873	.1862	.001
318.15	.0825	.1945	.001
318.15	.078	.2023	.001
328.15	.8242	.0105	.001
328.15	.7697	.0125	.001
328.15	.7045	.0166	.001
328.15	.6495	.0223	.001
328.15	.5983	.027	.001
328.15	.5653	.0307	.001
328.15	.546	.0342	.001
328.15	.5291	.0365	.001
328.15	.5072	.0389	.001
328.15	.4938	.0409	.001
328.15	.4723	.0444	.001
328.15	.4469	.0488	.001
328.15	.4394	.0502	.001
328.15	.425	.053	.001
328.15	.4103	.056	.001
328.15	.4026	.0577	.001
328.15	.3996	.0583	.001
328.15	.3788	.0631	.001
328.15	.3754	.0639	.001
328.15	.3714	.0649	.001
328.15	.3668	.066	.001
328.15	.3601	.0677	.001
328.15	.3536	.0694	.001
328.15	.3485	.0707	.001
328.15	.3422	.0725	.001
328.15	.3403	.073	.001
328.15	.3333	.0749	.001
328.15	.3232	.0778	.001
328.15	.3162	.0799	.001
328.15	.3135	.0807	.001
328.15	.3125	.0811	.001
328.15	.3097	.0819	.001
328.15	.3054	.0833	.001
328.15	.3037	.0838	.001
328.15	.2989	.0853	.001
328.15	.2965	.0861	.001
328.15	.2909	.0872	.001
328.15	.2816	.0906	.001
328.15	.2784	.0918	.001
328.15	.2752	.093	.001
328.15	.2717	.0944	.001
328.15	.2701	.095	.001
328.15	.2676	.096	.001
328.15	.2659	.0967	.001
328.15	.2643	.0973	.001
328.15	.2634	.0977	.001
328.15	.261	.0987	.001
328.15	.2611	.1003	.001
328.15	.2584	.1009	.001
328.15	.2565	.1015	.001
328.15	.2548	.1021	.001
328.15	.2528	.1035	.001
328.15	.2498	.1043	.001
328.15	.247	.1048	.001
328.15	.2451	.1056	.001
328.15	.2428	.1067	.001
328.15	.2405	.1074	.001
328.15	.237	.1084	.001
328.15	.2355	.1085	.001
328.15	.2338	.1096	.001
328.15	.2319	.1109	.001
328.15	.2301	.1112	.001
328.15	.2284	.1118	.001
328.15	.2268	.1123	.001
328.15	.2251	.113	.001
328.15	.2228	.1143	.001
328.15	.221	.115	.001
328.15	.2195	.1158	.001
328.15	.2174	.1162	.001
328.15	.2159	.1167	.001
328.15	.2139	.1177	.001
328.15	.2118	.1193	.001
328.15	.21	.1197	.001
328.15	.2082	.1205	.001
328.15	.2068	.1208	.001
328.15	.2052	.1217	.001
328.15	.2039	.1226	.001
328.15	.2021	.1235	.001
328.15	.2003	.1246	.001
328.15	.1982	.1259	.001
328.15	.1967	.1265	.001
328.15	.1954	.1274	.001
328.15	.1935	.1283	.001
328.15	.1927	.1286	.001
328.15	.1911	.1294	.001
328.15	.1897	.1304	.001
328.15	.188	.1315	.001
328.15	.1868	.1324	.001
328.15	.1853	.1329	.001
328.15	.182	.1338	.001
328.15	.1839	.1338	.001
328.15	.1804	.1349	.001
328.15	.1791	.1362	.001
328.15	.1774	.1373	.001
328.15	.1759	.1382	.001
328.15	.1746	.1391	.001
328.15	.1726	.1404	.001
328.15	.1712	.1414	.001
328.15	.1697	.1426	.001
328.15	.1665	.144	.001
328.15	.1672	.1445	.001
328.15	.165	.1453	.001
328.15	.1629	.1474	.001
328.15	.1621	.1478	.001
328.15	.1604	.1493	.001
328.15	.1587	.1504	.001
328.15	.1578	.1513	.001
328.15	.1565	.1522	.001
328.15	.1544	.1539	.001
328.15	.1529	.1553	.001
328.15	.1508	.1571	.001
328.15	.1492	.1585	.001
328.15	.1458	.1625	.001
328.15	.144	.1637	.001
328.15	.1416	.1658	.001
328.15	.1397	.168	.001
328.15	.1385	.169	.001
328.15	.1363	.1713	.001
328.15	.135	.1727	.001
328.15	.1323	.1756	.001
328.15	.1302	.1778	.001
328.15	.1288	.1794	.001
328.15	.1272	.1813	.001
328.15	.1257	.183	.001
328.15	.1242	.1848	.001
328.15	.1227	.1868	.001
328.15	.1216	.1878	.001

System: disodium succinate + water + 1-butylpyridinium triflate; phases: Liquid mixture 2, Liquid mixture 1
Fixed: Pressure, kPa = 100
Property: Mass fraction of disodium succinate (Liquid mixture 2); method: UV spectrometer
Property: Mass fraction of 1-butylpyridinium triflate (Liquid mixture 1); method: UV spectrometer
Property: Mass fraction of disodium succinate (Liquid mixture 1); method: UV spectrometer
Temperature, K	Mass fraction of 1-butylpyridinium triflate	Mass fraction of disodium succinate	uncertainty	Mass fraction of 1-butylpyridinium triflate	uncertainty	Mass fraction of disodium succinate	uncertainty
298.15	.6762	.009	.001	.09	.001	.1372	.001
298.15	.7035	.008	.001	.0847	.001	.1433	.001
298.15	.7152	.0076	.001	.083	.001	.1454	.001
318.15	.6913	.0141	.001	.1108	.001	.1515	.001
318.15	.6786	.0148	.001	.115	.001	.1479	.001
318.15	.7145	.0129	.001	.1047	.001	.157	.001
318.15	.7046	.0134	.001	.1076	.001	.1544	.001
318.15	.6664	.0155	.001	.1183	.001	.1452	.001
328.15	.7168	.0166	.001	.1531	.001	.1593	.001
328.15	.7985	.0118	.001	.126	.001	.1819	.001
328.15	.732	.0156	.001	.1477	.001	.1635	.001
328.15	.7777	.0129	.001	.1322	.001	.1764	.001
328.15	.7565	.0141	.001	.1392	.001	.1704	.001
298.15	.6868	.0086	.001	.0882	.001	.1392	.001
298.15	.695	.0083	.001	.0864	.001	.1413	.001
