Measured thermophysical data. Phase Equilibria of the NaOH-NaBO2-Na2CO3-H2O System at 30 deg C, 60 deg C, and 100 deg C
Source: J. Chem. Eng. Data, 2015, 10.1021/acs.jced.5b00443
Compound 1: sodium hydroxide, HNaO, purity 98.0%
Compound 2: sodium carbonate, CNa2O3, purity 99.8%
Compound 3: sodium metaborate, BNaO2, purity 99%
Compound 4: water, H2O

System: sodium carbonate + water + sodium metaborate; phases: Liquid, Crystal of intercomponent compound 1
Fixed: Pressure, kPa = 101
Property: Mass fraction of sodium carbonate (Liquid); method: titration + spectroscopy
Temperature, K	Mass fraction of sodium metaborate	Mass fraction of sodium carbonate	uncertainty
303.15	.1253	.1959	.01
333.15	.2987	.1203	.01
373.15	.5056	.0434	.01

System: sodium hydroxide + water + sodium metaborate; phases: Liquid, Crystal of intercomponent compound 1
Fixed: Pressure, kPa = 101
Property: Mass fraction of sodium metaborate (Liquid); method: titration + spectroscopy
Temperature, K	Mass fraction of sodium hydroxide	Mass fraction of sodium metaborate	uncertainty
303.15	.3954	.0585	.01
333.15	.3799	.095	.01
373.15	.4985	.0342	.01

System: sodium hydroxide + water + sodium metaborate; phases: Liquid, Crystal of intercomponent compound 2
Fixed: Pressure, kPa = 101.325
Property: Mass fraction of sodium metaborate (Liquid); method: titration + spectroscopy
Temperature, K	Mass fraction of sodium hydroxide	Mass fraction of sodium metaborate	uncertainty
303.15	.1954	.1	.01
333.15	.3753	.1027	.01
373.15	.1291	.391	.01

System: sodium carbonate + sodium hydroxide + water; phases: Liquid, Crystal of intercomponent compound 2
Fixed: Pressure, kPa = 100
Property: Mass fraction of water (Liquid); method: titration + spectroscopy
Temperature, K	Mass fraction of sodium hydroxide	Mass fraction of water	uncertainty
303.15	.5126	.031	.01
333.15	.5921	.026	.01
373.15	.723	.0153	.01

System: sodium carbonate + sodium hydroxide + water; phases: Liquid, Crystal of intercomponent compound 2
Fixed: Pressure, kPa = 100
Property: Mass fraction of water (Liquid); method: titration + spectroscopy
Temperature, K	Mass fraction of sodium hydroxide	Mass fraction of water	uncertainty
303.15	.5126	.031	.01
333.15	.5921	.026	.01
373.15	.723	.0153	.01
