Measured thermophysical data. Measurements and Thermodynamic Models for the Separation of 2-Methoxyethanol and Water Azeotropic Mixtures via Different Solvents
Source: J. Chem. Eng. Data, 2017, 10.1021/acs.jced.7b00160
Compound 1: 2-methoxyethanol, C3H8O2, purity 99.4%
Compound 2: methyl tert-butyl ether, C5H12O, purity 99.5%
Compound 3: ethyl acetate, C4H8O2, purity 99.5%
Compound 4: trichloromethane, CHCl3, purity 99.4%
Compound 5: dichloromethane, CH2Cl2, purity 99.3%
Compound 6: water, H2O, purity 99.9%

System: 2-methoxyethanol + methyl tert-butyl ether + water; phases: Liquid mixture 1, Liquid mixture 2
Fixed: Pressure, kPa = 101
Property: Mass fraction of water (Liquid mixture 1); method: Chromatography
Property: Mass fraction of water (Liquid mixture 2); method: Chromatography
Property: Mass fraction of 2-methoxyethanol (Liquid mixture 2); method: Chromatography
Temperature, K	Mass fraction of 2-methoxyethanol	Mass fraction of water	uncertainty	Mass fraction of water	uncertainty	Mass fraction of 2-methoxyethanol	uncertainty
313.15	0	.016	.01	.9538	.01	0	.01
313.15	.0052	.0173	.01	.9034	.01	.0465	.01
313.15	.0171	.0216	.01	.8165	.01	.1264	.01
313.15	.0301	.0225	.01	.7468	.01	.1915	.01
313.15	.0468	.0237	.01	.6758	.01	.2541	.01
313.15	.0589	.0287	.01	.6316	.01	.2901	.01
313.15	.0749	.0302	.01	.5905	.01	.325	.01
313.15	.0917	.0323	.01	.5544	.01	.3512	.01

System: 2-methoxyethanol + ethyl acetate + water; phases: Liquid mixture 2, Liquid mixture 1
Fixed: Pressure, kPa = 101
Property: Mass fraction of 2-methoxyethanol (Liquid mixture 2); method: Chromatography
Property: Mass fraction of 2-methoxyethanol (Liquid mixture 1); method: Chromatography
Property: Mass fraction of water (Liquid mixture 1); method: Chromatography
Temperature, K	Mass fraction of water	Mass fraction of 2-methoxyethanol	uncertainty	Mass fraction of 2-methoxyethanol	uncertainty	Mass fraction of water	uncertainty
313.15	.8896	.0341	.01	.0083	.01	.0645	.01
313.15	.8563	.0635	.01	.0164	.01	.0673	.01
313.15	.8216	.0923	.01	.0248	.01	.0716	.01
313.15	.7887	.1212	.01	.0363	.01	.0742	.01
313.15	.7476	.1462	.01	.0476	.01	.0792	.01
313.15	.7152	.168	.01	.0582	.01	.083	.01
313.15	.6712	.187	.01	.0711	.01	.0908	.01
313.15	.617	.2198	.01	.0972	.01	.1082	.01

System: trichloromethane + 2-methoxyethanol + water; phases: Liquid mixture 1, Liquid mixture 2
Fixed: Pressure, kPa = 101
Property: Mass fraction of water (Liquid mixture 1); method: Chromatography
Property: Mass fraction of water (Liquid mixture 2); method: Chromatography
Property: Mass fraction of 2-methoxyethanol (Liquid mixture 2); method: Chromatography
Temperature, K	Mass fraction of 2-methoxyethanol	Mass fraction of water	uncertainty	Mass fraction of water	uncertainty	Mass fraction of 2-methoxyethanol	uncertainty
313.15	.0062	.0034	.01	.9436	.01	.0407	.01
313.15	.0094	.005	.01	.917	.01	.0662	.01
313.15	.0146	.0053	.01	.8864	.01	.0959	.01
313.15	.0229	.0066	.01	.8521	.01	.1277	.01
313.15	.0363	.0074	.01	.8073	.01	.1664	.01
313.15	.0459	.0079	.01	.7851	.01	.1808	.01
313.15	.0578	.0089	.01	.7471	.01	.2005	.01

System: dichloromethane + 2-methoxyethanol + water; phases: Liquid mixture 2, Liquid mixture 1
Fixed: Pressure, kPa = 101
Property: Mass fraction of 2-methoxyethanol (Liquid mixture 2); method: Chromatography
Property: Mass fraction of 2-methoxyethanol (Liquid mixture 1); method: Chromatography
Property: Mass fraction of water (Liquid mixture 1); method: Chromatography
Temperature, K	Mass fraction of water	Mass fraction of 2-methoxyethanol	uncertainty	Mass fraction of 2-methoxyethanol	uncertainty	Mass fraction of water	uncertainty
298.15	.9477	.0319	.01	.0026	.003	.0028	.01
298.15	.9029	.0678	.01	.0067	.003	.0033	.01
298.15	.876	.0939	.01	.009	.003	.0035	.01
298.15	.8386	.1247	.01	.0181	.003	.0041	.01
298.15	.808	.1499	.01	.0219	.003	.0045	.01
298.15	.7853	.1711	.01	.0272	.003	.0046	.01
298.15	.7625	.1894	.01	.0337	.003	.0056	.01
298.15	.7382	.2123	.01	.0418	.003	.0059	.01

System: methyl tert-butyl ether + water; phases: Liquid mixture 2, Liquid mixture 1
Property: Mass fraction of water (Liquid mixture 2); method: Chromatography
Temperature, K	Pressure, kPa	Mass fraction of water	uncertainty
313.15	101	.9538	

System: methyl tert-butyl ether + water; phases: Liquid mixture 1, Liquid mixture 2
Property: Mass fraction of water (Liquid mixture 1); method: Chromatography
Temperature, K	Pressure, kPa	Mass fraction of water	uncertainty
313.15	101	.016	
