Measured thermophysical data. Vapor Liquid Equilibria Measurements for Di-n-Propyl Ether and Butyl Ethyl Ether with n-Heptane
Source: J. Chem. Eng. Data, 2017, 10.1021/acs.jced.6b00587
Compound 1: n-heptane, C7H16, purity 99%
Compound 2: dipropyl ether, C6H14O, purity 99%
Compound 3: butyl ethyl ether, C6H14O, purity 99%
Compound 4: 2-ethyl-1-hexanol, C8H18O, purity 99.6%
Compound 5: 2-heptanone, C7H14O, purity 98%

System: n-heptane; phases: Liquid, Gas
Property: Vapor or sublimation pressure, kPa (Liquid); method: Ebulliometric method (Recirculating still)
Temperature, K	Vapor or sublimation pressure, kPa	uncertainty
371.28	101.3	
366.87	88.4	
364.95	83.45	
362.11	76.47	
359.38	70.24	
356.78	64.6	
352.58	56.2	
349.68	50.97	
347.16	46.8	
341.94	38.89	
335.45	30.59	
331.39	26.15	
354.63	60	

System: dipropyl ether; phases: Liquid, Gas
Property: Vapor or sublimation pressure, kPa (Liquid); method: Ebulliometric method (Recirculating still)
Temperature, K	Vapor or sublimation pressure, kPa	uncertainty
362.87	101.3	
361.18	96.32	
358.73	89.3	
356.85	84.25	
354.82	78.97	
352.11	72.36	
347.55	62.3	
345.34	57.75	
341.15	49.98	
336.55	42.54	
332.57	36.71	
326.73	29.35	
346.63	60	
346.55	60	

System: butyl ethyl ether; phases: Liquid, Gas
Property: Vapor or sublimation pressure, kPa (Liquid); method: Ebulliometric method (Recirculating still)
Temperature, K	Vapor or sublimation pressure, kPa	uncertainty
336.22	38.6	
340.35	44.96	
344.21	51.67	
346.8	56.24	
348.84	60	
350.44	63.63	
354.01	71.58	
357.31	79.6	
361.44	90.59	
363.47	96.36	
365.25	101.3	

System: dipropyl ether + n-heptane; phases: Liquid, Gas
Fixed: Pressure, kPa = 60
Property: Boiling temperature at pressure P, K (Liquid); method: Ebulliometric method (Recirculating still)
Mole fraction of dipropyl ether	Boiling temperature at pressure P, K	uncertainty
0	354.63	
.027	354.42	
.055	354.01	
.082	353.65	
.101	353.33	
.154	352.66	
.18	352.55	
.207	352.34	
.209	352.17	
.232	351.94	
.25	351.75	
.256	351.66	
.301	351.25	
.31	351.07	
.332	350.92	
.372	350.65	
.386	350.46	
.418	350.29	
.485	349.6	
.494	349.6	
.545	349.23	
.564	349.07	
.583	348.96	
.618	348.71	
.627	348.62	
.651	348.54	
.683	348.35	
.714	348.09	
.715	348.09	
.747	347.94	
.776	347.74	
.804	347.6	
.828	347.49	
.858	347.26	
.892	347.11	
.92	346.98	
.946	346.82	
.974	346.72	
1	346.63	
1	346.55	

System: dipropyl ether + n-heptane; phases: Gas, Liquid
Fixed: Pressure, kPa = 60
Property: Mole fraction of dipropyl ether (Gas); method: Chromatography
Mole fraction of dipropyl ether	Mole fraction of dipropyl ether	uncertainty
0	0	
.027	.038	
.055	.078	
.082	.115	
.101	.144	
.154	.215	
.18	.232	
.207	.266	
.209	.273	
.232	.307	
.25	.325	
.256	.339	
.301	.381	
.31	.386	
.332	.411	
.372	.45	
.386	.467	
.418	.496	
.485	.558	
.494	.57	
.545	.619	
.564	.632	
.583	.652	
.618	.683	
.627	.688	
.651	.712	
.683	.738	
.714	.762	
.715	.765	
.747	.792	
.776	.813	
.804	.837	
.828	.857	
.858	.883	
.892	.911	
.92	.933	
.946	.955	
.974	.979	
1	1	
1	1	

System: n-heptane + butyl ethyl ether; phases: Liquid, Gas
Fixed: Pressure, kPa = 60
Property: Boiling temperature at pressure P, K (Liquid); method: Ebulliometric method (Recirculating still)
Mole fraction of butyl ethyl ether	Boiling temperature at pressure P, K	uncertainty
0	354.63	
0	354.63	
.026	354.37	
.035	354.22	
.071	353.87	
.082	353.79	
.121	353.41	
.127	353.34	
.169	352.9	
.197	352.71	
.195	352.68	
.236	352.43	
.25	352.32	
.285	352.06	
.289	352	
.336	351.62	
.346	351.59	
.357	351.5	
.381	351.39	
.403	351.29	
.41	351.17	
.423	351.19	
.444	351.05	
.455	350.96	
.472	350.89	
.475	350.77	
.49	350.73	
.488	350.78	
.528	350.51	
.565	350.35	
.603	350.22	
.644	349.98	
.684	349.85	
.721	349.71	
.76	349.55	
.79	349.32	
.835	349.25	
.867	349.12	
.921	349.01	
.96	348.93	
.984	348.89	
1	348.84	

System: n-heptane + butyl ethyl ether; phases: Gas, Liquid
Fixed: Pressure, kPa = 60
Property: Mole fraction of butyl ethyl ether (Gas); method: Chromatography
Mole fraction of butyl ethyl ether	Mole fraction of butyl ethyl ether	uncertainty
0	0	
0	0	
.026	.035	
.035	.049	
.071	.095	
.082	.111	
.121	.16	
.127	.166	
.169	.212	
.197	.245	
.195	.248	
.236	.293	
.25	.305	
.285	.344	
.289	.348	
.336	.395	
.346	.4	
.357	.413	
.381	.436	
.403	.459	
.41	.466	
.423	.479	
.444	.504	
.455	.511	
.472	.525	
.475	.528	
.49	.543	
.488	.546	
.528	.579	
.565	.615	
.603	.644	
.644	.68	
.684	.716	
.721	.749	
.76	.783	
.79	.811	
.835	.851	
.867	.879	
.921	.927	
.96	.963	
.984	.985	
1	1	
