Measured thermophysical data. Isobaric Vapor Liquid Equilibria for Binary Mixtures of Z,E-2-Methyl-2-butenenitrile, R,S-4-Vinyl-1-cyclohexene, and Z,E-3-Pentenenitrile
Source: J. Chem. Eng. Data, 2016, 10.1021/acs.jced.6b00388
Compound 1: 2-methyl-2-butenenitrile, C5H7N, purity 76.86%
Compound 2: 4-vinyl-1-cyclohexene, C8H12, purity 95.90%
Compound 3: 3-pentenenitrile, C5H7N, purity 94.00%

System: 2-methyl-2-butenenitrile; phases: Liquid, Gas
Property: Vapor or sublimation pressure, kPa (Liquid); method: Ebulliometric method (Recirculating still)
Temperature, K	Vapor or sublimation pressure, kPa	uncertainty
367.43	50	
392.75	100	

System: 4-vinyl-1-cyclohexene; phases: Liquid, Gas
Property: Vapor or sublimation pressure, kPa (Liquid); method: Ebulliometric method (Recirculating still)
Temperature, K	Vapor or sublimation pressure, kPa	uncertainty
377.75	50	
401.42	100	

System: 3-pentenenitrile; phases: Liquid, Gas
Property: Vapor or sublimation pressure, kPa (Liquid); method: Ebulliometric method (Recirculating still)
Temperature, K	Vapor or sublimation pressure, kPa	uncertainty
393.48	50	
418.25	100	

System: 4-vinyl-1-cyclohexene + 2-methyl-2-butenenitrile; phases: Liquid, Gas
Property: Boiling temperature at pressure P, K (Liquid); method: Ebulliometric method (Recirculating still)
Mole fraction of 2-methyl-2-butenenitrile	Pressure, kPa	Boiling temperature at pressure P, K	uncertainty
0	50	377.75	
.13	50	369.55	
.261	50	364.95	
.378	50	362.75	
.523	50	361.35	
.648	50	360.65	
.727	50	361.25	
.758	50	361.65	
.807	50	362.35	
.901	50	364.15	
1	50	367.4	
0	100	401.42	
.17	100	396.75	
.261	100	394.65	
.371	100	393.15	
.522	100	391.8	
.662	100	391.15	
.726	100	391.35	
.754	100	391.45	
.793	100	391.65	
.886	100	392.05	
1	100	392.74	

System: 4-vinyl-1-cyclohexene + 2-methyl-2-butenenitrile; phases: Gas, Liquid
Property: Mole fraction of 2-methyl-2-butenenitrile (Gas); method: Chromatography
Mole fraction of 2-methyl-2-butenenitrile	Pressure, kPa	Mole fraction of 2-methyl-2-butenenitrile	uncertainty
0	50	0	
.13	50	.297	
.261	50	.454	
.378	50	.541	
.523	50	.603	
.648	50	.644	
.727	50	.69	
.758	50	.712	
.807	50	.761	
.901	50	.841	
1	50	1	
0	100	0	
.17	100	.336	
.261	100	.456	
.371	100	.523	
.522	100	.598	
.662	100	.647	
.726	100	.703	
.754	100	.714	
.793	100	.746	
.886	100	.83	
1	100	1	

System: 2-methyl-2-butenenitrile + 3-pentenenitrile; phases: Liquid, Gas
Property: Boiling temperature at pressure P, K (Liquid); method: Ebulliometric method (Recirculating still)
Mole fraction of 2-methyl-2-butenenitrile	Pressure, kPa	Boiling temperature at pressure P, K	uncertainty
0	50	393.48	
.1072	50	386.85	
.2515	50	381.35	
.3418	50	378.75	
.3782	50	377.85	
.4567	50	375.95	
.5159	50	374.75	
.6064	50	373.05	
.7384	50	370.85	
.8674	50	369.05	
1	50	367.45	
0	100	418.25	
.1193	100	411.75	
.2574	100	406.75	
.323	100	404.55	
.426	100	401.75	
.4272	100	401.65	
.4954	100	400.35	
.5952	100	398.35	
.7494	100	395.75	
.8738	100	394.25	
1	100	392.75	

System: 2-methyl-2-butenenitrile + 3-pentenenitrile; phases: Gas, Liquid
Property: Mole fraction of 2-methyl-2-butenenitrile (Gas); method: Chromatography
Mole fraction of 2-methyl-2-butenenitrile	Pressure, kPa	Mole fraction of 2-methyl-2-butenenitrile	uncertainty
0	50	0	
.1072	50	.2216	
.2515	50	.4697	
.3418	50	.566	
.3782	50	.6011	
.4567	50	.6605	
.5159	50	.701	
.6064	50	.757	
.7384	50	.8405	
.8674	50	.9186	
1	50	1	
0	100	0	
.1193	100	.2201	
.2574	100	.4496	
.323	100	.5261	
.426	100	.607	
.4272	100	.6143	
.4954	100	.6556	
.5952	100	.7223	
.7494	100	.8366	
.8738	100	.9194	
1	100	1	
