Measured thermophysical data. Measurement of Hydrogen Solubility in Potential Liquid Organic Hydrogen Carriers
Source: J. Chem. Eng. Data, 2016, 10.1021/acs.jced.5b00789
Compound 1: methylbenzene, C7H8, purity 99.9%
Compound 2: hexahydrotoluene, C7H14, purity 99.9%
Compound 3: 9-ethylcarbazole, C14H13N, purity 97%
Compound 4: hydrogen, H2, purity 99.99%

System: methylbenzene; phases: Liquid, Gas
Property: Mass density, kg/m3 (Liquid); method: Vibrating tube method
Temperature, K	Mass density, kg/m3	uncertainty
293.2	867.3	2
293.2	867.61	2
293.2	867.8	2
303.2	855.63	2
303.2	855.94	2
303.2	856.12	2
313.2	844.27	2
313.2	844.57	2
313.2	844.75	2
323.2	833.21	2
323.2	833.51	2
323.2	833.68	2
333.2	822.43	2
333.2	822.73	2
333.2	822.9	2
343.2	811.93	2
343.2	812.22	2
343.2	812.39	2
353.2	801.69	2
353.2	801.98	2
353.2	802.15	2
363.2	791.71	2
363.2	792	2
363.2	792.16	2
373.2	781.97	2
373.2	782.26	2
373.2	782.42	2

System: hexahydrotoluene; phases: Liquid
Fixed: Pressure, kPa = 101.325
Property: Mass density, kg/m3 (Liquid); method: Vibrating tube method
Temperature, K	Mass density, kg/m3	uncertainty
293.2	769.72	2
293.2	769.91	2
293.2	770.07	2
303.2	761.08	2
303.2	761.27	2
303.2	761.42	2
313.2	752.63	2
313.2	752.82	2
313.2	752.97	2
323.2	744.37	2
323.2	744.55	2
323.2	744.71	2
333.2	736.29	2
333.2	736.47	2
333.2	736.62	2
343.2	728.38	2
343.2	728.56	2
343.2	728.71	2
353.2	720.64	2
353.2	720.82	2
353.2	720.97	2
363.2	713.07	2
363.2	713.24	2
363.2	713.39	2
373.2	705.65	2
373.2	705.82	2
373.2	705.96	2

System: 9-ethylcarbazole; phases: Liquid
Fixed: Pressure, kPa = 101.325
Property: Mass density, kg/m3 (Liquid); method: Vibrating tube method
Temperature, K	Mass density, kg/m3	uncertainty
343.2	1062.78	2
343.2	1062.93	2
343.2	1063.05	2
353.2	1055.37	2
353.2	1055.51	2
353.2	1055.63	2
363.2	1048.06	2
363.2	1048.2	2
363.2	1048.32	2
373.2	1040.85	2
373.2	1040.99	2
373.2	1041.11	2

System: methylbenzene + hydrogen; phases: Liquid, Gas
Property: Mole fraction of hydrogen (Liquid); method: Phase equilibration
Temperature, K	Pressure, kPa	Mole fraction of hydrogen	uncertainty
293	510	.00131	
303	510	.00144	
313	510	.00156	
323	510	.00172	
333	510	.0019	
293	671	.00171	
303	671	.00188	
313	671	.00207	
323	671	.00229	
333	671	.00253	
293	752	.00195	
303	752	.00213	
313	752	.00234	
323	752	.00257	
333	752	.00286	
293	891	.00232	
303	891	.00253	
313	891	.00277	
323	891	.00306	
333	891	.0034	

System: hexahydrotoluene + hydrogen; phases: Liquid, Gas
Property: Mole fraction of hydrogen (Liquid); method: Phase equilibration
Temperature, K	Pressure, kPa	Mole fraction of hydrogen	uncertainty
293	506	.00201	
303	506	.00216	
313	506	.00234	
323	506	.00252	
333	506	.00258	
293	657	.00269	
303	657	.00291	
313	657	.00312	
323	657	.00329	
333	657	.00343	
293	714	.00295	
303	714	.00324	
313	714	.00338	
323	714	.00361	
333	714	.00377	
293	891	.0039	
303	891	.0043	
313	891	.00449	
323	891	.00461	
333	891	.00479	

System: 9-ethylcarbazole + hydrogen; phases: Liquid, Gas
Property: Mole fraction of hydrogen (Liquid); method: Phase equilibration
Temperature, K	Pressure, kPa	Mole fraction of hydrogen	uncertainty
353	555	.00303	
363	555	.00325	
373	555	.00349	
353	620	.00347	
363	620	.00373	
373	620	.004	
353	741	.00418	
363	741	.00451	
373	741	.00482	
353	892	.00508	
363	892	.00546	
373	892	.00583	
