Measured thermophysical data. Thermal Diffusivity of 2-Ethoxy-2-methylpropane (ETBE) and 2-Methoxy-2-methylbutane (TAME) at Temperatures from (293 to 523) K and Pressure up to 10 MPa
Source: J. Chem. Eng. Data, 2017, 10.1021/acs.jced.6b00365
Compound 1: ethyl tert-butyl ether, C6H14O, purity 99.0%
Compound 2: tert-amyl methyl ether, C6H14O, purity 99.0%
Compound 3: toluene, C7H8, purity 99.0%

System: ethyl tert-butyl ether; phases: Liquid, Gas
Property: Thermal diffusivity, m2/s (Liquid); method: dynamic light scattering
Temperature, K	Thermal diffusivity, m2/s	uncertainty
293.13	.0000000567	
303.09	.0000000545	
313.21	.0000000516	
323.18	.0000000496	
333.18	.0000000479	
338.25	.000000047	
343.17	.0000000464	
348.15	.0000000455	
353.08	.0000000449	
358.19	.0000000443	
363.1	.0000000438	
368.12	.0000000433	
373.11	.000000043	
378.18	.0000000426	
383.14	.000000042	
388.07	.0000000417	
393.06	.0000000415	
398.17	.000000041	
403.22	.0000000408	
408.16	.0000000402	
413.1	.00000004	
418.18	.0000000397	
423.09	.0000000395	
428.08	.000000039	
433.18	.0000000385	
438.17	.0000000382	
443.06	.0000000377	
448.18	.0000000374	
453.18	.0000000368	
458.1	.0000000361	
463.19	.0000000353	
466.12	.000000035	
469.18	.0000000345	
472.09	.0000000339	
475.06	.0000000333	
478.15	.0000000325	
481.24	.0000000316	
484.23	.0000000305	
487.17	.0000000295	
490.09	.0000000277	
493.14	.0000000263	
496.24	.0000000227	

System: ethyl tert-butyl ether; phases: Gas, Liquid
Property: Thermal diffusivity, m2/s (Gas); method: dynamic light scattering
Temperature, K	Thermal diffusivity, m2/s	uncertainty
433.07	.0000003029	
443.25	.0000002573	
453.13	.000000214	
463.05	.0000001701	
468.16	.0000001498	
473.25	.0000001281	
478.2	.000000108	
483.18	.0000000876	
488.25	.0000000652	
493.22	.0000000368	

System: ethyl tert-butyl ether; phases: Liquid
Property: Thermal diffusivity, m2/s (Liquid); method: dynamic light scattering
Pressure, kPa	Temperature, K	Thermal diffusivity, m2/s	uncertainty
4000	372.96	.000000044	
4000	383.37	.0000000434	
4000	393	.0000000427	
4000	402.94	.000000042	
4000	413.35	.0000000412	
4000	421.78	.0000000407	
4000	431.42	.00000004	
4000	442.12	.0000000392	
4000	452.09	.0000000385	
4000	462.41	.0000000375	
4000	472.45	.0000000365	
4000	478.2	.000000036	
4000	482.44	.0000000352	
4000	488.65	.0000000344	
4000	493.13	.0000000334	
7000	373.15	.0000000447	
7000	383.35	.0000000441	
7000	392.97	.0000000435	
7000	402.99	.0000000428	
7000	413.34	.0000000421	
7000	421.86	.0000000416	
7000	431.52	.000000041	
7000	442.19	.0000000404	
7000	452.26	.0000000398	
7000	462.47	.0000000392	
7000	472.63	.0000000387	
7000	478.14	.0000000384	
7000	483.15	.0000000382	
7000	488.15	.0000000379	
7000	493.16	.0000000377	
10000	373.16	.000000045	
10000	383.18	.0000000445	
10000	393.05	.000000044	
10000	403.09	.0000000435	
10000	413.25	.000000043	
10000	422.25	.0000000424	
10000	432.83	.0000000418	
10000	442.53	.0000000413	
10000	452.4	.0000000408	
10000	462.95	.0000000403	
10000	472.63	.0000000399	
10000	478.13	.0000000397	
10000	483.2	.0000000395	
10000	488.83	.0000000393	
10000	493.3	.0000000392	

System: tert-amyl methyl ether; phases: Gas, Liquid
Property: Thermal diffusivity, m2/s (Gas); method: dynamic light scattering
Temperature, K	Thermal diffusivity, m2/s	uncertainty
477.88	.0000002544	
483.74	.0000002296	
487.65	.0000002131	
493.04	.0000001898	
499.05	.0000001626	
502.72	.0000001452	
508.18	.0000001206	
511.38	.0000001052	
517.41	.0000000783	
522.45	.000000042	

System: tert-amyl methyl ether; phases: Liquid, Gas
Property: Thermal diffusivity, m2/s (Liquid); method: dynamic light scattering
Temperature, K	Thermal diffusivity, m2/s	uncertainty
291.5	.0000000665	
302.19	.0000000636	
312.11	.0000000617	
323	.0000000595	
332.51	.0000000575	
342.71	.000000055	
352.32	.0000000533	
363.24	.0000000518	
373.18	.00000005	
382.92	.0000000484	
388.1	.0000000475	
392.6	.0000000468	
398.45	.0000000461	
402.91	.0000000455	
418.23	.0000000436	
423	.000000043	
428.55	.0000000424	
432.78	.000000042	
438.24	.0000000414	
442.67	.000000041	
448.19	.0000000404	
453.53	.0000000398	
458.62	.0000000395	
463.3	.000000039	
468.1	.0000000387	
472	.0000000383	
478.34	.0000000381	
482.92	.0000000378	
488.23	.0000000375	
492.26	.0000000371	
498.77	.0000000363	
501.9	.000000036	
504.05	.0000000358	
506.94	.0000000352	
508.48	.0000000351	
511.05	.0000000342	
514.02	.0000000336	
517.73	.000000032	
519.01	.0000000315	
522.19	.0000000298	

System: tert-amyl methyl ether; phases: Liquid
Property: Thermal diffusivity, m2/s (Liquid); method: dynamic light scattering
Pressure, kPa	Temperature, K	Thermal diffusivity, m2/s	uncertainty
4000	373.11	.000000052	
4000	382.8	.0000000508	
4000	392.61	.000000049	
4000	402.72	.0000000477	
4000	412.73	.0000000466	
4000	423	.0000000452	
4000	432.66	.0000000442	
4000	442.61	.0000000431	
4000	453.47	.000000042	
4000	463.14	.0000000414	
4000	472.15	.0000000408	
4000	478.39	.0000000406	
4000	483.31	.0000000402	
4000	488.54	.0000000398	
4000	492.58	.0000000396	
4000	499	.000000039	
4000	503.16	.0000000385	
4000	508.25	.000000038	
4000	512.28	.0000000372	
4000	517.79	.0000000363	
4000	523.25	.0000000353	
7000	373.1	.0000000535	
7000	382.83	.0000000523	
7000	392.63	.0000000509	
7000	402.77	.0000000493	
7000	412.76	.0000000481	
7000	423.06	.0000000469	
7000	432.76	.0000000459	
7000	442.7	.0000000447	
7000	453.58	.0000000437	
7000	463.21	.0000000431	
7000	472.25	.0000000426	
7000	478.14	.0000000422	
7000	483.16	.0000000419	
7000	488.17	.0000000416	
7000	493.13	.0000000413	
7000	498.25	.0000000408	
7000	503.2	.0000000404	
7000	508.09	.0000000399	
7000	512.29	.0000000394	
7000	517.85	.000000039	
7000	523.25	.0000000384	
10000	373.12	.0000000547	
10000	382.94	.0000000536	
10000	392.73	.0000000523	
10000	402.81	.0000000507	
10000	412.86	.0000000494	
10000	422.87	.0000000482	
10000	432.8	.0000000472	
10000	442.73	.000000046	
10000	453.25	.0000000451	
10000	463.25	.0000000444	
10000	472.35	.0000000439	
10000	478.13	.0000000436	
10000	483.16	.0000000432	
10000	488.18	.0000000429	
10000	493.14	.0000000426	
10000	498.16	.0000000422	
10000	503.15	.0000000418	
10000	508.14	.0000000415	
10000	512.53	.0000000412	
10000	518.05	.0000000408	
10000	523.25	.0000000405	

System: toluene; phases: Liquid, Gas
Property: Thermal diffusivity, m2/s (Liquid); method: dynamic light scattering
Temperature, K	Thermal diffusivity, m2/s	uncertainty
302.9	.0000000863	
312.45	.0000000833	
323.07	.0000000803	
333.27	.0000000777	
343.52	.0000000752	
353.73	.000000073	
363.73	.0000000709	
373.04	.000000069	
382.94	.0000000671	
392.88	.0000000652	
402.93	.0000000633	
413.06	.0000000615	
422.73	.0000000598	
432.67	.0000000581	
442.68	.0000000564	
452.96	.0000000548	
462.99	.0000000533	
473.2	.0000000519	
482.98	.0000000506	
493.05	.0000000494	
503.17	.0000000484	
513.41	.0000000474	
523.38	.0000000466	
