Measured thermophysical data. Experimental and Modeling Study of the Phase Behavior of (Heptane + Carbon Dioxide + Water) Mixtures
Source: J. Chem. Eng. Data, 2015, 10.1021/acs.jced.5b00618
Compound 1: carbon dioxide, CO2, purity 99.995%
Compound 2: heptane, C7H16, purity 99.5%
Compound 3: water, H2O, purity 99.9%

System: carbon dioxide + heptane; phases: Liquid, Gas
Property: Vapor or sublimation pressure, kPa (Liquid); method: Closed cell (Static) method
Mole fraction of carbon dioxide	Temperature, K	Vapor or sublimation pressure, kPa	uncertainty
.134	352.9	1890	5
.2226	352.9	3170	5
.3331	352.9	4580	5
.4845	352.9	6640	5
.632	352.9	8670	5
.7774	352.9	10690	5
.1148	394.15	2210	5
.3768	394.15	6670	5
.4523	394.15	8030	5
.5243	394.15	9520	5
.6399	394.15	11540	5
.7584	394.15	13410	5

System: carbon dioxide + heptane; phases: Gas, Liquid
Property: Mole fraction of carbon dioxide (Gas); method: Chromatography
Mole fraction of carbon dioxide	Temperature, K	Mole fraction of carbon dioxide	uncertainty
.134	352.9	.96289	.00115
.2226	352.9	.97398	.00082
.3331	352.9	.97878	.00068
.4845	352.9	.98097	.00061
.632	352.9	.97731	.00072
.7774	352.9	.9586	.00127
.1148	394.15	.8977	.003
.3768	394.15	.9355	.002
.4523	394.15	.9365	.0018
.5243	394.15	.933	.002
.6399	394.15	.9166	.0024
.7584	394.15	.8759	.0034

System: carbon dioxide + heptane + water; phases: Liquid mixture 2, Liquid mixture 1
Property: Mole fraction of heptane (Liquid mixture 2); method: Chromatography
Property: Mole fraction of carbon dioxide (Liquid mixture 1); method: Chromatography
Property: Mole fraction of heptane (Liquid mixture 1); method: Chromatography
Temperature, K	Pressure, kPa	Mole fraction of carbon dioxide	Mole fraction of heptane	uncertainty	Mole fraction of carbon dioxide	uncertainty	Mole fraction of heptane	uncertainty
323.15	9060	.02011	.00008	.0000008	.95581	.0095581	.04148	.0004148
343.15	10820	.01879	.00011	.0000011	.8946	.008946	.09938	.0009938
363.15	12200	.01662	.00009	.0000009	.855	.00855	.1338	.001338
388.15	13210	.01578	.00003	.0000003	.8164	.008164	.1622	.001622
413.15	13330	.01471	.00027	.0000027	.7391	.007391	.222	.00222

System: carbon dioxide + heptane + water; phases: Liquid mixture 1, Liquid mixture 2, Gas
Property: Mole fraction of carbon dioxide (Liquid mixture 1); method: Chromatography
Property: Mole fraction of heptane (Liquid mixture 1); method: Chromatography
Property: Mole fraction of carbon dioxide (Liquid mixture 2); method: Chromatography
Property: Mole fraction of heptane (Liquid mixture 2); method: Chromatography
Property: Mole fraction of carbon dioxide (Gas); method: Chromatography
Property: Mole fraction of heptane (Gas); method: Chromatography
Temperature, K	Pressure, kPa	Mole fraction of carbon dioxide	uncertainty	Mole fraction of heptane	uncertainty	Mole fraction of carbon dioxide	uncertainty	Mole fraction of heptane	uncertainty	Mole fraction of carbon dioxide	uncertainty	Mole fraction of heptane	uncertainty
323.15	2040	.1797	.003594	.8159	.016318	.00651	.0001302	.000191	.00000382	.9783	.019566	.0153	.000306
363.15	11000	.7152	.014304	.2599	.005198	.01571	.0003142	.000037	.00000074	.9465	.01893	.0432	.000864
388.15	2160	.1065	.00213	.8654	.017308	.003	.00006	.000079	.00000158	.8077	.016154	.092	.00184
413.15	11000	.5096	.010192	.4139	.008278	.01242	.0002484	.000143	.00000286	.8368	.016736	.1174	.002348
388.15	7500	.4037	.008074	.5627	.011254	.01181	.0002362	.000119	.00000238	.9219	.018438	.0489	.000978
323.15	3310	.3005	.00601	.6947	.013894	.01012	.0002024	.000137	.00000274	.9818	.019636	.0127	.000254
388.15	10000	.5385	.01077	.4242	.008484	.01289	.0002578	.000149	.00000298	.92	.0184	.0559	.001118
388.15	12100	.6595	.01319	.2997	.005994	.01452	.0002904	.000073	.00000146	.9018	.018036	.0766	.001532
413.15	1870	.0611	.001222	.8961	.017922	.00168	.0000336	.000128	.00000256	.6479	.012958	.1847	.003694
413.15	5000	.2233	.004466	.7291	.014582	.00603	.0001206	.000112	.00000224	.828	.01656	.0926	.001852
413.15	8000	.3672	.007344	.5685	.01137	.0095	.00019	.000129	.00000258	.8588	.017176	.0841	.001682
343.15	6000	.4544	.009088	.5356	.010712	.01311	.0002622	.000122	.00000244	.9765	.01953	.0171	.000342
413.15	13000	.634	.01268	.2814	.005628	.01411	.0002822	.000207	.00000414	.791	.01582	.1688	.003376
343.15	10000	.7862	.015724	.2012	.004024	.01842	.0003684	.000043	.00000086	.96404	.0192808	.03089	.0006178
323.15	4400	.40519	.0081038	.589	.01178	.01278	.0002556	.000232	.00000464	.9866	.019732	.0101	.000202
323.15	5570	.5255	.01051	.4679	.009358	.01572	.0003144	.00022	.0000044	.9887	.019774	.0094	.000188
323.15	6940	.683	.01366	.3093	.006186	.01769	.0003538	.000121	.00000242	.98781	.0197562	.01001	.0002002
343.15	2050	.1492	.002984	.8426	.016852	.00522	.0001044	.000058	.00000116	.9593	.019186	.0273	.000546
343.15	4110	.3086	.006172	.6822	.013644	.00961	.0001922	.000102	.00000204	.9733	.019466	.0179	.000358
343.15	8000	.6159	.012318	.3727	.007454	.01633	.0003266	.000079	.00000158	.97391	.0194782	.02141	.0004282
388.15	5000	.269	.00538	.7026	.014052	.00831	.0001662	.000108	.00000216	.9037	.018074	.0561	.001122
363.15	1850	.1666	.003332	.803	.01606	.003503	.00007006	.000047	.00000094	.9117	.018234	.0536	.001072
363.15	3160	.2003	.004006	.7786	.015572	.00691	.0001382	.000062	.00000124	.9376	.018752	.0371	.000742
363.15	4930	.3168	.006336	.6612	.013224	.01042	.0002084	.0000063	.000000126	.9527	.019054	.0295	.00059
363.15	7000	.4488	.008976	.5275	.01055	.01289	.0002578	.000049	.00000098	.9603	.019206	.0265	.00053
363.15	9000	.5778	.011556	.3984	.007968	.0143	.000286	.000046	.00000092	.9598	.019196	.0292	.000584
