Measured thermophysical data. Solubility of Agomelatine Crystal Form I and Form II in Pure Solvents and (Isopropanol + Water) Mixtures
Source: J. Chem. Eng. Data, 2015, 10.1021/acs.jced.5b00586
Compound 1: N-(2-(7-methoxynaphthalen-1-yl)ethyl)acetamide, C15H17NO2, purity 99%
Compound 2: 1-butanol, C4H10O, purity 99.5%
Compound 3: isopropanol, C3H8O, purity 99.5%
Compound 4: acetone, C3H6O, purity 99.5%
Compound 5: methyl acetate, C3H6O2, purity 99.5%
Compound 6: 1,1-dimethyl-1-methoxyethane, C5H12O, purity 99.5%
Compound 7: water, H2O, purity 99.8%

System: 1-butanol + N-(2-(7-methoxynaphthalen-1-yl)ethyl)acetamide; phases: Liquid, Crystal 1
Fixed: Pressure, kPa = 100
Property: Mole fraction of N-(2-(7-methoxynaphthalen-1-yl)ethyl)acetamide (Liquid); method: Titration method
Temperature, K	Mole fraction of N-(2-(7-methoxynaphthalen-1-yl)ethyl)acetamide	uncertainty
273.15	.01751	.0008755
278.15	.02228	.001114
283.15	.02748	.001374
288.15	.03052	.001526
293.15	.03744	.001872
298.15	.04509	.0022545
303.15	.05462	.002731
308.15	.06864	.003432
313.15	.08554	.004277

System: isopropanol + N-(2-(7-methoxynaphthalen-1-yl)ethyl)acetamide; phases: Liquid, Crystal 1
Fixed: Pressure, kPa = 100
Property: Mole fraction of N-(2-(7-methoxynaphthalen-1-yl)ethyl)acetamide (Liquid); method: Titration method
Temperature, K	Mole fraction of N-(2-(7-methoxynaphthalen-1-yl)ethyl)acetamide	uncertainty
273.15	.01112	.000556
278.15	.0141	.000705
283.15	.01627	.0008135
288.15	.01973	.0009865
293.15	.02317	.0011585
298.15	.02957	.0014785
303.15	.03652	.001826
308.15	.04973	.0024865
313.15	.05697	.0028485

System: acetone + N-(2-(7-methoxynaphthalen-1-yl)ethyl)acetamide; phases: Liquid, Crystal 1
Fixed: Pressure, kPa = 100
Property: Mole fraction of N-(2-(7-methoxynaphthalen-1-yl)ethyl)acetamide (Liquid); method: Titration method
Temperature, K	Mole fraction of N-(2-(7-methoxynaphthalen-1-yl)ethyl)acetamide	uncertainty
273.15	.01608	.000804
278.15	.02029	.0010145
283.15	.02505	.0012525
288.15	.02984	.001492
293.15	.03509	.0017545
298.15	.04286	.002143
303.15	.0522	.00261
308.15	.06343	.0031715
313.15	.0759	.003795

System: methyl acetate + N-(2-(7-methoxynaphthalen-1-yl)ethyl)acetamide; phases: Liquid, Crystal 1
Fixed: Pressure, kPa = 100
Property: Mole fraction of N-(2-(7-methoxynaphthalen-1-yl)ethyl)acetamide (Liquid); method: Titration method
Temperature, K	Mole fraction of N-(2-(7-methoxynaphthalen-1-yl)ethyl)acetamide	uncertainty
273.15	.01747	.0008735
278.15	.01893	.0009465
283.15	.0224	.00112
288.15	.02633	.0013165
293.15	.03268	.001634
298.15	.03749	.0018745
303.15	.04704	.002352
308.15	.05669	.0028345
313.15	.0681	.003405

System: 1,1-dimethyl-1-methoxyethane + N-(2-(7-methoxynaphthalen-1-yl)ethyl)acetamide; phases: Liquid, Crystal 1
Fixed: Pressure, kPa = 100
Property: Mole fraction of N-(2-(7-methoxynaphthalen-1-yl)ethyl)acetamide (Liquid); method: Titration method
Temperature, K	Mole fraction of N-(2-(7-methoxynaphthalen-1-yl)ethyl)acetamide	uncertainty
273.15	.003242	.0001621
278.15	.00327	.0001635
283.15	.00387	.0001935
288.15	.005092	.0002546
293.15	.005795	.00028975
298.15	.007253	.00036265
303.15	.008441	.00042205
308.15	.0106	.00053
313.15	.01282	.000641

System: isopropanol + water + N-(2-(7-methoxynaphthalen-1-yl)ethyl)acetamide; phases: Liquid, Crystal 2
Fixed: Pressure, kPa = 100
Property: Mole fraction of N-(2-(7-methoxynaphthalen-1-yl)ethyl)acetamide (Liquid); method: Titration method
Temperature, K	Solvent: Mole fraction of isopropanol	Mole fraction of N-(2-(7-methoxynaphthalen-1-yl)ethyl)acetamide	uncertainty
273.15	.0494	.00003523	.0000017615
275.65	.0494	.00004139	.0000020695
278.15	.0494	.00005813	.0000029065
280.65	.0494	.00006867	.0000034335
283.15	.0494	.00008921	.0000044605
285.65	.0494	.0001179	.000005895
288.15	.0494	.000146	.0000073
290.65	.0494	.0002054	.00001027
293.15	.0494	.0002618	.00001309
273.15	.0642	.000197	.00000985
275.65	.0642	.0002465	.000012325
278.15	.0642	.0003046	.00001523
280.65	.0642	.0004481	.000022405
283.15	.0642	.0005175	.000025875
285.65	.0642	.00078	.000039
288.15	.0642	.001045	.00005225
290.65	.0642	.001287	.00006435
293.15	.0642	.001527	.00007635

System: isopropanol + water + N-(2-(7-methoxynaphthalen-1-yl)ethyl)acetamide; phases: Liquid, Crystal 1
Fixed: Pressure, kPa = 100
Property: Mole fraction of N-(2-(7-methoxynaphthalen-1-yl)ethyl)acetamide (Liquid); method: Titration method
Temperature, K	Solvent: Mole fraction of isopropanol	Mole fraction of N-(2-(7-methoxynaphthalen-1-yl)ethyl)acetamide	uncertainty
273.15	.0494	.00002344	.000001172
278.15	.0494	.00003934	.000001967
283.15	.0494	.00005543	.0000027715
288.15	.0494	.00009245	.0000046225
293.15	.0494	.0001383	.000006915
298.15	.0494	.0002345	.000011725
303.15	.0494	.00035	.0000175
308.15	.0494	.0005833	.000029165
313.15	.0494	.0008859	.000044295
273.15	.0642	.000104	.0000052
278.15	.0642	.0001693	.000008465
283.15	.0642	.0002786	.00001393
288.15	.0642	.0004203	.000021015
293.15	.0642	.0006704	.00003352
298.15	.0642	.001021	.00005105
303.15	.0642	.001486	.0000743
308.15	.0642	.002623	.00013115
313.15	.0642	.004317	.00021585
273.15	.133	.001627	.00008135
278.15	.133	.001859	.00009295
283.15	.133	.002492	.0001246
288.15	.133	.003124	.0001562
293.15	.133	.004412	.0002206
298.15	.133	.006083	.00030415
303.15	.133	.008146	.0004073
308.15	.133	.01136	.000568
313.15	.133	.01505	.0007525
