Measured thermophysical data. Effect of Dissolved Poly(lactic acid) on the Solubility of CO2, N2, and He Gases in Dichloromethane
Source: J. Chem. Eng. Data, 2016, 10.1021/acs.jced.5b00268
Compound 1: dichloromethane, CH2Cl2, purity 99.5%
Compound 2: helium, He, purity 99.99%
Compound 3: carbon dioxide, CO2, purity 99.5%
Compound 4: molecular nitrogen, N2, purity 99.99%

System: dichloromethane; phases: Liquid, Gas
Property: Vapor or sublimation pressure, kPa (Liquid); method: Closed cell (Static) method
Temperature, K	Vapor or sublimation pressure, kPa	uncertainty
301.8	67.4	1.348
296.8	55.9	1.118
291.9	45.7	.914
287	37.1	.742

System: dichloromethane + helium; phases: Gas, Liquid
Property: Vapor or sublimation pressure, kPa (Gas); method: Closed cell (Static) method
Temperature, K	Mole fraction of helium	Vapor or sublimation pressure, kPa	uncertainty
302.1	.00096	1074	3.222
297.3	.000857	1045	3.135
292.3	.000794	1015	3.045
287.3	.000708	988	2.964
302	.000901	1076	3.228
297.1	.000801	1046	3.138
292.2	.000736	1017	3.051
287.3	.000692	989	2.967
302.3	.000857	1034	3.102
297.2	.00077	1003	3.009
292.8	.0007	978	2.934
287.7	.000628	951	2.853

System: dichloromethane + carbon dioxide; phases: Gas, Liquid
Property: Vapor or sublimation pressure, kPa (Gas); method: Closed cell (Static) method
Temperature, K	Mole fraction of carbon dioxide	Vapor or sublimation pressure, kPa	uncertainty
302.4	.011631	224	1.568
297.4	.011809	202	1.414
292.4	.011962	183	1.281
287.4	.012142	165	1.155

System: dichloromethane + molecular nitrogen; phases: Gas, Liquid
Property: Vapor or sublimation pressure, kPa (Gas); method: Closed cell (Static) method
Temperature, K	Mole fraction of molecular nitrogen	Vapor or sublimation pressure, kPa	uncertainty
302.1	.002159	685	13.7
297.1	.002038	664	13.28
292.2	.001935	644	12.88
287.2	.001828	626	12.52
