Measured thermophysical data. Density, Speed of Sound, Viscosity, Excess Properties, and Prigogine Flory Patterson (PFP) Theory of Binary Mixtures of Amine and Alcohols
Source: J. Chem. Eng. Data, 2016, 10.1021/acs.jced.5b00216
Compound 1: diisopropylamine, C6H15N, purity 99%
Compound 2: 2-methyl-1-propanol, C4H10O, purity 99%
Compound 3: 2-propanol, C3H8O, purity 99.5%
Compound 4: 1-butanol, C4H10O, purity 99.5%

System: diisopropylamine; phases: Liquid
Property: Mass density, kg/m3 (Liquid); method: Vibrating tube method
Temperature, K	Pressure, kPa	Mass density, kg/m3	uncertainty
293.15	100	716.367	
298.15	100	711.509	
303.15	100	706.633	
308.15	100	701.737	
313.15	100	696.811	

System: diisopropylamine; phases: Liquid
Fixed: Frequency, MHz = 3
Property: Speed of sound, m/s (Liquid); method: Sing-around technique in a fixed-path interferometer
Temperature, K	Pressure, kPa	Speed of sound, m/s	uncertainty
293.15	100	1114.58	
298.15	100	1091.89	
303.15	100	1069.37	
308.15	100	1047.01	
313.15	100	1023.8	

System: diisopropylamine; phases: Liquid
Property: Viscosity, Pa*s (Liquid); method: Capillary tube (Ostwald; Ubbelohde) method
Temperature, K	Pressure, kPa	Viscosity, Pa*s	uncertainty
298.15	100	.000382	
303.15	100	.000364	
308.15	100	.000347	

System: 2-methyl-1-propanol; phases: Liquid
Property: Mass density, kg/m3 (Liquid); method: Vibrating tube method
Temperature, K	Pressure, kPa	Mass density, kg/m3	uncertainty
293.15	100	801.977	
298.15	100	798.104	
303.15	100	794.197	
308.15	100	790.245	
313.15	100	786.237	

System: 2-methyl-1-propanol; phases: Liquid
Fixed: Frequency, MHz = 3
Property: Speed of sound, m/s (Liquid); method: Sing-around technique in a fixed-path interferometer
Temperature, K	Pressure, kPa	Speed of sound, m/s	uncertainty
293.15	100	1205.72	
298.15	100	1188.84	
303.15	100	1172.09	
308.15	100	1155.38	
313.15	100	1138.71	

System: 2-methyl-1-propanol; phases: Liquid
Property: Viscosity, Pa*s (Liquid); method: Capillary tube (Ostwald; Ubbelohde) method
Temperature, K	Pressure, kPa	Viscosity, Pa*s	uncertainty
298.15	100	.003307	
303.15	100	.002781	
308.15	100	.002231	

System: 2-propanol; phases: Liquid
Property: Mass density, kg/m3 (Liquid); method: Vibrating tube method
Temperature, K	Pressure, kPa	Mass density, kg/m3	uncertainty
293.15	100	785.253	
298.15	100	781.051	
303.15	100	776.777	
308.15	100	772.422	
313.15	100	767.987	

System: 2-propanol; phases: Liquid
Fixed: Frequency, MHz = 3
Property: Speed of sound, m/s (Liquid); method: Sing-around technique in a fixed-path interferometer
Temperature, K	Pressure, kPa	Speed of sound, m/s	uncertainty
293.15	100	1157.86	
298.15	100	1140.36	
303.15	100	1122.73	
308.15	100	1105.02	
313.15	100	1087.1	

System: 2-propanol; phases: Liquid
Property: Viscosity, Pa*s (Liquid); method: Capillary tube (Ostwald; Ubbelohde) method
Temperature, K	Pressure, kPa	Viscosity, Pa*s	uncertainty
298.15	100	.002063	
303.15	100	.001785	
308.15	100	.001579	

System: 1-butanol; phases: Liquid
Property: Mass density, kg/m3 (Liquid); method: Vibrating tube method
Temperature, K	Pressure, kPa	Mass density, kg/m3	uncertainty
293.15	100	809.778	
298.15	100	805.953	
303.15	100	802.104	
308.15	100	798.228	
313.15	100	794.312	

System: 1-butanol; phases: Liquid
Fixed: Frequency, MHz = 3
Property: Speed of sound, m/s (Liquid); method: Sing-around technique in a fixed-path interferometer
Temperature, K	Pressure, kPa	Speed of sound, m/s	uncertainty
293.15	100	1258.13	
298.15	100	1241.13	
303.15	100	1224.24	
308.15	100	1207.42	
313.15	100	1190.42	

System: 1-butanol; phases: Liquid
Property: Viscosity, Pa*s (Liquid); method: Capillary tube (Ostwald; Ubbelohde) method
Temperature, K	Pressure, kPa	Viscosity, Pa*s	uncertainty
298.15	100	.002564	
303.15	100	.002268	
308.15	100	.001962	

System: 2-methyl-1-propanol + diisopropylamine; phases: Liquid
Fixed: Pressure, kPa = 100
Property: Mass density, kg/m3 (Liquid); method: Vibrating tube method
Temperature, K	Mole fraction of diisopropylamine	Mass density, kg/m3	uncertainty
293.15	0	801.977	
293.15	.0559	799.358	
293.15	.1015	797.256	
293.15	.1519	794.75	
293.15	.2069	791.388	
293.15	.2516	788.402	
293.15	.3055	784.44	
293.15	.3944	777.053	
293.15	.4988	767.362	
293.15	.6017	757.207	
293.15	.7131	745.695	
293.15	.8018	736.752	
293.15	.865	730.13	
293.15	.9062	726.063	
293.15	.9423	722.406	
293.15	1	716.367	
298.15	0	798.104	
298.15	.0559	795.373	
298.15	.1015	793.17	
298.15	.1519	790.54	
298.15	.2069	787.053	
298.15	.2516	783.975	
298.15	.3055	779.915	
298.15	.3944	772.406	
298.15	.4988	762.627	
298.15	.6017	752.43	
298.15	.7131	740.894	
298.15	.8018	731.939	
298.15	.865	725.31	
298.15	.9062	721.237	
298.15	.9423	717.572	
298.15	1	711.509	
303.15	0	794.197	
303.15	.0559	791.352	
303.15	.1015	789.048	
303.15	.1519	786.295	
303.15	.2069	782.684	
303.15	.2516	779.523	
303.15	.3055	775.364	
303.15	.3944	767.74	
303.15	.4988	757.875	
303.15	.6017	747.635	
303.15	.7131	736.075	
303.15	.8018	727.108	
303.15	.865	720.468	
303.15	.9062	716.388	
303.15	.9423	712.714	
303.15	1	706.633	
308.15	0	790.245	
308.15	.0559	787.29	
308.15	.1015	784.881	
308.15	.1519	782.015	
308.15	.2069	778.285	
308.15	.2516	775.033	
308.15	.3055	770.785	
308.15	.3944	763.053	
308.15	.4988	753.106	
308.15	.6017	742.816	
308.15	.7131	731.236	
308.15	.8018	722.253	
308.15	.865	715.609	
308.15	.9062	711.516	
308.15	.9423	707.832	
308.15	1	701.737	
313.15	0	786.237	
313.15	.0559	783.172	
313.15	.1015	780.666	
313.15	.1519	777.684	
313.15	.2069	773.834	
313.15	.2516	770.5	
313.15	.3055	766.167	
313.15	.3944	758.327	
313.15	.4988	748.298	
313.15	.6017	737.966	
313.15	.7131	726.358	
313.15	.8018	717.362	
313.15	.865	710.709	
313.15	.9062	706.606	
313.15	.9423	702.918	
313.15	1	696.811	

System: 2-methyl-1-propanol + diisopropylamine; phases: Liquid
Fixed: Pressure, kPa = 100
Fixed: Frequency, MHz = 3
Property: Speed of sound, m/s (Liquid); method: Sing-around technique in a fixed-path interferometer
Temperature, K	Mole fraction of diisopropylamine	Speed of sound, m/s	uncertainty
293.15	0	1205.72	
293.15	.0559	1212.93	
293.15	.1015	1217.62	
293.15	.1519	1221.52	
293.15	.2069	1223.41	
293.15	.2516	1223.13	
293.15	.3055	1221.28	
293.15	.3944	1214.09	
293.15	.4988	1201	
293.15	.6017	1184.93	
293.15	.7131	1165.08	
293.15	.8018	1149.23	
293.15	.865	1137.28	
293.15	.9062	1130.18	
293.15	.9423	1123.43	
293.15	1	1114.58	
298.15	0	1188.84	
298.15	.0559	1195.37	
298.15	.1015	1199.48	
298.15	.1519	1202.71	
298.15	.2069	1203.99	
298.15	.2516	1203.15	
298.15	.3055	1200.8	
298.15	.3944	1192.93	
298.15	.4988	1179.39	
298.15	.6017	1163.01	
298.15	.7131	1142.98	
298.15	.8018	1126.97	
298.15	.865	1114.75	
298.15	.9062	1107.67	
298.15	.9423	1100.75	
298.15	1	1091.89	
303.15	0	1172.09	
303.15	.0559	1177.92	
303.15	.1015	1181.48	
303.15	.1519	1184.01	
303.15	.2069	1184.62	
303.15	.2516	1183.39	
303.15	.3055	1180.48	
303.15	.3944	1171.97	
303.15	.4988	1157.92	
303.15	.6017	1141.25	
303.15	.7131	1120.97	
303.15	.8018	1104.78	
303.15	.865	1092.43	
303.15	.9062	1085.28	
303.15	.9423	1078.23	
303.15	1	1069.37	
308.15	0	1155.38	
308.15	.0559	1160.5	
308.15	.1015	1163.4	
308.15	.1519	1165.36	
308.15	.2069	1165.32	
308.15	.2516	1163.61	
308.15	.3055	1160.22	
308.15	.3944	1151.1	
308.15	.4988	1136.58	
308.15	.6017	1119.61	
308.15	.7131	1099.09	
308.15	.8018	1082.74	
308.15	.865	1070.31	
308.15	.9062	1063.05	
308.15	.9423	1055.93	
308.15	1	1047.01	
313.15	0	1138.71	
313.15	.0559	1143.044	
313.15	.1015	1145.41	
313.15	.1519	1146.73	
313.15	.2069	1146.01	
313.15	.2516	1143.92	
313.15	.3055	1140.03	
313.15	.3944	1130.34	
313.15	.4988	1115.2	
313.15	.6017	1097.99	
313.15	.7131	1077.18	
313.15	.8018	1060.73	
313.15	.865	1048.21	
313.15	.9062	1040.82	
313.15	.9423	1033.64	
313.15	1	1023.8	

System: 2-methyl-1-propanol + diisopropylamine; phases: Liquid
Fixed: Pressure, kPa = 100
Property: Viscosity, Pa*s (Liquid); method: Capillary tube (Ostwald; Ubbelohde) method
Temperature, K	Mole fraction of diisopropylamine	Viscosity, Pa*s	uncertainty
298.15	0	.003307	
298.15	.0559	.002916	
298.15	.1015	.002616	
298.15	.1519	.002295	
298.15	.2069	.001995	
298.15	.2516	.001765	
298.15	.3055	.001507	
298.15	.3944	.001194	
298.15	.4988	.000926	
298.15	.6017	.00073	
298.15	.7131	.000586	
298.15	.8018	.000504	
298.15	.865	.000455	
298.15	.9062	.000433	
298.15	.9423	.000409	
298.15	1	.000382	
303.15	0	.002781	
303.15	.0559	.002467	
303.15	.1015	.002232	
303.15	.1519	.00198	
303.15	.2069	.001738	
303.15	.2516	.001549	
303.15	.3055	.001346	
303.15	.3944	.001067	
303.15	.4988	.000837	
303.15	.6017	.000674	
303.15	.7131	.000553	
303.15	.8018	.000485	
303.15	.865	.000441	
303.15	.9062	.000419	
303.15	.9423	.000396	
303.15	1	.000364	
308.15	0	.002231	
308.15	.0559	.002005	
308.15	.1015	.001833	
308.15	.1519	.001662	
308.15	.2069	.001459	
308.15	.2516	.001319	
308.15	.3055	.001155	
308.15	.3944	.000931	
308.15	.4988	.000743	
308.15	.6017	.000607	
308.15	.7131	.000509	
308.15	.8018	.000448	
308.15	.865	.000409	
308.15	.9062	.000395	
308.15	.9423	.000379	
308.15	1	.000347	

System: 2-propanol + diisopropylamine; phases: Liquid
Fixed: Pressure, kPa = 100
Property: Mass density, kg/m3 (Liquid); method: Vibrating tube method
Temperature, K	Mole fraction of diisopropylamine	Mass density, kg/m3	uncertainty
293.15	0	785.253	
293.15	.0499	784.394	
293.15	.1033	781.722	
293.15	.1405	779.524	
293.15	.2062	775.598	
293.15	.2498	772.861	
293.15	.303	769.103	
293.15	.4121	761.148	
293.15	.4955	754.667	
293.15	.5984	746.657	
293.15	.6982	739.031	
293.15	.7902	731.947	
293.15	.8632	726.469	
293.15	.9067	723.3	
293.15	.9459	720.432	
293.15	1	716.367	
298.15	0	781.051	
298.15	.0499	780.036	
298.15	.1033	777.229	
298.15	.1405	774.943	
298.15	.2062	770.881	
298.15	.2498	768.073	
298.15	.303	764.243	
298.15	.4121	756.2	
298.15	.4955	749.703	
298.15	.5984	741.695	
298.15	.6982	734.796	
298.15	.7902	727.028	
298.15	.8632	721.574	
298.15	.9067	718.413	
298.15	.9459	715.555	
298.15	1	711.509	
303.15	0	776.777	
303.15	.0499	775.608	
303.15	.1033	772.674	
303.15	.1405	770.304	
303.15	.2062	766.113	
303.15	.2498	763.241	
303.15	.303	759.341	
303.15	.4121	751.219	
303.15	.4955	744.704	
303.15	.5984	736.697	
303.15	.6982	728.964	
303.15	.7902	722.068	
303.15	.8632	716.643	
303.15	.9067	713.499	
303.15	.9459	710.656	
303.15	1	706.633	
308.15	0	772.422	
308.15	.0499	771.111	
308.15	.1033	768.054	
308.15	.1405	765.604	
308.15	.2062	761.291	
308.15	.2498	758.348	
308.15	.303	754.392	
308.15	.4121	746.196	
308.15	.4955	739.666	
308.15	.5984	731.662	
308.15	.6982	723.946	
308.15	.7902	717.078	
308.15	.8632	711.684	
308.15	.9067	708.558	
308.15	.9459	705.732	
308.15	1	701.737	
313.15	0	767.987	
313.15	.0499	766.527	
313.15	.1033	763.35	
313.15	.1405	760.823	
313.15	.2062	756.393	
313.15	.2498	753.392	
313.15	.303	749.377	
313.15	.4121	741.117	
313.15	.4955	734.566	
313.15	.5984	726.573	
313.15	.6982	718.712	
313.15	.7902	712.05	
313.15	.8632	706.682	
313.15	.9067	703.577	
313.15	.9459	700.77	
313.15	1	696.811	

System: 2-propanol + diisopropylamine; phases: Liquid
Fixed: Pressure, kPa = 100
Fixed: Frequency, MHz = 3
Property: Speed of sound, m/s (Liquid); method: Sing-around technique in a fixed-path interferometer
Temperature, K	Mole fraction of diisopropylamine	Speed of sound, m/s	uncertainty
293.15	0	1157.86	
293.15	.0499	1168.16	
293.15	.1033	1173.34	
293.15	.1405	1176.06	
293.15	.2062	1178.33	
293.15	.2498	1178.63	
293.15	.303	1177.1	
293.15	.4121	1170.94	
293.15	.4955	1164.52	
293.15	.5984	1155.02	
293.15	.6982	1146.01	
293.15	.7902	1135.18	
293.15	.8632	1127.49	
293.15	.9067	1122.81	
293.15	.9459	1118.54	
293.15	1	1114.58	
298.15	0	1140.36	
298.15	.0499	1149.72	
298.15	.1033	1154.12	
298.15	.1405	1156.38	
298.15	.2062	1157.81	
298.15	.2498	1157.68	
298.15	.303	1155.65	
298.15	.4121	1148.91	
298.15	.4955	1142.27	
298.15	.5984	1132.58	
298.15	.6982	1122.58	
298.15	.7902	1112.58	
298.15	.8632	1104.65	
298.15	.9067	1100.01	
298.15	.9459	1095.67	
298.15	1	1091.89	
303.15	0	1122.73	
303.15	.0499	1131.34	
303.15	.1033	1134.94	
303.15	.1405	1136.65	
303.15	.2062	1137.32	
303.15	.2498	1136.86	
303.15	.303	1134.36	
303.15	.4121	1127.02	
303.15	.4955	1120.13	
303.15	.5984	1110.28	
303.15	.6982	1100.67	
303.15	.7902	1090.01	
303.15	.8632	1082.04	
303.15	.9067	1077.37	
303.15	.9459	1073.01	
303.15	1	1069.37	
308.15	0	1105.02	
308.15	.0499	1112.91	
308.15	.1033	1115.71	
308.15	.1405	1116.91	
308.15	.2062	1116.89	
308.15	.2498	1115.97	
308.15	.303	1113.15	
308.15	.4121	1105.32	
308.15	.4955	1098.16	
308.15	.5984	1088.13	
308.15	.6982	1078.61	
308.15	.7902	1067.76	
308.15	.8632	1059.73	
308.15	.9067	1055	
308.15	.9459	1050.63	
308.15	1	1047.01	
313.15	0	1087.1	
313.15	.0499	1094.32	
313.15	.1033	1096.35	
313.15	.1405	1097.03	
313.15	.2062	1096.36	
313.15	.2498	1095.03	
313.15	.303	1091.97	
313.15	.4121	1083.66	
313.15	.4955	1076.24	
313.15	.5984	1066	
313.15	.6982	1055.85	
313.15	.7902	1045.59	
313.15	.8632	1037.58	
313.15	.9067	1032.75	
313.15	.9459	1028.4	
313.15	1	1023.8	

System: 2-propanol + diisopropylamine; phases: Liquid
Fixed: Pressure, kPa = 100
Property: Viscosity, Pa*s (Liquid); method: Capillary tube (Ostwald; Ubbelohde) method
Temperature, K	Mole fraction of diisopropylamine	Viscosity, Pa*s	uncertainty
298.15	0	.002063	
298.15	.0499	.001789	
298.15	.1033	.001565	
298.15	.1405	.001437	
298.15	.2062	.001245	
298.15	.2498	.001123	
298.15	.303	.001003	
298.15	.4121	.000809	
298.15	.4955	.000698	
298.15	.5984	.000592	
298.15	.6974	.00052	
298.15	.7902	.000468	
298.15	.8632	.000434	
298.15	.9067	.000412	
298.15	.9459	.000397	
298.15	1	.000382	
303.15	0	.001785	
303.15	.0499	.001565	
303.15	.1033	.001393	
303.15	.1405	.00128	
303.15	.2062	.001108	
303.15	.2498	.001012	
303.15	.303	.000904	
303.15	.4121	.000735	
303.15	.4955	.000639	
303.15	.5984	.000551	
303.15	.6974	.000498	
303.15	.7902	.000447	
303.15	.8632	.000419	
303.15	.9067	.000401	
303.15	.9459	.000388	
303.15	1	.000364	
308.15	0	.001579	
308.15	.0499	.001397	
308.15	.1033	.001253	
308.15	.1405	.001153	
308.15	.2062	.001004	
308.15	.2498	.000922	
308.15	.303	.000825	
308.15	.4121	.000677	
308.15	.4955	.000593	
308.15	.5984	.000513	
308.15	.6974	.000466	
308.15	.7902	.000421	
308.15	.8632	.000398	
308.15	.9067	.000382	
308.15	.9459	.0003694	
308.15	1	.000347	

System: 1-butanol + diisopropylamine; phases: Liquid
Fixed: Pressure, kPa = 100
Property: Mass density, kg/m3 (Liquid); method: Vibrating tube method
Temperature, K	Mole fraction of diisopropylamine	Mass density, kg/m3	uncertainty
293.15	0	809.778	
293.15	.0499	807.061	
293.15	.1095	803.951	
293.15	.1542	801.212	
293.15	.2062	797.717	
293.15	.25	794.484	
293.15	.2969	790.843	
293.15	.4059	780.74	
293.15	.5062	770.572	
293.15	.6009	760.453	
293.15	.7043	749.151	
293.15	.8059	738.23	
293.15	.8543	732.777	
293.15	.8987	727.824	
293.15	.9489	722.518	
293.15	1	716.367	
298.15	0	805.953	
298.15	.0499	803.124	
298.15	.1095	799.884	
298.15	.1542	797.042	
298.15	.2062	793.435	
298.15	.25	790.11	
298.15	.2969	786.387	
298.15	.4059	776.134	
298.15	.5062	765.887	
298.15	.6009	755.726	
298.15	.7043	744.384	
298.15	.8059	733.434	
298.15	.8543	727.978	
298.15	.8987	723.009	
298.15	.9489	717.683	
298.15	1	711.509	
303.15	0	802.104	
303.15	.0499	799.161	
303.15	.1095	795.791	
303.15	.1542	792.847	
303.15	.2062	789.12	
303.15	.25	785.71	
303.15	.2969	781.907	
303.15	.4059	771.512	
303.15	.5062	761.183	
303.15	.6009	750.975	
303.15	.7043	739.605	
303.15	.8059	728.625	
303.15	.8543	723.154	
303.15	.8987	718.174	
303.15	.9489	712.825	
303.15	1	706.633	
308.15	0	798.228	
308.15	.0499	795.163	
308.15	.1095	791.669	
308.15	.1542	788.621	
308.15	.2062	784.784	
308.15	.25	781.288	
308.15	.2969	777.412	
308.15	.4059	766.871	
308.15	.5062	756.466	
308.15	.6009	746.209	
308.15	.7043	734.804	
308.15	.8059	723.796	
308.15	.8543	718.312	
308.15	.8987	713.314	
308.15	.9489	707.945	
308.15	1	701.737	
313.15	0	794.312	
313.15	.0499	791.13	
313.15	.1095	787.512	
313.15	.1542	784.355	
313.15	.2062	780.41	
313.15	.25	776.83	
313.15	.2969	772.878	
313.15	.4059	762.199	
313.15	.5062	751.715	
313.15	.6009	741.411	
313.15	.7043	729.969	
313.15	.8059	718.929	
313.15	.8543	713.431	
313.15	.8987	708.419	
313.15	.9489	703.033	
313.15	1	696.811	

System: 1-butanol + diisopropylamine; phases: Liquid
Fixed: Pressure, kPa = 100
Fixed: Frequency, MHz = 3
Property: Speed of sound, m/s (Liquid); method: Sing-around technique in a fixed-path interferometer
Temperature, K	Mole fraction of diisopropylamine	Speed of sound, m/s	uncertainty
293.15	0	1258.13	
293.15	.0499	1260.57	
293.15	.1095	1262.58	
293.15	.1542	1262.75	
293.15	.2062	1261.4	
293.15	.25	1258.75	
293.15	.2969	1254.66	
293.15	.4059	1239.6	
293.15	.5062	1221.55	
293.15	.6009	1201.87	
293.15	.7043	1179.24	
293.15	.8059	1157.16	
293.15	.8543	1145.87	
293.15	.8987	1135.71	
293.15	.9489	1124.95	
293.15	1	1114.58	
298.15	0	1241.13	
298.15	.0499	1242.98	
298.15	.1095	1244.35	
298.15	.1542	1243.97	
298.15	.2062	1242.11	
298.15	.25	1238.93	
298.15	.2969	1234.39	
298.15	.4059	1218.54	
298.15	.5062	1200.03	
298.15	.6009	1180.12	
298.15	.7043	1157.09	
298.15	.8059	1134.96	
298.15	.8543	1123.51	
298.15	.8987	1113.2	
298.15	.9489	1102.23	
298.15	1	1091.89	
303.15	0	1224.24	
303.15	.0499	1225.56	
303.15	.1095	1226.18	
303.15	.1542	1225.29	
303.15	.2062	1222.72	
303.15	.25	1219.19	
303.15	.2969	1214.23	
303.15	.4059	1197.59	
303.15	.5062	1178.62	
303.15	.6009	1158.41	
303.15	.7043	1135.19	
303.15	.8059	1112.86	
303.15	.8543	1101.31	
303.15	.8987	1090.82	
303.15	.9489	1079.67	
303.15	1	1069.37	
308.15	0	1207.42	
308.15	.0499	1208.2	
308.15	.1095	1208.15	
308.15	.1542	1206.71	
308.15	.2062	1203.56	
308.15	.25	1199.57	
308.15	.2969	1194.23	
308.15	.4059	1176.83	
308.15	.5062	1157.44	
308.15	.6009	1136.86	
308.15	.7043	1113.44	
308.15	.8059	1090.82	
308.15	.8543	1079.23	
308.15	.8987	1068.64	
308.15	.9489	1057.4	
308.15	1	1047.01	
313.15	0	1190.42	
313.15	.0499	1190.97	
313.15	.1095	1190.24	
313.15	.1542	1188.22	
313.15	.2062	1184.97	
313.15	.25	1180.04	
313.15	.2969	1174.27	
313.15	.4059	1156.08	
313.15	.5062	1136.18	
313.15	.6009	1115.3	
313.15	.7043	1091.64	
313.15	.8059	1068.69	
313.15	.8543	1057.1	
313.15	.8987	1046.52	
313.15	.9489	1035.22	
313.15	1	1023.8	

System: 1-butanol + diisopropylamine; phases: Liquid
Fixed: Pressure, kPa = 100
Property: Viscosity, Pa*s (Liquid); method: Capillary tube (Ostwald; Ubbelohde) method
Temperature, K	Mole fraction of diisopropylamine	Viscosity, Pa*s	uncertainty
298.15	0	.002564	
298.15	.0499	.002316	
298.15	.1095	.002056	
298.15	.1542	.00188	
298.15	.2062	.001699	
298.15	.25	.001552	
298.15	.2969	.001414	
298.15	.4059	.001129	
298.15	.5062	.000916	
298.15	.6009	.000755	
298.15	.7043	.00062	
298.15	.8059	.000516	
298.15	.8543	.000477	
298.15	.8987	.000444	
298.15	.9489	.000408	
298.15	1	.000382	
303.15	0	.002268	
303.15	.0499	.002061	
303.15	.1095	.001834	
303.15	.1542	.001688	
303.15	.2062	.001529	
303.15	.25	.001405	
303.15	.2969	.001285	
303.15	.4059	.001037	
303.15	.5062	.000849	
303.15	.6009	.000707	
303.15	.7043	.000583	
303.15	.8059	.000489	
303.15	.8543	.000451	
303.15	.8987	.00042	
303.15	.9489	.000391	
303.15	1	.000364	
308.15	0	.001962	
308.15	.0499	.001793	
308.15	.1095	.001609	
308.15	.1542	.001483	
308.15	.2062	.001353	
308.15	.25	.001251	
308.15	.2969	.001149	
308.15	.4059	.00094	
308.15	.5062	.000777	
308.15	.6009	.000656	
308.15	.7043	.000548	
308.15	.8059	.000467	
308.15	.8543	.000432	
308.15	.8987	.000402	
308.15	.9489	.000374	
308.15	1	.000347	
