Measured thermophysical data. The Use of Antioxidants to Improve Vapor Pressure Measurements on Compounds with Oxidative Instability: Methyl Oleate with tert-Butylhydroquinone
Source: J. Chem. Eng. Data, 2017, 10.1021/acs.jced.6b00821
Compound 1: methyl oleate, C19H36O2
Compound 2: n-eicosane, C20H42
Compound 3: n-octadecane, C18H38

System: methyl oleate; phases: Liquid, Gas
Property: Vapor or sublimation pressure, kPa (Liquid); method: Transpiration method
Temperature, K	Vapor or sublimation pressure, kPa	uncertainty
323.15	.0000283	
313.15	.00000813	
323.15	.0000306	
333.15	.0000919	
323.15	.0000283	
303.15	.00000199	
323.15	.0000309	
343.15	.000242	
323.15	.000028	

System: n-eicosane; phases: Liquid, Gas
Property: Vapor or sublimation pressure, kPa (Liquid); method: Transpiration method
Temperature, K	Vapor or sublimation pressure, kPa	uncertainty
323.15	.000049	
313.15	.0000146	
323.15	.0000488	
333.15	.000147	
323.15	.0000487	
323.15	.0000491	
343.15	.000387	
323.15	.0000464	

System: n-eicosane; phases: Crystal 2, Gas
Property: Vapor or sublimation pressure, kPa (Crystal 2); method: Transpiration method
Temperature, K	Vapor or sublimation pressure, kPa	uncertainty
303.15	.00000264	
