Measured thermophysical data. Tie-Line Data for Aqueous Mixtures of Butyric Acid with Diisopropyl Ether at Various Temperatures
Source: J. Chem. Eng. Data, 2016, 10.1021/acs.jced.5b00527
Compound 1: diisopropyl ether, C6H14O, purity 99%
Compound 2: butyric acid, C4H8O2, purity 99.5%
Compound 3: isobutyric acid, C4H8O2, purity 99%
Compound 4: methanol, CH4O, purity 99.9%
Compound 5: 1-butanol, C4H10O, purity 99.5%
Compound 6: water, H2O, purity 99.9%

System: diisopropyl ether; phases: Liquid
Fixed: Pressure, kPa = 101.325
Property: Mass density, kg/m3 (Liquid); method: Vibrating tube method
Temperature, K	Mass density, kg/m3	uncertainty
298.15	723.8	3

System: diisopropyl ether; phases: Liquid
Fixed: Pressure, kPa = 101.325
Property: Refractive index (Na D-line) (Liquid); method: Standard Abbe refractometry
Temperature, K	Refractive index (Na D-line)	uncertainty
298.15	1.3674	.002

System: butyric acid; phases: Liquid
Fixed: Pressure, kPa = 101.325
Property: Mass density, kg/m3 (Liquid); method: Vibrating tube method
Temperature, K	Mass density, kg/m3	uncertainty
298.15	952.1	3

System: butyric acid; phases: Liquid
Fixed: Pressure, kPa = 101.325
Property: Refractive index (Na D-line) (Liquid); method: Standard Abbe refractometry
Temperature, K	Refractive index (Na D-line)	uncertainty
298.15	1.3981	.002

System: isobutyric acid; phases: Liquid
Fixed: Pressure, kPa = 101.325
Property: Mass density, kg/m3 (Liquid); method: Vibrating tube method
Temperature, K	Mass density, kg/m3	uncertainty
298.15	941.63	3

System: isobutyric acid; phases: Liquid
Fixed: Pressure, kPa = 101.325
Property: Refractive index (Na D-line) (Liquid); method: Standard Abbe refractometry
Temperature, K	Refractive index (Na D-line)	uncertainty
298.15	1.3899	.002

System: methanol; phases: Liquid
Fixed: Pressure, kPa = 101.325
Property: Mass density, kg/m3 (Liquid); method: Vibrating tube method
Temperature, K	Mass density, kg/m3	uncertainty
298.15	791	3

System: methanol; phases: Liquid
Fixed: Pressure, kPa = 101.325
Property: Refractive index (Na D-line) (Liquid); method: Standard Abbe refractometry
Temperature, K	Refractive index (Na D-line)	uncertainty
298.15	1.3281	.002

System: 1-butanol; phases: Liquid
Fixed: Pressure, kPa = 101.325
Property: Mass density, kg/m3 (Liquid); method: Vibrating tube method
Temperature, K	Mass density, kg/m3	uncertainty
298.15	807.96	3

System: 1-butanol; phases: Liquid
Fixed: Pressure, kPa = 101.325
Property: Refractive index (Na D-line) (Liquid); method: Standard Abbe refractometry
Temperature, K	Refractive index (Na D-line)	uncertainty
298.15	1.3941	.002

System: water; phases: Liquid
Fixed: Pressure, kPa = 101.325
Property: Mass density, kg/m3 (Liquid); method: Vibrating tube method
Temperature, K	Mass density, kg/m3	uncertainty
298.15	997.15	3

System: water; phases: Liquid
Fixed: Pressure, kPa = 101.325
Property: Refractive index (Na D-line) (Liquid); method: Standard Abbe refractometry
Temperature, K	Refractive index (Na D-line)	uncertainty
298.15	1.3324	.002

System: butyric acid + diisopropyl ether + water; phases: Liquid mixture 2, Liquid mixture 1
Fixed: Pressure, kPa = 101.325
Property: Mass fraction of butyric acid (Liquid mixture 2); method: Chromatography
Property: Mass fraction of butyric acid (Liquid mixture 1); method: Chromatography
Property: Mass fraction of diisopropyl ether (Liquid mixture 1); method: Chromatography
Temperature, K	Mass fraction of diisopropyl ether	Mass fraction of butyric acid	uncertainty	Mass fraction of butyric acid	uncertainty	Mass fraction of diisopropyl ether	uncertainty
298.15	.9944	0	.0002	0	.0002	.0211	.0002
298.15	.39	.4426	.0002	.0521	.0002	.0164	.0002
298.15	.3206	.4822	.0002	.0576	.0002	.016	.0002
313.15	.2035	.5248	.0002	.08	.0002	.0107	.0002
298.15	.2262	.5334	.0002	.0659	.0002	.0143	.0002
313.15	.8894	.0783	.0002	.0148	.0002	.0239	.0002
313.15	.8216	.126	.0002	.0204	.0002	.0232	.0002
313.15	.6757	.2402	.0002	.0365	.0002	.0209	.0002
313.15	.5861	.3044	.0002	.0401	.0002	.02	.0002
313.15	.4858	.3761	.0002	.055	.0002	.0181	.0002
313.15	.3635	.4503	.0002	.0654	.0002	.0155	.0002
323.15	.3651	.422	.0002	.0719	.0002	.0161	.0002
313.15	.2806	.4921	.0002	.0744	.0002	.0132	.0002
323.15	.9865	0	.0002	0	.0002	.0337	.0002
298.15	.8676	.0962	.0002	.0131	.0002	.0159	.0002
323.15	.911	.0594	.0002	.0168	.0002	.0317	.0002
323.15	.7971	.1336	.0002	.0266	.0002	.0258	.0002
323.15	.6893	.2205	.0002	.0341	.0002	.0227	.0002
323.15	.5214	.323	.0002	.0472	.0002	.0199	.0002
323.15	.4322	.379	.0002	.0593	.0002	.0178	.0002
323.15	.2646	.4883	.0002	.0851	.0002	.0149	.0002
313.15	.9896	0	.0002	0	.0002	.0308	.0002
323.15	.1904	.519	.0002	.0952	.0002	.0098	.0002
298.15	.7389	.2022	.0002	.0258	.0002	.0167	.0002
298.15	.659	.2625	.0002	.0327	.0002	.0171	.0002
298.15	.5305	.3512	.0002	.0416	.0002	.0168	.0002
298.15	.47	.3922	.0002	.0467	.0002	.0167	.0002

System: diisopropyl ether + water; phases: Liquid mixture 2, Liquid mixture 1
Property: Mass fraction of diisopropyl ether (Liquid mixture 2); method: Chromatography
Temperature, K	Pressure, kPa	Mass fraction of diisopropyl ether	uncertainty
298.15	101.325	.9944	.0002
313.15	101.325	.9896	.0002
323.15	101.325	.9865	.0002

System: diisopropyl ether + water; phases: Liquid mixture 1, Liquid mixture 2
Property: Mass fraction of diisopropyl ether (Liquid mixture 1); method: Chromatography
Temperature, K	Pressure, kPa	Mass fraction of diisopropyl ether	uncertainty
298.15	101.325	.0211	.0002
313.15	101.325	.0308	.0002
323.15	101.325	.0337	.0002
