Measured thermophysical data. Enthalpies of Mixing in the LaI3-MI (M = Li, Na, K, Rb, Cs) Binary Systems
Source: J. Chem. Eng. Data, 2015, 10.1021/acs.jced.5b00288
Compound 1: lanthanum triiodide, I3La, purity 99.9%
Compound 2: sodium iodide, INa, purity 99.9%
Compound 3: potassium iodide, IK, purity 99.9%
Compound 4: cesium iodide, CsI, purity 99.9%

System: sodium iodide + lanthanum triiodide; phases: Liquid
Fixed: Pressure, kPa = 101
Fixed: Temperature, K = 1060
Property: Excess molar enthalpy (molar enthalpy of mixing), kJ/mol (Liquid); method: Calvet calorimetry
Mole fraction of lanthanum triiodide	Excess molar enthalpy (molar enthalpy of mixing), kJ/mol	uncertainty
.0482	-.792	-.06336
.0991	-1.737	-.13896
.1503	-1.934	-.15472
.2	-2.836	-.22688
.2477	-2.298	-.18384
.296	-3.435	-.2748
.3412	-2.739	-.21912
.3968	-2.887	-.23096
.3984	-3.192	-.25536
.4454	-2.858	-.22864
.4931	-2.079	-.16632
.4966	-2.412	-.19296
.5392	-2.533	-.20264

System: potassium iodide + lanthanum triiodide; phases: Liquid
Fixed: Pressure, kPa = 101
Fixed: Temperature, K = 1060
Property: Excess molar enthalpy (molar enthalpy of mixing), kJ/mol (Liquid); method: Calvet calorimetry
Mole fraction of lanthanum triiodide	Excess molar enthalpy (molar enthalpy of mixing), kJ/mol	uncertainty
.048	-1.94	-.1552
.1	-4.072	-.32576
.152	-6.396	-.51168
.199	-6.863	-.54904
.199	-8.071	-.64568
.246	-8.918	-.71344
.25	-7.361	-.58888
.304	-7.484	-.59872
.348	-7.921	-.63368
.354	-9.618	-.76944
.398	-8.058	-.64464

System: cesium iodide + lanthanum triiodide; phases: Liquid
Fixed: Pressure, kPa = 101
Fixed: Temperature, K = 1060
Property: Molar enthalpy of solution, kJ/mol (Liquid); method: Calvet calorimetry
Mole fraction of lanthanum triiodide	Molar enthalpy of solution, kJ/mol	uncertainty
.091	-5.933	-.47464
.251	-12.964	-1.03712
.302	-15.628	-1.25024
.343	-15.251	-1.22008
.4	-13.268	-1.06144
.4	-16.067	-1.28536
.439	-13.951	-1.11608
.493	-13.605	-1.0884
