Measured thermophysical data. Vapor Liquid Equilibrium of Water + Ethanol + Glycerol: Experimental Measurement and Modeling for Ethanol Dehydration by Extractive Distillation
Source: J. Chem. Eng. Data, 2015, 10.1021/acs.jced.5b00116
Compound 1: water, H2O, purity 99.9%
Compound 2: ethanol, C2H6O, purity 99.8%
Compound 3: glycerol, C3H8O3, purity 99.5%

System: glycerol + ethanol + water; phases: Gas, Liquid
Fixed: Pressure, kPa = 100
Property: Mole fraction of water (Gas); method: Titration method
Solvent: Mole fraction of ethanol	Mass fraction of glycerol	Mole fraction of water	uncertainty
.104	.807	.525	.00525
.104	.695	.525	.00525
.104	.601	.529	.00529
.0999	.508	.538	.00538
.0985	.402	.541	.00541
.098	.302	.554	.00554
.0996	.199	.55	.0055
.103	.1	.549	.00549
.201	.8	.37	.0037
.201	.701	.377	.00377
.2	.604	.39	.0039
.199	.504	.405	.00405
.199	.402	.417	.00417
.2	.285	.43	.0043
.201	.207	.437	.00437
.201	.101	.453	.00453
.401	.801	.211	.00211
.399	.7	.238	.00238
.4	.602	.263	.00263
.4	.503	.285	.00285
.4	.403	.306	.00306
.4	.304	.326	.00326
.4	.205	.345	.00345
.4	.103	.359	.00359
.6	.801	.121	.00121
.598	.702	.143	.00143
.598	.603	.166	.00166
.597	.505	.191	.00191
.599	.404	.213	.00213
.598	.301	.237	.00237
.601	.2	.253	.00253
.6	.102	.274	.00274
.803	.804	.0499	.000499
.804	.704	.0647	.000647
.801	.601	.0805	.000805
.8	.503	.0966	.000966
.8	.403	.112	.00112
.8	.303	.128	.00128
.8	.206	.144	.00144
.8	.101	.161	.00161
.948	.814	.0118	.000118
.95	.698	.0158	.000158
.95	.604	.0196	.000196
.95	.503	.0243	.000243
.949	.405	.0293	.000293
.95	.301	.0339	.000339
.949	.201	.0398	.000398
.95	.102	.0455	.000455

System: glycerol + ethanol + water; phases: Gas, Liquid
Fixed: Pressure, kPa = 100
Property: Mole fraction of ethanol (Gas); method: Chromatography
Solvent: Mole fraction of ethanol	Mass fraction of glycerol	Mole fraction of ethanol	uncertainty
.104	.807	.474	.00474
.104	.695	.475	.00475
.104	.601	.471	.00471
.0999	.508	.462	.00462
.0985	.402	.459	.00459
.098	.302	.446	.00446
.0996	.199	.45	.0045
.103	.1	.451	.00451
.201	.8	.63	.0063
.201	.701	.623	.00623
.2	.604	.61	.0061
.199	.504	.595	.00595
.199	.402	.583	.00583
.2	.285	.57	.0057
.201	.207	.563	.00563
.201	.101	.547	.00547
.401	.801	.789	.00789
.399	.7	.762	.00762
.4	.602	.737	.00737
.4	.503	.715	.00715
.4	.403	.694	.00694
.4	.304	.674	.00674
.4	.205	.655	.00655
.4	.103	.641	.00641
.6	.801	.879	.00879
.598	.702	.857	.00857
.598	.603	.834	.00834
.597	.505	.809	.00809
.599	.404	.787	.00787
.598	.301	.763	.00763
.601	.2	.747	.00747
.6	.102	.726	.00726
.803	.804	.9499	.009499
.804	.704	.9353	.009353
.801	.601	.9194	.009194
.8	.503	.9034	.009034
.8	.403	.888	.00888
.8	.303	.872	.00872
.8	.206	.856	.00856
.8	.101	.839	.00839
.948	.814	.9881	.009881
.95	.698	.9841	.009841
.95	.604	.9803	.009803
.95	.503	.9757	.009757
.949	.405	.9706	.009706
.95	.301	.9661	.009661
.949	.201	.9602	.009602
.95	.102	.9545	.009545

System: glycerol + ethanol + water; phases: Liquid, Gas
Fixed: Pressure, kPa = 100
Property: Boiling temperature at pressure P, K (Liquid); method: Ebulliometric method (Recirculating still)
Solvent: Mole fraction of ethanol	Mass fraction of glycerol	Boiling temperature at pressure P, K	uncertainty
.104	.807	379.33	.08
.104	.695	370.62	.08
.104	.601	366.64	.08
.0999	.508	364.36	.08
.0985	.402	362.45	.08
.098	.302	361.17	.08
.0996	.199	359.99	.08
.103	.1	359.25	.08
.201	.8	373.04	.08
.201	.701	366.25	.08
.2	.604	362.55	.08
.199	.504	360.16	.08
.199	.402	358.61	.08
.2	.285	357.38	.08
.201	.207	356.79	.08
.201	.101	356.18	.08
.401	.801	368.61	.08
.399	.7	362.91	.08
.4	.602	359.75	.08
.4	.503	357.72	.08
.4	.403	356.32	.08
.4	.304	355.33	.08
.4	.205	354.54	.08
.4	.103	353.9	.08
.6	.801	366.53	.08
.598	.702	361.9	.08
.598	.603	359	.08
.597	.505	357.09	.08
.599	.404	355.64	.08
.598	.301	354.5	.08
.601	.2	353.52	.08
.6	.102	352.69	.08
.803	.804	366.03	.08
.804	.704	361.79	.08
.801	.601	358.85	.08
.8	.503	357.04	.08
.8	.403	355.61	.08
.8	.303	354.38	.08
.8	.206	353.29	.08
.8	.101	352.15	.08
.948	.814	366.2	.08
.95	.698	361.58	.08
.95	.604	359.1	.08
.95	.503	357.2	.08
.949	.405	355.89	.08
.95	.301	354.6	.08
.949	.201	353.42	.08
.95	.102	352.22	.08

System: glycerol + water; phases: Liquid, Gas
Fixed: Pressure, kPa = 101.33
Property: Boiling temperature at pressure P, K (Liquid); method: Ebulliometric method (Recirculating still)
Mass fraction of glycerol	Boiling temperature at pressure P, K	uncertainty
.7996	392.18	.08
.8957	407.44	.08
.9247	416.55	.08
.9502	428.63	.08

System: glycerol + water; phases: Liquid
Fixed: Pressure, kPa = 101
Fixed: Mass fraction of water = 0
Property: Activity coefficient of water (Liquid); method: Chromatography
Temperature, K	Activity coefficient of water	uncertainty
313.15	.73	.0365
333.15	.75	.0375
353.15	.78	.039
373.15	.79	.0395
393.15	.8	.04

System: glycerol + ethanol; phases: Liquid
Fixed: Pressure, kPa = 101
Fixed: Mass fraction of ethanol = 0
Property: Activity coefficient of ethanol (Liquid); method: Chromatography
Temperature, K	Activity coefficient of ethanol	uncertainty
313.15	4.76	.238
333.15	3.98	.199
353.15	3.73	.1865
373.15	3.52	.176
393.15	3.25	.1625
