Measured thermophysical data. Solid Liquid Phase Equilibrium for the Ternary System (Potassium Chloride + Potassium Dihydrogen Phosphate + Water) at (298.15 and 313.15) K
Source: J. Chem. Eng. Data, 2015, 10.1021/acs.jced.5b00113
Compound 1: potassium chloride, ClK, purity 99.5%
Compound 2: monopotassium phosphate, H2KO4P, purity 99.5%
Compound 3: water, H2O, purity 99.8%

System: potassium chloride + water + monopotassium phosphate; phases: Liquid, Crystal
Fixed: Pressure, kPa = 88.35
Property: Mass fraction of monopotassium phosphate (Liquid); method: Titration method
Temperature, K	Mass fraction of potassium chloride	Mass fraction of monopotassium phosphate	uncertainty
298.15	.2642	0	0
298.15	.2479	.0147	.000735
313.15	.284	0	0
313.15	.2799	.0184	.00092

System: potassium chloride + water + monopotassium phosphate; phases: Liquid, Crystal
Fixed: Pressure, kPa = 88.35
Property: Mass fraction of monopotassium phosphate (Liquid); method: Titration method
Temperature, K	Mass fraction of potassium chloride	Mass fraction of monopotassium phosphate	uncertainty
298.15	.1874	.0527	.002635
298.15	.1581	.0638	.00319
298.15	.1102	.0836	.00418
298.15	.0896	.098	.0049
298.15	.0533	.1223	.006115
298.15	.0408	.1513	.007565
298.15	.0203	.164	.0082
298.15	0	.2049	.010245
313.15	.253	.0547	.002735
313.15	.2089	.0679	.003395
313.15	.176	.0854	.00427
313.15	.1492	.108	.0054
313.15	.1243	.123	.00615
313.15	.1127	.1402	.00701
313.15	.0768	.1766	.00883
313.15	.0532	.1848	.00924
313.15	.0374	.1996	.00998
313.15	.0284	.2227	.011135
313.15	0	.2504	.01252

System: potassium chloride + water + monopotassium phosphate; phases: Liquid, Crystal, Crystal
Fixed: Pressure, kPa = 88.35
Property: Mass fraction of monopotassium phosphate (Liquid); method: Titration method
Temperature, K	Mass fraction of monopotassium phosphate	uncertainty
298.15	.036	.00036
298.15	.0366	.000366
313.15	.0436	.000436
313.15	.044	.00044
313.15	.0444	.000444

System: potassium chloride + water + monopotassium phosphate; phases: Liquid, Crystal, Crystal
Fixed: Pressure, kPa = 88.35
Property: Mass fraction of potassium chloride (Liquid); method: Titration method
Temperature, K	Mass fraction of potassium chloride	uncertainty
298.15	.2349	.002349
298.15	.2437	.002437
313.15	.274	.00274
313.15	.2635	.002635
313.15	.2726	.002726

System: potassium chloride + water + monopotassium phosphate; phases: Liquid
Fixed: Pressure, kPa = 88.35
Property: Refractive index (Na D-line) (Liquid); method: Standard Abbe refractometry
Temperature, K	Mass fraction of potassium chloride	Mass fraction of monopotassium phosphate	Refractive index (Na D-line)	uncertainty
298.15	.2642	0	1.3678	.00027356
298.15	.2479	.0147	1.3681	.00027362
298.15	.2349	.036	1.3696	.00027392
298.15	.2437	.0366	1.37	.000274
298.15	.1874	.0527	1.3639	.00027278
298.15	.1581	.0638	1.3601	.00027202
298.15	.1102	.0836	1.3594	.00027188
298.15	.0896	.098	1.3578	.00027156
298.15	.0533	.1223	1.356	.0002712
298.15	.0408	.1513	1.3553	.00027106
298.15	.0203	.164	1.3557	.00027114
298.15	0	.2049	1.3561	.00027122
313.15	.284	0	1.3683	.00027366
313.15	.2799	.0184	1.3695	.0002739
313.15	.274	.0436	1.3726	.00027452
313.15	.2635	.044	1.3708	.00027416
313.15	.2726	.0444	1.371	.0002742
313.15	.253	.0547	1.3714	.00027428
313.15	.2089	.0679	1.3686	.00027372
313.15	.176	.0854	1.3655	.0002731
313.15	.1492	.108	1.3631	.00027262
313.15	.1243	.123	1.3623	.00027246
313.15	.1127	.1402	1.3618	.00027236
313.15	.0768	.1766	1.361	.0002722
313.15	.0532	.1848	1.3608	.00027216
313.15	.0374	.1996	1.3605	.0002721
313.15	.0284	.2227	1.3603	.00027206
313.15	0	.2504	1.3612	.00027224

System: potassium chloride + water + monopotassium phosphate; phases: Liquid
Fixed: Pressure, kPa = 88.35
Property: Mass density, kg/m3 (Liquid); method: Gravimetric
Temperature, K	Mass fraction of monopotassium phosphate	Mass fraction of potassium chloride	Mass density, kg/m3	uncertainty
298.15	0	.2642	1180	5.9
298.15	.0147	.2479	1193.6	5.968
298.15	.036	.2349	1216.5	6.0825
298.15	.0366	.2437	1196.9	5.9845
298.15	.0527	.1874	1200.7	6.0035
298.15	.0638	.1581	1147.7	5.7385
298.15	.0836	.1102	1143.6	5.718
298.15	.098	.0896	1139.8	5.699
298.15	.1223	.0533	1139.6	5.698
298.15	.1513	.0408	1139.5	5.6975
298.15	.164	.0203	1142	5.71
298.15	.2049	0	1153.1	5.7655
313.15	0	.284	1195.6	5.978
313.15	.0184	.2799	1200.1	6.0005
313.15	.0436	.274	1214.5	6.0725
313.15	.044	.2635	1210.6	6.053
313.15	.0444	.2726	1210.4	6.052
313.15	.0547	.253	1207	6.035
313.15	.0679	.2089	1186.5	5.9325
313.15	.0854	.176	1179.7	5.8985
313.15	.108	.1492	1165.8	5.829
313.15	.123	.1243	1165.3	5.8265
313.15	.1402	.1127	1164.7	5.8235
313.15	.1766	.0768	1162.2	5.811
313.15	.1848	.0532	1168.5	5.8425
313.15	.1996	.0374	1173	5.865
313.15	.2227	.0284	1177.4	5.887
313.15	.2504	0	1183.9	5.9195
