Measured thermophysical data. Molar Enthalpy of Mixing for Choline Chloride/Urea Deep Eutectic Solvent + Water System
Source: J. Chem. Eng. Data, 2016, 10.1021/acs.jced.6b00569
Compound 1: choline chloride, C5H14ClNO, purity 98%
Compound 2: urea, CH4N2O, purity 99%
Compound 3: water, H2O, purity 99.8%

System: urea + choline chloride + water; phases: Liquid
Fixed: Pressure, kPa = 101
Property: Molar enthalpy of mixing with solvent, kJ/mol of water (Liquid); method: Power-compensation calorimetry
Temperature, K	Mole fraction of water	Solvent: Amount ratio of component to other component of binary solvent of urea	Molar enthalpy of mixing with solvent, kJ/mol of water	uncertainty
308.15	.8874	1.5	.11029	
308.15	.7998	1.5	.12197	
308.15	.6645	1.5	.05202	
308.15	.5399	1.5	-.08887	
308.15	.4067	1.5	-.18243	
308.15	.3465	1.5	-.19405	
308.15	.178	1.5	-.15395	
308.15	.1121	1.5	-.12278	
318.15	.9331	1.5	.11342	
318.15	.9032	1.5	.13822	
318.15	.8447	1.5	.17503	
318.15	.489	1.5	-.19509	
318.15	.3918	1.5	-.25967	
318.15	.2488	1.5	-.27905	
318.15	.11	1.5	-.1736	
318.15	.9205	2	.11487	
318.15	.8838	2	.14489	
318.15	.8195	2	.18581	
318.15	.5203	2	.05402	
318.15	.3651	2	-.04266	
318.15	.225	2	-.09403	
318.15	.0911	2	-.08708	
308.15	.9245	2	.11209	
308.15	.8451	2	.17523	
308.15	.7116	2	.22268	
308.15	.4913	2	.15402	
308.15	.3117	2	-.05461	
308.15	.1618	2	-.09734	
308.15	.0906	2	-.06699	
308.15	.8357	2.5	.18294	
308.15	.7204	2.5	.25571	
308.15	.5609	2.5	.28993	
308.15	.4359	2.5	.21274	
308.15	.2908	2.5	.13579	
308.15	.1743	2.5	.07915	
308.15	.0733	2.5	.04184	
318.15	.9011	2.5	.13814	
318.15	.8607	2.5	.17874	
318.15	.7834	2.5	.23524	
318.15	.5927	2.5	.22932	
318.15	.4298	2.5	.1684	
318.15	.2396	2.5	.06789	
318.15	.1214	2.5	.0247	
318.15	.0757	2.5	.01007	
