Measured thermophysical data. Isobaric Vapor Liquid Equilibrium for Binary System of -Butyrolactone + Succinic Anhydride at 20.0, 30.0, and 40.0 kPa
Source: J. Chem. Eng. Data, 2017, 10.1021/acs.jced.7b00008
Compound 1: .gamma.-butyrolactone, C4H6O2, purity 99%
Compound 2: succinic anhydride, C4H4O3, purity 99.5%

System: .gamma.-butyrolactone; phases: Liquid, Gas
Property: Vapor or sublimation pressure, kPa (Liquid); method: Ebulliometric method (Recirculating still)
Temperature, K	Vapor or sublimation pressure, kPa	uncertainty
420.11	20	
432.89	30	
442.63	40	

System: succinic anhydride; phases: Liquid, Gas
Property: Vapor or sublimation pressure, kPa (Liquid); method: Ebulliometric method (Recirculating still)
Temperature, K	Vapor or sublimation pressure, kPa	uncertainty
475.01	20	
488.81	30	
499.14	40	

System: .gamma.-butyrolactone + succinic anhydride; phases: Liquid, Gas
Property: Boiling temperature at pressure P, K (Liquid); method: Ebulliometric method (Recirculating still)
Mole fraction of .gamma.-butyrolactone	Pressure, kPa	Boiling temperature at pressure P, K	uncertainty
1	20	420.11	
.926	20	422.49	
.825	20	426.08	
.723	20	430.25	
.658	20	433.07	
.615	20	435.19	
.563	20	437.89	
.509	20	440.81	
.454	20	444.1	
.381	20	448.96	
.307	20	454.03	
.189	20	462.58	
0	20	475.01	
1	30	432.89	
.929	30	435.21	
.828	30	439.04	
.748	30	442.29	
.69	30	445	
.632	30	447.96	
.558	30	452.05	
.492	30	455.89	
.426	30	459.97	
.363	30	464.22	
.271	30	470.76	
.191	30	476.45	
0	30	488.81	
1	40	442.63	
.936	40	444.79	
.85	40	447.98	
.783	40	450.71	
.728	40	453.11	
.652	40	456.74	
.578	40	460.62	
.518	40	464.11	
.449	40	468.38	
.378	40	473.18	
.292	40	478.73	
.186	40	486.22	
0	40	499.14	

System: .gamma.-butyrolactone + succinic anhydride; phases: Gas, Liquid
Property: Mole fraction of .gamma.-butyrolactone (Gas); method: Chromatography
Mole fraction of .gamma.-butyrolactone	Pressure, kPa	Mole fraction of .gamma.-butyrolactone	uncertainty
1	20	1	
.926	20	.996	
.825	20	.982	
.723	20	.959	
.658	20	.939	
.615	20	.923	
.563	20	.9	
.509	20	.869	
.454	20	.83	
.381	20	.765	
.307	20	.677	
.189	20	.479	
0	20	0	
1	30	1	
.929	30	.994	
.828	30	.98	
.748	30	.965	
.69	30	.948	
.632	30	.926	
.558	30	.889	
.492	30	.843	
.426	30	.784	
.363	30	.715	
.271	30	.587	
.191	30	.441	
0	30	0	
1	40	1	
.936	40	.992	
.85	40	.977	
.783	40	.962	
.728	40	.946	
.652	40	.917	
.578	40	.879	
.518	40	.841	
.449	40	.789	
.378	40	.716	
.292	40	.609	
.186	40	.428	
0	40	0	
