Measured thermophysical data. sothermal and Isobaric Vapor-Liquid Equilibrium and Excess Molar Enthalpy of the Binary Mixtures of 2-Methoxy-2-methylpropane + 2-Methyl-2-butanol or + 2-Butanol
Source: J. Chem. Eng. Data, 2015, 10.1021/acs.jced.5b00300
Compound 1: 1,1-dimethylethyl methyl ether, C5H12O, purity 99.9%
Compound 2: 2-methyl-2-butanol, C5H12O, purity 99.8%
Compound 3: (RS)-2-butanol, C4H10O, purity 99.5%

System: 1,1-dimethylethyl methyl ether; phases: Liquid
Fixed: Pressure, kPa = 101.325
Property: Refractive index (Na D-line) (Liquid); method: Standard Abbe refractometry
Temperature, K	Refractive index (Na D-line)	uncertainty
298.15	1.3661	.0005

System: 1,1-dimethylethyl methyl ether; phases: Liquid, Gas
Property: Vapor or sublimation pressure, kPa (Liquid); method: Ebulliometric method (Recirculating still)
Temperature, K	Vapor or sublimation pressure, kPa	uncertainty
324.45	90.1	.2
323.2	86	.2
324.6	90.1	.2
323.1	85.8	.2

System: 2-methyl-2-butanol; phases: Liquid
Fixed: Pressure, kPa = 101.325
Property: Refractive index (Na D-line) (Liquid); method: Standard Abbe refractometry
Temperature, K	Refractive index (Na D-line)	uncertainty
298.15	1.4022	.0005

System: 2-methyl-2-butanol; phases: Liquid, Gas
Property: Vapor or sublimation pressure, kPa (Liquid); method: Ebulliometric method (Recirculating still)
Temperature, K	Vapor or sublimation pressure, kPa	uncertainty
371.85	90.1	.2

System: (RS)-2-butanol; phases: Liquid
Fixed: Pressure, kPa = 101.325
Property: Refractive index (Na D-line) (Liquid); method: Standard Abbe refractometry
Temperature, K	Refractive index (Na D-line)	uncertainty
298.15	1.3951	.0005

System: (RS)-2-butanol; phases: Liquid, Gas
Property: Vapor or sublimation pressure, kPa (Liquid); method: Ebulliometric method (Recirculating still)
Temperature, K	Vapor or sublimation pressure, kPa	uncertainty
369.32	90.1	.2
323.1	10.8	.2

System: 2-methyl-2-butanol + 1,1-dimethylethyl methyl ether; phases: Liquid, Gas
Property: Boiling temperature at pressure P, K (Liquid); method: Ebulliometric method (Recirculating still)
Mole fraction of 1,1-dimethylethyl methyl ether	Pressure, kPa	Boiling temperature at pressure P, K	uncertainty
0	90.1	371.85	.01
.064	90.1	365.95	.04
.09	90.1	363.25	.06
.11	90.1	361.95	.04
.143	90.1	359.35	.05
.185	90.1	356.35	.05
.217	90.1	354.15	.03
.238	90.1	352.65	.05
.265	90.1	351.05	.08
.298	90.1	349.25	.07
.3	90.1	348.85	.1
.321	90.1	347.65	.06
.341	90.1	346.35	.06
.372	90.1	344.55	.07
.41	90.1	342.65	.05
.447	90.1	340.95	.03
.512	90.1	338.45	.06
.678	90.1	332.95	.05
.768	90.1	330.45	.04
.846	90.1	328.45	.04
.909	90.1	326.75	.04
.975	90.1	325.05	.09
1	90.1	324.45	.03

System: 2-methyl-2-butanol + 1,1-dimethylethyl methyl ether; phases: Gas, Liquid
Property: Mole fraction of 1,1-dimethylethyl methyl ether (Gas); method: Chromatography
Mole fraction of 1,1-dimethylethyl methyl ether	Pressure, kPa	Mole fraction of 1,1-dimethylethyl methyl ether	uncertainty
0	90.1	0	.004
.064	90.1	.248	.004
.09	90.1	.347	.004
.11	90.1	.389	.004
.143	90.1	.472	.004
.185	90.1	.544	.004
.217	90.1	.597	.004
.238	90.1	.63	.004
.265	90.1	.669	.004
.298	90.1	.701	.004
.3	90.1	.703	.004
.321	90.1	.725	.004
.341	90.1	.748	.004
.372	90.1	.775	.004
.41	90.1	.81	.004
.447	90.1	.836	.004
.512	90.1	.868	.004
.678	90.1	.928	.004
.768	90.1	.95	.004
.846	90.1	.968	.004
.909	90.1	.981	.004
.975	90.1	.995	.004
1	90.1	1	.004

System: 2-methyl-2-butanol + 1,1-dimethylethyl methyl ether; phases: Liquid, Gas
Property: Vapor or sublimation pressure, kPa (Liquid); method: Ebulliometric method (Recirculating still)
Mole fraction of 1,1-dimethylethyl methyl ether	Temperature, K	Vapor or sublimation pressure, kPa	uncertainty
1	323.2	86	.2
.935	323.2	81.1	.2
.872	323.16	76.6	.2
.797	323.16	71.5	.2
.71	322.94	65.3	.2
.725	323.15	66.9	.2
.607	323.14	59.2	.2
.509	323.19	52.8	.2
.379	323.16	43.3	.2
.332	323.2	39.5	.2
.259	323.22	33.6	.2

System: 2-methyl-2-butanol + 1,1-dimethylethyl methyl ether; phases: Gas, Liquid
Property: Mole fraction of 1,1-dimethylethyl methyl ether (Gas); method: Chromatography
Mole fraction of 1,1-dimethylethyl methyl ether	Temperature, K	Mole fraction of 1,1-dimethylethyl methyl ether	uncertainty
1	323.2	1	.003
.935	323.2	.988	.003
.872	323.16	.976	.003
.797	323.16	.962	.003
.71	322.94	.945	.003
.725	323.15	.948	.003
.607	323.14	.922	.003
.509	323.19	.895	.003
.379	323.16	.844	.003
.332	323.2	.824	.003
.259	323.22	.764	.003

System: 2-methyl-2-butanol + 1,1-dimethylethyl methyl ether; phases: Liquid
Property: Excess molar enthalpy (molar enthalpy of mixing), kJ/mol (Liquid); method: Flow calorimetry
Pressure, kPa	Temperature, K	Mole fraction of 1,1-dimethylethyl methyl ether	Excess molar enthalpy (molar enthalpy of mixing), kJ/mol	uncertainty
1085	363.15	.099	.108	.002
1085	363.15	.099	.105	.002
1085	363.15	.2	.218	.005
1085	363.15	.3	.311	.007
1085	363.15	.4	.389	.01
1085	363.15	.4	.4	.01
1085	363.15	.48	.449	.01
1085	363.15	.5	.453	.01
1085	363.15	.6	.47	.02
1085	363.15	.7	.451	.02
1085	363.15	.799	.374	.01
1085	363.15	.892	.241	.01
1085	363.15	.9	.223	.01
1085	363.15	.9	.233	.01
1085	363.15	.916	.187	.008
1085	363.15	.932	.144	.006
1085	363.15	.948	.088	.004
317	323.15	.083	.085	.002
317	323.15	.199	.245	.005
317	323.15	.3	.38	.008
317	323.15	.399	.518	.01
317	323.15	.476	.581	.01
317	323.15	.476	.585	.01
317	323.15	.6	.66	.01
317	323.15	.7	.649	.01
317	323.15	.8	.55	.01
317	323.15	.901	.331	.007
317	323.15	.901	.327	.007
317	323.15	.927	.227	.006
204	322.6	.099	.104	.003
204	322.6	.198	.24	.006
204	322.6	.3	.386	.009
204	322.6	.399	.513	.01
204	322.6	.498	.609	.01
204	322.6	.599	.664	.02
204	322.6	.698	.651	.02
204	322.6	.698	.65	.02
204	322.6	.799	.553	.01
204	322.6	.899	.331	.008

System: (RS)-2-butanol + 1,1-dimethylethyl methyl ether; phases: Liquid, Gas
Property: Boiling temperature at pressure P, K (Liquid); method: Ebulliometric method (Recirculating still)
Mole fraction of 1,1-dimethylethyl methyl ether	Pressure, kPa	Boiling temperature at pressure P, K	uncertainty
0	90.1	369.32	.002
.046	90.1	364.54	.02
.074	90.1	361.93	.04
.109	90.1	358.93	.02
.138	90.1	356.15	.04
.178	90.1	353.25	.05
.218	90.1	350.55	.06
.242	90.1	348.96	.05
.291	90.1	346.2	.06
.331	90.1	344.05	.02
.38	90.1	341.97	.04
.407	90.1	340.69	.04
.429	90.1	339.92	.03
.476	90.1	338.15	.05
.544	90.1	335.97	.04
.612	90.1	333.91	.03
.695	90.1	331.77	.02
.776	90.1	329.8	.02
.83	90.1	328.52	.01
.917	90.1	326.53	.01
1	90.1	324.6	.03

System: (RS)-2-butanol + 1,1-dimethylethyl methyl ether; phases: Gas, Liquid
Property: Mole fraction of 1,1-dimethylethyl methyl ether (Gas); method: Chromatography
Mole fraction of 1,1-dimethylethyl methyl ether	Pressure, kPa	Mole fraction of 1,1-dimethylethyl methyl ether	uncertainty
0	90.1	0	.004
.046	90.1	.216	.004
.074	90.1	.32	.004
.109	90.1	.418	.004
.138	90.1	.492	.004
.178	90.1	.567	.004
.218	90.1	.632	.004
.242	90.1	.669	.004
.291	90.1	.724	.004
.331	90.1	.761	.004
.38	90.1	.796	.004
.407	90.1	.812	.004
.429	90.1	.826	.004
.476	90.1	.85	.004
.544	90.1	.875	.004
.612	90.1	.9	.004
.695	90.1	.923	.004
.776	90.1	.944	.004
.83	90.1	.958	.004
.917	90.1	.979	.004
1	90.1	1	.004

System: (RS)-2-butanol + 1,1-dimethylethyl methyl ether; phases: Liquid, Gas
Property: Vapor or sublimation pressure, kPa (Liquid); method: Ebulliometric method (Recirculating still)
Mole fraction of 1,1-dimethylethyl methyl ether	Temperature, K	Vapor or sublimation pressure, kPa	uncertainty
0	323.1	10.8	.2
.069	323.1	18.9	.2
.106	323.13	22.8	.2
.242	323.1	36.9	.2
.318	323.1	43.4	.2
.37	323.1	47.4	.2
.427	323	51.2	.2
.586	323.08	61.5	.2
.722	323.13	69.2	.2
.828	323.11	75.1	.2
.891	323.11	78.7	.2
1	323.1	85.8	.2

System: (RS)-2-butanol + 1,1-dimethylethyl methyl ether; phases: Gas, Liquid
Property: Mole fraction of 1,1-dimethylethyl methyl ether (Gas); method: Chromatography
Mole fraction of 1,1-dimethylethyl methyl ether	Temperature, K	Mole fraction of 1,1-dimethylethyl methyl ether	uncertainty
0	323.1	0	.003
.069	323.1	.468	.003
.106	323.13	.575	.003
.242	323.1	.775	.003
.318	323.1	.825	.003
.37	323.1	.85	.003
.427	323	.87	.003
.586	323.08	.912	.003
.722	323.13	.941	.003
.828	323.11	.958	.003
.891	323.11	.972	.003
1	323.1	1	.003

System: (RS)-2-butanol + 1,1-dimethylethyl methyl ether; phases: Liquid
Property: Excess molar enthalpy (molar enthalpy of mixing), kJ/mol (Liquid); method: Flow calorimetry
Pressure, kPa	Temperature, K	Mole fraction of 1,1-dimethylethyl methyl ether	Excess molar enthalpy (molar enthalpy of mixing), kJ/mol	uncertainty
1057	363.15	.933	.212	.009
1057	363.15	.92	.265	.012
1057	363.15	.902	.332	.014
1057	363.15	.901	.348	.015
1057	363.15	.901	.348	.015
1057	363.15	.849	.487	.02
1057	363.15	.801	.554	.022
1057	363.15	.699	.675	.024
1057	363.15	.6	.709	.023
1057	363.15	.5	.67	.02
1057	363.15	.4	.603	.016
1057	363.15	.339	.508	.013
1057	363.15	.3	.481	.012
1057	363.15	.277	.451	.011
1057	363.15	.277	.431	.011
1057	363.15	.204	.363	.008
1057	363.15	.2	.337	.008
1057	363.15	.161	.321	.007
1057	363.15	.149	.27	.006
1057	363.15	.1	.177	.004
1057	363.15	.1	.184	.004
1057	363.15	.075	.144	.003
1057	363.15	.049	.105	.002
205	322.6	.0996	.22	.005
205	322.6	.0996	.219	.005
205	322.6	.198	.447	.011
205	322.6	.3	.65	.016
205	322.6	.399	.796	.02
205	322.6	.496	.884	.022
205	322.6	.598	.909	.022
205	322.6	.699	.858	.021
205	322.6	.799	.7	.017
205	322.6	.9006	.406	.01
580	308.15	.9496	.249	.005
580	308.15	.9401	.292	.006
580	308.15	.9262	.348	.007
580	308.15	.904	.433	.009
580	308.15	.887	.499	.01
580	308.15	.8626	.567	.012
580	308.15	.8626	.579	.012
580	308.15	.825	.673	.014
580	308.15	.825	.681	.014
580	308.15	.797	.738	.015
580	308.15	.759	.807	.017
580	308.15	.702	.882	.018
580	308.15	.663	.919	.019
580	308.15	.611	.93	.019
580	308.15	.557	.947	.019
580	308.15	.485	.906	.019
580	308.15	.402	.834	.017
580	308.15	.359	.771	.016
580	308.15	.31	.68	.014
580	308.15	.282	.649	.013
580	308.15	.239	.545	.011
580	308.15	.207	.496	.011
580	308.15	.164	.393	.009
580	308.15	.1357	.287	.006
580	308.15	.0894	.196	.005
580	308.15	.0728	.156	.004
580	308.15	.0614	.129	.004
580	308.15	.0468	.092	.003
