Measured thermophysical data. Density, Viscosity, and Freezing Point for Four Binary Systems of n-Dodecane or Methylcyclohexane Mixed with 1-Heptanol or Cyclohexylmethanol
Source: J. Chem. Eng. Data, 2017, 10.1021/acs.jced.6b00688
Compound 1: n-dodecane, C12H26, purity 99%
Compound 2: methylcyclohexane, C7H14, purity 99%
Compound 3: 1-heptanol, C7H16O, purity 99%
Compound 4: cyclohexylmethanol, C7H14O, purity 99%
Compound 5: water, H2O, purity 99.8%

System: n-dodecane; phases: Crystal, Liquid, Air at 1 atmosphere
Property: Normal melting temperature, K (Crystal); method: DSC/DTA
Normal melting temperature, K	uncertainty
264.95	3

System: n-dodecane; phases: Liquid
Fixed: Pressure, kPa = 101.325
Property: Mass density, kg/m3 (Liquid); method: Vibrating tube method
Temperature, K	Mass density, kg/m3	uncertainty
293.15	748.82	
298.15	745.2	
303.15	741.57	
308.15	737.94	
313.15	734.3	
318.15	730.64	
323.15	726.98	
328.15	723.31	
333.15	719.64	

System: n-dodecane; phases: Liquid
Fixed: Pressure, kPa = 101.325
Property: Viscosity, Pa*s (Liquid); method: Falling or rolling sphere viscometry
Temperature, K	Viscosity, Pa*s	uncertainty
293.15	.001485	
298.15	.001359	
303.15	.00125	
308.15	.001155	
313.15	.001073	
318.15	.000998	
323.15	.000932	
328.15	.000873	
333.15	.000819	

System: methylcyclohexane; phases: Crystal, Liquid, Air at 1 atmosphere
Property: Normal melting temperature, K (Crystal); method: DSC/DTA
Normal melting temperature, K	uncertainty
147.85	3

System: methylcyclohexane; phases: Liquid
Fixed: Pressure, kPa = 101.325
Property: Mass density, kg/m3 (Liquid); method: Vibrating tube method
Temperature, K	Mass density, kg/m3	uncertainty
293.15	769.33	
298.15	765	
303.15	760.67	
308.15	756.32	
313.15	751.95	
318.15	747.56	
323.15	743.15	
328.15	738.73	
333.15	734.28	

System: methylcyclohexane; phases: Liquid
Fixed: Pressure, kPa = 101.325
Property: Viscosity, Pa*s (Liquid); method: Falling or rolling sphere viscometry
Temperature, K	Viscosity, Pa*s	uncertainty
293.15	.000727	
298.15	.000681	
303.15	.00064	
308.15	.000604	
313.15	.000571	
318.15	.000542	
323.15	.000515	
328.15	.000491	
333.15	.000469	

System: 1-heptanol; phases: Crystal, Liquid, Air at 1 atmosphere
Property: Normal melting temperature, K (Crystal); method: DSC/DTA
Normal melting temperature, K	uncertainty
239.05	3

System: 1-heptanol; phases: Liquid
Fixed: Pressure, kPa = 101.325
Property: Mass density, kg/m3 (Liquid); method: Vibrating tube method
Temperature, K	Mass density, kg/m3	uncertainty
293.15	822.24	
298.15	818.74	
303.15	815.22	
308.15	811.68	
313.15	808.11	
318.15	804.52	
323.15	800.88	
328.15	797.2	
333.15	793.49	

System: 1-heptanol; phases: Liquid
Fixed: Pressure, kPa = 101.325
Property: Viscosity, Pa*s (Liquid); method: Falling or rolling sphere viscometry
Temperature, K	Viscosity, Pa*s	uncertainty
293.15	.00689	
298.15	.005805	
303.15	.004941	
308.15	.004233	
313.15	.003648	
318.15	.003165	
323.15	.002762	
328.15	.002423	
333.15	.002137	

System: cyclohexylmethanol; phases: Liquid
Fixed: Pressure, kPa = 101.325
Property: Mass density, kg/m3 (Liquid); method: Vibrating tube method
Temperature, K	Mass density, kg/m3	uncertainty
293.15	929.96	
298.15	926.43	
303.15	922.87	
308.15	919.28	
313.15	915.66	
318.15	912	
323.15	908.31	
328.15	904.57	
333.15	900.78	

System: cyclohexylmethanol; phases: Liquid
Fixed: Pressure, kPa = 101.325
Property: Viscosity, Pa*s (Liquid); method: Falling or rolling sphere viscometry
Temperature, K	Viscosity, Pa*s	uncertainty
293.15	.036959	
298.15	.028353	
303.15	.022043	
308.15	.01732	
313.15	.013827	
318.15	.011143	
323.15	.009099	
328.15	.007521	
333.15	.006283	

System: 1-heptanol + n-dodecane; phases: Liquid
Fixed: Pressure, kPa = 100
Property: Mass density, kg/m3 (Liquid); method: Vibrating tube method
Temperature, K	Mole fraction of n-dodecane	Mass density, kg/m3	uncertainty
293.15	.0998	810.76	
293.15	.2005	800.65	
293.15	.302	791.28	
293.15	.3991	783.4	
293.15	.4989	776.02	
293.15	.5994	769.4	
293.15	.6975	763.54	
293.15	.7959	758.2	
293.15	.8984	753.19	
298.15	.0998	807.24	
298.15	.2005	797.07	
298.15	.302	787.66	
298.15	.3991	779.77	
298.15	.4989	772.37	
298.15	.5994	765.74	
298.15	.6975	759.88	
298.15	.7959	754.54	
298.15	.8984	749.53	
303.15	.0998	803.68	
303.15	.2005	793.46	
303.15	.302	784.02	
303.15	.3991	776.11	
303.15	.4989	768.69	
303.15	.5994	762.06	
303.15	.6975	756.19	
303.15	.7959	750.85	
303.15	.8984	745.85	
308.15	.0998	800.09	
308.15	.2005	789.82	
308.15	.302	780.35	
308.15	.3991	772.42	
308.15	.4989	765	
308.15	.5994	758.35	
308.15	.6975	752.48	
308.15	.7959	747.14	
308.15	.8984	742.15	
313.15	.0998	796.48	
313.15	.2005	786.16	
313.15	.302	776.66	
313.15	.3991	768.72	
313.15	.4989	761.28	
313.15	.5994	754.63	
313.15	.6975	748.76	
313.15	.7959	743.42	
313.15	.8984	738.43	
318.15	.0998	792.81	
318.15	.2005	782.46	
318.15	.302	772.94	
318.15	.3991	764.98	
318.15	.4989	757.54	
318.15	.5994	750.88	
318.15	.6975	745.01	
318.15	.7959	739.67	
318.15	.8984	734.71	
323.15	.0998	789.12	
323.15	.2005	778.74	
323.15	.302	769.19	
323.15	.3991	761.22	
323.15	.4989	753.77	
323.15	.5994	747.11	
323.15	.6975	741.23	
323.15	.7959	735.9	
323.15	.8984	730.96	
328.15	.0998	785.39	
328.15	.2005	774.97	
328.15	.302	765.4	
328.15	.3991	757.43	
328.15	.4989	749.97	
328.15	.5994	743.31	
328.15	.6975	737.44	
328.15	.7959	732.12	
328.15	.8984	727.21	
333.15	.0998	781.62	
333.15	.2005	771.18	
333.15	.302	761.59	
333.15	.3991	753.6	
333.15	.4989	746.14	
333.15	.5994	739.49	
333.15	.6975	733.61	
333.15	.7959	728.31	
333.15	.8984	723.43	

System: 1-heptanol + n-dodecane; phases: Liquid
Fixed: Pressure, kPa = 100
Property: Viscosity, Pa*s (Liquid); method: Falling or rolling sphere viscometry
Temperature, K	Mole fraction of n-dodecane	Viscosity, Pa*s	uncertainty
293.15	.0998	.005346	
293.15	.2005	.004224	
293.15	.302	.003358	
293.15	.3991	.002778	
293.15	.4989	.002363	
293.15	.5994	.002052	
293.15	.6975	.001835	
293.15	.7959	.001677	
293.15	.8984	.001538	
298.15	.0998	.004555	
298.15	.2005	.003626	
298.15	.302	.002917	
298.15	.3991	.002444	
298.15	.4989	.002098	
298.15	.5994	.001837	
298.15	.6975	.001653	
298.15	.7959	.001516	
298.15	.8984	.001397	
303.15	.0998	.00391	
303.15	.2005	.003144	
303.15	.302	.002559	
303.15	.3991	.002168	
303.15	.4989	.001878	
303.15	.5994	.001655	
303.15	.6975	.001498	
303.15	.7959	.00138	
303.15	.8984	.001276	
308.15	.0998	.003381	
308.15	.2005	.002745	
308.15	.302	.00226	
308.15	.3991	.001935	
308.15	.4989	.00169	
308.15	.5994	.0015	
308.15	.6975	.001364	
308.15	.7959	.001262	
308.15	.8984	.001172	
313.15	.0998	.00294	
313.15	.2005	.002412	
313.15	.302	.002009	
313.15	.3991	.001736	
313.15	.4989	.001528	
313.15	.5994	.001365	
313.15	.6975	.001247	
313.15	.7959	.001158	
313.15	.8984	.00108	
318.15	.0998	.002573	
318.15	.2005	.002134	
318.15	.302	.001795	
318.15	.3991	.001566	
318.15	.4989	.001388	
318.15	.5994	.001247	
318.15	.6975	.001145	
318.15	.7959	.001066	
318.15	.8984	.000999	
323.15	.0998	.002266	
323.15	.2005	.001896	
323.15	.302	.001612	
323.15	.3991	.001417	
323.15	.4989	.001265	
323.15	.5994	.001143	
323.15	.6975	.001054	
323.15	.7959	.000986	
323.15	.8984	.000928	
328.15	.0998	.002006	
328.15	.2005	.001694	
328.15	.302	.001454	
328.15	.3991	.001288	
328.15	.4989	.001158	
328.15	.5994	.001051	
328.15	.6975	.000974	
328.15	.7959	.000915	
328.15	.8984	.000864	
333.15	.0998	.001785	
333.15	.2005	.001522	
333.15	.302	.001317	
333.15	.3991	.001175	
333.15	.4989	.001063	
333.15	.5994	.00097	
333.15	.6975	.000902	
333.15	.7959	.000851	
333.15	.8984	.000807	

System: 1-heptanol + n-dodecane; phases: Liquid, Crystal
Fixed: Pressure, kPa = 100
Property: Solid-liquid equilibrium temperature, K (Liquid); method: DSC/DTA
Mole fraction of n-dodecane	Solid-liquid equilibrium temperature, K	uncertainty
.0998	239.95	
.2005	257.25	
.302	260.25	
.3991	261.45	
.4989	262.35	
.5994	262.75	
.6975	263.25	
.7959	263.95	
.8984	263.95	
1	264.95	

System: cyclohexylmethanol + n-dodecane; phases: Liquid
Fixed: Pressure, kPa = 100
Property: Mass density, kg/m3 (Liquid); method: Vibrating tube method
Temperature, K	Mole fraction of n-dodecane	Mass density, kg/m3	uncertainty
293.15	.1014	898.17	
293.15	.1991	872.04	
293.15	.299	849.06	
293.15	.3997	828.81	
293.15	.4992	811.3	
293.15	.6005	795.57	
293.15	.7008	781.83	
293.15	.7986	769.9	
293.15	.8996	758.73	
298.15	.1014	894.59	
298.15	.1991	868.46	
298.15	.299	845.44	
298.15	.3997	825.18	
298.15	.4992	807.71	
298.15	.6005	791.92	
298.15	.7008	778.16	
298.15	.7986	766.22	
298.15	.8996	755.05	
303.15	.1014	890.99	
303.15	.1991	864.86	
303.15	.299	841.79	
303.15	.3997	821.5	
303.15	.4992	804.02	
303.15	.6005	788.23	
303.15	.7008	774.47	
303.15	.7986	762.53	
303.15	.8996	751.37	
308.15	.1014	887.35	
308.15	.1991	861.23	
308.15	.299	838.08	
308.15	.3997	817.79	
308.15	.4992	800.32	
308.15	.6005	784.52	
308.15	.7008	770.76	
308.15	.7986	758.82	
308.15	.8996	747.67	
313.15	.1014	883.69	
313.15	.1991	857.57	
313.15	.299	834.37	
313.15	.3997	814.07	
313.15	.4992	796.59	
313.15	.6005	780.79	
313.15	.7008	767.03	
313.15	.7986	755.09	
313.15	.8996	743.96	
318.15	.1014	879.99	
318.15	.1991	853.91	
318.15	.299	830.77	
318.15	.3997	810.31	
318.15	.4992	792.83	
318.15	.6005	777.04	
318.15	.7008	763.28	
318.15	.7986	751.35	
318.15	.8996	740.24	
323.15	.1014	876.25	
323.15	.1991	850.16	
323.15	.299	827.01	
323.15	.3997	806.53	
323.15	.4992	789.05	
323.15	.6005	773.26	
323.15	.7008	759.51	
323.15	.7986	747.58	
323.15	.8996	736.5	
328.15	.1014	872.47	
328.15	.1991	846.36	
328.15	.299	823.2	
328.15	.3997	802.71	
328.15	.4992	785.24	
328.15	.6005	769.45	
328.15	.7008	755.71	
328.15	.7986	743.79	
328.15	.8996	732.74	
333.15	.1014	868.64	
333.15	.1991	842.52	
333.15	.299	819.35	
333.15	.3997	798.87	
333.15	.4992	781.41	
333.15	.6005	765.62	
333.15	.7008	751.89	
333.15	.7986	739.98	
333.15	.8996	728.97	

System: cyclohexylmethanol + n-dodecane; phases: Liquid
Fixed: Pressure, kPa = 100
Property: Viscosity, Pa*s (Liquid); method: Falling or rolling sphere viscometry
Temperature, K	Mole fraction of n-dodecane	Viscosity, Pa*s	uncertainty
293.15	.1014	.018355	
293.15	.1991	.009786	
293.15	.299	.006177	
293.15	.3997	.004307	
293.15	.4992	.003223	
293.15	.6005	.002542	
293.15	.7008	.002087	
293.15	.7986	.001809	
293.15	.8996	.001594	
298.15	.1014	.014587	
298.15	.1991	.00799	
298.15	.299	.005179	
298.15	.3997	.003688	
298.15	.4992	.002813	
298.15	.6005	.002251	
298.15	.7008	.001873	
298.15	.7986	.001633	
298.15	.8996	.001447	
303.15	.1014	.01173	
303.15	.1991	.006621	
303.15	.299	.004403	
303.15	.3997	.003197	
303.15	.4992	.002479	
303.15	.6005	.00201	
303.15	.7008	.00169	
303.15	.7986	.001481	
303.15	.8996	.001321	
308.15	.1014	.009573	
308.15	.1991	.005545	
308.15	.299	.003779	
308.15	.3997	.002795	
308.15	.4992	.002201	
308.15	.6005	.001806	
308.15	.7008	.001532	
308.15	.7986	.001351	
308.15	.8996	.001211	
313.15	.1014	.0079	
313.15	.1991	.004691	
313.15	.299	.003271	
313.15	.3997	.002461	
313.15	.4992	.001966	
313.15	.6005	.001631	
313.15	.7008	.001395	
313.15	.7986	.001237	
313.15	.8996	.001115	
318.15	.1014	.006588	
318.15	.1991	.004005	
318.15	.299	.002854	
318.15	.3997	.002183	
318.15	.4992	.001767	
318.15	.6005	.00148	
318.15	.7008	.001276	
318.15	.7986	.001138	
318.15	.8996	.001031	
323.15	.1014	.005525	
323.15	.1991	.003447	
323.15	.299	.002507	
323.15	.3997	.001947	
323.15	.4992	.001594	
323.15	.6005	.001348	
323.15	.7008	.001171	
323.15	.7986	.00105	
323.15	.8996	.000957	
328.15	.1014	.004696	
328.15	.1991	.00299	
328.15	.299	.002216	
328.15	.3997	.001746	
328.15	.4992	.001446	
328.15	.6005	.001233	
328.15	.7008	.001079	
328.15	.7986	.000973	
328.15	.8996	.000891	
333.15	.1014	.003987	
333.15	.1991	.002614	
333.15	.299	.001972	
333.15	.3997	.001574	
333.15	.4992	.001318	
333.15	.6005	.001132	
333.15	.7008	.000997	
333.15	.7986	.000904	
333.15	.8996	.000832	

System: cyclohexylmethanol + n-dodecane; phases: Liquid, Crystal
Fixed: Pressure, kPa = 100
Property: Solid-liquid equilibrium temperature, K (Liquid); method: DSC/DTA
Mole fraction of n-dodecane	Solid-liquid equilibrium temperature, K	uncertainty
.1014	256.05	
.1991	259.85	
.299	261.65	
.3997	262.15	
.4992	262.55	
.6005	262.95	
.7008	263.15	
.7986	263.55	
.8996	264.15	
1	264.95	

System: methylcyclohexane + 1-heptanol; phases: Liquid
Fixed: Pressure, kPa = 100
Property: Mass density, kg/m3 (Liquid); method: Vibrating tube method
Temperature, K	Mole fraction of methylcyclohexane	Mass density, kg/m3	uncertainty
293.15	.1004	817.38	
293.15	.1991	812.34	
293.15	.3134	806.43	
293.15	.399	801.91	
293.15	.4994	796.51	
293.15	.5997	790.98	
293.15	.6987	785.57	
293.15	.7995	779.94	
293.15	.8995	774.56	
298.15	.1004	813.81	
298.15	.1991	808.71	
298.15	.3134	802.7	
298.15	.399	798.1	
298.15	.4994	792.62	
298.15	.5997	787	
298.15	.6987	781.49	
298.15	.7995	775.77	
298.15	.8995	770.3	
303.15	.1004	810.21	
303.15	.1991	805.04	
303.15	.3134	798.92	
303.15	.399	794.25	
303.15	.4994	788.68	
303.15	.5997	782.98	
303.15	.6987	777.38	
303.15	.7995	771.56	
303.15	.8995	766	
308.15	.1004	806.59	
308.15	.1991	801.33	
308.15	.3134	795.12	
308.15	.399	790.37	
308.15	.4994	784.72	
308.15	.5997	778.93	
308.15	.6987	773.24	
308.15	.7995	767.32	
308.15	.8995	761.67	
313.15	.1004	802.94	
313.15	.1991	797.6	
313.15	.3134	791.3	
313.15	.399	786.47	
313.15	.4994	780.73	
313.15	.5997	774.85	
313.15	.6987	769.07	
313.15	.7995	763.06	
313.15	.8995	757.31	
318.15	.1004	799.26	
318.15	.1991	793.83	
318.15	.3134	787.42	
318.15	.399	782.53	
318.15	.4994	776.7	
318.15	.5997	770.74	
318.15	.6987	764.87	
318.15	.7995	758.76	
318.15	.8995	752.93	
323.15	.1004	795.54	
323.15	.1991	790.03	
323.15	.3134	783.52	
323.15	.399	778.55	
323.15	.4994	772.64	
323.15	.5997	766.59	
323.15	.6987	760.64	
323.15	.7995	754.43	
323.15	.8995	748.52	
328.15	.1004	791.78	
328.15	.1991	786.18	
328.15	.3134	779.58	
328.15	.399	774.54	
328.15	.4994	768.55	
328.15	.5997	762.41	
328.15	.6987	756.36	
328.15	.7995	750.06	
328.15	.8995	744.07	
333.15	.1004	787.98	
333.15	.1991	782.3	
333.15	.3134	775.6	
333.15	.399	770.5	
333.15	.4994	764.42	
333.15	.5997	758.17	
333.15	.6987	752.05	
333.15	.7995	745.66	
333.15	.8995	739.59	

System: methylcyclohexane + 1-heptanol; phases: Liquid
Fixed: Pressure, kPa = 100
Property: Viscosity, Pa*s (Liquid); method: Falling or rolling sphere viscometry
Temperature, K	Mole fraction of methylcyclohexane	Viscosity, Pa*s	uncertainty
293.15	.1004	.005541	
293.15	.1991	.004404	
293.15	.3134	.003336	
293.15	.399	.002649	
293.15	.4994	.002055	
293.15	.5997	.001603	
293.15	.6987	.001275	
293.15	.7995	.00103	
293.15	.8995	.000845	
298.15	.1004	.004649	
298.15	.1991	.003773	
298.15	.3134	.002924	
298.15	.399	.002325	
298.15	.4994	.00183	
298.15	.5997	.001448	
298.15	.6987	.001165	
298.15	.7995	.000951	
298.15	.8995	.00079	
303.15	.1004	.004037	
303.15	.1991	.003261	
303.15	.3134	.002548	
303.15	.399	.002055	
303.15	.4994	.00164	
303.15	.5997	.001314	
303.15	.6987	.001068	
303.15	.7995	.000879	
303.15	.8995	.000736	
308.15	.1004	.003484	
308.15	.1991	.002838	
308.15	.3134	.002235	
308.15	.399	.001827	
308.15	.4994	.001476	
308.15	.5997	.001197	
308.15	.6987	.000983	
308.15	.7995	.000816	
308.15	.8995	.000702	
313.15	.1004	.003027	
313.15	.1991	.002485	
313.15	.3134	.001932	
313.15	.399	.001633	
313.15	.4994	.001335	
313.15	.5997	.001094	
313.15	.6987	.000907	
313.15	.7995	.000759	
313.15	.8995	.000645	
318.15	.1004	.002643	
318.15	.1991	.002188	
318.15	.3134	.001749	
318.15	.399	.001468	
318.15	.4994	.001213	
318.15	.5997	.001004	
318.15	.6987	.00084	
318.15	.7995	.000708	
318.15	.8995	.000607	
323.15	.1004	.002322	
323.15	.1991	.001937	
323.15	.3134	.001559	
323.15	.399	.001324	
323.15	.4994	.001106	
323.15	.5997	.000924	
323.15	.6987	.000779	
323.15	.7995	.000662	
323.15	.8995	.000572	
328.15	.1004	.00205	
328.15	.1991	.001723	
328.15	.3134	.001396	
328.15	.399	.0012	
328.15	.4994	.001011	
328.15	.5997	.000853	
328.15	.6987	.000725	
328.15	.7995	.000621	
328.15	.8995	.00054	
333.15	.1004	.00182	
333.15	.1991	.001541	
333.15	.3134	.001254	
333.15	.399	.001092	
333.15	.4994	.000928	
333.15	.5997	.000789	
333.15	.6987	.000676	
333.15	.7995	.000584	
333.15	.8995	.000512	

System: methylcyclohexane + 1-heptanol; phases: Liquid, Crystal
Fixed: Pressure, kPa = 100
Property: Solid-liquid equilibrium temperature, K (Liquid); method: DSC/DTA
Mole fraction of methylcyclohexane	Solid-liquid equilibrium temperature, K	uncertainty
0	239.05	
.1004	237.95	
.1991	236.15	
.3134	233.75	
.399	234.55	
.4994	227.45	
.5997	227.05	
.6987	224.35	
.7995	224.85	
.8995	220.15	

System: cyclohexylmethanol + methylcyclohexane; phases: Liquid
Fixed: Pressure, kPa = 100
Property: Mass density, kg/m3 (Liquid); method: Vibrating tube method
Temperature, K	Mole fraction of methylcyclohexane	Mass density, kg/m3	uncertainty
293.15	.0998	914.04	
293.15	.1996	898.07	
293.15	.2999	881.82	
293.15	.3998	865.56	
293.15	.5004	848.97	
293.15	.6007	832.61	
293.15	.6997	816.64	
293.15	.7984	800.82	
293.15	.9012	784.55	
298.15	.0998	910.42	
298.15	.1996	894.34	
298.15	.2999	877.99	
298.15	.3998	861.58	
298.15	.5004	844.91	
298.15	.6007	828.51	
298.15	.6997	812.48	
298.15	.7984	796.58	
298.15	.9012	780.24	
303.15	.0998	906.77	
303.15	.1996	890.57	
303.15	.2999	874.13	
303.15	.3998	857.62	
303.15	.5004	840.88	
303.15	.6007	824.38	
303.15	.6997	808.29	
303.15	.7984	792.32	
303.15	.9012	775.91	
308.15	.0998	903.08	
308.15	.1996	886.77	
308.15	.2999	870.24	
308.15	.3998	853.63	
308.15	.5004	836.92	
308.15	.6007	820.24	
308.15	.6997	804.07	
308.15	.7984	788.03	
308.15	.9012	771.56	
313.15	.0998	899.36	
313.15	.1996	882.93	
313.15	.2999	866.31	
313.15	.3998	849.61	
313.15	.5004	832.82	
313.15	.6007	816.06	
313.15	.6997	799.82	
313.15	.7984	783.71	
313.15	.9012	767.17	
318.15	.0998	895.6	
318.15	.1996	879.05	
318.15	.2999	862.35	
318.15	.3998	845.56	
318.15	.5004	828.69	
318.15	.6007	811.86	
318.15	.6997	795.54	
318.15	.7984	779.36	
318.15	.9012	762.76	
323.15	.0998	891.81	
323.15	.1996	875.15	
323.15	.2999	858.35	
323.15	.3998	841.47	
323.15	.5004	824.52	
323.15	.6007	807.62	
323.15	.6997	791.23	
323.15	.7984	774.99	
323.15	.9012	758.33	
328.15	.0998	887.97	
328.15	.1996	871.24	
328.15	.2999	854.31	
328.15	.3998	837.35	
328.15	.5004	820.32	
328.15	.6007	803.35	
328.15	.6997	786.89	
328.15	.7984	770.58	
328.15	.9012	753.86	
333.15	.0998	884.09	
333.15	.1996	867.26	
333.15	.2999	850.23	
333.15	.3998	833.14	
333.15	.5004	816.09	
333.15	.6007	799.05	
333.15	.6997	782.43	
333.15	.7984	766.13	
333.15	.9012	749.37	

System: cyclohexylmethanol + methylcyclohexane; phases: Liquid
Fixed: Pressure, kPa = 100
Property: Viscosity, Pa*s (Liquid); method: Falling or rolling sphere viscometry
Temperature, K	Mole fraction of methylcyclohexane	Viscosity, Pa*s	uncertainty
293.15	.0998	.022559	
293.15	.1996	.012817	
293.15	.2999	.007902	
293.15	.3998	.004953	
293.15	.5004	.003225	
293.15	.6007	.002164	
293.15	.6997	.001555	
293.15	.7984	.001159	
293.15	.9012	.000891	
298.15	.0998	.017674	
298.15	.1996	.010282	
298.15	.2999	.0065	
298.15	.3998	.004176	
298.15	.5004	.002832	
298.15	.6007	.00192	
298.15	.6997	.001407	
298.15	.7984	.001065	
298.15	.9012	.000817	
303.15	.0998	.014092	
303.15	.1996	.008368	
303.15	.2999	.005421	
303.15	.3998	.003567	
303.15	.5004	.002446	
303.15	.6007	.001715	
303.15	.6997	.001279	
303.15	.7984	.00098	
303.15	.9012	.000769	
308.15	.0998	.011369	
308.15	.1996	.006888	
308.15	.2999	.004567	
308.15	.3998	.003075	
308.15	.5004	.002155	
308.15	.6007	.001542	
308.15	.6997	.001167	
308.15	.7984	.000905	
308.15	.9012	.000718	
313.15	.0998	.009257	
313.15	.1996	.005729	
313.15	.2999	.003884	
313.15	.3998	.002672	
313.15	.5004	.001912	
313.15	.6007	.001393	
313.15	.6997	.001069	
313.15	.7984	.000839	
313.15	.9012	.000672	
318.15	.0998	.007638	
318.15	.1996	.004813	
318.15	.2999	.003332	
318.15	.3998	.00234	
318.15	.5004	.001706	
318.15	.6007	.001264	
318.15	.6997	.000983	
318.15	.7984	.000779	
318.15	.9012	.000631	
323.15	.0998	.00635	
323.15	.1996	.004082	
323.15	.2999	.002882	
323.15	.3998	.002064	
323.15	.5004	.001539	
323.15	.6007	.001152	
323.15	.6997	.000907	
323.15	.7984	.000726	
323.15	.9012	.000594	
328.15	.0998	.005322	
328.15	.1996	.003491	
328.15	.2999	.002512	
328.15	.3998	.001831	
328.15	.5004	.001379	
328.15	.6007	.001054	
328.15	.6997	.000839	
328.15	.7984	.000679	
328.15	.9012	.000561	
333.15	.0998	.004526	
333.15	.1996	.003011	
333.15	.2999	.002204	
333.15	.3998	.001634	
333.15	.5004	.00125	
333.15	.6007	.000967	
333.15	.6997	.000778	
333.15	.7984	.000637	
333.15	.9012	.000531	
