Measured thermophysical data. Measurement and modeling of high pressure VLE for methyl acetate or ethyl acetate with 2-butanol. Isobaric data at 1.5 MPa
Source: J. Chem. Eng. Data, 2016, 10.1021/acs.jced.5b00773
Compound 1: methyl acetate, C3H6O2, purity 99.5%
Compound 2: ethyl acetate, C4H8O2, purity 99.9%
Compound 3: 2-butanol, C4H10O, purity 99.5%

System: methyl acetate; phases: Liquid, Gas
Property: Vapor or sublimation pressure, kPa (Liquid); method: Closed cell (Static) method
Temperature, K	Vapor or sublimation pressure, kPa	uncertainty
436.08	1500	

System: ethyl acetate; phases: Liquid, Gas
Property: Vapor or sublimation pressure, kPa (Liquid); method: Closed cell (Static) method
Temperature, K	Vapor or sublimation pressure, kPa	uncertainty
462.75	1500	

System: 2-butanol; phases: Liquid, Gas
Property: Vapor or sublimation pressure, kPa (Liquid); method: Closed cell (Static) method
Temperature, K	Vapor or sublimation pressure, kPa	uncertainty
473.46	1500	

System: 2-butanol + methyl acetate; phases: Liquid, Gas
Property: Vapor or sublimation pressure, kPa (Liquid); method: Closed cell (Static) method
Temperature, K	Mole fraction of methyl acetate	Vapor or sublimation pressure, kPa	uncertainty
473.46	0	1500	
471.54	.038	1500	
470.22	.061	1500	
468.83	.092	1500	
467.45	.119	1500	
464.93	.172	1500	
463.24	.211	1500	
462.18	.238	1500	
459.57	.3	1500	
457.03	.358	1500	
454.86	.419	1500	
451.04	.516	1500	
448.29	.604	1500	
447.41	.632	1500	
446.32	.669	1500	
444.95	.706	1500	
443.91	.742	1500	
442.88	.78	1500	
441.7	.813	1500	
440.47	.865	1500	
439.25	.898	1500	
437.93	.943	1500	
436.87	.986	1500	
436.08	1	1500	

System: 2-butanol + methyl acetate; phases: Gas, Liquid
Property: Mole fraction of methyl acetate (Gas); method: Density calibration data
Temperature, K	Mole fraction of methyl acetate	Mole fraction of methyl acetate	uncertainty
473.46	0	0	
471.54	.038	.065	
470.22	.061	.108	
468.83	.092	.156	
467.45	.119	.203	
464.93	.172	.283	
463.24	.211	.334	
462.18	.238	.368	
459.57	.3	.441	
457.03	.358	.511	
454.86	.419	.573	
451.04	.516	.664	
448.29	.604	.737	
447.41	.632	.76	
446.32	.669	.785	
444.95	.706	.816	
443.91	.742	.839	
442.88	.78	.863	
441.7	.813	.891	
440.47	.865	.917	
439.25	.898	.944	
437.93	.943	.968	
436.87	.986	.988	
436.08	1	1	

System: 2-butanol + ethyl acetate; phases: Liquid, Gas
Property: Vapor or sublimation pressure, kPa (Liquid); method: Closed cell (Static) method
Temperature, K	Mole fraction of ethyl acetate	Vapor or sublimation pressure, kPa	uncertainty
473.46	0	1500	
472.92	.027	1500	
472.71	.042	1500	
472.5	.057	1500	
471.95	.087	1500	
471.61	.104	1500	
471.2	.132	1500	
470.53	.167	1500	
470.25	.186	1500	
470.14	.204	1500	
469.83	.231	1500	
469.15	.284	1500	
468.96	.307	1500	
468.11	.381	1500	
467.43	.449	1500	
466.63	.523	1500	
465.93	.588	1500	
465.69	.615	1500	
465.18	.665	1500	
464.94	.689	1500	
464.34	.759	1500	
464.09	.786	1500	
463.86	.814	1500	
463.5	.862	1500	
463.44	.87	1500	
463.33	.888	1500	
463.2	.909	1500	
463.18	.912	1500	
462.96	.942	1500	
462.75	1	1500	

System: 2-butanol + ethyl acetate; phases: Gas, Liquid
Property: Mole fraction of ethyl acetate (Gas); method: Density calibration data
Temperature, K	Mole fraction of ethyl acetate	Mole fraction of ethyl acetate	uncertainty
473.46	0	0	
472.92	.027	.035	
472.71	.042	.053	
472.5	.057	.07	
471.95	.087	.103	
471.61	.104	.122	
471.2	.132	.151	
470.53	.167	.188	
470.25	.186	.209	
470.14	.204	.229	
469.83	.231	.257	
469.15	.284	.313	
468.96	.307	.339	
468.11	.381	.415	
467.43	.449	.483	
466.63	.523	.556	
465.93	.588	.619	
465.69	.615	.646	
465.18	.665	.693	
464.94	.689	.715	
464.34	.759	.784	
464.09	.786	.809	
463.86	.814	.833	
463.5	.862	.878	
463.44	.87	.886	
463.33	.888	.899	
463.2	.909	.919	
463.18	.912	.921	
462.96	.942	.948	
462.75	1	1	
