Measured thermophysical data. Heat Capacities of Aqueous Solutions of Lithium Sulfate, Lithium Perchlorate, and Lithium Trifluoromethanesulfonate at 298.15 K
Source: J. Chem. Eng. Data, 2016, 10.1021/acs.jced.6b00103
Compound 1: lithium trifluoromethanesulfonate, CF3LiO3S
Compound 2: lithium perchlorate, ClLiO4
Compound 3: lithium sulfate, Li2O4S
Compound 4: water, H2O, purity 99.9%

System: water + lithium sulfate; phases: Liquid
Fixed: Temperature, K = 298.15
Fixed: Pressure, kPa = 100
Property: Mass density, kg/m3 (Liquid); method: Vibrating tube method
Molality, mol/kg of lithium sulfate	Mass density, kg/m3	uncertainty
.05013	1001.81	
.07004	1003.67	
.1008	1006.54	
.2024	1015.83	
.4025	1033.62	
.5075	1042.72	
.7061	1059.54	
1.001	1083.62	
1.503	1122.47	
2.001	1158.46	
2.681	1204.07	

System: water + lithium sulfate; phases: Liquid
Fixed: Temperature, K = 298.15
Fixed: Pressure, kPa = 100
Property: Molar heat capacity at constant pressure, J/K/mol (Liquid); method: Flow calorimetry
Molality, mol/kg of lithium sulfate	Molar heat capacity at constant pressure, J/K/mol	uncertainty
.05013	75.1637503395338	
.07004	75.1063953922083	
.1008	75.0240456124875	
.2024	74.7787679585866	
.4025	74.4113613383209	
.5075	74.2749501202614	
.7061	74.0345366353947	
1.001	73.8741395268434	
1.503	73.8394376588604	
2.001	74.040859448506	
2.681	74.6248870389008	

System: water + lithium perchlorate; phases: Liquid
Fixed: Temperature, K = 298.15
Fixed: Pressure, kPa = 100
Property: Molar heat capacity at constant pressure, J/K/mol (Liquid); method: Flow calorimetry
Molality, mol/kg of lithium perchlorate	Molar heat capacity at constant pressure, J/K/mol	uncertainty
.05269	75.2994506366395	
.0703	75.2943872977129	
.1014	75.2813054966862	
.2	75.2478281133959	
.4002	75.1864076123228	
.6996	75.1420974934758	
.9999	75.1542610856533	
2.002	75.2996358098725	
3.003	75.6113454200386	
4.014	76.0345439790082	
5.006	76.3987239268226	

System: water + lithium trifluoromethanesulfonate; phases: Liquid
Fixed: Temperature, K = 298.15
Fixed: Pressure, kPa = 100
Property: Mass density, kg/m3 (Liquid); method: Vibrating tube method
Molality, mol/kg of lithium trifluoromethanesulfonate	Mass density, kg/m3	uncertainty
.04996	1001.11	
.06998	1002.72	
.1002	1005.12	
.2	1013.02	
.3997	1028.49	
.6998	1050.89	
.9883	1071.53	
1.5	1106.05	
1.999	1137.52	
2.999	1194.52	
3.991	1244.2	
5.879	1323.14	
7.493	1377.82	
9.635	1437.22	

System: water + lithium trifluoromethanesulfonate; phases: Liquid
Fixed: Temperature, K = 298.15
Fixed: Pressure, kPa = 100
Property: Molar heat capacity at constant pressure, J/K/mol (Liquid); method: Flow calorimetry
Molality, mol/kg of lithium trifluoromethanesulfonate	Molar heat capacity at constant pressure, J/K/mol	uncertainty
.04996	75.4706650988334	
.06998	75.5263241019363	
.1002	75.6126772739682	
.2	75.9031321969959	
.3997	76.4691193502989	
.6998	77.3113046298529	
.9883	78.1091846274606	
1.5	79.4827254089498	
1.999	80.7845419938952	
2.999	83.1114401986238	
3.991	85.1035213157027	
5.879	88.2212519038619	
7.493	90.4173325439577	
9.635	93.2048174751698	
