Measured thermophysical data. Solubility of Carbon Dioxide in LiF Li2CO3 Molten Salt System
Source: J. Chem. Eng. Data, 2016, 10.1021/acs.jced.6b00043
Compound 1: lithium fluoride, FLi, purity 99.2%
Compound 2: lithium carbonate, CLi2O3, purity 99%
Compound 3: carbon dioxide, CO2, purity 99.9%

System: lithium carbonate; phases: Crystal, Gas
Property: Vapor or sublimation pressure, kPa (Crystal); method: Closed cell (Static) method
Temperature, K	Vapor or sublimation pressure, kPa	uncertainty
1008.15	1.552	

System: carbon dioxide + lithium carbonate + lithium fluoride; phases: Liquid, Gas
Property: Amount ratio of solute to solvent of carbon dioxide (Liquid); method: phase equilibration
Solvent: Mole fraction of lithium fluoride	Temperature, K	Pressure, kPa	Amount ratio of solute to solvent of carbon dioxide	uncertainty
.5	913.15	50.2	.00068	
.4	933.15	55.2	.00057	
.5	933.15	55.4	.00064	
.4	953.15	58.6	.00053	
.3	953.15	57.4	.00057	
.5	953.15	60.1	.00061	
.3	963.15	60.8	.00053	
.4	973.15	64.4	.00049	
.3	973.15	63.7	.00052	
.5	973.15	65.4	.00057	
.6	973.15	68.2	.00045	
.3	983.15	67.2	.0005	
.6	983.15	70.5	.00039	
.4	993.15	67.5	.00046	
.6	993.15	73.9	.00035	
