Measured thermophysical data. Experimental Determination and Modeling of the Phase Behavior of the CO2 + Propionic Anhydride Binary System at High Pressure
Source: J. Chem. Eng. Data, 2017, 10.1021/acs.jced.6b00595
Compound 1: carbon dioxide, CO2
Compound 2: propionic anhydride, C6H10O3

System: propionic anhydride + carbon dioxide; phases: Liquid, Gas
Property: Vapor or sublimation pressure, kPa (Liquid); method: Closed cell (Static) method
Temperature, K	Mole fraction of carbon dioxide	Vapor or sublimation pressure, kPa	uncertainty
308	.7052	5210	
308	.7625	5660	
308	.8128	6170	
308	.8578	6550	
308	.9159	7030	
308	.9373	7170	
308	.9752	7660	
308	.9808	7720	
308	.9885	7750	
308	.9857	7750	
308	.9926	7780	
313	.7052	5760	
313	.7625	6340	
313	.7934	6550	
313	.8221	6860	
313	.8615	7240	
313	.8985	7590	
313	.9943	8000	
313	.9373	8030	
313	.9699	8300	
313	.9839	8410	
323	.9752	9790	
323	.9857	9810	

System: propionic anhydride + carbon dioxide; phases: Gas, Liquid
Property: Vapor or sublimation pressure, kPa (Gas); method: Closed cell (Static) method
Temperature, K	Mole fraction of carbon dioxide	Vapor or sublimation pressure, kPa	uncertainty
308	.9983	6210	
308	.9974	7170	
308	.9961	7760	
313	.9974	5660	
313	.9979	6070	
313	.9977	7790	
313	.99	8210	
323	.5704	5550	
323	.9942	5550	
323	.6677	6550	
323	.9947	6550	
323	.7625	7480	
323	.8117	8100	
323	.8615	8590	
323	.8985	9100	
323	.9903	9380	
323	.943	9380	
