Measured thermophysical data. Measurement and Modeling of Liquid Liquid Equilibrium for the Systems Vinyl Acetate + Acetic Acid/Ethanol + Water at 298.15 and 308.15 K
Source: J. Chem. Eng. Data, 2017, 10.1021/acs.jced.6b00794
Compound 1: vinyl acetate, C4H6O2, purity 99.0%
Compound 2: acetic acid, C2H4O2, purity 99.5%
Compound 3: ethanol, C2H6O, purity 99.5%
Compound 4: water, H2O, purity 99.8%

System: vinyl acetate; phases: Liquid
Fixed: Pressure, kPa = 101.325
Property: Refractive index (Na D-line) (Liquid); method: Standard Abbe refractometry
Temperature, K	Refractive index (Na D-line)	uncertainty
293.15	1.3926	.0012

System: acetic acid; phases: Liquid
Fixed: Pressure, kPa = 101.325
Property: Refractive index (Na D-line) (Liquid); method: Standard Abbe refractometry
Temperature, K	Refractive index (Na D-line)	uncertainty
293.15	1.3717	.0012

System: ethanol; phases: Liquid
Fixed: Pressure, kPa = 101.325
Property: Refractive index (Na D-line) (Liquid); method: Standard Abbe refractometry
Temperature, K	Refractive index (Na D-line)	uncertainty
293.15	1.3616	.0012

System: water; phases: Liquid
Fixed: Pressure, kPa = 101.325
Property: Refractive index (Na D-line) (Liquid); method: Standard Abbe refractometry
Temperature, K	Refractive index (Na D-line)	uncertainty
293.15	1.3328	.0012

System: acetic acid + vinyl acetate + water; phases: Liquid mixture 1, Liquid mixture 2
Fixed: Pressure, kPa = 101.3
Property: Mole fraction of vinyl acetate (Liquid mixture 1); method: Chromatography
Property: Mole fraction of vinyl acetate (Liquid mixture 2); method: Chromatography
Property: Mole fraction of acetic acid (Liquid mixture 2); method: Chromatography
Temperature, K	Mole fraction of acetic acid	Mole fraction of vinyl acetate	uncertainty	Mole fraction of vinyl acetate	uncertainty	Mole fraction of acetic acid	uncertainty
298.15	.0224	.0043	.0008	.9134	.0008	.0298	.0008
308.15	.0975	.016	.0008	.657	.0008	.155	.0008
308.15	.1074	.0192	.0008	.6068	.0008	.1731	.0008
298.15	.0383	.0051	.0008	.8692	.0008	.0572	.0008
308.15	.1185	.023	.0008	.5813	.0008	.1814	.0008
308.15	.1319	.0272	.0008	.5252	.0008	.2017	.0008
308.15	.1443	.0338	.0008	.4861	.0008	.214	.0008
298.15	.0487	.0067	.0008	.845	.0008	.0712	.0008
298.15	.055	.0075	.0008	.8142	.0008	.0873	.0008
298.15	.0698	.0095	.0008	.7534	.0008	.118	.0008
298.15	.0811	.0119	.0008	.7225	.0008	.1312	.0008
298.15	.1297	.0254	.0008	.5643	.0008	.1896	.0008
298.15	.0948	.0153	.0008	.6763	.0008	.149	.0008
298.15	.1013	.0176	.0008	.6529	.0008	.1577	.0008
298.15	.1161	.0212	.0008	.6092	.0008	.1729	.0008
298.15	.1436	.0298	.0008	.5076	.0008	.2096	.0008
308.15	.023	.0047	.0008	.907	.0008	.032	.0008
308.15	.0405	.0053	.0008	.847	.0008	.0679	.0008
308.15	.0502	.0072	.0008	.825	.0008	.0798	.0008
308.15	.058	.0085	.0008	.7995	.0008	.0933	.0008
308.15	.0765	.0117	.0008	.7308	.0008	.1263	.0008
308.15	.0864	.0134	.0008	.6896	.0008	.143	.0008

System: ethanol + vinyl acetate + water; phases: Liquid mixture 2, Liquid mixture 1
Fixed: Pressure, kPa = 100
Property: Mole fraction of ethanol (Liquid mixture 2); method: Chromatography
Property: Mole fraction of ethanol (Liquid mixture 1); method: Chromatography
Property: Mole fraction of vinyl acetate (Liquid mixture 1); method: Chromatography
Temperature, K	Mole fraction of vinyl acetate	Mole fraction of ethanol	uncertainty	Mole fraction of ethanol	uncertainty	Mole fraction of vinyl acetate	uncertainty
298.15	.9488	.018	.008	.0195	.0008	.005	.0008
308.15	.682	.1771	.008	.0991	.0008	.007	.0008
308.15	.633	.1984	.008	.1031	.0008	.0072	.0008
298.15	.9075	.0458	.008	.0373	.0008	.0049	.0008
308.15	.5828	.216	.008	.1103	.0008	.008	.0008
308.15	.5337	.2317	.008	.1303	.0008	.0136	.0008
298.15	.8873	.0604	.008	.049	.0008	.0051	.0008
298.15	.8682	.073	.008	.0583	.0008	.0053	.0008
298.15	.8165	.1057	.008	.0775	.0008	.0057	.0008
298.15	.7811	.1252	.008	.0881	.0008	.0062	.0008
298.15	.7485	.144	.008	.0977	.0008	.0062	.0008
298.15	.6147	.21	.008	.128	.0008	.0129	.0008
298.15	.7059	.1655	.008	.1074	.0008	.007	.0008
298.15	.6605	.1884	.008	.119	.0008	.0095	.0008
298.15	.5751	.2255	.008	.1366	.0008	.0157	.0008
308.15	.9034	.0469	.008	.0379	.0008	.0042	.0008
308.15	.8774	.065	.008	.0465	.0008	.0043	.0008
308.15	.8564	.0789	.008	.0569	.0008	.0046	.0008
308.15	.7997	.1143	.008	.0747	.0008	.0051	.0008
308.15	.7582	.1375	.008	.0815	.0008	.0056	.0008
308.15	.7231	.1553	.008	.0916	.0008	.0064	.0008
