Measured thermophysical data. Isobaric Vapor Liquid Equilibrium for Binary and Ternary Systems of Isoamyl Alcohol + Isoamyl Acetate + Dimethyl Sulfoxide at 101.33 kPa
Source: J. Chem. Eng. Data, 2017, 10.1021/acs.jced.6b00733
Compound 1: isoamyl alcohol, C5H12O, purity 99.77%
Compound 2: isoamyl acetate, C7H14O2, purity 99.72%
Compound 3: DMSO, C2H6OS, purity 99.91%
Compound 4: benzene, C6H6, purity 99.98%
Compound 5: toluene, C7H8, purity 99.98%

System: isoamyl alcohol; phases: Liquid
Property: Refractive index (Na D-line) (Liquid); method: Standard Abbe refractometry
Temperature, K	Pressure, kPa	Refractive index (Na D-line)	uncertainty
298.15	101.3	1.4042	

System: isoamyl alcohol; phases: Liquid, Gas
Property: Vapor or sublimation pressure, kPa (Liquid); method: Ebulliometric method (Recirculating still)
Temperature, K	Vapor or sublimation pressure, kPa	uncertainty
404.05	101.33	

System: isoamyl acetate; phases: Liquid
Property: Refractive index (Na D-line) (Liquid); method: Standard Abbe refractometry
Temperature, K	Pressure, kPa	Refractive index (Na D-line)	uncertainty
298.15	101.3	1.3977	

System: isoamyl acetate; phases: Liquid, Gas
Property: Vapor or sublimation pressure, kPa (Liquid); method: Ebulliometric method (Recirculating still)
Temperature, K	Vapor or sublimation pressure, kPa	uncertainty
415.19	101.33	

System: DMSO; phases: Liquid
Property: Refractive index (Na D-line) (Liquid); method: Standard Abbe refractometry
Temperature, K	Pressure, kPa	Refractive index (Na D-line)	uncertainty
298.15	101.3	1.4779	

System: DMSO; phases: Liquid, Gas
Property: Vapor or sublimation pressure, kPa (Liquid); method: Ebulliometric method (Recirculating still)
Temperature, K	Vapor or sublimation pressure, kPa	uncertainty
463.93	101.33	

System: benzene; phases: Liquid, Gas
Property: Vapor or sublimation pressure, kPa (Liquid); method: Ebulliometric method (Recirculating still)
Temperature, K	Vapor or sublimation pressure, kPa	uncertainty
353.27	101.33	

System: toluene; phases: Liquid, Gas
Property: Vapor or sublimation pressure, kPa (Liquid); method: Ebulliometric method (Recirculating still)
Temperature, K	Vapor or sublimation pressure, kPa	uncertainty
383.82	101.33	

System: DMSO + isoamyl alcohol; phases: Liquid, Gas
Property: Boiling temperature at pressure P, K (Liquid); method: Ebulliometric method (Recirculating still)
Mole fraction of isoamyl alcohol	Pressure, kPa	Boiling temperature at pressure P, K	uncertainty
1	101.33	404.05	
.9471	101.33	405.61	
.8941	101.33	407.21	
.8425	101.33	409	
.7898	101.33	410.93	
.7455	101.33	412.76	
.6763	101.33	415.91	
.6305	101.33	418.12	
.5989	101.33	419.89	
.5631	101.33	421.75	
.5055	101.33	425.09	
.4526	101.33	428.55	
.4131	101.33	431.3	
.3675	101.33	434.63	
.3273	101.33	437.64	
.2674	101.33	442.45	
.221	101.33	446.24	
.1767	101.33	449.72	
.1365	101.33	452.94	
.1082	101.33	455.26	
.09	101.33	456.74	
.0661	101.33	458.74	
.0414	101.33	460.62	
.015	101.33	462.82	
0	101.33	463.93	

System: DMSO + isoamyl alcohol; phases: Gas, Liquid
Property: Mole fraction of isoamyl alcohol (Gas); method: Chromatography
Mole fraction of isoamyl alcohol	Pressure, kPa	Mole fraction of isoamyl alcohol	uncertainty
1	101.33	1	
.9471	101.33	.995	
.8941	101.33	.9889	
.8425	101.33	.9816	
.7898	101.33	.9725	
.7455	101.33	.9632	
.6763	101.33	.9447	
.6305	101.33	.9278	
.5989	101.33	.9133	
.5631	101.33	.9	
.5055	101.33	.8644	
.4526	101.33	.8316	
.4131	101.33	.7961	
.3675	101.33	.7552	
.3273	101.33	.7042	
.2674	101.33	.6179	
.221	101.33	.5373	
.1767	101.33	.4571	
.1365	101.33	.3715	
.1082	101.33	.3048	
.09	101.33	.2532	
.0661	101.33	.1949	
.0414	101.33	.1232	
.015	101.33	.0419	
0	101.33	0	

System: DMSO + isoamyl acetate; phases: Liquid, Gas
Property: Boiling temperature at pressure P, K (Liquid); method: Ebulliometric method (Recirculating still)
Mole fraction of isoamyl acetate	Pressure, kPa	Boiling temperature at pressure P, K	uncertainty
1	101.33	415.19	
.9372	101.33	416.05	
.8619	101.33	416.91	
.8195	101.33	417.41	
.71	101.33	418.92	
.6517	101.33	419.9	
.5967	101.33	420.87	
.5466	101.33	421.84	
.4753	101.33	423.35	
.4335	101.33	424.73	
.3724	101.33	426.43	
.2986	101.33	429.47	
.2432	101.33	432.7	
.2157	101.33	434.4	
.1882	101.33	436.44	
.1417	101.33	440.6	
.106	101.33	444.66	
.078	101.33	448.52	
.0536	101.33	452.41	
.0331	101.33	456.17	
.0244	101.33	457.98	
.0145	101.33	460.15	
.0053	101.33	462.64	
0	101.33	463.93	

System: DMSO + isoamyl acetate; phases: Gas, Liquid
Property: Mole fraction of isoamyl acetate (Gas); method: Chromatography
Mole fraction of isoamyl acetate	Pressure, kPa	Mole fraction of isoamyl acetate	uncertainty
1	101.33	1	
.9372	101.33	.9619	
.8619	101.33	.9269	
.8195	101.33	.9095	
.71	101.33	.8669	
.6517	101.33	.8585	
.5967	101.33	.8395	
.5466	101.33	.8286	
.4753	101.33	.8026	
.4335	101.33	.7871	
.3724	101.33	.7609	
.2986	101.33	.728	
.2432	101.33	.6819	
.2157	101.33	.6536	
.1882	101.33	.6229	
.1417	101.33	.5435	
.106	101.33	.466	
.078	101.33	.384	
.0536	101.33	.2947	
.0331	101.33	.2003	
.0244	101.33	.1544	
.0145	101.33	.099	
.0053	101.33	.0387	
0	101.33	0	

System: DMSO + isoamyl alcohol + isoamyl acetate; phases: Liquid, Gas
Fixed: Pressure, kPa = 101.33
Property: Mole fraction of isoamyl acetate (Liquid); method: Chromatography
Property: Mole fraction of isoamyl alcohol (Gas); method: Chromatography
Property: Mole fraction of isoamyl acetate (Gas); method: Chromatography
Temperature, K	Mole fraction of isoamyl alcohol	Mole fraction of isoamyl acetate	uncertainty	Mole fraction of isoamyl alcohol	uncertainty	Mole fraction of isoamyl acetate	uncertainty
433.24	.3775	.0109	.001	.7279	.001	.0389	.001
433.04	.3025	.0708	.001	.532	.001	.2187	.001
433.1	.2878	.0769	.001	.5101	.001	.2402	.001
433.59	.2685	.0882	.001	.4663	.001	.279	.001
432.92	.2462	.1078	.001	.4148	.001	.3292	.001
433.07	.2285	.1207	.001	.3738	.001	.3665	.001
432.08	.1996	.1493	.001	.3012	.001	.4393	.001
431.48	.1586	.1847	.001	.2213	.001	.5176	.001
430.68	.1276	.2132	.001	.1612	.001	.5762	.001
430.21	.1094	.2283	.001	.1357	.001	.6051	.001
430.13	.09	.245	.001	.1062	.001	.6237	.001
428.65	.0455	.284	.001	.0525	.001	.6793	.001
428.35	.0226	.3048	.001	.0256	.001	.6974	.001
433.06	.3555	.0303	.001	.6633	.001	.1031	.001
432.93	.3374	.0437	.001	.6129	.001	.1437	.001

System: benzene + toluene; phases: Liquid, Gas
Property: Boiling temperature at pressure P, K (Liquid); method: Ebulliometric method (Recirculating still)
Mole fraction of benzene	Pressure, kPa	Boiling temperature at pressure P, K	uncertainty
0	101.33	383.82	
.071	101.33	380.67	
.134	101.33	377.99	
.205	101.33	375.24	
.293	101.33	372	
.375	101.33	369.18	
.456	101.33	366.67	
.543	101.33	364.05	
.639	101.33	361.41	
.731	101.33	359.07	
.804	101.33	357.37	
.903	101.33	355.2	
.951	101.33	354.25	
1	101.33	353.27	

System: benzene + toluene; phases: Gas, Liquid
Property: Mole fraction of benzene (Gas); method: Chromatography
Mole fraction of benzene	Pressure, kPa	Mole fraction of benzene	uncertainty
0	101.33	0	
.071	101.33	.148	
.134	101.33	.265	
.205	101.33	.376	
.293	101.33	.497	
.375	101.33	.593	
.456	101.33	.672	
.543	101.33	.747	
.639	101.33	.817	
.731	101.33	.873	
.804	101.33	.91	
.903	101.33	.957	
.951	101.33	.979	
1	101.33	1	
