Measured thermophysical data. New Mechanism and Model of Butyric Acid Extraction by Phosphonium Ionic Liquid
Source: J. Chem. Eng. Data, 2016, 10.1021/acs.jced.5b01082
Compound 1: trihexyltetradecylphosphonium bis(2,4,4-trimethylpentyl)phosphinate, C48H102O2P2, purity 95%
Compound 2: butanoic acid, C4H8O2
Compound 3: dodecane, C12H26, purity 99%
Compound 4: water, H2O, purity 99.8%

System: trihexyltetradecylphosphonium bis(2,4,4-trimethylpentyl)phosphinate; phases: Liquid
Fixed: Pressure, kPa = 101.325
Property: Mass density, kg/m3 (Liquid); method: Vibrating tube method
Temperature, K	Mass density, kg/m3	uncertainty
298.15	884.09	
310.15	876.93	
318.15	872.2	

System: trihexyltetradecylphosphonium bis(2,4,4-trimethylpentyl)phosphinate; phases: Liquid
Fixed: Pressure, kPa = 101.325
Property: Viscosity, Pa*s (Liquid); method: Cone and plate viscometry
Temperature, K	Viscosity, Pa*s	uncertainty
298.15	.9996	
310.15	.4826	
318.15	.3167	

System: water + trihexyltetradecylphosphonium bis(2,4,4-trimethylpentyl)phosphinate; phases: Liquid mixture 1, Liquid mixture 2
Fixed: Pressure, kPa = 100
Property: Mass fraction of water (Liquid mixture 1); method: Titration method
Temperature, K	Mass fraction of water	uncertainty
298.15	.156	
298.15	.151	
310.15	.146	
318.15	.142	

System: water + trihexyltetradecylphosphonium bis(2,4,4-trimethylpentyl)phosphinate; phases: Liquid
Fixed: Pressure, kPa = 100
Property: Mass density, kg/m3 (Liquid); method: Vibrating tube method
Temperature, K	Mass fraction of water	Mass density, kg/m3	uncertainty
298.15	.151	909.07	
310.15	.146	900.11	
318.15	.142	893.78	

System: water + trihexyltetradecylphosphonium bis(2,4,4-trimethylpentyl)phosphinate; phases: Liquid
Fixed: Pressure, kPa = 100
Property: Viscosity, Pa*s (Liquid); method: Cone and plate viscometry
Temperature, K	Mass fraction of water	Viscosity, Pa*s	uncertainty
298.15	.151	.1424	
310.15	.146	.07966	
318.15	.142	.05558	

System: butanoic acid + water + trihexyltetradecylphosphonium bis(2,4,4-trimethylpentyl)phosphinate; phases: Liquid mixture 1, Liquid mixture 2
Fixed: Pressure, kPa = 100
Property: Mass fraction of water (Liquid mixture 1); method: Titration method
Temperature, K	Mass fraction of butanoic acid	Mass fraction of water	uncertainty
298.15	.0502	.1088	
298.15	.0949	.0769	
298.15	.148	.0476	
298.15	.193	.0306	
298.15	.231	.0259	
298.15	.263	.0286	
298.15	.325	.0349	
298.15	.358	.0375	
298.15	.397	.0401	
298.15	.413	.0434	
310.15	.051	.1127	
310.15	.0975	.0759	
310.15	.141	.051	
310.15	.189	.0354	
310.15	.222	.0298	
310.15	.253	.0287	
310.15	.316	.0329	
310.15	.359	.0363	
310.15	.419	.0461	
318.15	.0509	.106	
318.15	.0997	.0748	
318.15	.143	.0499	
318.15	.184	.0342	
318.15	.215	.0311	
318.15	.245	.029	
318.15	.308	.0361	
318.15	.354	.0377	
318.15	.412	.0464	

System: butanoic acid + water + trihexyltetradecylphosphonium bis(2,4,4-trimethylpentyl)phosphinate; phases: Liquid mixture 2, Liquid mixture 1
Fixed: Pressure, kPa = 100
Property: Mass fraction of butanoic acid (Liquid mixture 2); method: isotachophoresis
Temperature, K	Mass fraction of butanoic acid	Mass fraction of butanoic acid	uncertainty
298.15	.0502	.000406	
298.15	.0949	.000795	
298.15	.148	.0015	
298.15	.193	.00345	
298.15	.231	.00801	
298.15	.263	.0134	
298.15	.325	.0276	
298.15	.358	.0406	
298.15	.397	.0597	
298.15	.413	.0622	
310.15	.051	.00042	
310.15	.0975	.00098	
310.15	.141	.00181	
310.15	.167	.00292	
310.15	.189	.00399	
310.15	.205	.0065	
310.15	.222	.00869	
310.15	.253	.0149	
310.15	.25	.0151	
310.15	.316	.0304	
310.15	.359	.0433	
310.15	.419	.0658	
318.15	.0509	.00046	
318.15	.0997	.000937	
318.15	.143	.00192	
318.15	.184	.0043	
318.15	.215	.00861	
318.15	.245	.0141	
318.15	.308	.0282	
318.15	.354	.0413	
318.15	.412	.0626	

System: butanoic acid + water + trihexyltetradecylphosphonium bis(2,4,4-trimethylpentyl)phosphinate; phases: Liquid
Fixed: Pressure, kPa = 100
Property: Mass density, kg/m3 (Liquid); method: Vibrating tube method
Temperature, K	Mass fraction of butanoic acid	Mass fraction of water	Mass density, kg/m3	uncertainty
298.15	.0502	.1088	907.59	
298.15	.0949	.0769	906.33	
298.15	.148	.0476	905.3	
298.15	.193	.0306	907.18	
298.15	.231	.0259	909.85	
298.15	.263	.0286	912.58	
298.15	.325	.0349	917.8	
298.15	.358	.0375	921.14	
298.15	.397	.0401	926.23	
298.15	.413	.0434	926.62	
310.15	.051	.1127	898.44	
310.15	.0975	.0759	897.68	
310.15	.141	.051	898.06	
310.15	.189	.0354	899.84	
310.15	.222	.0298	902.26	
310.15	.253	.0287	904.78	
310.15	.316	.0329	910.06	
310.15	.359	.0363	913.25	
310.15	.419	.0461	918.69	
318.15	.0509	.106	893.78	
318.15	.0997	.0748	893.03	
318.15	.143	.0499	892.46	
318.15	.184	.0342	894.44	
318.15	.215	.0311	896.9	
318.15	.245	.029	899.42	
318.15	.308	.0361	903.68	
318.15	.354	.0377	906.77	
318.15	.412	.0464	911.83	

System: butanoic acid + water + trihexyltetradecylphosphonium bis(2,4,4-trimethylpentyl)phosphinate; phases: Liquid mixture 2, Liquid mixture 1
Fixed: Pressure, kPa = 100
Property: Mass density, kg/m3 (Liquid mixture 2); method: Vibrating tube method
Temperature, K	Mass fraction of butanoic acid	Mass density, kg/m3	uncertainty
298.15	.000406	997.07	
298.15	.000795	997.1	
298.15	.0015	997.2	
298.15	.00345	997.35	
298.15	.00801	997.6	
298.15	.0134	997.95	
298.15	.0276	998.54	
298.15	.0406	999.17	
298.15	.0597	999.97	
298.15	.0622	1000.09	
318.15	.00046	990.23	
318.15	.000937	990.26	
318.15	.00192	990.31	
318.15	.0043	990.43	
318.15	.00861	990.63	
318.15	.0141	990.86	
318.15	.0282	991.34	
318.15	.0413	991.67	
318.15	.0626	992.07	
310.15	.00042	993.36	
310.15	.00098	993.39	
310.15	.00181	993.44	
310.15	.00292	993.51	
310.15	.00399	993.58	
310.15	.0065	993.72	
310.15	.00869	993.84	
310.15	.0149	994.16	
310.15	.0151	994.17	
310.15	.0304	994.8	
310.15	.0433	995.2	
310.15	.0658	995.76	
