Measured thermophysical data. Solubility of Ethyl p-Aminobenzoate in Six Alcohols within (283.15 to 327.15) K
Source: J. Chem. Eng. Data, 2016, 10.1021/acs.jced.6b00037
Compound 1: methanol, CH4O, purity 99.5%
Compound 2: ethanol, C2H6O, purity 99.5%
Compound 3: n-propanol, C3H8O, purity 99.5%
Compound 4: n-butanol, C4H10O, purity 99.5%
Compound 5: isobutanol, C4H10O, purity 99.5%
Compound 6: isoamyl alcohol, C5H12O, purity 99.5%
Compound 7: ethyl p-aminobenzoate, C9H11NO2, purity 99.5%

System: ethyl p-aminobenzoate; phases: Crystal, Liquid, Air at 1 atmosphere
Property: Triple point temperature, K (Crystal); method: DSC
Triple point temperature, K	uncertainty
363.2	.5

System: ethyl p-aminobenzoate; phases: Crystal, Liquid, Air at 1 atmosphere
Property: Molar enthalpy of transition or fusion, kJ/mol (Crystal); method: DSC
Molar enthalpy of transition or fusion, kJ/mol	uncertainty
21.904	.43808

System: methanol + ethyl p-aminobenzoate; phases: Liquid, Crystal
Fixed: Pressure, kPa = 100
Property: Mole fraction of ethyl p-aminobenzoate (Liquid); method: Titration method
Temperature, K	Mole fraction of ethyl p-aminobenzoate	uncertainty
283.15	.0528	
287.15	.0629	
291.15	.075	
295.15	.0863	
299.15	.1033	
303.15	.1202	
307.15	.1415	
311.15	.1675	
315.15	.1997	
318.15	.2271	
321.15	.2594	
324.15	.2956	
327.15	.3347	

System: ethanol + ethyl p-aminobenzoate; phases: Liquid, Crystal
Fixed: Pressure, kPa = 100
Property: Mole fraction of ethyl p-aminobenzoate (Liquid); method: Titration method
Temperature, K	Mole fraction of ethyl p-aminobenzoate	uncertainty
283.15	.0522	
287.15	.0611	
291.15	.0712	
295.15	.0831	
299.15	.0982	
303.15	.1149	
307.15	.1349	
311.15	.1599	
315.15	.191	
318.15	.2208	
321.15	.2512	
324.15	.2887	
327.15	.3275	

System: n-propanol + ethyl p-aminobenzoate; phases: Liquid, Crystal
Fixed: Pressure, kPa = 100
Property: Mole fraction of ethyl p-aminobenzoate (Liquid); method: Titration method
Temperature, K	Mole fraction of ethyl p-aminobenzoate	uncertainty
283.15	.0441	
287.15	.0521	
291.15	.0605	
295.15	.071	
299.15	.085	
303.15	.101	
307.15	.1215	
311.15	.1482	
315.15	.1794	
318.15	.2108	
321.15	.2451	
324.15	.2843	
327.15	.3259	

System: n-butanol + ethyl p-aminobenzoate; phases: Liquid, Crystal
Fixed: Pressure, kPa = 100
Property: Mole fraction of ethyl p-aminobenzoate (Liquid); method: Titration method
Temperature, K	Mole fraction of ethyl p-aminobenzoate	uncertainty
283.15	.037	
287.15	.0467	
291.15	.0562	
295.15	.0668	
299.15	.0821	
303.15	.0981	
307.15	.1181	
311.15	.146	
315.15	.1763	
318.15	.2072	
321.15	.2408	
324.15	.2815	
327.15	.3233	

System: isobutanol + ethyl p-aminobenzoate; phases: Liquid, Crystal
Fixed: Pressure, kPa = 100
Property: Mole fraction of ethyl p-aminobenzoate (Liquid); method: Titration method
Temperature, K	Mole fraction of ethyl p-aminobenzoate	uncertainty
283.15	.0281	
287.15	.0328	
291.15	.0392	
295.15	.048	
299.15	.0583	
303.15	.071	
307.15	.0879	
311.15	.1111	
315.15	.1404	
318.15	.1681	
321.15	.2045	
324.15	.2496	
327.15	.3035	

System: ethyl p-aminobenzoate + isoamyl alcohol; phases: Liquid, Crystal
Fixed: Pressure, kPa = 100
Property: Mole fraction of ethyl p-aminobenzoate (Liquid); method: Titration method
Temperature, K	Mole fraction of ethyl p-aminobenzoate	uncertainty
283.15	.0335	
287.15	.0371	
291.15	.0439	
295.15	.0529	
299.15	.0632	
303.15	.0757	
307.15	.0917	
311.15	.1151	
315.15	.1446	
318.15	.1721	
321.15	.2062	
324.15	.2516	
327.15	.3054	
