Measured thermophysical data. Density, Viscosity, and Thermal Conductivity of Eight Carboxylic Acids from (290.3 to 473.4) K
Source: J. Chem. Eng. Data, 2016, 10.1021/acs.jced.5b00971
Compound 1: pentanoic acid, C5H10O2, purity 99%
Compound 2: hexanoic acid, C6H12O2, purity 99%
Compound 3: heptanoic acid, C7H14O2, purity 99%
Compound 4: octanoic acid, C8H16O2, purity 99%
Compound 5: nonanoic acid, C9H18O2, purity 99%
Compound 6: decanoic acid, C10H20O2, purity 99%
Compound 7: dodecanoic acid, C12H24O2, purity 99%
Compound 8: tetradecanoic acid, C14H28O2, purity 99%

System: pentanoic acid; phases: Liquid, Gas
Property: Mass density, kg/m3 (Liquid); method: Pycnometric method
Temperature, K	Mass density, kg/m3	uncertainty
293.4	939.7	
312.1	922.3	
332.1	904.1	
352.2	885.4	
368.1	870.6	
388.4	851	
408.3	831.9	
428.2	812.1	

System: pentanoic acid; phases: Liquid, Gas
Property: Viscosity, Pa*s (Liquid); method: Capillary tube (Ostwald; Ubbelohde) method
Temperature, K	Viscosity, Pa*s	uncertainty
293.4	.00219	
312.1	.00156	
332.1	.00117	
352.2	.00089	
368.1	.00075	
388.4	.0006	
408.3	.0005	
428.2	.00041	

System: pentanoic acid; phases: Liquid, Gas
Property: Thermal conductivity, W/m/K (Liquid); method: Hot wire method
Temperature, K	Thermal conductivity, W/m/K	uncertainty
296.1	.141	
324.1	.136	
348.6	.131	
374	.126	
398	.122	
422.4	.118	
446.4	.115	
471.3	.111	

System: hexanoic acid; phases: Liquid
Fixed: Pressure, kPa = 101.325
Property: Mass density, kg/m3 (Liquid); method: Pycnometric method
Temperature, K	Mass density, kg/m3	uncertainty
294.5	926	
312.1	910.5	
332.1	893.1	
352.1	875.8	
368.1	861.7	
388.4	843.5	
408.3	825.3	
428.3	806.5	

System: hexanoic acid; phases: Liquid
Fixed: Pressure, kPa = 101.325
Property: Viscosity, Pa*s (Liquid); method: Capillary tube (Ostwald; Ubbelohde) method
Temperature, K	Viscosity, Pa*s	uncertainty
294.6	.00307	
312.1	.00215	
332.1	.00152	
352.1	.00114	
368.1	.00094	
388.4	.00073	
408.3	.0006	
428.3	.00049	

System: hexanoic acid; phases: Liquid
Fixed: Pressure, kPa = 101.325
Property: Thermal conductivity, W/m/K (Liquid); method: Hot wire method
Temperature, K	Thermal conductivity, W/m/K	uncertainty
296.9	.143	
325.7	.138	
347.4	.134	
374.7	.128	
398.1	.124	
422.3	.12	
445.6	.116	
471.2	.113	

System: heptanoic acid; phases: Liquid
Fixed: Pressure, kPa = 101.325
Property: Mass density, kg/m3 (Liquid); method: Pycnometric method
Temperature, K	Mass density, kg/m3	uncertainty
290.3	920.6	
308	905.7	
323.1	893	
338.1	880.4	
353.1	867.8	
367.1	855.4	
383.2	842.3	
397.9	829.4	
412.9	816.6	
427.7	803.4	

System: heptanoic acid; phases: Liquid
Fixed: Pressure, kPa = 101.325
Property: Viscosity, Pa*s (Liquid); method: Capillary tube (Ostwald; Ubbelohde) method
Temperature, K	Viscosity, Pa*s	uncertainty
290.3	.00463	
308	.00306	
323.1	.0023	
338.1	.00174	
353.1	.00139	
367.1	.00113	
383.2	.00094	
397.9	.00079	
412.9	.00068	
427.7	.00059	

System: heptanoic acid; phases: Liquid
Fixed: Pressure, kPa = 101.325
Property: Thermal conductivity, W/m/K (Liquid); method: Hot wire method
Temperature, K	Thermal conductivity, W/m/K	uncertainty
296	.144	
314.4	.14	
332.4	.137	
352.6	.133	
372.2	.13	
382	.127	
391.9	.124	
412.4	.121	
441.7	.116	
471.4	.11	

System: octanoic acid; phases: Liquid
Fixed: Pressure, kPa = 101.325
Property: Mass density, kg/m3 (Liquid); method: Pycnometric method
Temperature, K	Mass density, kg/m3	uncertainty
290.3	910.3	
308	898.2	
323.1	885.9	
338.1	873.8	
353.1	861.8	
367.8	849.7	
383.1	837.2	
398.1	824.6	
412.9	812.3	
427.7	799.2	

System: octanoic acid; phases: Liquid
Fixed: Pressure, kPa = 101.325
Property: Viscosity, Pa*s (Liquid); method: Capillary tube (Ostwald; Ubbelohde) method
Temperature, K	Viscosity, Pa*s	uncertainty
293.3	.00586	
308	.00398	
323.1	.00288	
338.1	.00217	
353.1	.00169	
367.8	.00136	
383.1	.00111	
398.1	.00092	
412.9	.00078	
427.7	.00067	

System: octanoic acid; phases: Liquid
Fixed: Pressure, kPa = 101.325
Property: Thermal conductivity, W/m/K (Liquid); method: Hot wire method
Temperature, K	Thermal conductivity, W/m/K	uncertainty
297.2	.147	
322.3	.142	
352.8	.136	
387.6	.13	
411.3	.124	
442	.118	
471.7	.112	

System: nonanoic acid; phases: Liquid
Fixed: Pressure, kPa = 101.325
Property: Mass density, kg/m3 (Liquid); method: Pycnometric method
Temperature, K	Mass density, kg/m3	uncertainty
290.3	906	
308	893.8	
323.1	881.9	
338.1	870.1	
353.1	858.4	
368	846.7	
383.1	834.1	
398.1	822.3	
413	810.3	
427.9	798	

System: nonanoic acid; phases: Liquid
Fixed: Pressure, kPa = 101.325
Property: Viscosity, Pa*s (Liquid); method: Capillary tube (Ostwald; Ubbelohde) method
Temperature, K	Viscosity, Pa*s	uncertainty
292.3	.0082	
308	.00525	
323.1	.00366	
338.1	.0027	
353.1	.00207	
368	.00163	
383.3	.00131	
398.1	.00108	
413	.0009	
427.9	.00076	

System: nonanoic acid; phases: Liquid
Fixed: Pressure, kPa = 101.325
Property: Thermal conductivity, W/m/K (Liquid); method: Hot wire method
Temperature, K	Thermal conductivity, W/m/K	uncertainty
296.3	.15	
322.6	.144	
352.9	.139	
381.3	.133	
412.2	.126	
441.4	.121	
471.6	.115	

System: decanoic acid; phases: Liquid
Fixed: Pressure, kPa = 101.325
Property: Mass density, kg/m3 (Liquid); method: Pycnometric method
Temperature, K	Mass density, kg/m3	uncertainty
322.1	878	
332.1	871	
352.1	855.3	
368.3	843.1	
388.3	827.3	
408.2	812.2	
427.2	797.2	
428.2	796.4	
442.2	784.9	
457.2	772.9	
472.2	761.9	

System: decanoic acid; phases: Liquid
Fixed: Pressure, kPa = 101.325
Property: Viscosity, Pa*s (Liquid); method: Capillary tube (Ostwald; Ubbelohde) method
Temperature, K	Viscosity, Pa*s	uncertainty
322.1	.00475	
332.1	.0038	
352.1	.00255	
368.3	.00194	
388.3	.00145	
408.2	.0011	
427.2	.00088	
428.2	.00087	
442.2	.00075	
457.2	.00064	
472.2	.00056	

System: decanoic acid; phases: Liquid
Fixed: Pressure, kPa = 101.325
Property: Thermal conductivity, W/m/K (Liquid); method: Hot wire method
Temperature, K	Thermal conductivity, W/m/K	uncertainty
308	.154	
327.4	.15	
348.8	.146	
373.9	.14	
398.3	.135	
421.9	.13	
447.3	.125	
473.4	.119	

System: dodecanoic acid; phases: Liquid
Fixed: Pressure, kPa = 101.325
Property: Mass density, kg/m3 (Liquid); method: Pycnometric method
Temperature, K	Mass density, kg/m3	uncertainty
322.1	872.4	
332.1	864.6	
352.1	849.9	
368.2	838.9	
388.4	824.1	
408.1	809.3	
428.1	794.4	
442.2	783.5	
457.2	770.2	
467.2	762	

System: dodecanoic acid; phases: Liquid
Fixed: Pressure, kPa = 101.325
Property: Viscosity, Pa*s (Liquid); method: Capillary tube (Ostwald; Ubbelohde) method
Temperature, K	Viscosity, Pa*s	uncertainty
322.1	.00721	
332.1	.00562	
352.1	.0037	
368.2	.00269	
388.4	.00197	
408.1	.00147	
428.1	.00111	
442.2	.00095	
457.2	.0008	
467.2	.00072	

System: dodecanoic acid; phases: Liquid
Fixed: Pressure, kPa = 101.325
Property: Thermal conductivity, W/m/K (Liquid); method: Hot wire method
Temperature, K	Thermal conductivity, W/m/K	uncertainty
324.6	.156	
348.7	.151	
373.8	.145	
398.4	.14	
422	.134	
447.5	.129	
472.7	.123	

System: tetradecanoic acid; phases: Liquid
Fixed: Pressure, kPa = 101.325
Property: Mass density, kg/m3 (Liquid); method: Pycnometric method
Temperature, K	Mass density, kg/m3	uncertainty
332.1	861.3	
352.1	846.9	
368.2	835.6	
388.2	821.4	
408.2	806.7	
427.9	791.7	
443.2	780.9	
458.2	769.3	
473.2	758	

System: tetradecanoic acid; phases: Liquid
Fixed: Pressure, kPa = 101.325
Property: Viscosity, Pa*s (Liquid); method: Capillary tube (Ostwald; Ubbelohde) method
Temperature, K	Viscosity, Pa*s	uncertainty
332.1	.00777	
352.1	.00488	
368.2	.00353	
388.2	.00248	
408.2	.00179	
427.9	.00135	
442.2	.00113	
457.2	.00095	
472.2	.00081	

System: tetradecanoic acid; phases: Liquid
Fixed: Pressure, kPa = 101.325
Property: Thermal conductivity, W/m/K (Liquid); method: Hot wire method
Temperature, K	Thermal conductivity, W/m/K	uncertainty
334.4	.158	
349	.155	
374.1	.149	
397.7	.144	
422.3	.139	
447.3	.133	
471.9	.127	
