Measured thermophysical data. Thermodynamic Models for Determination of the Solubility of Boc-(R)-3-Amino-4-(2, 4, 5-trifluorophenyl)butanoic acid in Different Pure Solvents and (Tetrahydrofuran + n-Butanol) Binary Mixtures with Temperatures from 280.15 to 330.15 K
Source: J. Chem. Eng. Data, 2016, 10.1021/acs.jced.5b00758
Compound 1: (R)-3-((tert-butoxycarbonyl)amino)-4-(2,4,5-trifluorophenyl)butanoic acid, C15H18F3NO4, purity 98.0%
Compound 2: methanol, CH4O, purity 99.7%
Compound 3: ethanol, C2H6O, purity 99.0%
Compound 4: 1-propanol, C3H8O, purity 99.5%
Compound 5: n-butanol, C4H10O, purity 99.5%
Compound 6: ethyl acetate, C4H8O2, purity 99.5%
Compound 7: tetrahydrofuran, C4H8O, purity 99.0%

System: tetrahydrofuran + (R)-3-((tert-butoxycarbonyl)amino)-4-(2,4,5-trifluorophenyl)butanoic acid; phases: Liquid, Crystal
Fixed: Pressure, kPa = 100
Property: Mole fraction of (R)-3-((tert-butoxycarbonyl)amino)-4-(2,4,5-trifluorophenyl)butanoic acid (Liquid); method: gravimetric
Temperature, K	Mole fraction of (R)-3-((tert-butoxycarbonyl)amino)-4-(2,4,5-trifluorophenyl)butanoic acid	uncertainty
280.15	.0933	
285.15	.1047	
290.15	.1164	
295.15	.1291	
300.15	.1445	
305.15	.1633	
310.15	.1869	
315.15	.2147	
320.15	.2445	
325.15	.2792	
330.15	.322	

System: ethanol + (R)-3-((tert-butoxycarbonyl)amino)-4-(2,4,5-trifluorophenyl)butanoic acid; phases: Liquid, Crystal
Fixed: Pressure, kPa = 100
Property: Mole fraction of (R)-3-((tert-butoxycarbonyl)amino)-4-(2,4,5-trifluorophenyl)butanoic acid (Liquid); method: gravimetric
Temperature, K	Mole fraction of (R)-3-((tert-butoxycarbonyl)amino)-4-(2,4,5-trifluorophenyl)butanoic acid	uncertainty
280.15	.036	
285.15	.042	
290.15	.0483	
295.15	.0559	
300.15	.0659	
305.15	.0754	
310.15	.0894	
315.15	.1028	
320.15	.1249	
325.15	.1469	
330.15	.1733	

System: methanol + (R)-3-((tert-butoxycarbonyl)amino)-4-(2,4,5-trifluorophenyl)butanoic acid; phases: Liquid, Crystal
Fixed: Pressure, kPa = 100
Property: Mole fraction of (R)-3-((tert-butoxycarbonyl)amino)-4-(2,4,5-trifluorophenyl)butanoic acid (Liquid); method: gravimetric
Temperature, K	Mole fraction of (R)-3-((tert-butoxycarbonyl)amino)-4-(2,4,5-trifluorophenyl)butanoic acid	uncertainty
280.15	.053	
285.15	.0582	
290.15	.0669	
295.15	.0751	
300.15	.085	
305.15	.097	
310.15	.1109	
315.15	.129	
320.15	.1511	
325.15	.1782	
330.15	.2115	

System: 1-propanol + (R)-3-((tert-butoxycarbonyl)amino)-4-(2,4,5-trifluorophenyl)butanoic acid; phases: Liquid, Crystal
Fixed: Pressure, kPa = 100
Property: Mole fraction of (R)-3-((tert-butoxycarbonyl)amino)-4-(2,4,5-trifluorophenyl)butanoic acid (Liquid); method: gravimetric
Temperature, K	Mole fraction of (R)-3-((tert-butoxycarbonyl)amino)-4-(2,4,5-trifluorophenyl)butanoic acid	uncertainty
280.15	.0312	
285.15	.0374	
290.15	.0449	
295.15	.0522	
300.15	.0619	
305.15	.0718	
310.15	.0847	
315.15	.0985	
320.15	.1164	
325.15	.1386	
330.15	.1624	

System: ethyl acetate + (R)-3-((tert-butoxycarbonyl)amino)-4-(2,4,5-trifluorophenyl)butanoic acid; phases: Liquid, Crystal
Fixed: Pressure, kPa = 100
Property: Mole fraction of (R)-3-((tert-butoxycarbonyl)amino)-4-(2,4,5-trifluorophenyl)butanoic acid (Liquid); method: gravimetric
Temperature, K	Mole fraction of (R)-3-((tert-butoxycarbonyl)amino)-4-(2,4,5-trifluorophenyl)butanoic acid	uncertainty
280.15	.0409	
285.15	.0477	
290.15	.0556	
295.15	.0652	
300.15	.0773	
305.15	.089	
310.15	.104	
315.15	.1212	
320.15	.1403	
325.15	.1636	
330.15	.1879	

System: n-butanol + (R)-3-((tert-butoxycarbonyl)amino)-4-(2,4,5-trifluorophenyl)butanoic acid; phases: Liquid, Crystal
Fixed: Pressure, kPa = 100
Property: Mole fraction of (R)-3-((tert-butoxycarbonyl)amino)-4-(2,4,5-trifluorophenyl)butanoic acid (Liquid); method: gravimetric
Temperature, K	Mole fraction of (R)-3-((tert-butoxycarbonyl)amino)-4-(2,4,5-trifluorophenyl)butanoic acid	uncertainty
280.15	.0274	
285.15	.0306	
290.15	.0353	
295.15	.0426	
300.15	.0514	
305.15	.0619	
310.15	.0735	
315.15	.0868	
320.15	.1034	
325.15	.1258	
330.15	.1541	

System: n-butanol + tetrahydrofuran + (R)-3-((tert-butoxycarbonyl)amino)-4-(2,4,5-trifluorophenyl)butanoic acid; phases: Liquid, Crystal
Fixed: Pressure, kPa = 100
Property: Mole fraction of (R)-3-((tert-butoxycarbonyl)amino)-4-(2,4,5-trifluorophenyl)butanoic acid (Liquid); method: gravimetric
Temperature, K	Solvent: Mole fraction of tetrahydrofuran	Mole fraction of (R)-3-((tert-butoxycarbonyl)amino)-4-(2,4,5-trifluorophenyl)butanoic acid	uncertainty
280.15	0	.0274	
280.15	.1535	.0332	
280.15	.3058	.0403	
280.15	.4568	.0483	
280.15	.6066	.0585	
280.15	.7551	.0693	
280.15	.9024	.0801	
280.15	1	.0933	
285.15	0	.0306	
285.15	.1535	.0384	
285.15	.3058	.0463	
285.15	.4568	.0557	
285.15	.6066	.0652	
285.15	.7551	.0771	
285.15	.9024	.0881	
285.15	1	.1047	
290.15	0	.0353	
290.15	.1535	.0433	
290.15	.3058	.0531	
290.15	.4568	.0626	
290.15	.6066	.0731	
290.15	.7551	.0857	
290.15	.9024	.0992	
290.15	1	.1164	
295.15	0	.0426	
295.15	.1535	.0506	
295.15	.3058	.0613	
295.15	.4568	.0719	
295.15	.6066	.0843	
295.15	.7551	.0971	
295.15	.9024	.1121	
295.15	1	.1291	
300.15	0	.0514	
300.15	.1535	.06	
300.15	.3058	.0711	
300.15	.4568	.0822	
300.15	.6066	.0946	
300.15	.7551	.1091	
300.15	.9024	.1262	
300.15	1	.1445	
305.15	0	.0619	
305.15	.1535	.0703	
305.15	.3058	.0824	
305.15	.4568	.0945	
305.15	.6066	.1088	
305.15	.7551	.1254	
305.15	.9024	.1427	
305.15	1	.1633	
310.15	0	.0735	
310.15	.1535	.0835	
310.15	.3058	.0948	
310.15	.4568	.1099	
310.15	.6066	.1263	
310.15	.7551	.1441	
310.15	.9024	.1642	
310.15	1	.1869	
315.15	0	.0868	
315.15	.1535	.0979	
315.15	.3058	.1108	
315.15	.4568	.1266	
315.15	.6066	.1446	
315.15	.7551	.1641	
315.15	.9024	.1882	
315.15	1	.2147	
320.15	0	.1034	
320.15	.1535	.1163	
320.15	.3058	.1309	
320.15	.4568	.1482	
320.15	.6066	.1691	
320.15	.7551	.1911	
320.15	.9024	.2159	
320.15	1	.2445	
325.15	0	.1258	
325.15	.1535	.1377	
325.15	.3058	.1548	
325.15	.4568	.1719	
325.15	.6066	.1953	
325.15	.7551	.2198	
325.15	.9024	.2487	
325.15	1	.2792	
330.15	0	.1541	
330.15	.1535	.1665	
330.15	.3058	.1825	
330.15	.4568	.2015	
330.15	.6066	.2267	
330.15	.7551	.2555	
330.15	.9024	.2875	
330.15	1	.322	
