Measured thermophysical data. Visual Measurements of Solid Liquid Equilibria and Induction Times for Cyclohexane + Octadecane Mixtures at Pressures to 5 MPa
Source: J. Chem. Eng. Data, 2017, 10.1021/acs.jced.7b00171
Compound 1: cyclohexane, C6H12, purity 99%
Compound 2: octadecane, C18H38, purity 99%

System: cyclohexane; phases: Crystal 1, Liquid
Property: Solid-liquid equilibrium temperature, K (Crystal 1); method: Visual observation
Pressure, kPa	Solid-liquid equilibrium temperature, K	uncertainty
1310	280.31	
3430	281.53	
5310	282.52	

System: octadecane + cyclohexane; phases: Crystal, Crystal 1, Liquid, Gas
Fixed: Pressure, kPa = 101.325
Property: Eutectic composition: mole fraction of cyclohexane (Crystal); method: Derived from phase diagram analysis
Eutectic composition: mole fraction of cyclohexane	uncertainty
.9499	

System: octadecane + cyclohexane; phases: Crystal, Crystal 1, Liquid, Gas
Fixed: Pressure, kPa = 101.325
Property: Eutectic temperature, K (Crystal); method: Derived from phase diagram analysis
Eutectic temperature, K	uncertainty
265.51	

System: octadecane + cyclohexane; phases: Liquid, Crystal, Gas
Property: Boiling temperature at pressure P, K (Liquid); method: Visual observation
Mole fraction of cyclohexane	Boiling temperature at pressure P, K	uncertainty
0	301.37	
.1004	300.49	
.2351	298.67	
.3574	296.26	
.4312	294.36	
.4986	292.73	
.5535	291.02	
.5937	289.37	
.6213	288.46	
.6728	286.49	
.7062	285.24	
.7613	282.58	
.7951	280.36	
.8367	278.02	
.8837	274.71	
.9231	270.69	
.9393	268.01	
.9499	265.51	

System: octadecane + cyclohexane; phases: Liquid, Crystal 1, Gas
Property: Boiling temperature at pressure P, K (Liquid); method: Visual observation
Mole fraction of cyclohexane	Boiling temperature at pressure P, K	uncertainty
.9499	265.51	
.9605	267.84	
.9718	270.43	
.9805	273.46	
.9891	276.22	
1	279.83	

System: octadecane + cyclohexane; phases: Liquid, Crystal
Property: Solid-liquid equilibrium temperature, K (Liquid); method: Visual observation
Mole fraction of cyclohexane	Pressure, kPa	Solid-liquid equilibrium temperature, K	uncertainty
.5675	1330	290.8	
.5675	3400	291.02	
.5675	5340	291.41	
.8573	1320	276.26	
.8573	3420	276.83	
.8573	5300	277.17	
