Measured thermophysical data. Solid Liquid Phase Equilibria of (Mg(H2PO2)2 + NaH2PO2 + H2O) and (Mg(H2PO2)2 + MgCl2 + H2O) Systems at 323.15 K
Source: J. Chem. Eng. Data, 2017, 10.1021/acs.jced.6b00828
Compound 1: sodium hypophosphite (NaH2PO2), H2NaO2P, purity 99.0%
Compound 2: magnesium hypophosphite, H4MgO4P2, purity 99.0%
Compound 3: magnesium chloride, Cl2Mg, purity 99.0%
Compound 4: water, H2O, purity 99.8%

System: sodium hypophosphite (NaH2PO2) + water + magnesium hypophosphite; phases: Liquid, Crystal of intercomponent compound 1
Fixed: Temperature, K = 323.15
Fixed: Pressure, kPa = 101.3
Property: Mass fraction of magnesium hypophosphite (Liquid); method: Titration method
Mass fraction of sodium hypophosphite (NaH2PO2)	Mass fraction of magnesium hypophosphite	uncertainty
0	.2243	
.0145	.2005	
.0316	.1836	
.0562	.1701	
.0928	.1524	

System: sodium hypophosphite (NaH2PO2) + water + magnesium hypophosphite; phases: Liquid, Crystal of intercomponent compound 2
Fixed: Temperature, K = 323.15
Fixed: Pressure, kPa = 101.3
Property: Mass fraction of magnesium hypophosphite (Liquid); method: Titration method
Mass fraction of sodium hypophosphite (NaH2PO2)	Mass fraction of magnesium hypophosphite	uncertainty
.0928	.1524	
.1284	.0972	
.1711	.0542	
.2185	.0226	
.2898	.0054	
.334	.0022	
.3957	.0013	
.433	.0009	
.45	.0009	
.4849	.0008	
.5147	.0008	
.5551	.0008	
.5717	.0007	

System: sodium hypophosphite (NaH2PO2) + water + magnesium hypophosphite; phases: Liquid, Crystal of intercomponent compound 3
Fixed: Temperature, K = 323.15
Fixed: Pressure, kPa = 101.3
Property: Mass fraction of magnesium hypophosphite (Liquid); method: Titration method
Mass fraction of sodium hypophosphite (NaH2PO2)	Mass fraction of magnesium hypophosphite	uncertainty
.5717	.0007	
.5786	0	

System: sodium hypophosphite (NaH2PO2) + water + magnesium hypophosphite; phases: Liquid
Fixed: Pressure, kPa = 101.3
Fixed: Temperature, K = 323.15
Property: Mass density, kg/m3 (Liquid); method: Vibrating tube method
Mass fraction of magnesium hypophosphite	Mass fraction of sodium hypophosphite (NaH2PO2)	Mass density, kg/m3	uncertainty
.2243	0	1167.5	
.2005	.0145	1173	
.1836	.0316	1176.2	
.1701	.0562	1178.7	
.1524	.0928	1180.4	
.1524	.0928	1180.4	
.1524	.0928	1180.4	
.0972	.1284	1159.6	
.0542	.1711	1156.4	
.0226	.2185	1166.5	
.0054	.2898	1209.3	
.0022	.334	1245.7	
.0013	.3957	1282.4	
.0009	.433	1329.4	
.0009	.45	1349.7	
.0008	.4849	1377.4	
.0008	.5147	1403.9	
.0008	.5551	1426.2	
.0007	.5717	1435.2	
.0007	.5717	1435.2	
.0007	.5717	1435.2	
0	.5786	1438.8	

System: water + magnesium chloride + magnesium hypophosphite; phases: Liquid, Crystal of intercomponent compound 1
Fixed: Temperature, K = 323.15
Fixed: Pressure, kPa = 101.3
Property: Mass fraction of magnesium hypophosphite (Liquid); method: Titration method
Mass fraction of magnesium chloride	Mass fraction of magnesium hypophosphite	uncertainty
0	.2243	
.0015	.2157	
.0189	.1973	
.0242	.1939	
.059	.193	

System: water + magnesium chloride + magnesium hypophosphite; phases: Liquid, Crystal of intercomponent compound 2
Fixed: Temperature, K = 323.15
Fixed: Pressure, kPa = 101.3
Property: Mass fraction of magnesium hypophosphite (Liquid); method: Titration method
Mass fraction of magnesium chloride	Mass fraction of magnesium hypophosphite	uncertainty
.059	.193	
.0831	.1668	
.1107	.141	
.1337	.1353	
.1555	.1289	
.174	.1277	
.194	.1259	
.209	.1279	
.2391	.1305	
.2629	.1313	

System: water + magnesium chloride + magnesium hypophosphite; phases: Liquid, Crystal of intercomponent compound 3
Fixed: Temperature, K = 323.15
Fixed: Pressure, kPa = 101.3
Property: Mass fraction of magnesium hypophosphite (Liquid); method: Titration method
Mass fraction of magnesium chloride	Mass fraction of magnesium hypophosphite	uncertainty
.2629	.1313	
.2811	.0956	
.3217	.0536	
.3262	.0519	
.3355	.0484	
.3425	.0485	

System: water + magnesium chloride + magnesium hypophosphite; phases: Liquid, Crystal of intercomponent compound 3
Fixed: Temperature, K = 323.15
Fixed: Pressure, kPa = 101.3
Property: Mass fraction of magnesium hypophosphite (Liquid); method: Titration method
Mass fraction of magnesium chloride	Mass fraction of magnesium hypophosphite	uncertainty
.3425	.0485	
.3538	.0277	
.3612	.0139	
.3653	.0056	
.3732	0	

System: water + magnesium chloride + magnesium hypophosphite; phases: Liquid
Fixed: Pressure, kPa = 101.3
Fixed: Temperature, K = 323.15
Property: Mass density, kg/m3 (Liquid); method: Vibrating tube method
Mass fraction of magnesium hypophosphite	Mass fraction of magnesium chloride	Mass density, kg/m3	uncertainty
.2243	0	1167.5	
.2157	.0015	1175.9	
.1973	.0189	1202.2	
.1939	.0242	1209.2	
.193	.059	1229.4	
.1668	.0831	1230	
.141	.1107	1242.1	
.1353	.1337	1254.7	
.1289	.1555	1276.8	
.1277	.174	1294	
.1259	.194	1310.6	
.1279	.209	1328.8	
.1305	.2391	1353.4	
.1313	.2629	1374	
.0956	.2811	1366.4	
.0536	.3217	1362.1	
.0519	.3262	1368.7	
.0484	.3355	1372.1	
.0485	.3425	1383.2	
.0277	.3538	1376.3	
.0139	.3612	1368.9	
.0056	.3653	1359.6	
0	.3732	1343.2	

System: water + magnesium hypophosphite; phases: Liquid, Crystal of intercomponent compound 1
Property: Mass fraction of magnesium hypophosphite (Liquid); method: Titration method
Temperature, K	Pressure, kPa	Mass fraction of magnesium hypophosphite	uncertainty
323.15	101.3	.2243	

System: water + magnesium hypophosphite; phases: Liquid
Property: Mass density, kg/m3 (Liquid); method: Vibrating tube method
Mass fraction of magnesium hypophosphite	Pressure, kPa	Temperature, K	Mass density, kg/m3	uncertainty
.2243	101.3	323.15	1167.5	

System: sodium hypophosphite (NaH2PO2) + water; phases: Liquid, Crystal of intercomponent compound 3
Property: Mass fraction of sodium hypophosphite (NaH2PO2) (Liquid); method: Titration method
Temperature, K	Pressure, kPa	Mass fraction of sodium hypophosphite (NaH2PO2)	uncertainty
323.15	101.3	.5786	

System: sodium hypophosphite (NaH2PO2) + water; phases: Liquid
Property: Mass density, kg/m3 (Liquid); method: Vibrating tube method
Mass fraction of sodium hypophosphite (NaH2PO2)	Pressure, kPa	Temperature, K	Mass density, kg/m3	uncertainty
.5786	101.3	323.15	1438.8	

System: water + magnesium chloride; phases: Liquid, Crystal of intercomponent compound 3
Property: Mass fraction of magnesium chloride (Liquid); method: Titration method
Temperature, K	Pressure, kPa	Mass fraction of magnesium chloride	uncertainty
323.15	101.3	.3732	

System: water + magnesium chloride; phases: Liquid
Property: Mass density, kg/m3 (Liquid); method: Vibrating tube method
Mass fraction of magnesium chloride	Pressure, kPa	Temperature, K	Mass density, kg/m3	uncertainty
.3732	101.3	323.15	1343.2	
