Measured thermophysical data. Density and Viscosity Measurements for Binary Mixtures of 1-Ethyl-3-methylimidazolium Tetrafluoroborate ([Emim][BF4]) with Dimethylacetamide, Dimethylformamide, and Dimethyl Sulfoxide
Source: J. Chem. Eng. Data, 2016, 10.1021/acs.jced.5b00753
Compound 1: 1-ethyl-3-methylimidazolium tetrafluoroborate, C6H11BF4N2, purity 98.0%
Compound 2: N,N-dimethylacetamide, C4H9NO, purity 99.98%
Compound 3: dimethylformamide, C3H7NO, purity 99.98%
Compound 4: dimethyl sulfoxide, C2H6OS, purity 99.9%

System: 1-ethyl-3-methylimidazolium tetrafluoroborate; phases: Liquid
Property: Mass density, kg/m3 (Liquid); method: Vibrating tube method
Temperature, K	Pressure, kPa	Mass density, kg/m3	uncertainty
303.15	101	1272.79	2.54558
313.15	101	1265.22	2.53044
323.15	101	1257.71	2.51542
333.15	101	1250.28	2.50056

System: 1-ethyl-3-methylimidazolium tetrafluoroborate; phases: Liquid
Property: Viscosity, Pa*s (Liquid); method: Capillary tube (Ostwald; Ubbelohde) method
Temperature, K	Pressure, kPa	Viscosity, Pa*s	uncertainty
303.15	101	.028002	.000168012
313.15	101	.020411	.000122466
323.15	101	.015348	.000092088
333.15	101	.012076	.000072456

System: N,N-dimethylacetamide; phases: Liquid
Property: Mass density, kg/m3 (Liquid); method: Vibrating tube method
Temperature, K	Pressure, kPa	Mass density, kg/m3	uncertainty
303.15	101	931.69	1.86338
313.15	101	922.44	1.84488
323.15	101	913.17	1.82634
333.15	101	903.86	1.80772

System: N,N-dimethylacetamide; phases: Liquid
Property: Viscosity, Pa*s (Liquid); method: Capillary tube (Ostwald; Ubbelohde) method
Temperature, K	Pressure, kPa	Viscosity, Pa*s	uncertainty
303.15	101	.000862	.000005172
313.15	101	.000758	.000004548
323.15	101	.000673	.000004038
333.15	101	.000602	.000003612

System: dimethylformamide; phases: Liquid
Property: Mass density, kg/m3 (Liquid); method: Vibrating tube method
Temperature, K	Pressure, kPa	Mass density, kg/m3	uncertainty
303.15	101	939.23	1.87846
313.15	101	929.64	1.85928
323.15	101	920.02	1.84004
333.15	101	910.33	1.82066

System: dimethylformamide; phases: Liquid
Property: Viscosity, Pa*s (Liquid); method: Capillary tube (Ostwald; Ubbelohde) method
Temperature, K	Pressure, kPa	Viscosity, Pa*s	uncertainty
303.15	101	.000744	.000004464
313.15	101	.000667	.000004002
323.15	101	.0006	.0000036
333.15	101	.000541	.000003246

System: dimethyl sulfoxide; phases: Liquid
Property: Mass density, kg/m3 (Liquid); method: Vibrating tube method
Temperature, K	Pressure, kPa	Mass density, kg/m3	uncertainty
303.15	101	1090.41	2.18082
313.15	101	1080.37	2.16074
323.15	101	1070.33	2.14066
333.15	101	1060.29	2.12058

System: dimethyl sulfoxide; phases: Liquid
Property: Viscosity, Pa*s (Liquid); method: Capillary tube (Ostwald; Ubbelohde) method
Temperature, K	Pressure, kPa	Viscosity, Pa*s	uncertainty
303.15	101	.001784	.000010704
313.15	101	.001498	.000008988
323.15	101	.00127	.00000762
333.15	101	.001095	.00000657

System: N,N-dimethylacetamide + 1-ethyl-3-methylimidazolium tetrafluoroborate; phases: Liquid
Fixed: Pressure, kPa = 101
Property: Mass density, kg/m3 (Liquid); method: Vibrating tube method
Temperature, K	Mole fraction of 1-ethyl-3-methylimidazolium tetrafluoroborate	Mass density, kg/m3	uncertainty
303.15	0	931.69	1.86338
303.15	.1006	993.72	1.98744
303.15	.1999	1043.6	2.0872
303.15	.3004	1086.57	2.17314
303.15	.4	1123.37	2.24674
303.15	.4995	1155.56	2.31112
303.15	.6011	1184.69	2.36938
303.15	.7005	1209.3	2.4186
303.15	.8002	1233	2.466
303.15	.9004	1254.14	2.50828
303.15	1	1272.79	2.54558
313.15	0	922.44	1.84488
313.15	.1006	984.95	1.9699
313.15	.1999	1035.12	2.07024
313.15	.3004	1078.32	2.15664
313.15	.4	1115.29	2.23058
313.15	.4995	1147.63	2.29526
313.15	.6011	1176.87	2.35374
313.15	.7005	1201.56	2.40312
313.15	.8002	1225.33	2.45066
313.15	.9004	1246.52	2.49304
313.15	1	1265.22	2.53044
323.15	0	913.17	1.82634
323.15	.1006	976.2	1.9524
323.15	.1999	1026.67	2.05334
323.15	.3004	1070.12	2.14024
323.15	.4	1107.28	2.21456
323.15	.4995	1139.77	2.27954
323.15	.6011	1169.12	2.33824
323.15	.7005	1193.89	2.38778
323.15	.8002	1217.74	2.43548
323.15	.9004	1238.99	2.47798
323.15	1	1257.71	2.51542
333.15	0	903.86	1.80772
333.15	.1006	967.46	1.93492
333.15	.1999	1018.25	2.0365
333.15	.3004	1061.95	2.1239
333.15	.4	1099.32	2.19864
333.15	.4995	1131.96	2.26392
333.15	.6011	1161.44	2.32288
333.15	.7005	1186.31	2.37262
333.15	.8002	1210.23	2.42046
333.15	.9004	1231.52	2.46304
333.15	1	1250.28	2.50056

System: N,N-dimethylacetamide + 1-ethyl-3-methylimidazolium tetrafluoroborate; phases: Liquid
Fixed: Pressure, kPa = 101
Property: Viscosity, Pa*s (Liquid); method: Capillary tube (Ostwald; Ubbelohde) method
Temperature, K	Mole fraction of 1-ethyl-3-methylimidazolium tetrafluoroborate	Viscosity, Pa*s	uncertainty
303.15	0	.000862	.000005172
303.15	.1006	.001549	.000009294
303.15	.1999	.002499	.000014994
303.15	.3004	.003833	.000022998
303.15	.4	.005678	.000034068
303.15	.4995	.007831	.000046986
303.15	.6011	.01062	.00006372
303.15	.7005	.013989	.000083934
303.15	.8002	.018054	.000108324
303.15	.9004	.022753	.000136518
303.15	1	.028002	.000168012
313.15	0	.000758	.000004548
313.15	.1006	.001328	.000007968
313.15	.1999	.002092	.000012552
313.15	.3004	.003147	.000018882
313.15	.4	.004493	.000026958
313.15	.4995	.006172	.000037032
313.15	.6011	.008231	.000049386
313.15	.7005	.010652	.000063912
313.15	.8002	.013592	.000081552
313.15	.9004	.016856	.000101136
313.15	1	.020411	.000122466
323.15	0	.000673	.000004038
323.15	.1006	.001154	.000006924
323.15	.1999	.00179	.00001074
323.15	.3004	.002638	.000015828
323.15	.4	.00369	.00002214
323.15	.4995	.004982	.000029892
323.15	.6011	.006555	.00003933
323.15	.7005	.008356	.000050136
323.15	.8002	.010446	.000062676
323.15	.9004	.012804	.000076824
323.15	1	.015348	.000092088
333.15	0	.000602	.000003612
333.15	.1006	.001029	.000006174
333.15	.1999	.001563	.000009378
333.15	.3004	.002252	.000013512
333.15	.4	.003115	.00001869
333.15	.4995	.004122	.000024732
333.15	.6011	.005375	.00003225
333.15	.7005	.006912	.000041472
333.15	.8002	.008309	.000049854
333.15	.9004	.010087	.000060522
333.15	1	.012076	.000072456

System: dimethylformamide + 1-ethyl-3-methylimidazolium tetrafluoroborate; phases: Liquid
Fixed: Pressure, kPa = 101
Property: Mass density, kg/m3 (Liquid); method: Vibrating tube method
Temperature, K	Mole fraction of 1-ethyl-3-methylimidazolium tetrafluoroborate	Mass density, kg/m3	uncertainty
303.15	0	939.23	1.87846
303.15	.1001	1009.21	2.01842
303.15	.2003	1062.97	2.12594
303.15	.3	1106.05	2.2121
303.15	.3996	1141.94	2.28388
303.15	.4995	1172.12	2.34424
303.15	.6013	1198.42	2.39684
303.15	.7006	1220.57	2.44114
303.15	.7984	1239.45	2.4789
303.15	.8984	1256.79	2.51358
303.15	1	1272.79	2.54558
313.15	0	929.64	1.85928
313.15	.1001	1000.23	2.00046
313.15	.2003	1054.33	2.10866
313.15	.3	1097.67	2.19534
313.15	.3996	1133.78	2.26756
313.15	.4995	1164.12	2.32824
313.15	.6013	1190.54	2.38108
313.15	.7006	1212.79	2.42558
313.15	.7984	1231.74	2.46348
313.15	.8984	1249.15	2.4983
313.15	1	1265.22	2.53044
323.15	0	920.02	1.84004
323.15	.1001	991.24	1.98248
323.15	.2003	1045.73	2.09146
323.15	.3	1089.35	2.1787
323.15	.3996	1125.67	2.25134
323.15	.4995	1156.18	2.31236
323.15	.6013	1182.74	2.36548
323.15	.7006	1205.1	2.4102
323.15	.7984	1224.12	2.44824
323.15	.8984	1241.6	2.4832
323.15	1	1257.71	2.51542
333.15	0	910.33	1.82066
333.15	.1001	982.26	1.96452
333.15	.2003	1037.15	2.0743
333.15	.3	1081.07	2.16214
333.15	.3996	1117.62	2.23524
333.15	.4995	1148.31	2.29662
333.15	.6013	1175.01	2.35002
333.15	.7006	1197.47	2.39494
333.15	.7984	1216.59	2.43318
333.15	.8984	1234.12	2.46824
333.15	1	1250.28	2.50056

System: dimethylformamide + 1-ethyl-3-methylimidazolium tetrafluoroborate; phases: Liquid
Fixed: Pressure, kPa = 101
Property: Viscosity, Pa*s (Liquid); method: Capillary tube (Ostwald; Ubbelohde) method
Temperature, K	Mole fraction of 1-ethyl-3-methylimidazolium tetrafluoroborate	Viscosity, Pa*s	uncertainty
303.15	0	.000744	.000004464
303.15	.1001	.001305	.00000783
303.15	.2003	.002114	.000012684
303.15	.3	.003214	.000019284
303.15	.3996	.00472	.00002832
303.15	.4995	.006703	.000040218
303.15	.6013	.009335	.00005601
303.15	.7006	.012545	.00007527
303.15	.7984	.016522	.000099132
303.15	.8984	.021608	.000129648
303.15	1	.028002	.000168012
313.15	0	.000667	.000004002
313.15	.1001	.001144	.000006864
313.15	.2003	.001806	.000010836
313.15	.3	.002689	.000016134
313.15	.3996	.003867	.000023202
313.15	.4995	.005397	.000032382
313.15	.6013	.007351	.000044106
313.15	.7006	.009741	.000058446
313.15	.7984	.012531	.000075186
313.15	.8984	.016029	.000096174
313.15	1	.020411	.000122466
323.15	0	.0006	.0000036
323.15	.1001	.00101	.00000606
323.15	.2003	.001567	.000009402
323.15	.3	.002293	.000013758
323.15	.3996	.003226	.000019356
323.15	.4995	.004475	.00002685
323.15	.6013	.005935	.00003561
323.15	.7006	.007735	.00004641
323.15	.7984	.009796	.000058776
323.15	.8984	.01229	.00007374
323.15	1	.015348	.000092088
333.15	0	.000541	.000003246
333.15	.1001	.000899	.000005394
333.15	.2003	.001387	.000008322
333.15	.3	.001993	.000011958
333.15	.3996	.002775	.00001665
333.15	.4995	.003744	.000022464
333.15	.6013	.00493	.00002958
333.15	.7006	.006291	.000037746
333.15	.7984	.007829	.000046974
333.15	.8984	.009722	.000058332
333.15	1	.012076	.000072456

System: dimethyl sulfoxide + 1-ethyl-3-methylimidazolium tetrafluoroborate; phases: Liquid
Fixed: Pressure, kPa = 101
Property: Mass density, kg/m3 (Liquid); method: Vibrating tube method
Temperature, K	Mole fraction of 1-ethyl-3-methylimidazolium tetrafluoroborate	Mass density, kg/m3	uncertainty
303.15	0	1090.41	2.18082
303.15	.0998	1131.09	2.26218
303.15	.2004	1162.17	2.32434
303.15	.2998	1186.25	2.3725
303.15	.3998	1205.85	2.4117
303.15	.5004	1222.07	2.44414
303.15	.6	1235.58	2.47116
303.15	.7004	1247.29	2.49458
303.15	.7993	1257.28	2.51456
303.15	.8999	1266.37	2.53274
303.15	1	1272.79	2.54558
313.15	0	1080.37	2.16074
313.15	.0998	1121.8	2.2436
313.15	.2004	1153.33	2.30666
313.15	.2998	1177.73	2.35546
313.15	.3998	1197.57	2.39514
313.15	.5004	1213.97	2.42794
313.15	.6	1227.63	2.45526
313.15	.7004	1239.46	2.47892
313.15	.7993	1249.55	2.4991
313.15	.8999	1258.71	2.51742
313.15	1	1265.22	2.53044
323.15	0	1070.33	2.14066
323.15	.0998	1112.54	2.22508
323.15	.2004	1144.54	2.28908
323.15	.2998	1169.27	2.33854
323.15	.3998	1189.35	2.3787
323.15	.5004	1205.94	2.41188
323.15	.6	1219.74	2.43948
323.15	.7004	1231.7	2.4634
323.15	.7993	1241.89	2.48378
323.15	.8999	1251.13	2.50226
323.15	1	1257.71	2.51542
333.15	0	1060.29	2.12058
333.15	.0998	1103.32	2.20664
333.15	.2004	1135.8	2.2716
333.15	.2998	1160.85	2.3217
333.15	.3998	1181.19	2.36238
333.15	.5004	1197.98	2.39596
333.15	.6	1211.94	2.42388
333.15	.7004	1224.02	2.44804
333.15	.7993	1234.31	2.46862
333.15	.8999	1243.65	2.4873
333.15	1	1250.28	2.50056

System: dimethyl sulfoxide + 1-ethyl-3-methylimidazolium tetrafluoroborate; phases: Liquid
Fixed: Pressure, kPa = 101
Property: Viscosity, Pa*s (Liquid); method: Capillary tube (Ostwald; Ubbelohde) method
Temperature, K	Mole fraction of 1-ethyl-3-methylimidazolium tetrafluoroborate	Viscosity, Pa*s	uncertainty
303.15	0	.001784	.000010704
303.15	.0998	.002928	.000017568
303.15	.2004	.004395	.00002637
303.15	.2998	.006249	.000037494
303.15	.3998	.008523	.000051138
303.15	.5004	.011132	.000066792
303.15	.6	.014076	.000084456
303.15	.7004	.017261	.000103566
303.15	.7993	.020758	.000124548
303.15	.8999	.024387	.000146322
303.15	1	.028002	.000168012
313.15	0	.001498	.000008988
313.15	.0998	.002385	.00001431
313.15	.2004	.003515	.00002109
313.15	.2998	.004936	.000029616
313.15	.3998	.006575	.00003945
313.15	.5004	.008463	.000050778
313.15	.6	.010585	.00006351
313.15	.7004	.012878	.000077268
313.15	.7993	.01525	.0000915
313.15	.8999	.017834	.000107004
313.15	1	.020411	.000122466
323.15	0	.00127	.00000762
323.15	.0998	.001996	.000011976
323.15	.2004	.002893	.000017358
323.15	.2998	.003971	.000023826
323.15	.3998	.005296	.000031776
323.15	.5004	.006667	.000040002
323.15	.6	.008202	.000049212
323.15	.7004	.009905	.00005943
323.15	.7993	.011623	.000069738
323.15	.8999	.013544	.000081264
323.15	1	.015348	.000092088
333.15	0	.001095	.00000657
333.15	.0998	.00171	.00001026
333.15	.2004	.002438	.000014628
333.15	.2998	.003294	.000019764
333.15	.3998	.004335	.00002601
333.15	.5004	.005382	.000032292
333.15	.6	.006571	.000039426
333.15	.7004	.007868	.000047208
333.15	.7993	.009178	.000055068
333.15	.8999	.010645	.00006387
333.15	1	.012076	.000072456
