Measured thermophysical data. Density, Speed of Sound, Viscosity and Surface Tension of 3-Dimethylamino-1-propylamine + Water, 3-Amino-1-propanol + 3-Dimethylamino-1-propanol, and (3-Amino-1-propanol + 3-Dimethylamino-1-propanol) + Water from T = (293.15 to 323.15) K
Source: J. Chem. Eng. Data, 2017, 10.1021/acs.jced.7b00042
Compound 1: N,N-dimethyl-1,3-propanediamine, C5H14N2, purity 99%
Compound 2: 3-dimethylamino-1-propanol, C5H13NO, purity 99%
Compound 3: 3-amino-1-propanol, C3H9NO, purity 99%
Compound 4: water, H2O, purity 99.8%

System: N,N-dimethyl-1,3-propanediamine; phases: Liquid
Fixed: Pressure, kPa = 101.325
Property: Mass density, kg/m3 (Liquid); method: Vibrating tube method
Temperature, K	Mass density, kg/m3	uncertainty
298.15	812.784	

System: N,N-dimethyl-1,3-propanediamine; phases: Liquid
Fixed: Pressure, kPa = 101.325
Property: Speed of sound, m/s (Liquid); method: Sing-around technique in a fixed-path interferometer
Temperature, K	Speed of sound, m/s	uncertainty
298.15	1336.31	

System: N,N-dimethyl-1,3-propanediamine; phases: Liquid
Fixed: Pressure, kPa = 101.325
Property: Viscosity, Pa*s (Liquid); method: Capillary tube (Ostwald; Ubbelohde) method
Temperature, K	Viscosity, Pa*s	uncertainty
298.15	.0009823	

System: N,N-dimethyl-1,3-propanediamine; phases: Liquid, Air at 1 atmosphere
Property: Surface tension liquid-gas, N/m (Liquid); method: Ring tensiometer
Temperature, K	Surface tension liquid-gas, N/m	uncertainty
298.15	.02703	
293.15	.02734	
303.15	.02669	
313.15	.02602	
323.15	.02536	

System: N,N-dimethyl-1,3-propanediamine; phases: Liquid
Property: Mass density, kg/m3 (Liquid); method: Vibrating tube method
Temperature, K	Pressure, kPa	Mass density, kg/m3	uncertainty
293.15	100	817.18	
303.15	100	808.382	
313.15	100	799.461	
323.15	100	790.494	

System: N,N-dimethyl-1,3-propanediamine; phases: Liquid
Fixed: Frequency, MHz = 3
Property: Speed of sound, m/s (Liquid); method: Sing-around technique in a fixed-path interferometer
Temperature, K	Pressure, kPa	Speed of sound, m/s	uncertainty
293.15	100	1358.17	
303.15	100	1314.63	
313.15	100	1271.09	
323.15	100	1229.54	

System: N,N-dimethyl-1,3-propanediamine; phases: Liquid
Property: Viscosity, Pa*s (Liquid); method: Capillary tube (Ostwald; Ubbelohde) method
Temperature, K	Pressure, kPa	Viscosity, Pa*s	uncertainty
293.15	100	.0010786	
303.15	100	.0008997	
313.15	100	.0007611	
323.15	100	.0006553	

System: 3-dimethylamino-1-propanol; phases: Liquid
Fixed: Pressure, kPa = 101.325
Property: Mass density, kg/m3 (Liquid); method: Vibrating tube method
Temperature, K	Mass density, kg/m3	uncertainty
298.15	880.817	

System: 3-dimethylamino-1-propanol; phases: Liquid
Fixed: Pressure, kPa = 101.325
Property: Speed of sound, m/s (Liquid); method: Sing-around technique in a fixed-path interferometer
Temperature, K	Speed of sound, m/s	uncertainty
298.15	1377.94	

System: 3-dimethylamino-1-propanol; phases: Liquid
Fixed: Pressure, kPa = 101.325
Property: Viscosity, Pa*s (Liquid); method: Capillary tube (Ostwald; Ubbelohde) method
Temperature, K	Viscosity, Pa*s	uncertainty
298.15	.0057824	

System: 3-dimethylamino-1-propanol; phases: Liquid, Air at 1 atmosphere
Property: Surface tension liquid-gas, N/m (Liquid); method: Ring tensiometer
Temperature, K	Surface tension liquid-gas, N/m	uncertainty
298.15	.02968	
293.15	.03003	
303.15	.02928	
313.15	.02848	
323.15	.0276	

System: 3-dimethylamino-1-propanol; phases: Liquid
Property: Mass density, kg/m3 (Liquid); method: Vibrating tube method
Temperature, K	Pressure, kPa	Mass density, kg/m3	uncertainty
293.15	100	884.722	
303.15	100	876.762	
313.15	100	868.727	
323.15	100	860.616	

System: 3-dimethylamino-1-propanol; phases: Liquid
Fixed: Frequency, MHz = 3
Property: Speed of sound, m/s (Liquid); method: Sing-around technique in a fixed-path interferometer
Temperature, K	Pressure, kPa	Speed of sound, m/s	uncertainty
293.15	100	1393.58	
303.15	100	1356.53	
313.15	100	1319.46	
323.15	100	1283.06	

System: 3-dimethylamino-1-propanol; phases: Liquid
Property: Viscosity, Pa*s (Liquid); method: Capillary tube (Ostwald; Ubbelohde) method
Temperature, K	Pressure, kPa	Viscosity, Pa*s	uncertainty
293.15	100	.0074202	
303.15	100	.0052281	
313.15	100	.0040066	
323.15	100	.0030819	

System: 3-amino-1-propanol; phases: Liquid
Fixed: Pressure, kPa = 101.325
Property: Mass density, kg/m3 (Liquid); method: Vibrating tube method
Temperature, K	Mass density, kg/m3	uncertainty
298.15	983.586	

System: 3-amino-1-propanol; phases: Liquid
Fixed: Pressure, kPa = 101.325
Property: Speed of sound, m/s (Liquid); method: Sing-around technique in a fixed-path interferometer
Temperature, K	Speed of sound, m/s	uncertainty
298.15	1712.28	

System: 3-amino-1-propanol; phases: Liquid
Fixed: Pressure, kPa = 101.325
Property: Viscosity, Pa*s (Liquid); method: Capillary tube (Ostwald; Ubbelohde) method
Temperature, K	Viscosity, Pa*s	uncertainty
298.15	.0305037	

System: 3-amino-1-propanol; phases: Liquid, Air at 1 atmosphere
Property: Surface tension liquid-gas, N/m (Liquid); method: Ring tensiometer
Temperature, K	Surface tension liquid-gas, N/m	uncertainty
298.15	.04384	
293.15	.04492	
303.15	.04271	
313.15	.04052	
323.15	.03817	

System: 3-amino-1-propanol; phases: Liquid
Property: Mass density, kg/m3 (Liquid); method: Vibrating tube method
Temperature, K	Pressure, kPa	Mass density, kg/m3	uncertainty
293.15	100	987.618	
303.15	100	979.596	
313.15	100	971.533	
323.15	100	963.427	

System: 3-amino-1-propanol; phases: Liquid
Fixed: Frequency, MHz = 3
Property: Speed of sound, m/s (Liquid); method: Sing-around technique in a fixed-path interferometer
Temperature, K	Pressure, kPa	Speed of sound, m/s	uncertainty
293.15	100	1728.72	
303.15	100	1697.18	
313.15	100	1667.47	
323.15	100	1631.54	

System: 3-amino-1-propanol; phases: Liquid
Property: Viscosity, Pa*s (Liquid); method: Capillary tube (Ostwald; Ubbelohde) method
Temperature, K	Pressure, kPa	Viscosity, Pa*s	uncertainty
293.15	100	.0404228	
303.15	100	.0238696	
313.15	100	.015267	
323.15	100	.0102196	

System: water; phases: Liquid
Property: Mass density, kg/m3 (Liquid); method: Vibrating tube method
Temperature, K	Pressure, kPa	Mass density, kg/m3	uncertainty
293.15	100	998.21	
303.15	100	995.897	
313.15	100	992.287	
323.15	100	988.105	

System: water; phases: Liquid
Fixed: Frequency, MHz = 3
Property: Speed of sound, m/s (Liquid); method: Sing-around technique in a fixed-path interferometer
Temperature, K	Pressure, kPa	Speed of sound, m/s	uncertainty
293.15	100	1482.68	
303.15	100	1509.36	
313.15	100	1529.07	
323.15	100	1541.54	

System: water; phases: Liquid
Property: Viscosity, Pa*s (Liquid); method: Capillary tube (Ostwald; Ubbelohde) method
Temperature, K	Pressure, kPa	Viscosity, Pa*s	uncertainty
293.15	100	.0009933	
303.15	100	.0007974	
313.15	100	.0006535	
323.15	100	.0005465	

System: water; phases: Liquid, Air at 1 atmosphere
Property: Surface tension liquid-gas, N/m (Liquid); method: Ring tensiometer
Temperature, K	Surface tension liquid-gas, N/m	uncertainty
293.15	.07262	
303.15	.07108	
313.15	.06922	
323.15	.06767	

System: N,N-dimethyl-1,3-propanediamine + water; phases: Liquid
Fixed: Pressure, kPa = 100
Property: Mass density, kg/m3 (Liquid); method: Vibrating tube method
Temperature, K	Mole fraction of N,N-dimethyl-1,3-propanediamine	Mass density, kg/m3	uncertainty
293.15	0	998.21	
293.15	.02	990.857	
293.15	.0402	985.645	
293.15	.06	979.538	
293.15	.0802	975.159	
293.15	.1	970.025	
293.15	.1195	964.475	
293.15	.14	958.174	
293.15	.1603	951.769	
293.15	.1998	939.214	
293.15	.2998	913.011	
293.15	.4004	891.156	
293.15	.5003	869.895	
293.15	.5989	855.405	
293.15	.6992	842.611	
293.15	.8005	831.115	
293.15	.8999	822.64	
293.15	1	817.18	
303.15	0	995.897	
303.15	.02	985.689	
303.15	.0402	979.029	
303.15	.06	973.631	
303.15	.0802	968.159	
303.15	.1	962.381	
303.15	.1195	956.449	
303.15	.14	949.94	
303.15	.1603	943.437	
303.15	.1998	930.694	
303.15	.2998	902.27	
303.15	.4004	882.276	
303.15	.5003	861.305	
303.15	.5989	846.326	
303.15	.6992	833.912	
303.15	.8005	821.995	
303.15	.8999	813.89	
303.15	1	808.382	
313.15	0	992.287	
313.15	.02	981.536	
313.15	.0402	973.801	
313.15	.06	967.317	
313.15	.0802	960.972	
313.15	.1	954.586	
313.15	.1195	948.304	
313.15	.14	941.578	
313.15	.1603	934.947	
313.15	.1998	921.694	
313.15	.2998	894.35	
313.15	.4004	873.276	
313.15	.5003	852.564	
313.15	.5989	837.326	
313.15	.6992	825.096	
313.15	.8005	812.995	
313.15	.8999	805.127	
313.15	1	799.461	
323.15	0	988.105	
323.15	.02	976.65	
323.15	.0402	968.014	
323.15	.06	960.625	
323.15	.0802	953.528	
323.15	.1	944.64	
323.15	.1195	940.01	
323.15	.14	933.066	
323.15	.1603	926.295	
323.15	.1998	913.335	
323.15	.2998	884.953	
323.15	.4004	864.635	
323.15	.5003	843.691	
323.15	.5989	828.487	
323.15	.6992	816.182	
323.15	.8005	804.035	
323.15	.8999	796.21	
323.15	1	790.494	

System: N,N-dimethyl-1,3-propanediamine + water; phases: Liquid
Fixed: Pressure, kPa = 100
Fixed: Frequency, MHz = 3
Property: Speed of sound, m/s (Liquid); method: Sing-around technique in a fixed-path interferometer
Temperature, K	Mole fraction of N,N-dimethyl-1,3-propanediamine	Speed of sound, m/s	uncertainty
293.15	0	1482.68	
293.15	.02	1588.7	
293.15	.0402	1672.38	
293.15	.06	1724.15	
293.15	.0802	1745.68	
293.15	.1	1747.72	
293.15	.1195	1738.64	
293.15	.14	1724.38	
293.15	.1603	1708.86	
293.15	.1998	1666.73	
293.15	.2998	1595.53	
293.15	.4004	1535.45	
293.15	.5003	1478.24	
293.15	.5989	1441.72	
293.15	.6992	1413.97	
293.15	.8005	1388.83	
293.15	.8999	1371.87	
293.15	1	1358.17	
303.15	0	1509.36	
303.15	.02	1598.08	
303.15	.0402	1665.19	
303.15	.06	1704.38	
303.15	.0802	1718.86	
303.15	.1	1718.04	
303.15	.1195	1708.23	
303.15	.14	1693.41	
303.15	.1603	1676.82	
303.15	.1998	1632.75	
303.15	.2998	1557.22	
303.15	.4004	1498.17	
303.15	.5003	1441.15	
303.15	.5989	1401.83	
303.15	.6992	1375.1	
303.15	.8005	1350.87	
303.15	.8999	1330.69	
303.15	1	1314.63	
313.15	0	1529.07	
313.15	.02	1603.8	
313.15	.0402	1655.54	
313.15	.06	1683.85	
313.15	.0802	1692.33	
313.15	.1	1688.48	
313.15	.1195	1677.35	
313.15	.14	1661.71	
313.15	.1603	1643.98	
313.15	.1998	1599.65	
313.15	.2998	1518.91	
313.15	.4004	1461.09	
313.15	.5003	1402.84	
313.15	.5989	1361.95	
313.15	.6992	1335.21	
313.15	.8005	1309.1	
313.15	.8999	1289.51	
313.15	1	1271.09	
323.15	0	1541.54	
323.15	.02	1603.03	
323.15	.0402	1642.97	
323.15	.06	1662.61	
323.15	.0802	1665.31	
323.15	.1	1658.64	
323.15	.1195	1645.47	
323.15	.14	1628.79	
323.15	.1603	1609.97	
323.15	.1998	1566.6	
323.15	.2998	1480.94	
323.15	.4004	1424.32	
323.15	.5003	1364.87	
323.15	.5989	1322.81	
323.15	.6992	1295.65	
323.15	.8005	1269.74	
323.15	.8999	1248.8	
323.15	1	1229.54	

System: N,N-dimethyl-1,3-propanediamine + water; phases: Liquid
Fixed: Pressure, kPa = 100
Property: Viscosity, Pa*s (Liquid); method: Capillary tube (Ostwald; Ubbelohde) method
Temperature, K	Mole fraction of N,N-dimethyl-1,3-propanediamine	Viscosity, Pa*s	uncertainty
293.15	0	.0009933	
293.15	.1	.0081055	
293.15	.1998	.0136167	
293.15	.2998	.0114866	
293.15	.4004	.0074367	
293.15	.5003	.0046609	
293.15	.5989	.0031676	
293.15	.6992	.0022245	
293.15	.8005	.0016905	
293.15	.8999	.0013269	
293.15	1	.0010786	
303.15	0	.0007974	
303.15	.1	.0050843	
303.15	.1998	.0080935	
303.15	.2998	.0070485	
303.15	.4004	.0048402	
303.15	.5003	.0032221	
303.15	.5989	.0022495	
303.15	.6992	.0016995	
303.15	.8005	.0012938	
303.15	.8999	.0010703	
303.15	1	.0008997	
313.15	0	.0006535	
313.15	.1	.0034212	
313.15	.1998	.0053292	
313.15	.2998	.0045862	
313.15	.4004	.0032957	
313.15	.5003	.0023386	
313.15	.5989	.001781	
313.15	.6992	.0013334	
313.15	.8005	.0010463	
313.15	.8999	.0008872	
313.15	1	.0007611	
323.15	0	.0005465	
323.15	.1	.0023616	
323.15	.1998	.0036049	
323.15	.2998	.0031416	
323.15	.4004	.0023587	
323.15	.5003	.0017591	
323.15	.5989	.0013629	
323.15	.6992	.0010757	
323.15	.8005	.0008667	
323.15	.8999	.00075	
323.15	1	.0006553	

System: N,N-dimethyl-1,3-propanediamine + water; phases: Liquid, Air at 1 atmosphere
Property: Surface tension liquid-gas, N/m (Liquid); method: Ring tensiometer
Temperature, K	Mole fraction of N,N-dimethyl-1,3-propanediamine	Surface tension liquid-gas, N/m	uncertainty
293.15	0	.07262	
293.15	.1	.04252	
293.15	.1998	.03608	
293.15	.2998	.0324	
293.15	.4004	.03109	
293.15	.5003	.02931	
293.15	.5989	.02888	
293.15	.6992	.02815	
293.15	.8005	.02766	
293.15	.8999	.02746	
293.15	1	.02734	
303.15	0	.07108	
303.15	.1	.04078	
303.15	.1998	.03488	
303.15	.2998	.03165	
303.15	.4004	.03025	
303.15	.5003	.02904	
303.15	.5989	.02827	
303.15	.6992	.02741	
303.15	.8005	.02719	
303.15	.8999	.02713	
303.15	1	.02669	
313.15	0	.06922	
313.15	.1	.03922	
313.15	.1998	.0336	
313.15	.2998	.03049	
313.15	.4004	.02922	
313.15	.5003	.02821	
313.15	.5989	.02739	
313.15	.6992	.02642	
313.15	.8005	.0264	
313.15	.8999	.02633	
313.15	1	.02602	
323.15	0	.06767	
323.15	.1	.03752	
323.15	.1998	.03237	
323.15	.2998	.02962	
323.15	.4004	.02836	
323.15	.5003	.02775	
323.15	.5989	.02674	
323.15	.6992	.02618	
323.15	.8005	.0259	
323.15	.8999	.02559	
323.15	1	.02536	

System: 3-amino-1-propanol + 3-dimethylamino-1-propanol + water; phases: Liquid
Fixed: Pressure, kPa = 100
Property: Mass density, kg/m3 (Liquid); method: Vibrating tube method
Temperature, K	Mole fraction of 3-amino-1-propanol	Mole fraction of 3-dimethylamino-1-propanol	Mass density, kg/m3	uncertainty
293.15	0	0	998.21	
293.15	.0125	.0125	995.524	
293.15	.025	.025	995.322	
293.15	.0374	.0374	995.119	
293.15	.05	.05	995.055	
293.15	.0625	.0625	994.363	
293.15	.0752	.0752	993.145	
293.15	.0874	.0874	991.022	
293.15	.0999	.0999	988.908	
293.15	.1116	.1116	987.396	
293.15	.125	.125	984.774	
293.15	.1381	.1381	981.999	
293.15	.1499	.1499	979.54	
293.15	.2004	.2004	969.549	
293.15	.2512	.2512	959.544	
293.15	.3002	.3002	951.83	
293.15	.3511	.3511	944.113	
293.15	.3996	.3996	938.393	
293.15	.4504	.4504	932.668	
293.15	.5	.5	927.491	
303.15	0	0	995.897	
303.15	.0125	.0125	992.366	
303.15	.025	.025	991.24	
303.15	.0374	.0374	990.114	
303.15	.05	.05	989.209	
303.15	.0625	.0625	987.869	
303.15	.0752	.0752	986.101	
303.15	.0874	.0874	983.737	
303.15	.0999	.0999	981.43	
303.15	.1116	.1116	979.701	
303.15	.125	.125	977.033	
303.15	.1381	.1381	973.992	
303.15	.1499	.1499	971.63	
303.15	.2004	.2004	961.614	
303.15	.2512	.2512	951.593	
303.15	.3002	.3002	943.915	
303.15	.3511	.3511	936.238	
303.15	.3996	.3996	930.482	
303.15	.4504	.4504	924.729	
303.15	.5	.5	919.507	
313.15	0	0	992.287	
313.15	.0125	.0125	988.406	
313.15	.025	.025	986.494	
313.15	.0374	.0374	984.581	
313.15	.05	.05	982.906	
313.15	.0625	.0625	981.072	
313.15	.0752	.0752	978.871	
313.15	.0874	.0874	976.257	
313.15	.0999	.0999	973.899	
313.15	.1116	.1116	971.864	
313.15	.125	.125	969.13	
313.15	.1381	.1381	965.901	
313.15	.1499	.1499	963.638	
313.15	.2004	.2004	953.606	
313.15	.2512	.2512	943.594	
313.15	.3002	.3002	935.932	
313.15	.3511	.3511	928.271	
313.15	.3996	.3996	922.51	
313.15	.4504	.4504	916.753	
313.15	.5	.5	911.489	
323.15	0	0	988.105	
323.15	.0125	.0125	983.752	
323.15	.025	.025	981.143	
323.15	.0374	.0374	978.533	
323.15	.05	.05	976.294	
323.15	.0625	.0625	973.972	
323.15	.0752	.0752	971.516	
323.15	.0874	.0874	968.568	
323.15	.0999	.0999	965.91	
323.15	.1116	.1116	963.503	
323.15	.125	.125	961.053	
323.15	.1381	.1381	957.789	
323.15	.1499	.1499	955.53	
323.15	.2004	.2004	945.552	
323.15	.2512	.2512	935.494	
323.15	.3002	.3002	927.85	
323.15	.3511	.3511	920.182	
323.15	.3996	.3996	914.44	
323.15	.4504	.4504	908.68	
323.15	.5	.5	903.478	

System: 3-amino-1-propanol + 3-dimethylamino-1-propanol + water; phases: Liquid
Fixed: Pressure, kPa = 100
Fixed: Frequency, MHz = 3
Property: Speed of sound, m/s (Liquid); method: Sing-around technique in a fixed-path interferometer
Temperature, K	Mole fraction of 3-amino-1-propanol	Mole fraction of 3-dimethylamino-1-propanol	Speed of sound, m/s	uncertainty
293.15	0	0	1482.68	
293.15	.0125	.0125	1571.33	
293.15	.025	.025	1644.36	
293.15	.0374	.0374	1694.72	
293.15	.05	.05	1727.28	
293.15	.0625	.0625	1745.22	
293.15	.0752	.0752	1753.33	
293.15	.0874	.0874	1752.59	
293.15	.0999	.0999	1750.84	
293.15	.1116	.1116	1742.09	
293.15	.125	.125	1731.79	
293.15	.1381	.1381	1722.21	
293.15	.1499	.1499	1713.67	
293.15	.2004	.2004	1673.2	
293.15	.2512	.2512	1637.65	
293.15	.3002	.3002	1605.32	
293.15	.3511	.3511	1580.61	
293.15	.3996	.3996	1557.64	
293.15	.4504	.4504	1541.98	
293.15	.5	.5	1527.08	
303.15	0	0	1509.36	
303.15	.0125	.0125	1583.76	
303.15	.025	.025	1644.55	
303.15	.0374	.0374	1683.68	
303.15	.05	.05	1708.37	
303.15	.0625	.0625	1721.68	
303.15	.0752	.0752	1727.32	
303.15	.0874	.0874	1724.6	
303.15	.0999	.0999	1721.94	
303.15	.1116	.1116	1712.41	
303.15	.125	.125	1701.37	
303.15	.1381	.1381	1690.3	
303.15	.1499	.1499	1681.68	
303.15	.2004	.2004	1642.37	
303.15	.2512	.2512	1603.66	
303.15	.3002	.3002	1574.5	
303.15	.3511	.3511	1546.29	
303.15	.3996	.3996	1525.33	
303.15	.4504	.4504	1506.37	
303.15	.5	.5	1490.92	
313.15	0	0	1529.07	
313.15	.0125	.0125	1591.46	
313.15	.025	.025	1641.38	
313.15	.0374	.0374	1670.57	
313.15	.05	.05	1688.46	
313.15	.0625	.0625	1697.59	
313.15	.0752	.0752	1700.4	
313.15	.0874	.0874	1695.96	
313.15	.0999	.0999	1692.34	
313.15	.1116	.1116	1681.97	
313.15	.125	.125	1670.12	
313.15	.1381	.1381	1659.61	
313.15	.1499	.1499	1649.1	
313.15	.2004	.2004	1608.34	
313.15	.2512	.2512	1569.57	
313.15	.3002	.3002	1541.01	
313.15	.3511	.3511	1511.3	
313.15	.3996	.3996	1489.99	
313.15	.4504	.4504	1470.68	
313.15	.5	.5	1455.14	
323.15	0	0	1541.54	
323.15	.0125	.0125	1594.61	
323.15	.025	.025	1634.89	
323.15	.0374	.0374	1655.38	
323.15	.05	.05	1667.4	
323.15	.0625	.0625	1672.63	
323.15	.0752	.0752	1672.35	
323.15	.0874	.0874	1666.53	
323.15	.0999	.0999	1661.59	
323.15	.1116	.1116	1650.02	
323.15	.125	.125	1637.89	
323.15	.1381	.1381	1626.1	
323.15	.1499	.1499	1615.19	
323.15	.2004	.2004	1575.79	
323.15	.2512	.2512	1535.19	
323.15	.3002	.3002	1505.7	
323.15	.3511	.3511	1476.16	
323.15	.3996	.3996	1454.65	
323.15	.4504	.4504	1435.14	
323.15	.5	.5	1419.09	

System: 3-amino-1-propanol + 3-dimethylamino-1-propanol + water; phases: Liquid
Fixed: Pressure, kPa = 100
Property: Viscosity, Pa*s (Liquid); method: Capillary tube (Ostwald; Ubbelohde) method
Temperature, K	Mole fraction of 3-amino-1-propanol	Mole fraction of 3-dimethylamino-1-propanol	Viscosity, Pa*s	uncertainty
293.15	0	0	.0009933	
293.15	.05	.05	.0055851	
293.15	.0999	.0999	.015093	
293.15	.1499	.1499	.0251281	
293.15	.2004	.2004	.0308229	
293.15	.2512	.2512	.0329272	
293.15	.3002	.3002	.0314342	
293.15	.3511	.3511	.0277981	
293.15	.3996	.3996	.0243447	
293.15	.4504	.4504	.021359	
293.15	.5	.5	.0184856	
303.15	0	0	.0007974	
303.15	.05	.05	.0037594	
303.15	.0999	.0999	.0090503	
303.15	.1499	.1499	.0147134	
303.15	.2004	.2004	.0180149	
303.15	.2512	.2512	.0191689	
303.15	.3002	.3002	.0186499	
303.15	.3511	.3511	.01674	
303.15	.3996	.3996	.01491	
303.15	.4504	.4504	.0131931	
303.15	.5	.5	.0117263	
313.15	0	0	.0006535	
313.15	.05	.05	.0025501	
313.15	.0999	.0999	.0056072	
313.15	.1499	.1499	.0090755	
313.15	.2004	.2004	.011325	
313.15	.2512	.2512	.0117683	
313.15	.3002	.3002	.0112331	
313.15	.3511	.3511	.0105059	
313.15	.3996	.3996	.0096744	
313.15	.4504	.4504	.0086284	
313.15	.5	.5	.0078188	
323.15	0	0	.0005465	
323.15	.05	.05	.0019577	
323.15	.0999	.0999	.0030185	
323.15	.1499	.1499	.0045435	
323.15	.2004	.2004	.0060998	
323.15	.2512	.2512	.0076382	
323.15	.3002	.3002	.0075314	
323.15	.3511	.3511	.0069782	
323.15	.3996	.3996	.0064901	
323.15	.4504	.4504	.0059076	
323.15	.5	.5	.0053894	

System: 3-amino-1-propanol + 3-dimethylamino-1-propanol + water; phases: Liquid, Air at 1 atmosphere
Property: Surface tension liquid-gas, N/m (Liquid); method: Ring tensiometer
Temperature, K	Mole fraction of 3-amino-1-propanol	Mole fraction of 3-dimethylamino-1-propanol	Surface tension liquid-gas, N/m	uncertainty
293.15	0	0	.07262	
293.15	.05	.05	.04346	
293.15	.0999	.0999	.03992	
293.15	.1499	.1499	.03824	
293.15	.2004	.2004	.03678	
293.15	.2512	.2512	.03555	
293.15	.3002	.3002	.03457	
293.15	.3511	.3511	.03392	
293.15	.3996	.3996	.03354	
293.15	.4504	.4504	.03317	
293.15	.5	.5	.03315	
303.15	0	0	.07108	
303.15	.05	.05	.04266	
303.15	.0999	.0999	.03884	
303.15	.1499	.1499	.0371	
303.15	.2004	.2004	.03587	
303.15	.2512	.2512	.03473	
303.15	.3002	.3002	.03388	
303.15	.3511	.3511	.03321	
303.15	.3996	.3996	.03289	
303.15	.4504	.4504	.0326	
303.15	.5	.5	.03242	
313.15	0	0	.06922	
313.15	.05	.05	.04158	
313.15	.0999	.0999	.03783	
313.15	.1499	.1499	.03611	
313.15	.2004	.2004	.03497	
313.15	.2512	.2512	.03382	
313.15	.3002	.3002	.03287	
313.15	.3511	.3511	.03222	
313.15	.3996	.3996	.03214	
313.15	.4504	.4504	.03175	
313.15	.5	.5	.03161	
323.15	0	0	.06767	
323.15	.05	.05	.04054	
323.15	.0999	.0999	.03678	
323.15	.1499	.1499	.03511	
323.15	.2004	.2004	.03404	
323.15	.2512	.2512	.03279	
323.15	.3002	.3002	.03212	
323.15	.3511	.3511	.03137	
323.15	.3996	.3996	.03131	
323.15	.4504	.4504	.03103	
323.15	.5	.5	.03077	

System: 3-amino-1-propanol + 3-dimethylamino-1-propanol; phases: Liquid
Fixed: Pressure, kPa = 100
Property: Mass density, kg/m3 (Liquid); method: Vibrating tube method
Temperature, K	Mole fraction of 3-amino-1-propanol	Mass density, kg/m3	uncertainty
293.15	0	884.722	
293.15	.1	892.187	
293.15	.1998	900.106	
293.15	.2997	908.514	
293.15	.4008	917.767	
293.15	.5024	927.478	
293.15	.6004	937.952	
293.15	.7021	949.074	
293.15	.7992	961.168	
293.15	.9007	974.136	
293.15	1	987.618	
303.15	0	876.762	
303.15	.1	884.204	
303.15	.1998	892.096	
303.15	.2997	900.589	
303.15	.4008	909.767	
303.15	.5024	919.518	
303.15	.6004	929.952	
303.15	.7021	941.043	
303.15	.7992	953.124	
303.15	.9007	966.117	
303.15	1	979.596	
313.15	0	868.727	
313.15	.1	876.168	
313.15	.1998	884.096	
313.15	.2997	892.574	
313.15	.4008	901.767	
313.15	.5024	911.468	
313.15	.6004	921.952	
313.15	.7021	933.103	
313.15	.7992	945.178	
313.15	.9007	958.052	
313.15	1	971.533	
323.15	0	860.616	
323.15	.1	868.207	
323.15	.1998	876.096	
323.15	.2997	884.638	
323.15	.4008	893.767	
323.15	.5024	903.541	
323.15	.6004	913.952	
323.15	.7021	925.137	
323.15	.7992	937.209	
323.15	.9007	949.941	
323.15	1	963.427	

System: 3-amino-1-propanol + 3-dimethylamino-1-propanol; phases: Liquid
Fixed: Pressure, kPa = 100
Fixed: Frequency, MHz = 3
Property: Speed of sound, m/s (Liquid); method: Sing-around technique in a fixed-path interferometer
Temperature, K	Mole fraction of 3-amino-1-propanol	Speed of sound, m/s	uncertainty
293.15	0	1393.58	
293.15	.1	1417.54	
293.15	.1998	1438.49	
293.15	.2997	1466.03	
293.15	.4008	1494.6	
293.15	.5024	1527.08	
293.15	.6004	1563.11	
293.15	.7021	1601.56	
293.15	.7992	1644.21	
293.15	.9007	1689.04	
293.15	1	1728.72	
303.15	0	1356.53	
303.15	.1	1380.99	
303.15	.1998	1401.95	
303.15	.2997	1429.74	
303.15	.4008	1458.44	
303.15	.5024	1490.92	
303.15	.6004	1527.25	
303.15	.7021	1565.7	
303.15	.7992	1608.57	
303.15	.9007	1654.27	
303.15	1	1697.18	
313.15	0	1319.46	
313.15	.1	1344.03	
313.15	.1998	1365.49	
313.15	.2997	1393.53	
313.15	.4008	1422.36	
313.15	.5024	1455.14	
313.15	.6004	1491.39	
313.15	.7021	1529.46	
313.15	.7992	1572.77	
313.15	.9007	1618.09	
313.15	1	1667.47	
323.15	0	1283.06	
323.15	.1	1307.81	
323.15	.1998	1329.59	
323.15	.2997	1357.49	
323.15	.4008	1386.53	
323.15	.5024	1419.09	
323.15	.6004	1455.61	
323.15	.7021	1493.23	
323.15	.7992	1536.99	
323.15	.9007	1581.95	
323.15	1	1631.54	
293.15	.5	1527.08	
303.15	.5	1490.92	
313.15	.5	1455.14	
323.15	.5	1419.09	

System: 3-amino-1-propanol + 3-dimethylamino-1-propanol; phases: Liquid
Fixed: Pressure, kPa = 100
Property: Viscosity, Pa*s (Liquid); method: Capillary tube (Ostwald; Ubbelohde) method
Temperature, K	Mole fraction of 3-amino-1-propanol	Viscosity, Pa*s	uncertainty
293.15	0	.0074202	
293.15	.1	.0088827	
293.15	.1998	.0106084	
293.15	.2997	.01271	
293.15	.4008	.0150971	
293.15	.5024	.0184856	
293.15	.6004	.0214086	
293.15	.7021	.0246723	
293.15	.7992	.029629	
293.15	.9007	.0346588	
293.15	1	.0404228	
303.15	0	.0052281	
303.15	.1	.0060621	
303.15	.1998	.0070397	
303.15	.2997	.0083218	
303.15	.4008	.0098236	
303.15	.5024	.0117263	
303.15	.6004	.0134778	
303.15	.7021	.0153634	
303.15	.7992	.0180948	
303.15	.9007	.0206363	
303.15	1	.0238696	
313.15	0	.0040066	
313.15	.1	.0043495	
313.15	.1998	.0050989	
313.15	.2997	.0058378	
313.15	.4008	.0066284	
313.15	.5024	.0078188	
313.15	.6004	.0087822	
313.15	.7021	.0099076	
313.15	.7992	.0116238	
313.15	.9007	.0132154	
313.15	1	.015267	
323.15	0	.0030819	
323.15	.1	.0032297	
323.15	.1998	.0037198	
323.15	.2997	.004206	
323.15	.4008	.0046676	
323.15	.5024	.0053894	
323.15	.6004	.0060343	
323.15	.7021	.0067786	
323.15	.7992	.0078621	
323.15	.9007	.0088895	
323.15	1	.0102196	
293.15	.5	.0184856	
303.15	.5	.0117263	
313.15	.5	.0078188	
323.15	.5	.0053894	

System: 3-amino-1-propanol + 3-dimethylamino-1-propanol; phases: Liquid, Air at 1 atmosphere
Property: Surface tension liquid-gas, N/m (Liquid); method: Ring tensiometer
Temperature, K	Mole fraction of 3-amino-1-propanol	Surface tension liquid-gas, N/m	uncertainty
293.15	0	.03003	
293.15	.1	.0299	
293.15	.1998	.03037	
293.15	.2997	.03139	
293.15	.4008	.03222	
293.15	.5024	.03307	
293.15	.6004	.03433	
293.15	.7021	.03581	
293.15	.7992	.03817	
293.15	.9007	.04104	
293.15	1	.04492	
303.15	0	.02928	
303.15	.1	.02922	
303.15	.1998	.02956	
303.15	.2997	.03067	
303.15	.4008	.0314	
303.15	.5024	.03237	
303.15	.6004	.03352	
303.15	.7021	.03514	
303.15	.7992	.03708	
303.15	.9007	.03957	
303.15	1	.04271	
313.15	0	.02848	
313.15	.1	.02841	
313.15	.1998	.02864	
313.15	.2997	.0297	
313.15	.4008	.03047	
313.15	.5024	.03149	
313.15	.6004	.03262	
313.15	.7021	.03418	
313.15	.7992	.03574	
313.15	.9007	.03767	
313.15	1	.04052	
323.15	0	.0276	
323.15	.1	.02771	
323.15	.1998	.02808	
323.15	.2997	.02887	
323.15	.4008	.02966	
323.15	.5024	.03078	
323.15	.6004	.03181	
323.15	.7021	.03327	
323.15	.7992	.03482	
323.15	.9007	.03624	
323.15	1	.03817	
293.15	.5	.03315	
303.15	.5	.03242	
313.15	.5	.03161	
323.15	.5	.03077	

System: 3-amino-1-propanol + 3-dimethylamino-1-propanol; phases: Liquid
Property: Mass density, kg/m3 (Liquid); method: Vibrating tube method
Temperature, K	Mole fraction of 3-amino-1-propanol	Pressure, kPa	Mass density, kg/m3	uncertainty
293.15	.5	100	927.491	
303.15	.5	100	919.507	
313.15	.5	100	911.489	
323.15	.5	100	903.478	
