Measured thermophysical data. Densities of Diethylene Glycol, Monobutyl Ether, Diethylene Glycol Dibutyl Ether, and Ethylene Glycol Monobutyl Ether from (283.15 to 363.15) K at Pressures up to 60 MPa
Source: J. Chem. Eng. Data, 2016, 10.1021/acs.jced.6b00192
Compound 1: diethylene glycol monobutyl ether, C8H18O3, purity 99.5%
Compound 2: diethylene glycol dibutyl ether, C12H26O3, purity 99%
Compound 3: ethylene glycol monobutyl ether, C6H14O2, purity 99%

System: diethylene glycol monobutyl ether; phases: Liquid
Property: Mass density, kg/m3 (Liquid); method: Vibrating tube method
Temperature, K	Pressure, kPa	Mass density, kg/m3	uncertainty
283.15	100	960.4	
283.15	1000	961.3	
283.15	3000	962.6	
283.15	5000	963.4	
283.15	10000	966.5	
283.15	15000	969.4	
283.15	20000	971.9	
283.15	25000	974.5	
283.15	30000	977.1	
283.15	35000	979.1	
283.15	40000	981.4	
283.15	50000	986.9	
283.15	60000	990.4	
293.15	100	952.4	
293.15	1000	952.9	
293.15	3000	954.3	
293.15	5000	955.2	
293.15	10000	958.4	
293.15	15000	961.2	
293.15	20000	964	
293.15	25000	966.9	
293.15	30000	969.6	
293.15	35000	972	
293.15	40000	974.4	
293.15	50000	979.7	
293.15	60000	983.9	
303.15	100	943.8	
303.15	1000	944.2	
303.15	3000	946	
303.15	5000	947	
303.15	10000	950.3	
303.15	15000	953	
303.15	20000	956	
303.15	25000	959.1	
303.15	30000	962	
303.15	35000	964.7	
303.15	40000	967.1	
303.15	50000	972.2	
303.15	60000	977.1	
313.15	100	935.5	
313.15	1000	935.9	
313.15	3000	937.2	
313.15	5000	938.8	
313.15	10000	942	
313.15	15000	945.2	
313.15	20000	948.4	
313.15	25000	951.2	
313.15	30000	953.8	
313.15	35000	956.9	
313.15	40000	959.7	
313.15	50000	965	
313.15	60000	969.7	
323.15	100	927	
323.15	1000	927.3	
323.15	3000	928.8	
323.15	5000	930.3	
323.15	10000	933.8	
323.15	15000	937.2	
323.15	20000	940.4	
323.15	25000	943.5	
323.15	30000	946.4	
323.15	35000	949.5	
323.15	40000	952.5	
323.15	50000	958.2	
323.15	60000	963.4	
333.15	100	917.8	
333.15	1000	918.7	
333.15	3000	920.7	
333.15	5000	922.2	
333.15	10000	925.7	
333.15	15000	929.2	
333.15	20000	932.5	
333.15	25000	935.5	
333.15	30000	939	
333.15	35000	942	
333.15	40000	945.2	
333.15	50000	950.6	
333.15	60000	956	
343.15	100	909.1	
343.15	1000	910.5	
343.15	3000	912.35	
343.15	5000	913.6	
343.15	10000	917.6	
343.15	15000	921.3	
343.15	20000	924.7	
343.15	25000	928.1	
343.15	30000	931.3	
343.15	35000	934.4	
343.15	40000	937.3	
343.15	50000	943.2	
343.15	60000	948.8	
353.15	100	901.1	
353.15	1000	902.1	
353.15	3000	903.9	
353.15	5000	905.3	
353.15	10000	909.3	
353.15	15000	913.1	
353.15	20000	916.8	
353.15	25000	920.3	
353.15	30000	923.7	
353.15	35000	927.1	
353.15	40000	930.3	
353.15	50000	936.3	
353.15	60000	942.2	
363.15	100	892.6	
363.15	1000	893.2	
363.15	3000	894.9	
363.15	5000	896.7	
363.15	10000	900.4	
363.15	15000	904.8	
363.15	20000	908.5	
363.15	25000	912.1	
363.15	30000	915.7	
363.15	35000	919.2	
363.15	40000	922.7	
363.15	50000	929.1	
363.15	60000	935.2	

System: diethylene glycol dibutyl ether; phases: Liquid
Property: Mass density, kg/m3 (Liquid); method: Vibrating tube method
Temperature, K	Pressure, kPa	Mass density, kg/m3	uncertainty
283.15	100	891.3	
283.15	1000	891.8	
283.15	3000	893.2	
283.15	5000	894.3	
283.15	10000	897.7	
283.15	15000	900.9	
283.15	20000	904.3	
283.15	25000	906.9	
283.15	30000	909.9	
283.15	35000	912.8	
283.15	40000	915.3	
283.15	50000	920.5	
283.15	60000	925.4	
293.15	100	882.9	
293.15	1000	883.1	
293.15	3000	884.8	
293.15	5000	885.9	
293.15	10000	889.6	
293.15	15000	892.9	
293.15	20000	896.1	
293.15	25000	899.3	
293.15	30000	902.3	
293.15	35000	905.1	
293.15	40000	907.9	
293.15	50000	913.6	
293.15	60000	918.2	
303.15	100	874.5	
303.15	1000	875.1	
303.15	3000	876.6	
303.15	5000	878.2	
303.15	10000	881.8	
303.15	15000	885.2	
303.15	20000	888.42	
303.15	25000	891.8	
303.15	30000	894.9	
303.15	35000	897.9	
303.15	40000	900.8	
303.15	50000	906.4	
303.15	60000	911.8	
313.15	100	866.1	
313.15	1000	866.41	
313.15	3000	868.1	
313.15	5000	869.8	
313.15	10000	873.5	
313.15	15000	877.2	
313.15	20000	880.7	
313.15	25000	884.1	
313.15	30000	887.1	
313.15	35000	890.5	
313.15	40000	893.3	
313.15	50000	899.4	
313.15	60000	904.9	
323.15	100	857.2	
323.15	1000	858.2	
323.15	3000	859.8	
323.15	5000	861.5	
323.15	10000	865.4	
323.15	15000	869.2	
323.15	20000	873.1	
323.15	25000	876.5	
323.15	30000	879.8	
323.15	35000	883.1	
323.15	40000	886.3	
323.15	50000	892.4	
323.15	60000	898.8	
333.15	100	849.1	
333.15	1000	850	
333.15	3000	851.6	
333.15	5000	853.3	
333.15	10000	857.5	
333.15	15000	861.4	
333.15	20000	865.4	
333.15	25000	869	
333.15	30000	872.6	
333.15	35000	875.9	
333.15	40000	879.5	
333.15	50000	885.5	
333.15	60000	891.6	
343.15	100	840.4	
343.15	1000	841.7	
343.15	3000	843.5	
343.15	5000	845.5	
343.15	10000	849.8	
343.15	15000	853.7	
343.15	20000	857.9	
343.15	25000	861.6	
343.15	30000	865.3	
343.15	35000	868.9	
343.15	40000	872.3	
343.15	50000	878.9	
343.15	60000	884.7	
353.15	100	832.4	
353.15	1000	833	
353.15	3000	835.1	
353.15	5000	836.7	
353.15	10000	841.4	
353.15	15000	846	
353.15	20000	850.3	
353.15	25000	854	
353.15	30000	857.9	
353.15	35000	861.6	
353.15	40000	865.1	
353.15	50000	871.5	
353.15	60000	878.2	
363.15	100	823.4	
363.15	1000	824.8	
363.15	3000	827.1	
363.15	5000	828.7	
363.15	10000	833.5	
363.15	15000	838.4	
363.15	20000	842.8	
363.15	25000	846.8	
363.15	30000	850.9	
363.15	35000	854.9	
363.15	40000	858.5	
363.15	50000	865.6	
363.15	60000	872	

System: ethylene glycol monobutyl ether; phases: Liquid
Property: Mass density, kg/m3 (Liquid); method: Vibrating tube method
Temperature, K	Pressure, kPa	Mass density, kg/m3	uncertainty
283.15	100	907.9	
283.15	1000	908.3	
283.15	3000	909.9	
283.15	5000	911	
283.15	10000	914.2	
283.15	15000	917.1	
283.15	20000	920	
283.15	25000	922.8	
283.15	30000	925.6	
283.15	35000	928.4	
283.15	40000	930.9	
283.15	50000	935.7	
283.15	60000	940.5	
293.15	100	900.5	
293.15	1000	900.6	
293.15	3000	902.2	
293.15	5000	903.2	
293.15	10000	906.8	
293.15	15000	910	
293.15	20000	912.9	
293.15	25000	915.9	
293.15	30000	918.8	
293.15	35000	921.4	
293.15	40000	924	
293.15	50000	929.5	
293.15	60000	933.9	
303.15	100	891.8	
303.15	1000	892.1	
303.15	3000	893.9	
303.15	5000	895.4	
303.15	10000	898.9	
303.15	15000	902	
303.15	20000	905.5	
303.15	25000	908.7	
303.15	30000	911.8	
303.15	35000	914.5	
303.15	40000	916.7	
303.15	50000	921.8	
303.15	60000	927.1	
313.15	100	883.5	
313.15	1000	884	
313.15	3000	885.6	
313.15	5000	887.1	
313.15	10000	890.7	
313.15	15000	894.1	
313.15	20000	897.3	
313.15	25000	900.7	
313.15	30000	903.6	
313.15	35000	906.7	
313.15	40000	909.4	
313.15	50000	915.1	
313.15	60000	920.1	
323.15	100	874	
323.15	1000	875	
323.15	3000	876.5	
323.15	5000	878.1	
323.15	10000	881.9	
323.15	15000	885.5	
323.15	20000	889.1	
323.15	25000	892.1	
323.15	30000	895.4	
323.15	35000	898.5	
323.15	40000	901.6	
323.15	50000	907.3	
323.15	60000	912.9	
333.15	100	865.6	
333.15	1000	866.1	
333.15	3000	868	
333.15	5000	869.5	
333.15	10000	873.5	
333.15	15000	877.3	
333.15	20000	880.9	
333.15	25000	884.4	
333.15	30000	887.6	
333.15	35000	890.8	
333.15	40000	894	
333.15	50000	900.1	
333.15	60000	905.7	
343.15	100	856.5	
343.15	1000	857.4	
343.15	3000	859.3	
343.15	5000	861.1	
343.15	10000	865.1	
343.15	15000	869.1	
343.15	20000	873.2	
343.15	25000	876.5	
343.15	30000	880.1	
343.15	35000	883.5	
343.15	40000	886.7	
343.15	50000	893	
343.15	60000	898.6	
353.15	100	847.5	
353.15	1000	848.4	
353.15	3000	850.5	
353.15	5000	852.2	
353.15	10000	856.7	
353.15	15000	860.9	
353.15	20000	864.8	
353.15	25000	868.7	
353.15	30000	872.3	
353.15	35000	875.9	
353.15	40000	879.2	
353.15	50000	885.6	
353.15	60000	891.8	
363.15	100	838.2	
363.15	1000	839.4	
363.15	3000	841.4	
363.15	5000	843.4	
363.15	10000	847.9	
363.15	15000	852.6	
363.15	20000	856.4	
363.15	25000	860.4	
363.15	30000	864.4	
363.15	35000	868.1	
363.15	40000	871.8	
363.15	50000	878.4	
363.15	60000	884.8	
