Measured thermophysical data. Density and Viscosity from 293.15 to 373.15 K, Speed of Sound and Bulk Modulus from 293.15 to 343.15 K, Surface Tension, and Flash Point of Binary Mixtures of Bicyclohexyl and 1,2,3,4-Tetrahydronaphthalene or Trans-decahydronaphthalene at 0.1 MPa
Source: J. Chem. Eng. Data, 2016, 10.1021/acs.jced.5b00790
Compound 1: 1,1'-bicyclohexyl, C12H22, purity 99.7%
Compound 2: tetralin, C10H12, purity 98.9%
Compound 3: trans-bicyclo[4.4.0]decane, C10H18, purity 99.5%
Compound 4: toluene, C7H8, purity 99.9%

System: 1,1'-bicyclohexyl; phases: Liquid
Fixed: Pressure, kPa = 101.325
Property: Mass density, kg/m3 (Liquid); method: Vibrating tube method
Temperature, K	Mass density, kg/m3	uncertainty
293.15	886.13	.2
303.15	878.93	.2
313.15	871.74	.2
323.15	864.58	.2
333.15	857.43	.2
343.15	850.29	.2
353.15	843	.5
363.15	835.9	.5
373.15	828.6	.5

System: 1,1'-bicyclohexyl; phases: Liquid
Fixed: Pressure, kPa = 101.325
Property: Viscosity, Pa*s (Liquid); method: Concentric cylinders viscometry
Temperature, K	Viscosity, Pa*s	uncertainty
293.15	.00406	.00002
303.15	.00318	.00002
313.15	.00256	.00002
323.15	.0021	.00002
333.15	.00176	.00002
343.15	.0015	.00002
353.15	.00129	.00002
363.15	.00113	.00002
373.15	.001	.00002

System: 1,1'-bicyclohexyl; phases: Liquid
Fixed: Pressure, kPa = 101.325
Property: Speed of sound, m/s (Liquid); method: Sing-around technique in a fixed-path interferometer
Temperature, K	Speed of sound, m/s	uncertainty
293.15	1462.3	1
303.15	1422.7	1
313.15	1383.9	1
323.15	1345.9	1
333.15	1308.8	1
343.15	1272.4	1

System: tetralin; phases: Liquid
Fixed: Pressure, kPa = 101.325
Property: Mass density, kg/m3 (Liquid); method: Vibrating tube method
Temperature, K	Mass density, kg/m3	uncertainty
293.15	968.8	.07
303.15	960.9	.07
313.15	953	.07
323.15	945	.07
333.15	937.1	.07
343.15	929.1	.07
353.15	920.9	.2
363.15	912.9	.2
373.15	904.8	.2

System: tetralin; phases: Liquid
Fixed: Pressure, kPa = 101.325
Property: Viscosity, Pa*s (Liquid); method: Concentric cylinders viscometry
Temperature, K	Viscosity, Pa*s	uncertainty
293.15	.00225	.00002
303.15	.00185	.00002
313.15	.00155	.00002
323.15	.00132	.00002
333.15	.00114	.00002
343.15	.001	.00002
353.15	.000882	.00002
363.15	.000789	.00002
373.15	.000713	.00002

System: tetralin; phases: Liquid
Fixed: Pressure, kPa = 101.325
Property: Speed of sound, m/s (Liquid); method: Sing-around technique in a fixed-path interferometer
Temperature, K	Speed of sound, m/s	uncertainty
293.15	1489.5	1
303.15	1450.2	1
313.15	1411.5	1
323.15	1373.6	1
333.15	1336.4	1
343.15	1299.9	1

System: trans-bicyclo[4.4.0]decane; phases: Liquid
Fixed: Pressure, kPa = 101.325
Property: Mass density, kg/m3 (Liquid); method: Vibrating tube method
Temperature, K	Mass density, kg/m3	uncertainty
293.15	869.75	.07
303.15	862.29	.07
313.15	854.82	.07
323.15	847.34	.07
333.15	839.83	.07
343.15	832.3	.07
353.15	824.7	.2
363.15	817	.2
373.15	809.4	.2

System: trans-bicyclo[4.4.0]decane; phases: Liquid
Fixed: Pressure, kPa = 101.325
Property: Viscosity, Pa*s (Liquid); method: Concentric cylinders viscometry
Temperature, K	Viscosity, Pa*s	uncertainty
293.15	.00214	.00002
303.15	.00179	.00002
313.15	.00151	.00002
323.15	.0013	.00002
333.15	.00112	.00002
343.15	.000982	.00002
353.15	.000867	.00002
363.15	.000774	.00002
373.15	.000697	.00002

System: trans-bicyclo[4.4.0]decane; phases: Liquid
Fixed: Pressure, kPa = 101.325
Property: Speed of sound, m/s (Liquid); method: Sing-around technique in a fixed-path interferometer
Temperature, K	Speed of sound, m/s	uncertainty
293.15	1397.9	1
303.15	1357.5	1
313.15	1317.9	1
323.15	1279.1	1
333.15	1241.1	1
343.15	1203.8	1

System: toluene; phases: Liquid
Fixed: Pressure, kPa = 101.325
Property: Mass density, kg/m3 (Liquid); method: Vibrating tube method
Temperature, K	Mass density, kg/m3	uncertainty
293.15	866.817	
303.15	857.497	
313.15	848.114	
323.15	838.664	
333.15	829.133	
343.15	819.506	

System: toluene; phases: Liquid
Fixed: Pressure, kPa = 101.325
Property: Speed of sound, m/s (Liquid); method: Sing-around technique in a fixed-path interferometer
Temperature, K	Speed of sound, m/s	uncertainty
293.15	1326.8	1
303.15	1283.6	1
313.15	1241	1
323.15	1198.9	1
333.15	1157.5	1
343.15	1116.7	1

System: 1,1'-bicyclohexyl + tetralin; phases: Liquid
Fixed: Pressure, kPa = 102
Property: Mass density, kg/m3 (Liquid); method: Vibrating tube method
Mass fraction of tetralin	Temperature, K	Mass density, kg/m3	uncertainty
.1	293.15	893.3	.2
.2001	293.15	900.8	.2
.3001	293.15	908.4	.2
.4	293.15	916.3	.2
.5002	293.15	924.5	.2
.6	293.15	932.8	.2
.6998	293.15	941.4	.2
.8001	293.15	950.3	.2
.9001	293.15	959.4	.2
.1	303.15	886.1	.2
.2001	303.15	893.5	.2
.3001	303.15	901.1	.2
.4	303.15	908.9	.2
.5002	303.15	917	.2
.6	303.15	925.1	.2
.6998	303.15	933.7	.2
.8001	303.15	942.5	.2
.9001	303.15	951.6	.2
.1	313.15	878.9	.2
.2001	313.15	886.2	.2
.3001	313.15	893.7	.2
.4	313.15	901.4	.2
.5002	313.15	909.4	.2
.6	313.15	917.6	.2
.6998	313.15	926	.2
.8001	313.15	934.8	.2
.9001	313.15	943.7	.2
.1	323.15	871.6	.2
.2001	323.15	878.9	.2
.3001	323.15	886.4	.2
.4	323.15	894	.2
.5002	323.15	901.9	.2
.6	323.15	910	.2
.6998	323.15	918.3	.2
.8001	323.15	927	.2
.9001	323.15	935.9	.2
.1	333.15	864.4	.2
.2001	333.15	871.6	.2
.3001	333.15	879	.2
.4	333.15	886.6	.2
.5002	333.15	894.4	.2
.6	333.15	902.4	.2
.6998	333.15	910.6	.2
.8001	333.15	919.2	.2
.9001	333.15	928	.2
.1	343.15	857.2	.2
.2001	343.15	864.3	.2
.3001	343.15	871.6	.2
.4	343.15	879.1	.2
.5002	343.15	886.9	.2
.6	343.15	894.8	.2
.6998	343.15	902.9	.2
.8001	343.15	911.5	.2
.9001	343.15	920.1	.2
.1	353.15	850	.5
.2001	353.15	857.1	.5
.3001	353.15	864.3	.5
.4	353.15	871.7	.5
.5002	353.15	879.3	.5
.6	353.15	887.2	.5
.6998	353.15	895.4	.5
.8001	353.15	903.8	.5
.9001	353.15	912.1	.5
.1	363.15	842.7	.5
.2001	363.15	849.7	.5
.3001	363.15	856.8	.5
.4	363.15	864.2	.5
.5002	363.15	871.7	.5
.6	363.15	879.4	.5
.6998	363.15	887.6	.5
.8001	363.15	895.8	.5
.9001	363.15	904.1	.5
.1	373.15	835.6	.5
.2001	373.15	842.4	.5
.3001	373.15	849.5	.5
.4	373.15	856.7	.5
.5002	373.15	864.2	.5
.6	373.15	872	.5
.6998	373.15	879.9	.5
.8001	373.15	888	.5
.9001	373.15	896.3	.5

System: 1,1'-bicyclohexyl + tetralin; phases: Liquid
Fixed: Pressure, kPa = 102
Property: Speed of sound, m/s (Liquid); method: Sing-around technique in a fixed-path interferometer
Mole fraction of tetralin	Temperature, K	Speed of sound, m/s	uncertainty
.1226	293.15	1463.4	1
.2394	293.15	1464.7	1
.3504	293.15	1466.5	1
.4561	293.15	1468.4	1
.5573	293.15	1471	1
.6536	293.15	1473.7	1
.7457	293.15	1476.7	1
.8343	293.15	1480.3	1
.9189	293.15	1484.6	1
.1226	303.15	1423.8	1
.2394	303.15	1425.2	1
.3504	303.15	1427	1
.4561	303.15	1429	1
.5573	303.15	1431.4	1
.6536	303.15	1434.2	1
.7457	303.15	1437.4	1
.8343	303.15	1441.1	1
.9189	303.15	1445.3	1
.1226	313.15	1385	1
.2394	313.15	1386.4	1
.3504	313.15	1388.2	1
.4561	313.15	1390.2	1
.5573	313.15	1392.1	1
.6536	313.15	1395.2	1
.7457	313.15	1398.8	1
.8343	313.15	1402.5	1
.9189	313.15	1406.8	1
.1226	323.15	1347	1
.2394	323.15	1348.4	1
.3504	323.15	1350.2	1
.4561	323.15	1352.3	1
.5573	323.15	1354	1
.6536	323.15	1357.2	1
.7457	323.15	1360.8	1
.8343	323.15	1364.6	1
.9189	323.15	1368.9	1
.1226	333.15	1309.8	1
.2394	333.15	1311.3	1
.3504	333.15	1313.1	1
.4561	333.15	1315.1	1
.5573	333.15	1316.6	1
.6536	333.15	1319.9	1
.7457	333.15	1323.6	1
.8343	333.15	1327.4	1
.9189	333.15	1331.7	1
.1226	343.15	1273.4	1
.2394	343.15	1274.8	1
.3504	343.15	1276.6	1
.4561	343.15	1278.6	1
.5573	343.15	1280	1
.6536	343.15	1283.4	1
.7457	343.15	1287	1
.8343	343.15	1290.8	1
.9189	343.15	1295.1	1

System: 1,1'-bicyclohexyl + tetralin; phases: Liquid
Fixed: Pressure, kPa = 102
Property: Viscosity, Pa*s (Liquid); method: Concentric cylinders viscometry
Temperature, K	Mole fraction of tetralin	Viscosity, Pa*s	uncertainty
293.15	0	.00406	.00002
293.15	.1226	.00367	.00002
293.15	.2394	.00335	.00002
293.15	.3504	.00308	.00002
293.15	.4561	.00287	.00002
293.15	.5573	.0027	.00002
293.15	.6537	.00255	.00002
293.15	.747	.00244	.00002
293.15	.8343	.00234	.00002
293.15	.9189	.00228	.00002
293.15	1	.00225	.00002
303.15	0	.00318	.00002
303.15	.1226	.00291	.00002
303.15	.2394	.00267	.00002
303.15	.3504	.00248	.00002
303.15	.4561	.00233	.00002
303.15	.5573	.0022	.00002
303.15	.6537	.00209	.00002
303.15	.747	.002	.00002
303.15	.8343	.00193	.00002
303.15	.9189	.00188	.00002
303.15	1	.00185	.00002
313.15	0	.00256	.00002
313.15	.1226	.00236	.00002
313.15	.2394	.00219	.00002
313.15	.3504	.00204	.00002
313.15	.4561	.00193	.00002
313.15	.5573	.00183	.00002
313.15	.6537	.00175	.00002
313.15	.747	.00168	.00002
313.15	.8343	.00162	.00002
313.15	.9189	.00158	.00002
313.15	1	.00155	.00002
323.15	0	.0021	.00002
323.15	.1226	.00195	.00002
323.15	.2394	.00182	.00002
323.15	.3504	.00171	.00002
323.15	.4561	.00162	.00002
323.15	.5573	.00154	.00002
323.15	.6537	.00148	.00002
323.15	.747	.00143	.00002
323.15	.8343	.00138	.00002
323.15	.9189	.00135	.00002
323.15	1	.00132	.00002
333.15	0	.00176	.00002
333.15	.1226	.00164	.00002
333.15	.2394	.00154	.00002
333.15	.3504	.00145	.00002
333.15	.4561	.00138	.00002
333.15	.5573	.00132	.00002
333.15	.6537	.00127	.00002
333.15	.747	.00123	.00002
333.15	.8343	.00119	.00002
333.15	.9189	.00116	.00002
333.15	1	.00114	.00002
343.15	0	.0015	.00002
343.15	.1226	.0014	.00002
343.15	.2394	.00132	.00002
343.15	.3504	.00125	.00002
343.15	.4561	.0012	.00002
343.15	.5573	.00115	.00002
343.15	.6537	.00111	.00002
343.15	.747	.00107	.00002
343.15	.8343	.00104	.00002
343.15	.9189	.00102	.00002
343.15	1	.000998	.00002
353.15	0	.00129	.00002
353.15	.1226	.00122	.00002
353.15	.2394	.00115	.00002
353.15	.3504	.00109	.00002
353.15	.4561	.00105	.00002
353.15	.5573	.00101	.00002
353.15	.6537	.000973	.00002
353.15	.747	.000944	.00002
353.15	.8343	.00092	.00002
353.15	.9189	.000901	.00002
353.15	1	.000882	.00002
363.15	0	.00113	.00002
363.15	.1226	.00107	.00002
363.15	.2394	.00101	.00002
363.15	.3504	.000967	.00002
363.15	.4561	.000928	.00002
363.15	.5573	.000895	.00002
363.15	.6537	.000866	.00002
363.15	.747	.000841	.00002
363.15	.8343	.000821	.00002
363.15	.9189	.000804	.00002
363.15	1	.000789	.00002
373.15	0	.000997	.00002
373.15	.1226	.000948	.00002
373.15	.2394	.000903	.00002
373.15	.3504	.000865	.00002
373.15	.4561	.000832	.00002
373.15	.5573	.000803	.00002
373.15	.6537	.000778	.00002
373.15	.747	.000758	.00002
373.15	.8343	.00074	.00002
373.15	.9189	.000726	.00002
373.15	1	.000713	.00002

System: 1,1'-bicyclohexyl + tetralin; phases: Liquid, Gas
Fixed: Temperature, K = 294.1
Property: Surface tension liquid-gas, N/m (Liquid); method: Pendant drop shape
Mole fraction of tetralin	Surface tension liquid-gas, N/m	uncertainty
.1226	.03291	.0002
.2394	.03325	.0002
.3504	.03341	.0002
.4561	.03386	.0002
.5573	.03402	.0002
.6536	.03438	.0002
.7459	.03471	.0002
.9189	.03556	.0002

System: 1,1'-bicyclohexyl + trans-bicyclo[4.4.0]decane; phases: Liquid
Fixed: Pressure, kPa = 102
Property: Mass density, kg/m3 (Liquid); method: Vibrating tube method
Mass fraction of trans-bicyclo[4.4.0]decane	Temperature, K	Mass density, kg/m3	uncertainty
.1	293.15	884.26	.07
.2001	293.15	882.51	.07
.3001	293.15	880.73	.07
.4	293.15	879.03	.07
.5002	293.15	877.41	.07
.6	293.15	875.78	.07
.6998	293.15	874.19	.07
.8001	293.15	872.67	.07
.9001	293.15	871.18	.07
.1	303.15	877.04	.07
.2001	303.15	875.28	.07
.3001	303.15	873.5	.07
.4	303.15	871.8	.07
.5002	303.15	870.13	.07
.6	303.15	868.48	.07
.6998	303.15	866.85	.07
.8001	303.15	865.3	.07
.9001	303.15	863.76	.07
.1	313.15	869.84	.07
.2001	313.15	868.07	.07
.3001	313.15	866.27	.07
.4	313.15	864.55	.07
.5002	313.15	862.84	.07
.6	313.15	861.17	.07
.6998	313.15	859.51	.07
.8001	313.15	857.92	.07
.9001	313.15	856.34	.07
.1	323.15	862.67	.07
.2001	323.15	860.86	.07
.3001	323.15	859.04	.07
.4	323.15	857.3	.07
.5002	323.15	855.56	.07
.6	323.15	853.85	.07
.6998	323.15	852.16	.07
.8001	323.15	850.53	.07
.9001	323.15	848.9	.07
.1	333.15	855.5	.07
.2001	333.15	853.67	.07
.3001	333.15	851.81	.07
.4	333.15	850.04	.07
.5002	333.15	848.28	.07
.6	333.15	846.53	.07
.6998	333.15	844.8	.07
.8001	333.15	843.13	.07
.9001	333.15	841.45	.07
.1	343.15	848.33	.07
.2001	343.15	846.47	.07
.3001	343.15	844.6	.07
.4	343.15	842.78	.07
.5002	343.15	840.98	.07
.6	343.15	839.2	.07
.6998	343.15	837.42	.07
.8001	343.15	835.7	.07
.9001	343.15	833.97	.07
.1	353.15	841.2	.2
.2001	353.15	839.3	.2
.3001	353.15	837.4	.2
.4	353.15	835.5	.2
.5002	353.15	833.7	.2
.6	353.15	831.9	.2
.6998	353.15	830	.2
.8001	353.15	828.3	.2
.9001	353.15	826.5	.2
.1	363.15	833.9	.2
.2001	363.15	832.1	.2
.3001	363.15	830.1	.2
.4	363.15	828.2	.2
.5002	363.15	826.3	.2
.6	363.15	824.5	.2
.6998	363.15	822.5	.2
.8001	363.15	820.7	.2
.9001	363.15	818.9	.2
.1	373.15	827	.2
.2001	373.15	824.9	.2
.3001	373.15	822.9	.2
.4	373.15	820.9	.2
.5002	373.15	819	.2
.6	373.15	817	.2
.6998	373.15	815.1	.2
.8001	373.15	813.2	.2
.9001	373.15	811.3	.2

System: 1,1'-bicyclohexyl + trans-bicyclo[4.4.0]decane; phases: Liquid
Fixed: Pressure, kPa = 102
Property: Speed of sound, m/s (Liquid); method: Sing-around technique in a fixed-path interferometer
Mole fraction of trans-bicyclo[4.4.0]decane	Temperature, K	Speed of sound, m/s	uncertainty
.1185	293.15	1455.2	1
.2312	293.15	1448.6	1
.3405	293.15	1442.1	1
.4451	293.15	1435.6	1
.546	293.15	1429.3	1
.6433	293.15	1422.9	1
.7374	293.15	1416.6	1
.828	293.15	1410.4	1
.9154	293.15	1404	1
.1185	303.15	1415.6	1
.2312	303.15	1408.9	1
.3405	303.15	1402.4	1
.4451	303.15	1395.8	1
.546	303.15	1389.4	1
.6433	303.15	1382.9	1
.7374	303.15	1376.5	1
.828	303.15	1370.2	1
.9154	303.15	1363.8	1
.1185	313.15	1376.8	1
.2312	313.15	1370.1	1
.3405	313.15	1363.5	1
.4451	313.15	1356.8	1
.546	313.15	1350.3	1
.6433	313.15	1343.7	1
.7374	313.15	1337.2	1
.828	313.15	1330.8	1
.9154	313.15	1324.3	1
.1185	323.15	1338.8	1
.2312	323.15	1332	1
.3405	323.15	1325.3	1
.4451	323.15	1318.6	1
.546	323.15	1312	1
.6433	323.15	1305.3	1
.7374	323.15	1298.7	1
.828	323.15	1292.2	1
.9154	323.15	1285.6	1
.1185	333.15	1301.6	1
.2312	333.15	1294.7	1
.3405	333.15	1287.9	1
.4451	333.15	1281.1	1
.546	333.15	1274.4	1
.6433	333.15	1267.7	1
.7374	333.15	1261	1
.828	333.15	1254.4	1
.9154	333.15	1247.7	1
.1185	343.15	1265	1
.2312	343.15	1258.6	1
.3405	343.15	1251.2	1
.4451	343.15	1244.3	1
.546	343.15	1237.6	1
.6433	343.15	1230.7	1
.7374	343.15	1223.9	1
.828	343.15	1217.2	1
.9154	343.15	1210.5	1

System: 1,1'-bicyclohexyl + trans-bicyclo[4.4.0]decane; phases: Liquid
Fixed: Pressure, kPa = 102
Property: Viscosity, Pa*s (Liquid); method: Concentric cylinders viscometry
Temperature, K	Mole fraction of trans-bicyclo[4.4.0]decane	Viscosity, Pa*s	uncertainty
293.15	.1185	.00372	.00002
293.15	.2312	.00343	.00002
293.15	.3405	.00317	.00002
293.15	.4451	.00296	.00002
293.15	.546	.00277	.00002
293.15	.6433	.0026	.00002
293.15	.7374	.00245	.00002
293.15	.828	.00233	.00002
293.15	.9154	.00221	.00002
293.15	1	.00214	.00002
303.15	.1185	.00295	.00002
303.15	.2312	.00274	.00002
303.15	.3405	.00256	.00002
303.15	.4451	.0024	.00002
303.15	.546	.00227	.00002
303.15	.6433	.00215	.00002
303.15	.7374	.00203	.00002
303.15	.828	.00194	.00002
303.15	.9154	.00185	.00002
303.15	1	.00179	.00002
313.15	.1185	.00239	.00002
313.15	.2312	.00224	.00002
313.15	.3405	.00211	.00002
313.15	.4451	.00199	.00002
313.15	.546	.00189	.00002
313.15	.6433	.0018	.00002
313.15	.7374	.00171	.00002
313.15	.828	.00164	.00002
313.15	.9154	.00157	.00002
313.15	1	.00151	.00002
323.15	.1185	.00198	.00002
323.15	.2312	.00187	.00002
323.15	.3405	.00177	.00002
323.15	.4451	.00168	.00002
323.15	.546	.0016	.00002
323.15	.6433	.00152	.00002
323.15	.7374	.00146	.00002
323.15	.828	.0014	.00002
323.15	.9154	.00134	.00002
323.15	1	.0013	.00002
333.15	.1185	.00166	.00002
333.15	.2312	.00158	.00002
333.15	.3405	.0015	.00002
333.15	.4451	.00143	.00002
333.15	.546	.00136	.00002
333.15	.6433	.00131	.00002
333.15	.7374	.00125	.00002
333.15	.828	.00121	.00002
333.15	.9154	.00116	.00002
333.15	1	.00112	.00002
343.15	.1185	.00142	.00002
343.15	.2312	.00135	.00002
343.15	.3405	.00129	.00002
343.15	.4451	.00123	.00002
343.15	.546	.00118	.00002
343.15	.6433	.00114	.00002
343.15	.7374	.00109	.00002
343.15	.828	.00105	.00002
343.15	.9154	.00102	.00002
343.15	1	.000982	.00002
353.15	.1185	.00123	.00002
353.15	.2312	.00117	.00002
353.15	.3405	.00112	.00002
353.15	.4451	.00108	.00002
353.15	.546	.00104	.00002
353.15	.6433	.000996	.00002
353.15	.7374	.00096	.00002
353.15	.828	.000927	.00002
353.15	.9154	.000897	.00002
353.15	1	.000867	.00002
363.15	.1185	.00108	.00002
363.15	.2312	.00103	.00002
363.15	.3405	.00099	.00002
363.15	.4451	.000952	.00002
363.15	.546	.000917	.00002
363.15	.6433	.000884	.00002
363.15	.7374	.000853	.00002
363.15	.828	.000825	.00002
363.15	.9154	.000799	.00002
363.15	1	.000774	.00002
373.15	.1185	.000957	.00002
373.15	.2312	.000919	.00002
373.15	.3405	.000883	.00002
373.15	.4451	.00085	.00002
373.15	.546	.00082	.00002
373.15	.6433	.000792	.00002
373.15	.7374	.000765	.00002
373.15	.828	.000741	.00002
373.15	.9154	.000718	.00002
373.15	1	.000697	.00002

System: 1,1'-bicyclohexyl + trans-bicyclo[4.4.0]decane; phases: Liquid, Gas
Fixed: Temperature, K = 294.1
Property: Surface tension liquid-gas, N/m (Liquid); method: Pendant drop shape
Mole fraction of trans-bicyclo[4.4.0]decane	Surface tension liquid-gas, N/m	uncertainty
.1185	.0322	.0004
.2312	.03188	.00022
.3405	.03158	.0002
.4449	.03129	.0002
.5	.03106	.0002
.5999	.03082	.0002
.7001	.03073	.0002
.8001	.03067	.0002
.8999	.03053	.0002
