Measured thermophysical data. Investigation of the Solubilities of Carbon Dioxide in Some Low Volatile Solvents and Their Thermodynamic Properties
Source: J. Chem. Eng. Data, 2016, 10.1021/acs.jced.5b00893
Compound 1: carbon dioxide, CO2, purity 99.9%
Compound 2: 1,3-dimethyl-3,4,5,6-tetrahydro-2(1H)-pyrimidinone, C6H12N2O, purity 99.3%
Compound 3: tetramethylurea, C5H12N2O, purity 99.5%
Compound 4: 1,3-dimethyl-2-imidazolidinone, C5H10N2O, purity 99.6%
Compound 5: .gamma.-butyrolactone, C4H6O2, purity 99.4%
Compound 6: butyl lactate, C7H14O3, purity 99.3%

System: 1,3-dimethyl-3,4,5,6-tetrahydro-2(1H)-pyrimidinone; phases: Liquid
Fixed: Pressure, kPa = 101.325
Property: Mass density, kg/m3 (Liquid); method: Vibrating tube method
Temperature, K	Mass density, kg/m3	uncertainty
293.15	1065	1.065

System: tetramethylurea; phases: Liquid
Fixed: Pressure, kPa = 101.325
Property: Mass density, kg/m3 (Liquid); method: Vibrating tube method
Temperature, K	Mass density, kg/m3	uncertainty
293.15	967	.967

System: 1,3-dimethyl-2-imidazolidinone; phases: Liquid
Fixed: Pressure, kPa = 101.325
Property: Mass density, kg/m3 (Liquid); method: Vibrating tube method
Temperature, K	Mass density, kg/m3	uncertainty
293.15	1058	1.058

System: .gamma.-butyrolactone; phases: Liquid
Fixed: Pressure, kPa = 101.325
Property: Mass density, kg/m3 (Liquid); method: Vibrating tube method
Temperature, K	Mass density, kg/m3	uncertainty
293.15	1129	1.129

System: butyl lactate; phases: Liquid
Fixed: Pressure, kPa = 101.325
Property: Mass density, kg/m3 (Liquid); method: Vibrating tube method
Temperature, K	Mass density, kg/m3	uncertainty
293.15	982	.982

System: .gamma.-butyrolactone + carbon dioxide; phases: Liquid, Gas
Property: Vapor or sublimation pressure, kPa (Liquid); method: Closed cell (Static) method
Temperature, K	Mole fraction of carbon dioxide	Vapor or sublimation pressure, kPa	uncertainty
293.15	.0081	73.3	
293.15	.0135	121.1	
293.15	.0211	189.8	
293.15	.0326	292.4	
293.15	.0438	392	
293.15	.0547	490.6	
293.15	.0615	552.4	
303.15	.0064	70.4	
303.15	.0117	128.6	
303.15	.0191	210.3	
303.15	.0284	312.3	
303.15	.0364	401.1	
303.15	.0454	500.2	
303.15	.0502	553.7	
313.15	.005	65.7	
313.15	.0097	125.4	
313.15	.016	206.5	
313.15	.0236	304.4	
313.15	.0309	399.1	
313.15	.0394	510.1	
323.15	.0043	62.2	
323.15	.0078	116.3	
323.15	.0131	196.6	
323.15	.0192	291.1	
323.15	.0253	385.8	
323.15	.0321	488.2	
323.15	.0366	556.7	

System: carbon dioxide + butyl lactate; phases: Liquid, Gas
Property: Vapor or sublimation pressure, kPa (Liquid); method: Closed cell (Static) method
Temperature, K	Mole fraction of carbon dioxide	Vapor or sublimation pressure, kPa	uncertainty
293.15	.0122	69.7	
293.15	.0229	127.7	
293.15	.0378	212.2	
293.15	.054	307.2	
293.15	.0696	398.5	
293.15	.0871	503.2	
293.15	.0962	556.5	
303.15	.0111	71.3	
303.15	.0195	127.2	
303.15	.0327	215.9	
303.15	.0465	308.5	
303.15	.0607	407.4	
303.15	.0759	512.1	
303.15	.0844	570.4	
313.15	.01	75.9	
313.15	.0172	129.9	
313.15	.0288	223.3	
313.15	.0415	324.2	
313.15	.0551	431.4	
313.15	.0654	515.6	
313.15	.0736	577.6	
323.15	.0107	98.4	
323.15	.0166	152.1	
323.15	.0244	227	
323.15	.0345	320.5	
323.15	.0454	424.3	
323.15	.0558	521.4	
323.15	.0624	584.1	

System: carbon dioxide + tetramethylurea; phases: Liquid, Gas
Property: Vapor or sublimation pressure, kPa (Liquid); method: Closed cell (Static) method
Temperature, K	Mole fraction of carbon dioxide	Vapor or sublimation pressure, kPa	uncertainty
293.15	.0145	72.6	
293.15	.0258	128.9	
293.15	.0449	226.4	
293.15	.0616	311.5	
293.15	.0798	406.2	
293.15	.0971	497.9	
293.15	.1115	576	
303.15	.0186	113.9	
303.15	.0367	225	
303.15	.054	332.9	
303.15	.0685	426.9	
303.15	.0842	528	
303.15	.0924	581.3	
313.15	.0104	78.1	
313.15	.0177	132.9	
313.15	.0292	218.5	
313.15	.0428	320.7	
313.15	.0557	418	
313.15	.0695	524.4	
313.15	.0781	590.4	
323.15	.0102	88.4	
323.15	.016	139	
323.15	.0269	235.8	
323.15	.0379	332.6	
323.15	.0494	434.4	
323.15	.0603	532.6	
323.15	.0667	589.4	

System: 1,3-dimethyl-2-imidazolidinone + carbon dioxide; phases: Liquid, Gas
Property: Vapor or sublimation pressure, kPa (Liquid); method: Closed cell (Static) method
Temperature, K	Mole fraction of carbon dioxide	Vapor or sublimation pressure, kPa	uncertainty
293.15	.0074	47.2	
293.15	.0153	96.9	
293.15	.0276	176.3	
293.15	.0408	260.5	
293.15	.0593	379.1	
293.15	.0727	467.2	
293.15	.0822	528.4	
303.15	.0065	52.5	
303.15	.0133	105.2	
303.15	.0217	172.5	
303.15	.0343	274.8	
303.15	.0472	376.6	
303.15	.0598	479.6	
303.15	.0677	545.1	
313.15	.0057	52.6	
313.15	.0116	106.8	
313.15	.0211	194.2	
313.15	.031	287.4	
313.15	.0396	367.5	
313.15	.0508	474.4	
313.15	.0581	544	
323.15	.0059	65.3	
323.15	.0114	126.2	
323.15	.0191	211.1	
323.15	.0275	305.8	
323.15	.0353	391.7	
323.15	.0447	498.3	
323.15	.0498	555.8	

System: carbon dioxide + 1,3-dimethyl-3,4,5,6-tetrahydro-2(1H)-pyrimidinone; phases: Liquid, Gas
Property: Vapor or sublimation pressure, kPa (Liquid); method: Closed cell (Static) method
Temperature, K	Mole fraction of carbon dioxide	Vapor or sublimation pressure, kPa	uncertainty
293.15	.0077	53.8	
293.15	.0149	105.1	
293.15	.0261	185.1	
293.15	.0389	276.6	
293.15	.0533	379.9	
293.15	.0664	475.5	
293.15	.0746	534.3	
303.15	.0077	65.3	
303.15	.0141	120.7	
303.15	.0233	201.2	
303.15	.0338	292.6	
303.15	.0451	393.2	
303.15	.0562	490.8	
303.15	.0625	546.6	
313.15	.0056	56	
313.15	.0109	110.1	
313.15	.0191	191.9	
313.15	.028	283.1	
313.15	.0378	382.4	
313.15	.0468	476.6	
313.15	.0533	543.9	
323.15	.0054	63.9	
323.15	.0099	118.3	
323.15	.0174	207.1	
323.15	.0249	297.1	
323.15	.0321	384.1	
323.15	.0406	486.7	
323.15	.0469	562.9	
