Measured thermophysical data. Effect of Pressure on the Azeotrope of the Mixture Isoamyl Acetate Isoamyl Alcohol at 50.00, 101.32, 250.00, and 350.00 kPa
Source: J. Chem. Eng. Data, 2016, 10.1021/acs.jced.6b00197
Compound 1: isoamyl acetate, C7H14O2, purity 99.0%
Compound 2: isoamyl alcohol, C5H12O, purity 99.5%
Compound 3: ethanol, C2H6O, purity 99.8%
Compound 4: water, H2O, purity 99.8%

System: isoamyl acetate; phases: Liquid, Gas
Property: Normal boiling temperature, K (Liquid); method: Ebulliometric method (Recirculating still)
Normal boiling temperature, K	uncertainty
415.24	.100000000000023

System: isoamyl acetate; phases: Liquid
Fixed: Pressure, kPa = 101.325
Property: Mass density, kg/m3 (Liquid); method: Pycnometric method
Temperature, K	Mass density, kg/m3	uncertainty
293.15	873	4

System: isoamyl acetate; phases: Liquid
Fixed: Pressure, kPa = 101.325
Property: Refractive index (Na D-line) (Liquid); method: Standard Abbe refractometry
Temperature, K	Refractive index (Na D-line)	uncertainty
293.25	1.4008	.0002

System: isoamyl acetate; phases: Liquid, Gas
Property: Boiling temperature at pressure P, K (Liquid); method: Ebulliometric method (Recirculating still)
Pressure, kPa	Boiling temperature at pressure P, K	uncertainty
4.98	333.01	
10.05	348.19	
19.88	365.25	
39.98	384.57	
50.03	391.35	
60.02	397.08	
79.97	406.58	
99.82	414.32	
101.09	414.78	
120.12	421.05	
140.02	426.79	
159.98	431.92	
179.92	436.53	
199.94	440.74	

System: isoamyl alcohol; phases: Liquid, Gas
Property: Normal boiling temperature, K (Liquid); method: Ebulliometric method (Recirculating still)
Normal boiling temperature, K	uncertainty
404.45	.100000000000023

System: isoamyl alcohol; phases: Liquid
Fixed: Pressure, kPa = 101.325
Property: Mass density, kg/m3 (Liquid); method: Pycnometric method
Temperature, K	Mass density, kg/m3	uncertainty
293.15	810	4

System: isoamyl alcohol; phases: Liquid
Fixed: Pressure, kPa = 101.325
Property: Refractive index (Na D-line) (Liquid); method: Standard Abbe refractometry
Temperature, K	Refractive index (Na D-line)	uncertainty
293.25	1.4067	.0002

System: isoamyl alcohol; phases: Liquid, Gas
Property: Boiling temperature at pressure P, K (Liquid); method: Ebulliometric method (Recirculating still)
Pressure, kPa	Boiling temperature at pressure P, K	uncertainty
5	335.85	
10	348.92	
19.99	363.33	
40.01	379.51	
49.99	385.12	
59.99	389.82	
79.99	397.61	
100	404.01	
101.31	404.36	
120	409.19	
139.99	414.21	
159.99	418.51	
180.01	422.43	
200	426.01	

System: isoamyl alcohol + isoamyl acetate; phases: Liquid, Gas
Property: Boiling temperature at pressure P, K (Liquid); method: Ebulliometric method (Recirculating still)
Pressure, kPa	Mole fraction of isoamyl acetate	Boiling temperature at pressure P, K	uncertainty
50	.9265	389.6	
50	.8793	388.89	
50	.8179	387.91	
50	.7254	386.9	
50	.5712	385.76	
50	.4873	385.35	
50	.2749	384.81	
50	.2133	384.83	
50	.1059	384.96	
101.32	.9809	414.37	
101.32	.9664	413.99	
101.32	.9406	413.4	
101.32	.9194	412.93	
101.32	.8889	412.36	
101.32	.8604	411.91	
101.32	.8036	411.07	
101.32	.7703	410.41	
101.32	.7389	409.82	
101.32	.7205	409.61	
101.32	.6879	409.14	
101.32	.6479	408.52	
101.32	.6112	408.01	
101.32	.5101	406.93	
101.32	.4883	406.61	
101.32	.1347	404.4	
101.32	.1082	404.27	
101.32	.0817	404.09	
101.32	.0575	404.13	
250	.9527	448.62	
250	.9078	447.68	
250	.8888	447.21	
250	.8686	446.71	
250	.8394	446.01	
250	.8114	445.45	
250	.785	444.82	
250	.7505	444.01	
250	.7065	443.11	
250	.6586	442.25	
250	.612	441.39	
250	.5438	440.17	
250	.4883	439.29	
250	.4267	438.34	
250	.3009	436.48	
250	.2557	435.95	
250	.1613	434.84	
250	.1316	434.54	
250	.0556	433.77	
350	.8579	460.72	
350	.7818	458.9	
350	.6828	456.78	
350	.5989	454.96	
350	.4874	452.62	
350	.4355	451.74	
350	.3626	450.67	
350	.2808	449.53	
350	.2286	448.68	
350	.1845	448.22	
350	.146	447.71	
350	.0955	446.83	
350	.0809	446.72	

System: isoamyl alcohol + isoamyl acetate; phases: Gas, Liquid
Property: Mole fraction of isoamyl acetate (Gas); method: Chromatography
Temperature, K	Mole fraction of isoamyl acetate	Mole fraction of isoamyl acetate	uncertainty
389.6	.9265	.8739	
388.89	.8793	.8114	
387.91	.8179	.734	
386.9	.7254	.6383	
385.76	.5712	.4945	
385.35	.4873	.4261	
384.81	.2749	.2749	
384.83	.2133	.2224	
384.96	.1059	.136	
414.37	.9809	.9592	
413.99	.9664	.9392	
413.4	.9406	.8972	
412.93	.9194	.8644	
412.36	.8889	.8205	
411.91	.8604	.7792	
411.07	.8036	.7169	
410.41	.7703	.6772	
409.82	.7389	.6409	
409.61	.7205	.6226	
409.14	.6879	.5866	
408.52	.6479	.5548	
408.01	.6112	.5112	
406.93	.5101	.4329	
406.61	.4883	.4076	
404.4	.1347	.1256	
404.27	.1082	.1	
404.09	.0817	.0714	
404.13	.0575	.0555	
448.62	.9527	.9127	
447.68	.9078	.8508	
447.21	.8888	.8232	
446.71	.8686	.7948	
446.01	.8394	.7581	
445.45	.8114	.7214	
444.82	.785	.6878	
444.01	.7505	.6461	
443.11	.7065	.5969	
442.25	.6586	.5474	
441.39	.612	.4996	
440.17	.5438	.4351	
439.29	.4883	.3847	
438.34	.4267	.335	
436.48	.3009	.2338	
435.95	.2557	.1972	
434.84	.1613	.1267	
434.54	.1316	.1022	
433.77	.0556	.0442	
460.72	.8579	.7757	
458.9	.7818	.6812	
456.78	.6828	.5703	
454.96	.5989	.4835	
452.62	.4874	.3807	
451.74	.4355	.3365	
450.67	.3626	.2753	
449.53	.2808	.211	
448.68	.2286	.1699	
448.22	.1845	.1386	
447.71	.146	.1096	
446.83	.0955	.0717	
446.72	.0809	.0613	

System: ethanol + water; phases: Liquid, Gas
Property: Boiling temperature at pressure P, K (Liquid); method: Ebulliometric method (Recirculating still)
Mole fraction of ethanol	Pressure, kPa	Boiling temperature at pressure P, K	uncertainty
.9815	101.3	351.34	
.9026	101.3	351.35	
.7987	101.3	351.5	
.7314	101.3	351.65	
.6862	101.3	351.75	
.6193	101.3	352.03	
.5344	101.3	352.49	
.4157	101.3	353.43	
.2669	101.3	355.21	
.192	101.3	356.62	
.1385	101.3	358	
.085	101.3	360.63	
.0453	101.3	365.88	
.0246	101.3	369.83	
.0148	101.3	372.52	

System: ethanol + water; phases: Gas, Liquid
Property: Mole fraction of ethanol (Gas); method: Chromatography
Mole fraction of ethanol	Pressure, kPa	Mole fraction of ethanol	uncertainty
.9815	101.3	.9788	
.9026	101.3	.9087	
.7987	101.3	.825	
.7314	101.3	.778	
.6862	101.3	.7559	
.6193	101.3	.7146	
.5344	101.3	.6774	
.4157	101.3	.6287	
.2669	101.3	.5642	
.192	101.3	.5379	
.1385	101.3	.4967	
.085	101.3	.4328	
.0453	101.3	.2951	
.0246	101.3	.1487	
.0148	101.3	.0353	
