Measured thermophysical data. Solubility of 4-Methylsulfonylacetophenone in Nine Pure Solvents and (Ethyl Acetate + n-Hexane) Binary Solvent Mixtures from 278.15 K to 328.15 K
Source: J. Chem. Eng. Data, 2017, 10.1021/acs.jced.6b00617
Compound 1: 1-(4-(methylsulfonyl)phenyl)ethanone, C9H10O3S
Compound 2: n-hexane, C6H14
Compound 3: ethyl acetate, C4H8O2
Compound 4: methanol, CH4O
Compound 5: ethanol, C2H6O
Compound 6: n-propyl alcohol, C3H8O
Compound 7: n-butyl alcohol, C4H10O
Compound 8: ethylene glycol, C2H6O2
Compound 9: cyclohexane, C6H12
Compound 10: isobutyl alcohol, C4H10O
Compound 11: salicylic acid, C7H6O3

System: 1-(4-(methylsulfonyl)phenyl)ethanone; phases: Crystal, Liquid, Air at 1 atmosphere
Property: Normal melting temperature, K (Crystal); method: Visual observation
Normal melting temperature, K	uncertainty
398.22	

System: ethyl acetate + 1-(4-(methylsulfonyl)phenyl)ethanone; phases: Liquid, Crystal 1
Fixed: Pressure, kPa = 100
Property: Mole fraction of 1-(4-(methylsulfonyl)phenyl)ethanone (Liquid); method: gravimetric
Temperature, K	Mole fraction of 1-(4-(methylsulfonyl)phenyl)ethanone	uncertainty
278.15	.0253	
283.15	.027	
288.15	.0295	
293.15	.0326	
298.15	.0361	
303.15	.0402	
308.15	.0446	
313.15	.0501	
318.15	.0565	
323.15	.0639	
328.15	.0745	

System: methanol + 1-(4-(methylsulfonyl)phenyl)ethanone; phases: Liquid, Crystal 1
Fixed: Pressure, kPa = 100
Property: Mole fraction of 1-(4-(methylsulfonyl)phenyl)ethanone (Liquid); method: gravimetric
Temperature, K	Mole fraction of 1-(4-(methylsulfonyl)phenyl)ethanone	uncertainty
278.15	.0161	
283.15	.0173	
288.15	.019	
293.15	.0215	
298.15	.0246	
303.15	.0281	
308.15	.0321	
313.15	.0369	
318.15	.0421	
323.15	.0481	
328.15	.0568	

System: ethanol + 1-(4-(methylsulfonyl)phenyl)ethanone; phases: Liquid, Crystal 1
Fixed: Pressure, kPa = 100
Property: Mole fraction of 1-(4-(methylsulfonyl)phenyl)ethanone (Liquid); method: gravimetric
Temperature, K	Mole fraction of 1-(4-(methylsulfonyl)phenyl)ethanone	uncertainty
278.15	.0123	
283.15	.0137	
288.15	.0154	
293.15	.0172	
298.15	.0197	
303.15	.0221	
308.15	.0249	
313.15	.0283	
318.15	.0325	
323.15	.0381	
328.15	.0441	

System: n-propyl alcohol + 1-(4-(methylsulfonyl)phenyl)ethanone; phases: Liquid, Crystal 1
Fixed: Pressure, kPa = 100
Property: Mole fraction of 1-(4-(methylsulfonyl)phenyl)ethanone (Liquid); method: gravimetric
Temperature, K	Mole fraction of 1-(4-(methylsulfonyl)phenyl)ethanone	uncertainty
278.15	.0104	
283.15	.0114	
288.15	.0129	
293.15	.0144	
298.15	.0162	
303.15	.0185	
308.15	.021	
313.15	.0241	
318.15	.0273	
323.15	.0318	
328.15	.0365	

System: n-butyl alcohol + 1-(4-(methylsulfonyl)phenyl)ethanone; phases: Liquid, Crystal 1
Fixed: Pressure, kPa = 100
Property: Mole fraction of 1-(4-(methylsulfonyl)phenyl)ethanone (Liquid); method: gravimetric
Temperature, K	Mole fraction of 1-(4-(methylsulfonyl)phenyl)ethanone	uncertainty
278.15	.0087	
283.15	.0096	
288.15	.0111	
293.15	.0125	
298.15	.014	
303.15	.016	
308.15	.018	
313.15	.0205	
318.15	.0234	
323.15	.0271	
328.15	.0315	

System: n-hexane + 1-(4-(methylsulfonyl)phenyl)ethanone; phases: Liquid, Crystal 1
Fixed: Pressure, kPa = 100
Property: Mole fraction of 1-(4-(methylsulfonyl)phenyl)ethanone (Liquid); method: gravimetric
Temperature, K	Mole fraction of 1-(4-(methylsulfonyl)phenyl)ethanone	uncertainty
278.15	.003	
283.15	.0038	
288.15	.0049	
293.15	.0062	
298.15	.0077	
303.15	.0099	
308.15	.0121	
313.15	.0146	
318.15	.0171	
323.15	.0204	
328.15	.0241	

System: ethylene glycol + 1-(4-(methylsulfonyl)phenyl)ethanone; phases: Liquid, Crystal 1
Fixed: Pressure, kPa = 100
Property: Mole fraction of 1-(4-(methylsulfonyl)phenyl)ethanone (Liquid); method: gravimetric
Temperature, K	Mole fraction of 1-(4-(methylsulfonyl)phenyl)ethanone	uncertainty
278.15	.0179	
283.15	.0194	
288.15	.0211	
293.15	.0238	
298.15	.0273	
303.15	.0307	
308.15	.035	
313.15	.0395	
318.15	.045	
323.15	.0507	
328.15	.0597	

System: cyclohexane + 1-(4-(methylsulfonyl)phenyl)ethanone; phases: Liquid, Crystal 1
Fixed: Pressure, kPa = 100
Property: Mole fraction of 1-(4-(methylsulfonyl)phenyl)ethanone (Liquid); method: gravimetric
Temperature, K	Mole fraction of 1-(4-(methylsulfonyl)phenyl)ethanone	uncertainty
278.15	.0049	
283.15	.0056	
288.15	.0065	
293.15	.0079	
298.15	.0091	
303.15	.0109	
308.15	.0129	
313.15	.0154	
318.15	.0182	
323.15	.0217	
328.15	.0255	

System: isobutyl alcohol + 1-(4-(methylsulfonyl)phenyl)ethanone; phases: Liquid, Crystal 1
Fixed: Pressure, kPa = 100
Property: Mole fraction of 1-(4-(methylsulfonyl)phenyl)ethanone (Liquid); method: gravimetric
Temperature, K	Mole fraction of 1-(4-(methylsulfonyl)phenyl)ethanone	uncertainty
278.15	.0074	
283.15	.0083	
288.15	.0094	
293.15	.0108	
298.15	.0124	
303.15	.0142	
308.15	.016	
313.15	.0186	
318.15	.0211	
323.15	.0246	
328.15	.0284	

System: n-hexane + ethyl acetate + 1-(4-(methylsulfonyl)phenyl)ethanone; phases: Liquid, Crystal
Fixed: Pressure, kPa = 100
Property: Mole fraction of 1-(4-(methylsulfonyl)phenyl)ethanone (Liquid); method: gravimetric
Temperature, K	Solvent: Mole fraction of ethyl acetate	Mole fraction of 1-(4-(methylsulfonyl)phenyl)ethanone	uncertainty
278.15	0	.003	
278.15	.1472	.0048	
278.15	.2954	.008	
278.15	.4445	.0114	
278.15	.5947	.0148	
278.15	.7458	.0187	
278.15	.898	.0226	
278.15	1	.0253	
283.15	0	.0038	
283.15	.1472	.0061	
283.15	.2954	.0094	
283.15	.4445	.0132	
283.15	.5947	.0167	
283.15	.7458	.0204	
283.15	.898	.0244	
283.15	1	.027	
288.15	0	.0049	
288.15	.1472	.0074	
288.15	.2954	.0111	
288.15	.4445	.0153	
288.15	.5947	.0189	
288.15	.7458	.0229	
288.15	.898	.0271	
288.15	1	.0295	
298.15	0	.0077	
298.15	.1472	.0111	
298.15	.2954	.0159	
298.15	.4445	.0204	
298.15	.5947	.0246	
298.15	.7458	.0291	
298.15	.898	.0333	
298.15	1	.0361	
308.15	0	.0121	
308.15	.1472	.0161	
308.15	.2954	.0215	
308.15	.4445	.0266	
308.15	.5947	.0318	
308.15	.7458	.0366	
308.15	.898	.0414	
308.15	1	.0446	
318.15	0	.0171	
318.15	.1472	.0221	
318.15	.2954	.0286	
318.15	.4445	.0348	
318.15	.5947	.041	
318.15	.7458	.0468	
318.15	.898	.0527	
318.15	1	.0565	
328.15	0	.0241	
328.15	.1472	.0308	
328.15	.2954	.039	
328.15	.4445	.0459	
328.15	.5947	.0546	
328.15	.7458	.0621	
328.15	.898	.0695	
328.15	1	.0745	
293.15	0	.0062	
293.15	.1472	.0092	
293.15	.2954	.0131	
293.15	.4445	.0176	
293.15	.5947	.0216	
293.15	.7458	.0258	
293.15	.898	.03	
293.15	1	.0326	
303.15	0	.0099	
303.15	.1472	.0136	
303.15	.2954	.0187	
303.15	.4445	.0234	
303.15	.5947	.028	
303.15	.7458	.0328	
303.15	.898	.0372	
303.15	1	.0402	
313.15	0	.0146	
313.15	.1472	.019	
313.15	.2954	.0249	
313.15	.4445	.0304	
313.15	.5947	.036	
313.15	.7458	.0413	
313.15	.898	.0466	
313.15	1	.0501	
323.15	0	.0204	
323.15	.1472	.026	
323.15	.2954	.0331	
323.15	.4445	.0399	
323.15	.5947	.0467	
323.15	.7458	.0532	
323.15	.898	.0596	
323.15	1	.0639	

System: methanol + salicylic acid; phases: Liquid, Crystal 1
Fixed: Pressure, kPa = 100
Property: Mole fraction of salicylic acid (Liquid); method: gravimetric
Temperature, K	Mole fraction of salicylic acid	uncertainty
283.15	.0992	
293.15	.1176	
303.15	.1335	
313.15	.1637	
323.15	.192	
