Measured thermophysical data. Density, Speed of Sound, Viscosity, and Surface Tension of Dimethylethylenediamine + Water and (Ethanolamine + Dimethylethanolamine) + Water from T = (293.15 to 323.15) K
Source: J. Chem. Eng. Data, 2016, 10.1021/acs.jced.5b00447
Compound 1: N,N-dimethyl-1,2-diaminoethane, C4H12N2, purity 98%
Compound 2: 2-aminoethanol, C2H7NO, purity 99%
Compound 3: (2-hydroxyethyl)dimethylamine, C4H11NO, purity 98%
Compound 4: water, H2O

System: N,N-dimethyl-1,2-diaminoethane; phases: Liquid
Property: Viscosity, Pa*s (Liquid); method: Capillary tube (Ostwald; Ubbelohde) method
Temperature, K	Pressure, kPa	Viscosity, Pa*s	uncertainty
298.15	100	.000895	.000002
293.15	100	.000988	.000002
303.15	100	.000819	.000002
313.15	100	.000693	.000002
323.15	100	.000596	.000002

System: N,N-dimethyl-1,2-diaminoethane; phases: Liquid, Gas
Property: Surface tension liquid-gas, N/m (Liquid); method: wilhelmi plate
Temperature, K	Surface tension liquid-gas, N/m	uncertainty
298.15	.0261	.0003
293.15	.0264	.0003
303.15	.0258	.0003
313.15	.0252	.0003
323.15	.0245	.0003

System: N,N-dimethyl-1,2-diaminoethane; phases: Liquid
Property: Mass density, kg/m3 (Liquid); method: Vibrating tube method
Temperature, K	Pressure, kPa	Mass density, kg/m3	uncertainty
293.15	100	819	2
303.15	100	810	2
313.15	100	801	2
323.15	100	791	2
298.15	100	814.3	2

System: N,N-dimethyl-1,2-diaminoethane; phases: Liquid
Fixed: Frequency, MHz = 3
Property: Speed of sound, m/s (Liquid); method: Sing-around technique in a fixed-path interferometer
Temperature, K	Pressure, kPa	Speed of sound, m/s	uncertainty
293.15	100	1319.6	.7
303.15	100	1279.3	.7
313.15	100	1239	.7
323.15	100	1199.3	.7
298.15	100	1300.8	.7

System: 2-aminoethanol; phases: Liquid
Property: Viscosity, Pa*s (Liquid); method: Capillary tube (Ostwald; Ubbelohde) method
Temperature, K	Pressure, kPa	Viscosity, Pa*s	uncertainty
298.15	100	.01874	.000002

System: 2-aminoethanol; phases: Liquid, Gas
Property: Surface tension liquid-gas, N/m (Liquid); method: wilhelmi plate
Temperature, K	Surface tension liquid-gas, N/m	uncertainty
298.15	.0491	.0003

System: 2-aminoethanol; phases: Liquid
Property: Mass density, kg/m3 (Liquid); method: Vibrating tube method
Temperature, K	Pressure, kPa	Mass density, kg/m3	uncertainty
298.15	100	1012	2

System: 2-aminoethanol; phases: Liquid
Fixed: Frequency, MHz = 3
Property: Speed of sound, m/s (Liquid); method: Sing-around technique in a fixed-path interferometer
Temperature, K	Pressure, kPa	Speed of sound, m/s	uncertainty
298.15	100	1719.2	.7

System: (2-hydroxyethyl)dimethylamine; phases: Liquid
Property: Viscosity, Pa*s (Liquid); method: Capillary tube (Ostwald; Ubbelohde) method
Temperature, K	Pressure, kPa	Viscosity, Pa*s	uncertainty
298.15	100	.00369	.000002

System: (2-hydroxyethyl)dimethylamine; phases: Liquid, Gas
Property: Surface tension liquid-gas, N/m (Liquid); method: wilhelmi plate
Temperature, K	Surface tension liquid-gas, N/m	uncertainty
298.15	.0313	.0003

System: (2-hydroxyethyl)dimethylamine; phases: Liquid
Property: Mass density, kg/m3 (Liquid); method: Vibrating tube method
Temperature, K	Pressure, kPa	Mass density, kg/m3	uncertainty
298.15	100	882.8	2

System: (2-hydroxyethyl)dimethylamine; phases: Liquid
Fixed: Frequency, MHz = 3
Property: Speed of sound, m/s (Liquid); method: Sing-around technique in a fixed-path interferometer
Temperature, K	Pressure, kPa	Speed of sound, m/s	uncertainty
298.15	100	1335.9	.7

System: water; phases: Liquid
Property: Viscosity, Pa*s (Liquid); method: Capillary tube (Ostwald; Ubbelohde) method
Temperature, K	Pressure, kPa	Viscosity, Pa*s	uncertainty
298.15	100	.000891	.000002
293.15	100	.000993	.000002
303.15	100	.000797	.000002
313.15	100	.000654	.000002
323.15	100	.000547	.000002

System: water; phases: Liquid, Gas
Property: Surface tension liquid-gas, N/m (Liquid); method: wilhelmi plate
Temperature, K	Surface tension liquid-gas, N/m	uncertainty
298.15	.0721	.0003
293.15	.0726	.0003
303.15	.0711	.0003
313.15	.0692	.0003
323.15	.0677	.0003

System: water; phases: Liquid
Property: Mass density, kg/m3 (Liquid); method: Vibrating tube method
Temperature, K	Pressure, kPa	Mass density, kg/m3	uncertainty
293.15	100	998	2
303.15	100	996	2
313.15	100	992	2
323.15	100	988	2
298.15	100	997.1	2

System: water; phases: Liquid
Fixed: Frequency, MHz = 3
Property: Speed of sound, m/s (Liquid); method: Sing-around technique in a fixed-path interferometer
Temperature, K	Pressure, kPa	Speed of sound, m/s	uncertainty
293.15	100	1482.7	.7
303.15	100	1509.3	.7
313.15	100	1529.1	.7
323.15	100	1542.6	.7
293.15	100	1515.2	.7
303.15	100	1477.3	.7
313.15	100	1439.6	.7
323.15	100	1402.6	.7

System: N,N-dimethyl-1,2-diaminoethane + water; phases: Liquid
Fixed: Pressure, kPa = 100
Property: Mass density, kg/m3 (Liquid); method: Vibrating tube method
Temperature, K	Mole fraction of N,N-dimethyl-1,2-diaminoethane	Mass density, kg/m3	uncertainty
293.15	0	998	2
293.15	.1002	975	2
293.15	.2	952	2
293.15	.3002	920	2
293.15	.3996	895	2
293.15	.5535	874	2
293.15	.5995	858	2
293.15	.7007	844	2
293.15	.8002	833	2
293.15	.8999	825	2
293.15	1	819	2
303.15	0	996	2
303.15	.1002	970	2
303.15	.2	943	2
303.15	.3002	912	2
303.15	.3996	886	2
303.15	.5535	865	2
303.15	.5995	849	2
303.15	.7007	835	2
303.15	.8002	824	2
303.15	.8999	816	2
303.15	1	810	2
313.15	0	992	2
313.15	.1002	963	2
313.15	.2	935	2
313.15	.3002	901	2
313.15	.3996	877	2
313.15	.5535	856	2
313.15	.5995	840	2
313.15	.7007	826	2
313.15	.8002	814	2
313.15	.8999	806	2
313.15	1	801	2
323.15	0	988	2
323.15	.1002	955	2
323.15	.2	926	2
323.15	.3002	893	2
323.15	.3996	868	2
323.15	.5535	847	2
323.15	.5995	831	2
323.15	.7007	817	2
323.15	.8002	806	2
323.15	.8999	797	2
323.15	1	791	2

System: N,N-dimethyl-1,2-diaminoethane + water; phases: Liquid
Fixed: Pressure, kPa = 100
Fixed: Frequency, MHz = 3
Property: Speed of sound, m/s (Liquid); method: Sing-around technique in a fixed-path interferometer
Temperature, K	Mole fraction of N,N-dimethyl-1,2-diaminoethane	Speed of sound, m/s	uncertainty
293.15	0	1482.7	.7
293.15	.1002	1773.4	.7
293.15	.2	1708.6	.7
293.15	.3002	1605.4	.7
293.15	.3996	1517.2	.7
293.15	.5535	1456.6	.7
293.15	.5995	1419.2	.7
293.15	.7007	1387.2	.7
293.15	.8002	1915	.7
293.15	.8999	1915	.7
293.15	1	1319.6	.7
303.15	0	1509.3	.7
303.15	.1002	1743.6	.7
303.15	.2	1672.8	.7
303.15	.3002	1568.6	.7
303.15	.3996	1480.2	.7
303.15	.5535	1419.2	.7
303.15	.5995	1381.6	.7
303.15	.7007	1349	.7
303.15	.8002	1305.2	.7
303.15	.8999	1288.7	.7
303.15	1	1279.3	.7
313.15	0	1529.1	.7
313.15	.1002	1712.8	.7
313.15	.2	1636.1	.7
313.15	.3002	1531.3	.7
313.15	.3996	1443.1	.7
313.15	.5535	1381.8	.7
313.15	.5995	1343.3	.7
313.15	.7007	1310.3	.7
313.15	.8002	1266.2	.7
313.15	.8999	1249.2	.7
313.15	1	1239	.7
323.15	0	1542.6	.7
323.15	.1002	1682	.7
323.15	.2	1598.4	.7
323.15	.3002	1493.1	.7
323.15	.3996	1411.3	.7
323.15	.5535	1343.5	.7
323.15	.5995	1305.1	.7
323.15	.7007	1271.7	.7
323.15	.8002	1227	.7
323.15	.8999	1209.1	.7
323.15	1	1199.3	.7

System: N,N-dimethyl-1,2-diaminoethane + water; phases: Liquid
Fixed: Pressure, kPa = 100
Property: Viscosity, Pa*s (Liquid); method: Capillary tube (Ostwald; Ubbelohde) method
Temperature, K	Mole fraction of N,N-dimethyl-1,2-diaminoethane	Viscosity, Pa*s	uncertainty
293.15	0	.000993	.000002
293.15	.1002	.00683	.000002
293.15	.2	.01266	.000002
293.15	.3002	.010498	.000002
293.15	.3996	.006463	.000002
293.15	.5535	.003875	.000002
293.15	.5995	.002743	.000002
293.15	.7007	.001965	.000002
293.15	.8002	.001464	.000002
293.15	.8999	.001162	.000002
293.15	1	.000988	.000002
303.15	0	.000797	.000002
303.15	.1002	.00428	.000002
303.15	.2	.007355	.000002
303.15	.3002	.006268	.000002
303.15	.3996	.004148	.000002
303.15	.5535	.002709	.000002
303.15	.5995	.002013	.000002
303.15	.7007	.00151	.000002
303.15	.8002	.001161	.000002
303.15	.8999	.00094	.000002
303.15	1	.000819	.000002
313.15	0	.000654	.000002
313.15	.1002	.002891	.000002
313.15	.2	.004689	.000002
313.15	.3002	.004105	.000002
313.15	.3996	.002884	.000002
313.15	.5535	.002019	.000002
313.15	.5995	.001552	.000002
313.15	.7007	.001192	.000002
313.15	.8002	.000937	.000002
313.15	.8999	.000773	.000002
313.15	1	.000693	.000002
323.15	0	.000547	.000002
323.15	.1002	.002069	.000002
323.15	.2	.003179	.000002
323.15	.3002	.002853	.000002
323.15	.3996	.002105	.000002
323.15	.5535	.001519	.000002
323.15	.5995	.001201	.000002
323.15	.7007	.000967	.000002
323.15	.8002	.000804	.000002
323.15	.8999	.000686	.000002
323.15	1	.000596	.000002

System: N,N-dimethyl-1,2-diaminoethane + water; phases: Liquid, Gas
Property: Surface tension liquid-gas, N/m (Liquid); method: wilhelmi plate
Temperature, K	Mole fraction of N,N-dimethyl-1,2-diaminoethane	Surface tension liquid-gas, N/m	uncertainty
293.15	0	.0726	.0003
293.15	.1002	.0426	.0003
293.15	.2	.0371	.0003
293.15	.3002	.0329	.0003
293.15	.3996	.0306	.0003
293.15	.5535	.0294	.0003
293.15	.5995	.0286	.0003
293.15	.7007	.0279	.0003
293.15	.8002	.0274	.0003
293.15	.8999	.0269	.0003
293.15	1	.0264	.0003
303.15	0	.0711	.0003
303.15	.1002	.0419	.0003
303.15	.2	.0363	.0003
303.15	.3002	.0322	.0003
303.15	.3996	.0298	.0003
303.15	.5535	.0286	.0003
303.15	.5995	.0278	.0003
303.15	.7007	.0271	.0003
303.15	.8002	.0266	.0003
303.15	.8999	.0261	.0003
303.15	1	.0258	.0003
313.15	0	.0692	.0003
313.15	.1002	.0413	.0003
313.15	.2	.0352	.0003
313.15	.3002	.0312	.0003
313.15	.3996	.0289	.0003
313.15	.5535	.0278	.0003
313.15	.5995	.027	.0003
313.15	.7007	.0263	.0003
313.15	.8002	.0258	.0003
313.15	.8999	.0253	.0003
313.15	1	.0252	.0003
323.15	0	.0677	.0003
323.15	.1002	.0404	.0003
323.15	.2	.0343	.0003
323.15	.3002	.0306	.0003
323.15	.3996	.0279	.0003
323.15	.5535	.0271	.0003
323.15	.5995	.0264	.0003
323.15	.7007	.0257	.0003
323.15	.8002	.0252	.0003
323.15	.8999	.0247	.0003
323.15	1	.0245	.0003

System: N,N-dimethyl-1,2-diaminoethane + 2-aminoethanol + water; phases: Liquid
Fixed: Pressure, kPa = 100
Property: Mass density, kg/m3 (Liquid); method: Vibrating tube method
Temperature, K	Mole fraction of N,N-dimethyl-1,2-diaminoethane	Mole fraction of 2-aminoethanol	Mass density, kg/m3	uncertainty
293.15	0	0	998	2
293.15	.0502	.0502	1000	2
293.15	.0999	.0999	999	2
293.15	.1497	.1497	991	2
293.15	.2	.2	983	2
293.15	.2501	.2501	974	2
293.15	.2996	.2996	965	2
293.15	.3507	.3507	957	2
293.15	.3995	.3995	952	2
293.15	.4497	.4497	946	2
293.15	.5	.5	941	2
303.15	0	0	996	2
303.15	.0502	.0502	995	2
303.15	.0999	.0999	992	2
303.15	.1497	.1497	984	2
303.15	.2	.2	975	2
303.15	.2501	.2501	966	2
303.15	.2996	.2996	957	2
303.15	.3507	.3507	949	2
303.15	.3995	.3995	944	2
303.15	.4497	.4497	937	2
303.15	.5	.5	932	2
313.15	0	0	992	2
313.15	.0502	.0502	989	2
313.15	.0999	.0999	984	2
313.15	.1497	.1497	976	2
313.15	.2	.2	967	2
313.15	.2501	.2501	958	2
313.15	.2996	.2996	949	2
313.15	.3507	.3507	941	2
313.15	.3995	.3995	935	2
313.15	.4497	.4497	929	2
313.15	.5	.5	924	2
323.15	0	0	988	2
323.15	.0502	.0502	983	2
323.15	.0999	.0999	977	2
323.15	.1497	.1497	968	2
323.15	.2	.2	959	2
323.15	.2501	.2501	950	2
323.15	.2996	.2996	941	2
323.15	.3507	.3507	933	2
323.15	.3995	.3995	927	2
323.15	.4497	.4497	921	2
323.15	.5	.5	916	2

System: N,N-dimethyl-1,2-diaminoethane + 2-aminoethanol + water; phases: Liquid
Fixed: Pressure, kPa = 100
Fixed: Frequency, MHz = 3
Property: Speed of sound, m/s (Liquid); method: Sing-around technique in a fixed-path interferometer
Temperature, K	Mole fraction of N,N-dimethyl-1,2-diaminoethane	Mole fraction of 2-aminoethanol	Speed of sound, m/s	uncertainty
293.15	0	0	1515.2	.7
293.15	.0502	.0502	1695.5	.7
293.15	.0999	.0999	1737.1	.7
293.15	.1497	.1497	1710.7	.7
293.15	.2	.2	1669.6	.7
293.15	.2501	.2501	1628.7	.7
293.15	.2996	.2996	1592.7	.7
293.15	.3507	.3507	1561.8	.7
293.15	.3995	.3995	1538.7	.7
293.15	.4497	.4497	1516.1	.7
293.15	.5	.5	1498.1	.7
303.15	0	0	1477.3	.7
303.15	.0502	.0502	1684.2	.7
303.15	.0999	.0999	1710.8	.7
303.15	.1497	.1497	1680.5	.7
303.15	.2	.2	1637.9	.7
303.15	.2501	.2501	1596.1	.7
303.15	.2996	.2996	1559.9	.7
303.15	.3507	.3507	1528.4	.7
303.15	.3995	.3995	1504.9	.7
303.15	.4497	.4497	1482	.7
303.15	.5	.5	1463.7	.7
313.15	0	0	1439.6	.7
313.15	.0502	.0502	1670.6	.7
313.15	.0999	.0999	1683.9	.7
313.15	.1497	.1497	1649.8	.7
313.15	.2	.2	1605.3	.7
313.15	.2501	.2501	1563.3	.7
313.15	.2996	.2996	1526.5	.7
313.15	.3507	.3507	1494.5	.7
313.15	.3995	.3995	1470.9	.7
313.15	.4497	.4497	1448	.7
313.15	.5	.5	1428.9	.7
323.15	0	0	1402.6	.7
323.15	.0502	.0502	1654.9	.7
323.15	.0999	.0999	1656.1	.7
323.15	.1497	.1497	1618	.7
323.15	.2	.2	1572.2	.7
323.15	.2501	.2501	1530	.7
323.15	.2996	.2996	1492.6	.7
323.15	.3507	.3507	1460.7	.7
323.15	.3995	.3995	1436.7	.7
323.15	.4497	.4497	1413.2	.7
323.15	.5	.5	1394.1	.7

System: N,N-dimethyl-1,2-diaminoethane + 2-aminoethanol + water; phases: Liquid
Fixed: Pressure, kPa = 100
Property: Viscosity, Pa*s (Liquid); method: Capillary tube (Ostwald; Ubbelohde) method
Temperature, K	Mole fraction of N,N-dimethyl-1,2-diaminoethane	Mole fraction of 2-aminoethanol	Viscosity, Pa*s	uncertainty
293.15	0	0	.000993	.000002
293.15	.0502	.0502	.003896	.000002
293.15	.0999	.0999	.0094	.000002
293.15	.1497	.1497	.01522	.000002
293.15	.2	.2	.019239	.000002
293.15	.2501	.2501	.020084	.000002
293.15	.2996	.2996	.018676	.000002
293.15	.3507	.3507	.0166	.000002
293.15	.3995	.3995	.01456	.000002
293.15	.4497	.4497	.01237	.000002
293.15	.5	.5	.010739	.000002
303.15	0	0	.000797	.000002
303.15	.0502	.0502	.002745	.000002
303.15	.0999	.0999	.005693	.000002
303.15	.1497	.1497	.009481	.000002
303.15	.2	.2	.011611	.000002
303.15	.2501	.2501	.012251	.000002
303.15	.2996	.2996	.011602	.000002
303.15	.3507	.3507	.010517	.000002
303.15	.3995	.3995	.009339	.000002
303.15	.4497	.4497	.008176	.000002
303.15	.5	.5	.007169	.000002
313.15	0	0	.000654	.000002
313.15	.0502	.0502	.002002	.000002
313.15	.0999	.0999	.003798	.000002
313.15	.1497	.1497	.006154	.000002
313.15	.2	.2	.007429	.000002
313.15	.2501	.2501	.007793	.000002
313.15	.2996	.2996	.007597	.000002
313.15	.3507	.3507	.007071	.000002
313.15	.3995	.3995	.006352	.000002
313.15	.4497	.4497	.005633	.000002
313.15	.5	.5	.005066	.000002
323.15	0	0	.000547	.000002
323.15	.0502	.0502	.001565	.000002
323.15	.0999	.0999	.002727	.000002
323.15	.1497	.1497	.004197	.000002
323.15	.2	.2	.004985	.000002
323.15	.2501	.2501	.005232	.000002
323.15	.2996	.2996	.005218	.000002
323.15	.3507	.3507	.004882	.000002
323.15	.3995	.3995	.004502	.000002
323.15	.4497	.4497	.004037	.000002
323.15	.5	.5	.003517	.000002

System: N,N-dimethyl-1,2-diaminoethane + 2-aminoethanol + water; phases: Liquid, Gas
Property: Surface tension liquid-gas, N/m (Liquid); method: wilhelmi plate
Temperature, K	Mole fraction of N,N-dimethyl-1,2-diaminoethane	Mole fraction of 2-aminoethanol	Surface tension liquid-gas, N/m	uncertainty
293.15	0	0	.0726	.0003
293.15	.0502	.0502	.0467	.0003
293.15	.0999	.0999	.0421	.0003
293.15	.1497	.1497	.039	.0003
293.15	.2	.2	.0368	.0003
293.15	.2501	.2501	.0352	.0003
293.15	.2996	.2996	.0345	.0003
293.15	.3507	.3507	.0337	.0003
293.15	.3995	.3995	.0331	.0003
293.15	.4497	.4497	.0326	.0003
293.15	.5	.5	.0324	.0003
303.15	0	0	.0711	.0003
303.15	.0502	.0502	.0457	.0003
303.15	.0999	.0999	.0411	.0003
303.15	.1497	.1497	.0381	.0003
303.15	.2	.2	.0359	.0003
303.15	.2501	.2501	.0345	.0003
303.15	.2996	.2996	.0339	.0003
303.15	.3507	.3507	.0329	.0003
303.15	.3995	.3995	.0323	.0003
303.15	.4497	.4497	.0318	.0003
303.15	.5	.5	.0316	.0003
313.15	0	0	.0692	.0003
313.15	.0502	.0502	.0447	.0003
313.15	.0999	.0999	.0399	.0003
313.15	.1497	.1497	.0369	.0003
313.15	.2	.2	.0351	.0003
313.15	.2501	.2501	.0338	.0003
313.15	.2996	.2996	.0332	.0003
313.15	.3507	.3507	.0323	.0003
313.15	.3995	.3995	.0316	.0003
313.15	.4497	.4497	.0311	.0003
313.15	.5	.5	.0309	.0003
323.15	0	0	.0677	.0003
323.15	.0502	.0502	.0436	.0003
323.15	.0999	.0999	.039	.0003
323.15	.1497	.1497	.0361	.0003
323.15	.2	.2	.0342	.0003
323.15	.2501	.2501	.0332	.0003
323.15	.2996	.2996	.0326	.0003
323.15	.3507	.3507	.0316	.0003
323.15	.3995	.3995	.031	.0003
323.15	.4497	.4497	.0305	.0003
323.15	.5	.5	.0303	.0003

System: N,N-dimethyl-1,2-diaminoethane + 2-aminoethanol; phases: Liquid
Property: Viscosity, Pa*s (Liquid); method: Capillary tube (Ostwald; Ubbelohde) method
Temperature, K	Mole fraction of N,N-dimethyl-1,2-diaminoethane	Pressure, kPa	Viscosity, Pa*s	uncertainty
293.15	.5	100	.010739	.000002
303.15	.5	100	.007169	.000002
313.15	.5	100	.005066	.000002
323.15	.5	100	.003517	.000002

System: N,N-dimethyl-1,2-diaminoethane + 2-aminoethanol; phases: Liquid, Gas
Property: Surface tension liquid-gas, N/m (Liquid); method: wilhelmi plate
Temperature, K	Mole fraction of N,N-dimethyl-1,2-diaminoethane	Surface tension liquid-gas, N/m	uncertainty
293.15	.5	.0324	.0003
303.15	.5	.0316	.0003
313.15	.5	.0309	.0003
323.15	.5	.0303	.0003

System: N,N-dimethyl-1,2-diaminoethane + 2-aminoethanol; phases: Liquid
Property: Mass density, kg/m3 (Liquid); method: Vibrating tube method
Temperature, K	Mole fraction of N,N-dimethyl-1,2-diaminoethane	Pressure, kPa	Mass density, kg/m3	uncertainty
293.15	.5	100	941	2
303.15	.5	100	932	2
313.15	.5	100	924	2
323.15	.5	100	916	2

System: N,N-dimethyl-1,2-diaminoethane + 2-aminoethanol; phases: Liquid
Fixed: Frequency, MHz = 3
Property: Speed of sound, m/s (Liquid); method: Sing-around technique in a fixed-path interferometer
Temperature, K	Mole fraction of N,N-dimethyl-1,2-diaminoethane	Pressure, kPa	Speed of sound, m/s	uncertainty
293.15	.5	100	1498.1	.7
303.15	.5	100	1463.7	.7
313.15	.5	100	1428.9	.7
323.15	.5	100	1394.1	.7
