Measured thermophysical data. Glycerol-Based Deep Eutectic Solvents as Extractants for the Separation of MEK and Ethanol via Liquid Liquid Extraction
Source: J. Chem. Eng. Data, 2016, 10.1021/acs.jced.5b00717
Compound 1: ethanol, C2H6O, purity 99.5%
Compound 2: choline chloride, C5H14ClNO, purity 98%
Compound 3: tetramethylammonium chloride, C4H12ClN, purity 98%
Compound 4: glycerol, C3H8O3, purity 99%

System: glycerol + choline chloride; phases: Liquid
Fixed: Pressure, kPa = 101
Property: Mass density, kg/m3 (Liquid); method: Vibrating tube method
Amount ratio of solute to solvent of glycerol	Temperature, K	Mass density, kg/m3	uncertainty
4	293.15	1217	2.434
4	298.15	1214	2.428
4	303.15	1211	2.422
4	308.15	1208	2.416
4	313.15	1205	2.41
4	318.15	1202	2.404
4	323.15	1200	2.4
2	293.15	1194	2.388
2	298.15	1191	2.382
2	303.15	1188	2.376
2	308.15	1185	2.37
2	313.15	1183	2.366
2	318.15	1180	2.36
2	323.15	1177	2.354

System: glycerol + choline chloride; phases: Liquid
Fixed: Pressure, kPa = 101
Property: Viscosity, Pa*s (Liquid); method: rotating cylinders
Amount ratio of solute to solvent of glycerol	Temperature, K	Viscosity, Pa*s	uncertainty
4	293.15	.5782	.00265972
4	298.15	.4003	.00184138
4	303.15	.2834	.00130364
4	308.15	.2051	.00094346
4	313.15	.1517	.00069782
4	318.15	.113	.0005198
4	323.15	.08796	.000404616
2	293.15	.5146	.00236716
2	298.15	.3657	.00168222
2	303.15	.2657	.00122222
2	308.15	.197	.0009062
2	313.15	.1489	.00068494
2	318.15	.1147	.00052762
2	323.15	.08981	.000413126

System: glycerol + tetramethylammonium chloride; phases: Liquid
Fixed: Pressure, kPa = 101
Property: Mass density, kg/m3 (Liquid); method: Vibrating tube method
Mass ratio of solute to solvent of glycerol	Temperature, K	Mass density, kg/m3	uncertainty
4	293.15	1180	2.36
4	298.15	1177	2.354
4	303.15	1174	2.348
4	308.15	1171	2.342
4	313.15	1168	2.336
4	318.15	1166	2.332
4	323.15	1163	2.326
2	293.15	1158	2.316
2	298.15	1155	2.31
2	303.15	1152	2.304
2	308.15	1149	2.298
2	313.15	1147	2.294
2	318.15	1144	2.288
2	323.15	1141	2.282

System: glycerol + tetramethylammonium chloride; phases: Liquid
Fixed: Pressure, kPa = 101
Property: Viscosity, Pa*s (Liquid); method: rotating cylinders
Amount ratio of solute to solvent of glycerol	Temperature, K	Viscosity, Pa*s	uncertainty
4	293.15	.5575	.0025645
4	298.15	.3847	.00176962
4	303.15	.272	.0012512
4	308.15	.197	.0009062
4	313.15	.1458	.00067068
4	318.15	.1102	.00050692
4	323.15	.0848	.00039008
2	293.15	.5818	.00267628
2	298.15	.4069	.00187174
2	303.15	.2905	.0013363
2	308.15	.2124	.00097704
2	313.15	.1585	.0007291
2	318.15	.1207	.00055522
2	323.15	.09357	.000430422
