Measured thermophysical data. Design of Equilibrium Cells for Phase Equilibria and PVT Measurements in Large Ranges of Temperatures and Pressures. I. Vapor Liquid Liquid Equilibria
Source: J. Chem. Eng. Data, 2016, 10.1021/acs.jced.6b00126
Compound 1: water, H2O, purity 99.995%
Compound 2: propane, C3H8, purity 99.95%
Compound 3: cyclohexane, C6H12, purity 99.9%
Compound 4: 2-methylfuran, C5H6O, purity 99.5%

System: propane + water; phases: Liquid, Gas
Property: Mole fraction of propane (Liquid); method: Chromatography
Temperature, K	Pressure, kPa	Mole fraction of propane	uncertainty
323.13	1548	.000182	
323.26	1208	.000152	
323.19	806	.000111	
323.41	475	.000072	

System: cyclohexane + water; phases: Liquid mixture 1, Liquid mixture 2
Property: Mole fraction of cyclohexane (Liquid mixture 1); method: Chromatography
Temperature, K	Pressure, kPa	Mole fraction of cyclohexane	uncertainty
422.57	1069	.000121	
498.57	4800	.000834	
473.98	3097	.000403	
447.85	1861	.000209	
397.9	590	.0000617	

System: cyclohexane + water; phases: Liquid mixture 2, Liquid mixture 1
Property: Mole fraction of water (Liquid mixture 2); method: Chromatography
Temperature, K	Pressure, kPa	Mole fraction of water	uncertainty
423.14	1069	.0186	
449.05	1906	.0399	
473.31	3080	.0719	
498.75	4815	.126	

System: 2-methylfuran + water; phases: Liquid mixture 1, Liquid mixture 2
Property: Mole fraction of 2-methylfuran (Liquid mixture 1); method: Chromatography
Temperature, K	Pressure, kPa	Mole fraction of 2-methylfuran	uncertainty
298.84	589	.000737	
312.83	633	.000718	
333.41	578	.000793	
353.36	704	.00101	
374.65	408	.00122	
393.65	647	.00191	
413.35	1099	.00247	
