Measured thermophysical data. Solubility, Density, and Metastable Zone Width of Pyridoxine Hydrochloride in Water and Ethanol Solvent Mixtures
Source: J. Chem. Eng. Data, 2016, 10.1021/acs.jced.5b00552
Compound 1: pyridoxine hydrochloride, C8H12ClNO3, purity 98%
Compound 2: water, H2O
Compound 3: ethanol, C2H6O, purity 99.5%

System: pyridoxine hydrochloride + ethanol + water; phases: Liquid, Crystal
Fixed: Pressure, kPa = 100
Property: Mole fraction of pyridoxine hydrochloride (Liquid); method: UV Spectrometry
Solvent: Mole fraction of ethanol	Temperature, K	Mole fraction of pyridoxine hydrochloride	uncertainty
0	278.15	.01066	.000533
0	283.15	.01282	.000641
0	288.15	.0148	.00074
0	293.15	.01626	.000813
0	298.15	.01886	.000943
0	303.15	.02222	.001111
0	308.15	.02522	.001261
0	313.15	.02666	.001333
0	318.15	.02818	.001409
0	323.15	.0329	.001645
.1002	278.15	.00817	.0004085
.1002	283.15	.009196	.0004598
.1002	288.15	.010545	.00052725
.1002	293.15	.012141	.00060705
.1002	298.15	.01425	.0007125
.1002	303.15	.016359	.00081795
.1002	308.15	.018145	.00090725
.1002	313.15	.019988	.0009994
.1002	318.15	.020824	.0010412
.1002	323.15	.021736	.0010868
.2005	278.15	.005512	.0002756
.2005	283.15	.006435	.00032175
.2005	288.15	.007618	.0003809
.2005	293.15	.008788	.0004394
.2005	298.15	.010114	.0005057
.2005	303.15	.011505	.00057525
.2005	308.15	.01287	.0006435
.2005	313.15	.014144	.0007072
.2005	318.15	.015678	.0007839
.2005	323.15	.016783	.00083915
.2998	278.15	.00376	.000188
.2998	283.15	.0044	.00022
.2998	288.15	.00528	.000264
.2998	293.15	.00614	.000307
.2998	298.15	.00778	.000389
.2998	303.15	.00834	.000417
.2998	308.15	.0095	.000475
.2998	313.15	.01083	.0005415
.2998	318.15	.01219	.0006095
.2998	323.15	.01344	.000672
.4005	278.15	.00363	.0001815
.4005	283.15	.00434	.000217
.4005	288.15	.00498	.000249
.4005	293.15	.00576	.000288
.4005	298.15	.00666	.000333
.4005	303.15	.00745	.0003725
.4005	308.15	.00847	.0004235
.4005	313.15	.00931	.0004655
.4005	318.15	.01089	.0005445
.4005	323.15	.01182	.000591
.5011	278.15	.00299	.0001495
.5011	283.15	.00323	.0001615
.5011	288.15	.00364	.000182
.5011	293.15	.00425	.0002125
.5011	298.15	.00484	.000242
.5011	303.15	.00549	.0002745
.5011	308.15	.00595	.0002975
.5011	313.15	.00605	.0003025
.5011	318.15	.00724	.000362
.5011	323.15	.00818	.000409
.6012	278.15	.00179	.0000895
.6012	283.15	.00197	.0000985
.6012	288.15	.00225	.0001125
.6012	293.15	.00246	.000123
.6012	298.15	.00268	.000134
.6012	303.15	.00297	.0001485
.6012	308.15	.00325	.0001625
.6012	313.15	.00354	.000177
.6012	318.15	.00384	.000192
.6012	323.15	.00424	.000212

System: pyridoxine hydrochloride + ethanol + water; phases: Liquid
Fixed: Pressure, kPa = 100
Property: Mass density, kg/m3 (Liquid); method: Vibrating tube method
Temperature, K	Solvent: Mole fraction of ethanol	Mole fraction of pyridoxine hydrochloride	Mass density, kg/m3	uncertainty
293.15	0	.00813	1093.5	3
298.15	0	.00943	1104.7	3
303.15	0	.01111	1111	3
308.15	0	.01261	1120.8	3
313.15	0	.01333	1133.3	3
318.15	0	.01409	1141.5	3
323.15	0	.01645	1154.6	3
293.15	.2005	.00676	845.7	3
298.15	.2005	.00778	848.6	3
303.15	.2005	.00885	852.2	3
308.15	.2005	.0099	862.2	3
313.15	.2005	.01088	872.5	3
318.15	.2005	.01206	881	3
323.15	.2005	.01291	890	3
293.15	.4005	.00576	782.1	3
298.15	.4005	.00666	774.5	3
303.15	.4005	.00745	774.4	3
308.15	.4005	.00847	767	3
313.15	.4005	.00931	766.3	3
318.15	.4005	.01089	764.1	3
323.15	.4005	.01182	764	3
293.15	.6012	.00246	741.7	3
298.15	.6012	.00268	737.5	3
303.15	.6012	.00297	736.2	3
308.15	.6012	.00325	732.6	3
313.15	.6012	.00354	729.9	3
318.15	.6012	.00384	729.2	3
323.15	.6012	.00424	724.8	3

System: pyridoxine hydrochloride + water; phases: Liquid, Crystal
Property: Mole fraction of pyridoxine hydrochloride (Liquid); method: UV Spectrometry
Temperature, K	Pressure, kPa	Mole fraction of pyridoxine hydrochloride	uncertainty
278.15	100	.01066	.000533
283.15	100	.01282	.000641
288.15	100	.0148	.00074
293.15	100	.01626	.000813
298.15	100	.01886	.000943
303.15	100	.02222	.001111
308.15	100	.02522	.001261
313.15	100	.02666	.001333
318.15	100	.02818	.001409
323.15	100	.0329	.001645

System: pyridoxine hydrochloride + water; phases: Liquid
Property: Mass density, kg/m3 (Liquid); method: Vibrating tube method
Temperature, K	Mole fraction of pyridoxine hydrochloride	Pressure, kPa	Mass density, kg/m3	uncertainty
293.15	.01626	100	1093.5	3
298.15	.01886	100	1104.7	3
303.15	.02222	100	1111	3
308.15	.02522	100	1120.8	3
313.15	.02666	100	1133.3	3
318.15	.02818	100	1141.5	3
323.15	.0329	100	1154.6	3
