Measured thermophysical data. Evaluation of Diethyl Carbonate and Methyl Isobutyl Ketone as Entrainers for the Separation of 1-Hexene and n-Hexane
Source: J. Chem. Eng. Data, 2017, 10.1021/acs.jced.6b00905
Compound 1: n-hexane, C6H14, purity 99.50%
Compound 2: 1-hexene, C6H12, purity 99.00%
Compound 3: diethyl carbonate, C5H10O3, purity 99.00%
Compound 4: methyl isobutyl ketone, C6H12O, purity 99.50%

System: n-hexane; phases: Liquid
Fixed: Pressure, kPa = 101.325
Property: Mass density, kg/m3 (Liquid); method: Vibrating tube method
Temperature, K	Mass density, kg/m3	uncertainty
298.15	655.1	.5

System: n-hexane; phases: Liquid, Gas
Property: Normal boiling temperature, K (Liquid); method: Ebulliometric method (Recirculating still)
Normal boiling temperature, K	uncertainty
341.79	.02

System: 1-hexene; phases: Liquid
Fixed: Pressure, kPa = 101.325
Property: Mass density, kg/m3 (Liquid); method: Vibrating tube method
Temperature, K	Mass density, kg/m3	uncertainty
298.15	669.34	.5

System: 1-hexene; phases: Liquid, Gas
Property: Normal boiling temperature, K (Liquid); method: Ebulliometric method (Recirculating still)
Normal boiling temperature, K	uncertainty
336.48	.02

System: diethyl carbonate; phases: Liquid
Fixed: Pressure, kPa = 101.325
Property: Mass density, kg/m3 (Liquid); method: Vibrating tube method
Temperature, K	Mass density, kg/m3	uncertainty
298.15	969.08	.5

System: diethyl carbonate; phases: Liquid, Gas
Property: Normal boiling temperature, K (Liquid); method: Ebulliometric method (Recirculating still)
Normal boiling temperature, K	uncertainty
399.27	.02

System: methyl isobutyl ketone; phases: Liquid
Fixed: Pressure, kPa = 101.325
Property: Mass density, kg/m3 (Liquid); method: Vibrating tube method
Temperature, K	Mass density, kg/m3	uncertainty
298.15	796.03	.5

System: methyl isobutyl ketone; phases: Liquid, Gas
Property: Normal boiling temperature, K (Liquid); method: Ebulliometric method (Recirculating still)
Normal boiling temperature, K	uncertainty
388.78	.02

System: diethyl carbonate + 1-hexene; phases: Liquid, Gas
Fixed: Pressure, kPa = 100
Property: Boiling temperature at pressure P, K (Liquid); method: Ebulliometric method (Recirculating still)
Mole fraction of 1-hexene	Boiling temperature at pressure P, K	uncertainty
.022	393.64	
.037	390.6	
.072	384.58	
.101	379.68	
.132	376.08	
.171	371.13	
.223	365.85	
.289	360.84	
.339	357.41	
.394	354.29	
.457	351.69	
.513	349.56	
.562	347.65	
.615	346.1	
.672	344.39	
.727	342.91	
.776	341.73	
.827	340.47	
.885	339.05	
.945	337.61	
.979	336.87	

System: diethyl carbonate + 1-hexene; phases: Gas, Liquid
Fixed: Pressure, kPa = 100
Property: Mole fraction of 1-hexene (Gas); method: Chromatography
Mole fraction of 1-hexene	Mole fraction of 1-hexene	uncertainty
.022	.155	
.037	.25	
.072	.404	
.101	.494	
.132	.572	
.171	.648	
.223	.719	
.289	.785	
.339	.821	
.394	.853	
.457	.88	
.513	.9	
.562	.915	
.615	.925	
.672	.937	
.727	.945	
.776	.955	
.827	.966	
.885	.975	
.945	.988	
.979	.995	

System: diethyl carbonate + n-hexane; phases: Liquid, Gas
Fixed: Pressure, kPa = 100
Property: Boiling temperature at pressure P, K (Liquid); method: Ebulliometric method (Recirculating still)
Mole fraction of n-hexane	Boiling temperature at pressure P, K	uncertainty
.015	394.53	
.036	389.82	
.074	382.53	
.13	373.85	
.181	368.83	
.234	364.08	
.281	360.94	
.326	358.4	
.379	356.03	
.429	354.17	
.483	352.3	
.542	350.65	
.594	349.42	
.663	347.87	
.713	346.86	
.772	345.75	
.821	344.82	
.869	343.88	
.914	343.05	
.946	342.4	
.983	341.65	

System: diethyl carbonate + n-hexane; phases: Gas, Liquid
Fixed: Pressure, kPa = 100
Property: Mole fraction of n-hexane (Gas); method: Chromatography
Mole fraction of n-hexane	Mole fraction of n-hexane	uncertainty
.015	.129	
.036	.264	
.074	.441	
.13	.596	
.181	.681	
.234	.746	
.281	.781	
.326	.81	
.379	.833	
.429	.857	
.483	.868	
.542	.885	
.594	.898	
.663	.915	
.713	.928	
.772	.935	
.821	.946	
.869	.957	
.914	.969	
.946	.979	
.983	.993	

System: methyl isobutyl ketone + 1-hexene; phases: Liquid, Gas
Fixed: Pressure, kPa = 100
Property: Boiling temperature at pressure P, K (Liquid); method: Ebulliometric method (Recirculating still)
Mole fraction of 1-hexene	Boiling temperature at pressure P, K	uncertainty
.029	384.11	
.064	379.23	
.102	374.26	
.137	370.43	
.179	366.44	
.234	362.29	
.283	358.87	
.324	356.54	
.367	354.3	
.429	351.35	
.48	349.39	
.532	347.62	
.587	345.79	
.644	344.59	
.692	343.05	
.746	341.8	
.801	340.6	
.853	339.51	
.909	338.35	
.959	337.33	
.982	336.86	

System: methyl isobutyl ketone + 1-hexene; phases: Gas, Liquid
Fixed: Pressure, kPa = 100
Property: Mole fraction of 1-hexene (Gas); method: Chromatography
Mole fraction of 1-hexene	Mole fraction of 1-hexene	uncertainty
.029	.138	
.064	.281	
.102	.414	
.137	.506	
.179	.584	
.234	.664	
.283	.713	
.324	.75	
.367	.782	
.429	.825	
.48	.851	
.532	.862	
.587	.885	
.644	.897	
.692	.915	
.746	.926	
.801	.944	
.853	.957	
.909	.973	
.959	.989	
.982	.997	

System: methyl isobutyl ketone + n-hexane; phases: Liquid, Gas
Fixed: Pressure, kPa = 100
Property: Boiling temperature at pressure P, K (Liquid); method: Ebulliometric method (Recirculating still)
Mole fraction of n-hexane	Boiling temperature at pressure P, K	uncertainty
.022	384.37	
.045	381.08	
.074	377.27	
.108	373.34	
.137	370.09	
.172	366.9	
.23	362.79	
.3	358.6	
.345	356.65	
.404	354.2	
.453	352.46	
.503	350.92	
.564	349.31	
.622	347.95	
.676	346.79	
.73	345.83	
.786	344.85	
.842	343.87	
.894	343.03	
.951	342.17	
.98	341.75	

System: methyl isobutyl ketone + n-hexane; phases: Gas, Liquid
Fixed: Pressure, kPa = 100
Property: Mole fraction of n-hexane (Gas); method: Chromatography
Mole fraction of n-hexane	Mole fraction of n-hexane	uncertainty
.022	.119	
.045	.228	
.074	.34	
.108	.438	
.137	.508	
.172	.558	
.23	.64	
.3	.721	
.345	.757	
.404	.787	
.453	.816	
.503	.824	
.564	.848	
.622	.86	
.676	.879	
.73	.897	
.786	.914	
.842	.931	
.894	.95	
.951	.974	
.98	.989	

System: diethyl carbonate + n-hexane + 1-hexene; phases: Liquid, Gas
Fixed: Pressure, kPa = 100
Property: Mole fraction of n-hexane (Liquid); method: Chromatography
Property: Mole fraction of 1-hexene (Gas); method: Chromatography
Property: Mole fraction of n-hexane (Gas); method: Chromatography
Temperature, K	Mole fraction of 1-hexene	Mole fraction of n-hexane	uncertainty	Mole fraction of 1-hexene	uncertainty	Mole fraction of n-hexane	uncertainty
384.03	.043	.04	.005	.179	.005	.192	.005
352.92	.172	.262	.005	.333	.005	.53	.005
358.86	.056	.265	.005	.12	.005	.699	.005
352.46	.346	.088	.005	.672	.005	.194	.005
352.49	.097	.362	.005	.178	.005	.69	.005
349.49	.184	.358	.005	.302	.005	.589	.005
346.52	.289	.368	.005	.405	.005	.517	.005
350.73	.423	.048	.005	.781	.005	.106	.005
343.82	.377	.385	.005	.482	.005	.461	.005
339.83	.535	.391	.005	.598	.005	.382	.005
341.54	.377	.498	.005	.443	.005	.522	.005
345.58	.46	.187	.005	.667	.005	.259	.005
344.28	.288	.469	.005	.377	.005	.564	.005
347.04	.196	.459	.005	.271	.005	.642	.005
351.2	.062	.458	.005	.092	.005	.792	.005
356.88	.256	.087	.005	.605	.005	.224	.005
347.9	.086	.552	.005	.128	.005	.783	.005
345.1	.197	.553	.005	.254	.005	.683	.005
341.17	.328	.585	.005	.381	.005	.592	.005
342.74	.192	.68	.005	.235	.005	.728	.005
344.27	.634	.048	.005	.861	.005	.073	.005
346.14	.056	.678	.005	.082	.005	.849	.005
341.35	.624	.199	.005	.74	.005	.219	.005
343.6	.098	.763	.005	.117	.005	.835	.005
342.37	.046	.886	.005	.056	.005	.916	.005
337.93	.887	.053	.005	.935	.005	.052	.005
339.48	.789	.091	.005	.877	.005	.095	.005
361.18	.191	.086	.005	.506	.005	.259	.005
342.5	.673	.086	.005	.845	.005	.106	.005
345.44	.555	.086	.005	.796	.005	.129	.005
348.9	.437	.087	.005	.734	.005	.161	.005
368.72	.102	.09	.005	.334	.005	.337	.005
363.88	.091	.152	.005	.259	.005	.482	.005
363.08	.218	.032	.005	.638	.005	.124	.005
357.35	.178	.16	.005	.41	.005	.403	.005
352.13	.265	.179	.005	.508	.005	.36	.005
348.3	.365	.188	.005	.593	.005	.308	.005
339.35	.717	.19	.005	.782	.005	.186	.005
340.78	.57	.3	.005	.653	.005	.312	.005
343.22	.475	.293	.005	.601	.005	.346	.005
346.23	.377	.278	.005	.528	.005	.387	.005
349.51	.261	.268	.005	.44	.005	.453	.005

System: methyl isobutyl ketone + n-hexane + 1-hexene; phases: Liquid, Gas
Fixed: Pressure, kPa = 100
Property: Mole fraction of n-hexane (Liquid); method: Chromatography
Property: Mole fraction of 1-hexene (Gas); method: Chromatography
Property: Mole fraction of n-hexane (Gas); method: Chromatography
Temperature, K	Mole fraction of 1-hexene	Mole fraction of n-hexane	uncertainty	Mole fraction of 1-hexene	uncertainty	Mole fraction of n-hexane	uncertainty
380.48	.047	.047	.005	.15	.005	.126	.005
363.31	.096	.388	.005	.167	.005	.575	.005
366.16	.096	.29	.005	.189	.005	.484	.005
369.59	.099	.194	.005	.221	.005	.366	.005
373.73	.098	.098	.005	.255	.005	.216	.005
368.34	.196	.1	.005	.418	.005	.181	.005
365.07	.199	.198	.005	.37	.005	.317	.005
362.75	.198	.291	.005	.328	.005	.417	.005
360.34	.197	.4	.005	.29	.005	.513	.005
358.41	.203	.507	.005	.265	.005	.588	.005
356.34	.204	.663	.005	.234	.005	.686	.005
370.24	.048	.242	.005	.112	.005	.467	.005
355.36	.202	.755	.005	.219	.005	.75	.005
355.55	.299	.604	.005	.331	.005	.609	.005
356.82	.296	.498	.005	.356	.005	.535	.005
358.27	.296	.397	.005	.388	.005	.456	.005
359.95	.295	.29	.005	.429	.005	.369	.005
361.99	.297	.195	.005	.478	.005	.269	.005
365.98	.284	.045	.005	.569	.005	.078	.005
361.18	.394	.1	.005	.62	.005	.136	.005
359.13	.401	.199	.005	.563	.005	.244	.005
357.59	.401	.303	.005	.508	.005	.34	.005
363.61	.049	.44	.005	.086	.005	.656	.005
356.31	.403	.402	.005	.47	.005	.422	.005
354.81	.398	.55	.005	.424	.005	.541	.005
355.05	.499	.398	.005	.54	.005	.396	.005
356.11	.497	.298	.005	.577	.005	.312	.005
357.33	.493	.204	.005	.62	.005	.23	.005
359.47	.498	.055	.005	.717	.005	.07	.005
356.82	.608	.101	.005	.744	.005	.111	.005
355.72	.599	.203	.005	.684	.005	.209	.005
354.36	.6	.35	.005	.625	.005	.34	.005
354.54	.7	.199	.005	.74	.005	.196	.005
359.36	.049	.647	.005	.069	.005	.779	.005
356.18	.699	.052	.005	.811	.005	.056	.005
354.29	.8	.104	.005	.835	.005	.102	.005
353.82	.899	.053	.005	.914	.005	.051	.005
355.89	.05	.901	.005	.056	.005	.911	.005
356.27	.102	.799	.005	.117	.005	.822	.005
357.59	.101	.695	.005	.126	.005	.765	.005
359.19	.099	.591	.005	.137	.005	.708	.005
361.03	.099	.49	.005	.15	.005	.646	.005
