Measured thermophysical data. Vapor Pressure and Its Temperature Dependence of 28 Organic Compounds: Cyclic Amines, Cyclic Ethers, and Cyclic and Open Chain Secondary Alcohols
Source: J. Chem. Eng. Data, 2017, 10.1021/acs.jced.6b00576
Compound 1: aziridine, C2H5N, purity 98%
Compound 2: azetidine, C3H7N
Compound 3: pyrrolidine, C4H9N, purity 99%
Compound 4: piperidine, C5H11N, purity 99%
Compound 5: hexamethyleneimine, C6H13N, purity 98%
Compound 6: heptamethyleneimine, C7H15N, purity 98%
Compound 7: N-methylpyrrolidine, C5H11N, purity 99%
Compound 8: N-methylpiperidine, C6H13N, purity 98%
Compound 9: morpholine, C4H9NO, purity 99%
Compound 10: N-methylmorpholine, C5H11NO, purity 99%
Compound 11: piperazine, C4H10N2, purity 99%
Compound 12: N-methylpiperazine, C5H12N2, purity 99%
Compound 13: N,N'-dimethylpiperazine, C6H14N2, purity 98%
Compound 14: 2-methoxyethylamine, C3H9NO, purity 98%
Compound 15: 3-methoxypropylamine, C4H11NO, purity 99%
Compound 16: tetrahydrofuran, C4H8O, purity 99%
Compound 17: 2-methyltetrahydrofuran, C5H10O, purity 99%
Compound 18: tetrahydropyran, C5H10O, purity 99%
Compound 19: 1,3-dioxolan, C3H6O2, purity 99%
Compound 20: 1,4-dioxane, C4H8O2, purity 99.5%
Compound 21: 2-butanol, C4H10O, purity 99%
Compound 22: 3-pentanol, C5H12O, purity 98%
Compound 23: 3-hexanol, C6H14O, purity 97%
Compound 24: 4-heptanol, C7H16O, purity 99%
Compound 25: cyclopentanol, C5H10O, purity 99%
Compound 26: cyclohexanol, C6H12O, purity 99%
Compound 27: cycloheptanol, C7H14O, purity 97%
Compound 28: cis-2,5-dimethyltetrahydrofuran, C6H12O, purity 98%
Compound 29: trans-2,5-dimethyltetrahydrofuran, C6H12O, purity 98%

System: aziridine; phases: Liquid, Gas
Property: Vapor or sublimation pressure, kPa (Liquid); method: Diaphragm manometer
Temperature, K	Vapor or sublimation pressure, kPa	uncertainty
274.52	8.547	
281.7	12.786	
284.42	14.681	
287.12	16.883	
288.29	17.94	
289.96	19.519	
293.28	22.987	
295.5	25.567	
298.1	28.822	
303.28	36.472	

System: azetidine; phases: Liquid, Gas
Property: Vapor or sublimation pressure, kPa (Liquid); method: Diaphragm manometer
Temperature, K	Vapor or sublimation pressure, kPa	uncertainty
273.18	6.509	
277.55	8.217	
280.44	9.688	
282.64	10.893	
288.04	14.177	
288.04	14.22	
293.56	18.883	
298.08	23.36	
303.53	29.725	

System: pyrrolidine; phases: Liquid, Gas
Property: Vapor or sublimation pressure, kPa (Liquid); method: Diaphragm manometer
Temperature, K	Vapor or sublimation pressure, kPa	uncertainty
273.16	2.037	
283.73	3.859	
288.23	4.978	
293.1	6.496	
293.25	6.523	
298.15	8.46	
303.25	10.87	
307.93	13.588	
313.46	17.54	

System: piperidine; phases: Liquid, Gas
Property: Vapor or sublimation pressure, kPa (Liquid); method: Diaphragm manometer
Temperature, K	Vapor or sublimation pressure, kPa	uncertainty
283.64	1.749	
288.07	2.292	
293.12	3.061	
293.55	3.127	
293.59	3.135	
297.05	3.792	
300.97	4.678	
302.66	5.064	
305.98	6.011	
306.01	6.054	
312.85	8.337	
318.34	10.731	

System: hexamethyleneimine; phases: Liquid, Gas
Property: Vapor or sublimation pressure, kPa (Liquid); method: Diaphragm manometer
Temperature, K	Vapor or sublimation pressure, kPa	uncertainty
273.13	.205	
279.54	.326	
283.73	.433	
283.74	.435	
289.07	.619	
293.28	.807	
298.24	1.092	
302.35	1.407	
307.85	1.904	
313.17	2.534	
313.17	2.538	
313.17	2.515	

System: heptamethyleneimine; phases: Liquid, Gas
Property: Vapor or sublimation pressure, kPa (Liquid); method: Diaphragm manometer
Temperature, K	Vapor or sublimation pressure, kPa	uncertainty
273.22	.074	
279.4	.117	
284.11	.162	
287.87	.211	
293.35	.302	
297.82	.404	
302.95	.559	
308.09	.751	
313.5	1.014	

System: N-methylpyrrolidine; phases: Liquid, Gas
Property: Vapor or sublimation pressure, kPa (Liquid); method: Diaphragm manometer
Temperature, K	Vapor or sublimation pressure, kPa	uncertainty
273.17	3.898	
283.23	6.605	
288.56	8.619	
293.36	10.82	
295.08	11.798	
298.19	13.468	
300.74	15.288	
302.94	16.795	
307.88	20.801	
311.12	23.694	
314.75	27.461	

System: N-methylpiperidine; phases: Liquid, Gas
Property: Vapor or sublimation pressure, kPa (Liquid); method: Diaphragm manometer
Temperature, K	Vapor or sublimation pressure, kPa	uncertainty
273.18	1.235	
282.9	2.227	
287.85	2.897	
292.7	3.754	
293.51	3.916	
298.15	4.957	
300.35	5.491	
302.86	6.163	
308.47	7.952	
313.47	9.863	

System: morpholine; phases: Liquid, Gas
Property: Vapor or sublimation pressure, kPa (Liquid); method: Diaphragm manometer
Temperature, K	Vapor or sublimation pressure, kPa	uncertainty
273.27	.25	
278.81	.374	
283.89	.533	
288.37	.718	
292.61	.944	
297.58	1.285	
298.21	1.332	
302.56	1.725	
307.58	2.293	
312.01	2.923	
318.26	4.068	

System: N-methylmorpholine; phases: Liquid, Gas
Property: Vapor or sublimation pressure, kPa (Liquid); method: Diaphragm manometer
Temperature, K	Vapor or sublimation pressure, kPa	uncertainty
276.28	.834	
280.8	1.11	
286.43	1.556	
290.03	1.91	
290.13	1.931	
290.15	1.934	
290.2	1.935	
290.9	2.015	
291.2	2.051	
296.45	2.744	
298.26	3.021	
298.83	3.121	
298.91	3.121	
302.04	3.691	
307.4	4.832	
312.46	6.201	
312.48	6.185	
318.64	8.26	
318.64	8.208	

System: piperazine; phases: Crystal, Gas
Property: Vapor or sublimation pressure, kPa (Crystal); method: Diaphragm manometer
Temperature, K	Vapor or sublimation pressure, kPa	uncertainty
279.48	.0065	
286.78	.0144	
286.85	.0148	
292.58	.0267	
299.16	.0515	
304.27	.0837	
308.37	.1225	
313.57	.196	
318.25	.297	
318.69	.307	
321.12	.374	

System: N-methylpiperazine; phases: Liquid, Gas
Property: Vapor or sublimation pressure, kPa (Liquid); method: Diaphragm manometer
Temperature, K	Vapor or sublimation pressure, kPa	uncertainty
274.39	.18	
274.99	.189	
276.72	.215	
278.91	.253	
281.27	.3	
284.39	.374	
287.23	.456	
290.75	.578	
293.21	.678	
298.15	.927	
298.2	.931	
299.32	.997	
302.86	1.238	
304.25	1.338	
307.75	1.649	
307.83	1.653	
313.21	2.229	
315.32	2.504	
317.91	2.879	
319.47	3.124	

System: N,N'-dimethylpiperazine; phases: Liquid, Gas
Property: Vapor or sublimation pressure, kPa (Liquid); method: Diaphragm manometer
Temperature, K	Vapor or sublimation pressure, kPa	uncertainty
276.29	.421	
281.23	.582	
286.01	.786	
292.03	1.13	
293.52	1.233	
298.16	1.599	
300.21	1.792	
302.54	2.023	
303.82	2.181	
304.32	2.238	
308.08	2.704	
310.37	3.062	
313.79	3.598	
319.53	4.754	

System: 2-methoxyethylamine; phases: Liquid, Gas
Property: Vapor or sublimation pressure, kPa (Liquid); method: Diaphragm manometer
Temperature, K	Vapor or sublimation pressure, kPa	uncertainty
275.16	1.809	
280.47	2.512	
286.36	3.55	
290.46	4.478	
294.84	5.678	
298.14	6.755	
298.64	6.939	
302.99	8.665	
307.98	11.058	
312.65	13.769	
317.6	17.251	

System: 3-methoxypropylamine; phases: Liquid, Gas
Property: Vapor or sublimation pressure, kPa (Liquid); method: Diaphragm manometer
Temperature, K	Vapor or sublimation pressure, kPa	uncertainty
278.95	.55	
282.42	.699	
292.94	1.392	
295.29	1.607	
300.81	2.232	
298.17	1.909	
304.54	2.766	
307.79	3.314	
314.16	4.662	
317.57	5.56	
287.91	1.008	
297.33	1.818	
298.13	1.907	

System: tetrahydrofuran; phases: Liquid, Gas
Property: Vapor or sublimation pressure, kPa (Liquid); method: Diaphragm manometer
Temperature, K	Vapor or sublimation pressure, kPa	uncertainty
273.6	6.588	
278.3	8.384	
285.02	11.815	
286.97	13.02	
289.75	14.892	
292.65	16.995	
297.57	21.274	
302.75	26.671	
307.83	32.882	

System: 2-methyltetrahydrofuran; phases: Liquid, Gas
Property: Vapor or sublimation pressure, kPa (Liquid); method: Diaphragm manometer
Temperature, K	Vapor or sublimation pressure, kPa	uncertainty
279	4.928	
279.01	4.928	
281.41	5.602	
281.44	5.631	
284.34	6.568	
287.83	7.828	
287.84	7.851	
291.17	9.255	
295.94	11.649	
298.94	13.37	
302.62	15.762	
306.05	18.28	
310.11	21.688	

System: tetrahydropyran; phases: Liquid, Gas
Property: Vapor or sublimation pressure, kPa (Liquid); method: Diaphragm manometer
Temperature, K	Vapor or sublimation pressure, kPa	uncertainty
273.74	2.697	
278.41	3.489	
284.9	4.98	
291.32	6.897	
296.98	8.993	
301.11	10.965	
305.4	13.15	
309.21	15.689	
313.73	18.928	

System: 1,3-dioxolan; phases: Liquid, Gas
Property: Vapor or sublimation pressure, kPa (Liquid); method: Diaphragm manometer
Temperature, K	Vapor or sublimation pressure, kPa	uncertainty
280.46	5.422	
282.96	6.201	
285.51	7.142	
287.44	7.914	
293.48	10.776	
298.12	13.589	
301.25	15.693	
303	17.048	
305.57	19.147	
309.76	23.076	
313.16	26.726	
316.81	31.177	

System: 1,4-dioxane; phases: Liquid, Gas
Property: Vapor or sublimation pressure, kPa (Liquid); method: Diaphragm manometer
Temperature, K	Vapor or sublimation pressure, kPa	uncertainty
285.11	2.376	
288.66	2.917	
292.45	3.597	
296.56	4.496	
296.57	4.495	
299.81	5.339	
302.92	6.208	
306.93	7.58	
306.94	7.572	
311.04	9.192	
313.38	10.285	
313.38	10.314	

System: 2-butanol; phases: Liquid, Gas
Property: Vapor or sublimation pressure, kPa (Liquid); method: Diaphragm manometer
Temperature, K	Vapor or sublimation pressure, kPa	uncertainty
280.73	.662	
281.05	.675	
284.48	.878	
287.91	1.136	
292.16	1.542	
292.26	1.552	
294.45	1.812	
298.09	2.347	
301.02	2.847	
303.9	3.412	
308.15	4.467	
311.6	5.515	
314.41	6.551	

System: 3-pentanol; phases: Liquid, Gas
Property: Vapor or sublimation pressure, kPa (Liquid); method: Diaphragm manometer
Temperature, K	Vapor or sublimation pressure, kPa	uncertainty
279.05	.234	
282.62	.315	
287.46	.467	
293.45	.739	
293.92	.768	
298.17	1.041	
302.31	1.4	
307.87	2.049	
312.86	2.831	
318.42	4.011	

System: 3-hexanol; phases: Liquid, Gas
Property: Vapor or sublimation pressure, kPa (Liquid); method: Diaphragm manometer
Temperature, K	Vapor or sublimation pressure, kPa	uncertainty
280.21	.0808	
288.55	.171	
298.18	.369	
306.58	.687	
311.78	.997	
280.41	.0856	
283.54	.1104	
284.32	.1176	
293.36	.252	
293.48	.256	
297.37	.347	
299.62	.41	
303.49	.551	
307.6	.747	
310.61	.917	
313.79	1.14	
316.48	1.364	

System: 4-heptanol; phases: Liquid, Gas
Property: Vapor or sublimation pressure, kPa (Liquid); method: Diaphragm manometer
Temperature, K	Vapor or sublimation pressure, kPa	uncertainty
282.43	.0309	
282.95	.0311	
283.15	.0325	
288.83	.0555	
291.38	.0704	
292.57	.0799	
293.13	.0829	
295.02	.0976	
297.63	.121	
297.95	.126	
298.17	.128	
302.4	.18	
302.65	.18	
302.91	.192	
303.51	.197	
307.75	.279	
307.77	.28	
313.62	.432	
320.38	.691	
320.38	.701	

System: cyclopentanol; phases: Liquid, Gas
Property: Vapor or sublimation pressure, kPa (Liquid); method: Diaphragm manometer
Temperature, K	Vapor or sublimation pressure, kPa	uncertainty
279.84	.0631	
281.97	.0765	
284.15	.0928	
289.03	.1393	
289.76	.1491	
293.47	.1996	
294.55	.218	
298.19	.289	
298.87	.306	
304.53	.466	
306.93	.554	
311.04	.736	
314.3	.927	

System: cyclohexanol; phases: Crystal, Liquid, Air at 1 atmosphere
Property: Normal melting temperature, K (Crystal); method: Visual observation
Normal melting temperature, K	uncertainty
298.8	.1

System: cyclohexanol; phases: Liquid, Gas
Property: Vapor or sublimation pressure, kPa (Liquid); method: Diaphragm manometer
Temperature, K	Vapor or sublimation pressure, kPa	uncertainty
298.84	.102	
299.15	.104	
300.17	.1139	
301.52	.1265	
302.18	.1349	
303.47	.1496	
306.57	.19	
309.45	.236	
312.8	.304	
316.62	.4	
316.79	.406	
319.51	.492	

System: cycloheptanol; phases: Liquid, Gas
Property: Vapor or sublimation pressure, kPa (Liquid); method: Diaphragm manometer
Temperature, K	Vapor or sublimation pressure, kPa	uncertainty
284.35	.0071	
284.67	.0075	
288.22	.0107	
292.5	.0165	
293.72	.0187	
293.73	.0189	
293.86	.0191	
298.23	.0287	
298.28	.0283	
298.44	.0293	
303.37	.0447	
307	.0609	
308.15	.0672	
310.11	.0785	
315.14	.118	
319.51	.163	
320.88	.179	

System: cis-2,5-dimethyltetrahydrofuran + trans-2,5-dimethyltetrahydrofuran; phases: Liquid, Gas
Fixed: Mole fraction of cis-2,5-dimethyltetrahydrofuran = .5
Property: Vapor or sublimation pressure, kPa (Liquid); method: Manometric method
Temperature, K	Vapor or sublimation pressure, kPa	uncertainty
278.48	3.086	
283.05	3.893	
288.18	5.14	
290.08	5.655	
293.18	6.637	
295.51	7.379	
299.31	8.868	
302.78	10.39	
307.58	12.994	
310.7	14.949	
