Measured thermophysical data. Activity Coefficient Measurements and Thermodynamic Modeling of (CaCl2 + l-Alanine + Water) System Based on Potentiometric Determination at T = (298.2, 303.2, and 308.2) K
Source: J. Chem. Eng. Data, 2015, 10.1021/acs.jced.5b00260
Compound 1: (2S)-2-aminopropanoic acid, C3H7NO2, purity 99%
Compound 2: water, H2O, purity 99.8%
Compound 3: calcium chloride, CaCl2, purity 99%

System: water; phases: Liquid
Property: Mass density, kg/m3 (Liquid); method: Vibrating tube method
Temperature, K	Pressure, kPa	Mass density, kg/m3	uncertainty
298.2	100	997.1	.1
303.2	100	995.7	.1
308.2	100	994	.1

System: (2S)-2-aminopropanoic acid + water; phases: Liquid
Fixed: Pressure, kPa = 100
Property: Mass density, kg/m3 (Liquid); method: Vibrating tube method
Temperature, K	Molality, mol/kg of (2S)-2-aminopropanoic acid	Mass density, kg/m3	uncertainty
298.2	0	997.1	.1
298.2	.1	999.9	.1
298.2	.2	1002.7	.1
298.2	.3	1005.5	.1
298.2	.4	1008.2	.1
303.2	0	995.7	.1
303.2	.1	998.4	.1
303.2	.2	1001.9	.1
303.2	.3	1004.1	.1
303.2	.4	1006.8	.1
308.2	0	994	.1
308.2	.1	996.8	.1
308.2	.2	1000.1	.1
308.2	.3	1002.3	.1
308.2	.4	1004.1	.1

System: (2S)-2-aminopropanoic acid + water + calcium chloride; phases: Liquid
Fixed: Pressure, kPa = 100
Property: Activity coefficient of calcium chloride (Liquid); method: (Electrochemical) cell potential
Molality, mol/kg of calcium chloride	Molality, mol/kg of (2S)-2-aminopropanoic acid	Temperature, K	Activity coefficient of calcium chloride	uncertainty
.0033	0	298.2	.8169	.0236
.0167	0	298.2	.6825	.0236
.0333	0	298.2	.6179	.0236
.0833	0	298.2	.5378	.0236
.1667	0	298.2	.4881	.0236
.25	0	298.2	.466	.0236
.3333	0	298.2	.4547	.0236
.4167	0	298.2	.4495	.0236
.5	0	298.2	.4482	.0236
.5833	0	298.2	.4498	.0236
.6667	0	298.2	.4537	.0236
.8333	0	298.2	.4669	.0236
1	0	298.2	.4861	.0236
.0033	.1	298.2	.8242	.0236
.0167	.1	298.2	.6946	.0236
.0333	.1	298.2	.6328	.0236
.0833	.1	298.2	.558	.0236
.1667	.1	298.2	.5148	.0236
.25	.1	298.2	.4977	.0236
.3333	.1	298.2	.4903	.0236
.4167	.1	298.2	.4877	.0236
.5	.1	298.2	.4877	.0236
.5833	.1	298.2	.4893	.0236
.6667	.1	298.2	.4917	.0236
.8333	.1	298.2	.4975	.0236
1	.1	298.2	.5026	.0236
.0033	.2	298.2	.8306	.0236
.0167	.2	298.2	.7047	.0236
.0333	.2	298.2	.6438	.0236
.0833	.2	298.2	.5687	.0236
.1667	.2	298.2	.5233	.0236
.25	.2	298.2	.5046	.0236
.3333	.2	298.2	.4966	.0236
.4167	.2	298.2	.4947	.0236
.5	.2	298.2	.4967	.0236
.5833	.2	298.2	.5018	.0236
.6667	.2	298.2	.5094	.0236
.8333	.2	298.2	.5308	.0236
1	.2	298.2	.5593	.0236
.0033	.3	298.2	.8362	.0236
.0167	.3	298.2	.7133	.0236
.0333	.3	298.2	.6535	.0236
.0833	.3	298.2	.5791	.0236
.1667	.3	298.2	.5342	.0236
.25	.3	298.2	.516	.0236
.3333	.3	298.2	.5088	.0236
.4167	.3	298.2	.5079	.0236
.5	.3	298.2	.5115	.0236
.5833	.3	298.2	.5184	.0236
.6667	.3	298.2	.5282	.0236
.8333	.3	298.2	.5555	.0236
1	.3	298.2	.5923	.0236
.0033	.4	298.2	.8413	.0236
.0167	.4	298.2	.7215	.0236
.0333	.4	298.2	.6632	.0236
.0833	.4	298.2	.5911	.0236
.1667	.4	298.2	.5485	.0236
.25	.4	298.2	.5318	.0236
.3333	.4	298.2	.5253	.0236
.4167	.4	298.2	.5245	.0236
.5	.4	298.2	.5273	.0236
.5833	.4	298.2	.5326	.0236
.6667	.4	298.2	.5399	.0236
.8333	.4	298.2	.559	.0236
1	.4	298.2	.5825	.0236
.0033	.2	303.2	.829	.0236
.0167	.2	303.2	.7017	.0236
.0333	.2	303.2	.6401	.0236
.0833	.2	303.2	.5639	.0236
.1667	.2	303.2	.5178	.0236
.25	.2	303.2	.4987	.0236
.3333	.2	303.2	.4905	.0236
.4167	.2	303.2	.4884	.0236
.5	.2	303.2	.4904	.0236
.5833	.2	303.2	.4955	.0236
.6667	.2	303.2	.5031	.0236
.8333	.2	303.2	.5246	.0236
1	.2	303.2	.5534	.0236
.0033	0	303.2	.8149	.0236
.0167	0	303.2	.6783	.0236
.0333	0	303.2	.6123	.0236
.0833	0	303.2	.53	.0236
.1667	0	303.2	.4783	.0236
.25	0	303.2	.4549	.0236
.3333	0	303.2	.4425	.0236
.4167	0	303.2	.4361	.0236
.5	0	303.2	.4336	.0236
.5833	0	303.2	.4338	.0236
.6667	0	303.2	.4362	.0236
.8333	0	303.2	.4458	.0236
1	0	303.2	.4604	.0236
.0033	.3	303.2	.8341	.0236
.0167	.3	303.2	.7089	.0236
.0333	.3	303.2	.6475	.0236
.0833	.3	303.2	.5706	.0236
.1667	.3	303.2	.5232	.0236
.25	.3	303.2	.5031	.0236
.3333	.3	303.2	.4941	.0236
.4167	.3	303.2	.4913	.0236
.5	.3	303.2	.4926	.0236
.5833	.3	303.2	.497	.0236
.6667	.3	303.2	.504	.0236
.8333	.3	303.2	.524	.0236
1	.3	303.2	.5511	.0236
.0033	.4	303.2	.8391	.0236
.0167	.4	303.2	.7169	.0236
.0333	.4	303.2	.657	.0236
.0833	.4	303.2	.5826	.0236
.1667	.4	303.2	.5385	.0236
.25	.4	303.2	.5216	.0236
.3333	.4	303.2	.5159	.0236
.4167	.4	303.2	.5164	.0236
.5	.4	303.2	.5212	.0236
.5833	.4	303.2	.5291	.0236
.6667	.4	303.2	.5397	.0236
.8333	.4	303.2	.5674	.0236
1	.4	303.2	.6027	.0236
.0033	.1	303.2	.8221	.0236
.0167	.1	303.2	.6904	.0236
.0333	.1	303.2	.6272	.0236
.0833	.1	303.2	.5503	.0236
.1667	.1	303.2	.5057	.0236
.25	.1	303.2	.4883	.0236
.3333	.1	303.2	.4811	.0236
.4167	.1	303.2	.479	.0236
.5	.1	303.2	.4799	.0236
.5833	.1	303.2	.4827	.0236
.6667	.1	303.2	.4866	.0236
.8333	.1	303.2	.496	.0236
1	.1	303.2	.5056	.0236
.0033	.3	308.2	.8322	.0236
.0167	.3	308.2	.7047	.0236
.0333	.3	308.2	.6419	.0236
.0833	.3	308.2	.5626	.0236
.1667	.3	308.2	.5133	.0236
.25	.3	308.2	.4921	.0236
.3333	.3	308.2	.4824	.0236
.4167	.3	308.2	.4791	.0236
.5	.3	308.2	.4801	.0236
.5833	.3	308.2	.4842	.0236
.6667	.3	308.2	.4909	.0236
.8333	.3	308.2	.5105	.0236
1	.3	308.2	.5373	.0236
.0033	.2	308.2	.8265	.0236
.0167	.2	308.2	.6958	.0236
.0333	.2	308.2	.632	.0236
.0833	.2	308.2	.5519	.0236
.1667	.2	308.2	.5024	.0236
.25	.2	308.2	.4813	.0236
.3333	.2	308.2	.4716	.0236
.4167	.2	308.2	.4683	.0236
.5	.2	308.2	.4692	.0236
.5833	.2	308.2	.4733	.0236
.6667	.2	308.2	.4799	.0236
.8333	.2	308.2	.4992	.0236
1	.2	308.2	.5256	.0236
.0033	.1	308.2	.82	.0236
.0167	.1	308.2	.6858	.0236
.0333	.1	308.2	.6211	.0236
.0833	.1	308.2	.5416	.0236
.1667	.1	308.2	.4945	.0236
.25	.1	308.2	.4753	.0236
.3333	.1	308.2	.4665	.0236
.4167	.1	308.2	.463	.0236
.5	.1	308.2	.4625	.0236
.5833	.1	308.2	.4638	.0236
.6667	.1	308.2	.4662	.0236
.8333	.1	308.2	.4723	.0236
1	.1	308.2	.4783	.0236
.0033	0	308.2	.8124	.0236
.0167	0	308.2	.6723	.0236
.0333	0	308.2	.6041	.0236
.0833	0	308.2	.518	.0236
.1667	0	308.2	.4633	.0236
.25	0	308.2	.438	.0236
.3333	0	308.2	.4244	.0236
.4167	0	308.2	.4169	.0236
.5	0	308.2	.4135	.0236
.5833	0	308.2	.4127	.0236
.6667	0	308.2	.4141	.0236
.8333	0	308.2	.4215	.0236
1	0	308.2	.4335	.0236
.0033	.4	308.2	.8374	.0236
.0167	.4	308.2	.7131	.0236
.0333	.4	308.2	.6519	.0236
.0833	.4	308.2	.5755	.0236
.1667	.4	308.2	.5306	.0236
.25	.4	308.2	.5147	.0236
.3333	.4	308.2	.511	.0236
.4167	.4	308.2	.5146	.0236
.5	.4	308.2	.5235	.0236
.5833	.4	308.2	.5368	.0236
.6667	.4	308.2	.554	.0236
.8333	.4	308.2	.5993	.0236
1	.4	308.2	.6595	.0236

System: water + calcium chloride; phases: Liquid
Property: Activity coefficient of calcium chloride (Liquid); method: (Electrochemical) cell potential
Molality, mol/kg of calcium chloride	Temperature, K	Pressure, kPa	Activity coefficient of calcium chloride	uncertainty
.0033	298.2	100	.8169	.0236
.0167	298.2	100	.6825	.0236
.0333	298.2	100	.6179	.0236
.0833	298.2	100	.5378	.0236
.1667	298.2	100	.4881	.0236
.25	298.2	100	.466	.0236
.3333	298.2	100	.4547	.0236
.4167	298.2	100	.4495	.0236
.5	298.2	100	.4482	.0236
.5833	298.2	100	.4498	.0236
.6667	298.2	100	.4537	.0236
.8333	298.2	100	.4669	.0236
1	298.2	100	.4861	.0236
.0033	303.2	100	.8149	.0236
.0167	303.2	100	.6783	.0236
.0333	303.2	100	.6123	.0236
.0833	303.2	100	.53	.0236
.1667	303.2	100	.4783	.0236
.25	303.2	100	.4549	.0236
.3333	303.2	100	.4425	.0236
.4167	303.2	100	.4361	.0236
.5	303.2	100	.4336	.0236
.5833	303.2	100	.4338	.0236
.6667	303.2	100	.4362	.0236
.8333	303.2	100	.4458	.0236
1	303.2	100	.4604	.0236
.0033	308.2	100	.8124	.0236
.0167	308.2	100	.6723	.0236
.0333	308.2	100	.6041	.0236
.0833	308.2	100	.518	.0236
.1667	308.2	100	.4633	.0236
.25	308.2	100	.438	.0236
.3333	308.2	100	.4244	.0236
.4167	308.2	100	.4169	.0236
.5	308.2	100	.4135	.0236
.5833	308.2	100	.4127	.0236
.6667	308.2	100	.4141	.0236
.8333	308.2	100	.4215	.0236
1	308.2	100	.4335	.0236
