Measured thermophysical data. Solubilities of Naringin Dihydrochalcone in Pure Solvents and Mixed Solvents at Different Temperatures
Source: J. Chem. Eng. Data, 2016, 10.1021/acs.jced.6b00543
Compound 1: naringin dihydrochalcone, C27H34O14, purity 90%
Compound 2: methanol, CH4O, purity 99.5%
Compound 3: ethanol, C2H6O, purity 99.5%
Compound 4: ethyl acetate, C4H8O2, purity 99.5%
Compound 5: water, H2O

System: naringin dihydrochalcone; phases: Crystal, Liquid, Air at 1 atmosphere
Property: Normal melting temperature, K (Crystal); method: DSC/DTA
Normal melting temperature, K	uncertainty
432.22	.199999999999989

System: naringin dihydrochalcone; phases: Crystal, Liquid, Air at 1 atmosphere
Property: Molar enthalpy of transition or fusion, kJ/mol (Crystal); method: DSC
Molar enthalpy of transition or fusion, kJ/mol	uncertainty
29.63	.8889

System: water + naringin dihydrochalcone; phases: Liquid, Crystal
Fixed: Pressure, kPa = 100
Property: Mole fraction of naringin dihydrochalcone (Liquid); method: Titration method
Temperature, K	Mole fraction of naringin dihydrochalcone	uncertainty
298.15	.0000213	
308.15	.0000378	
318.15	.0000712	
328.15	.000166	
338.15	.000375	

System: ethyl acetate + naringin dihydrochalcone; phases: Liquid, Crystal
Fixed: Pressure, kPa = 100
Property: Mole fraction of naringin dihydrochalcone (Liquid); method: Titration method
Temperature, K	Mole fraction of naringin dihydrochalcone	uncertainty
288.15	.00031	
298.15	.000369	
308.15	.000491	
318.15	.000668	
328.15	.000776	

System: methanol + water + naringin dihydrochalcone; phases: Liquid, Crystal
Fixed: Pressure, kPa = 100
Property: Mole fraction of naringin dihydrochalcone (Liquid); method: Titration method
Solvent: Mole fraction of methanol	Temperature, K	Mole fraction of naringin dihydrochalcone	uncertainty
.099	288.15	.0000425	
.099	298.15	.000111	
.099	308.15	.000271	
.099	318.15	.000727	
.099	328.15	.00248	
.229	288.15	.000631	
.229	298.15	.00157	
.229	308.15	.00422	
.229	318.15	.01105	
.229	328.15	.02247	

System: ethanol + water + naringin dihydrochalcone; phases: Liquid, Crystal
Fixed: Pressure, kPa = 100
Property: Mole fraction of naringin dihydrochalcone (Liquid); method: Titration method
Solvent: Mole fraction of ethanol	Temperature, K	Mole fraction of naringin dihydrochalcone	uncertainty
.033	288.15	.0000175	
.033	298.15	.0000418	
.033	308.15	.0000672	
.033	318.15	.000238	
.033	328.15	.000755	
.072	288.15	.0000456	
.072	298.15	.000271	
.072	308.15	.000743	
.072	318.15	.00694	
.072	328.15	.02106	
