Measured thermophysical data. Phase Equilibria for the Hydroesterification of 10-Undecenoic Acid Methyl Ester
Source: J. Chem. Eng. Data, 2016, 10.1021/acs.jced.6b00360
Compound 1: methyl 10-undecenoate, C12H22O2
Compound 2: dodecanedioic acid dimethyl ester, C14H26O4
Compound 3: methanol, CH4O
Compound 4: n-dodecane, C12H26
Compound 5: carbon monoxide, CO

System: methyl 10-undecenoate; phases: Liquid
Property: Mass density, kg/m3 (Liquid); method: Vibrating tube method
Pressure, kPa	Temperature, K	Mass density, kg/m3	uncertainty
100	280.15	897.46	
100	293.15	886.83	
100	303.15	878.63	
100	313.15	870.71	
100	323.15	862.33	
100	333.15	854.49	
100	343.15	845.8	
100	352.15	838.42	
40000	280.15	914.37	
40000	293.15	906.75	
40000	303.15	895.63	
40000	313.15	888.48	
40000	323.15	881.75	
40000	333.15	874.61	

System: dodecanedioic acid dimethyl ester; phases: Liquid
Fixed: Pressure, kPa = 101.325
Property: Mass density, kg/m3 (Liquid); method: Vibrating tube method
Temperature, K	Mass density, kg/m3	uncertainty
313.15	959.4	
323.15	951	
333.15	943.1	
343.15	934.4	
352.15	927	

System: methanol + methyl 10-undecenoate; phases: Liquid, Gas
Fixed: Pressure, kPa = 80
Property: Boiling temperature at pressure P, K (Liquid); method: Ebulliometric method (Recirculating still)
Mole fraction of methanol	Boiling temperature at pressure P, K	uncertainty
.134	373.35	
.136	365.05	
.177	356.55	
.176	356.35	
.176	353.45	
.264	349.75	
.272	348.05	
.28	345.45	
.28	344.25	
.345	341.85	

System: methyl 10-undecenoate + n-dodecane; phases: Liquid, Gas
Property: Boiling temperature at pressure P, K (Liquid); method: Ebulliometric method (Recirculating still)
Mole fraction of n-dodecane	Pressure, kPa	Boiling temperature at pressure P, K	uncertainty
.144	2	392.85	
.165	2	392.65	
.197	2	390.95	
.277	2	387.45	
.265	2	387.35	
.352	2	384.45	
.339	2	384.15	
.474	2	380.75	
.56	2	379.65	
.729	2	376.55	
.713	2	376.35	
.925	2	374.45	
.875	2	374.35	
1	2	373.75	
1	2	372.25	

System: methyl 10-undecenoate + n-dodecane; phases: Gas, Liquid
Property: Mole fraction of n-dodecane (Gas); method: Index of refraction calibration data
Mole fraction of n-dodecane	Pressure, kPa	Mole fraction of n-dodecane	uncertainty
.144	2	.446	
.165	2	.446	
.197	2	.531	
.277	2	.635	
.265	2	.635	
.352	2	.729	
.339	2	.761	
.474	2	.809	
.56	2	.842	
.729	2	.942	
.713	2	.925	
.925	2	.976	
.875	2	.976	
1	2	1	
1	2	1	

System: n-dodecane + dodecanedioic acid dimethyl ester; phases: Liquid, Gas
Property: Boiling temperature at pressure P, K (Liquid); method: Ebulliometric method (Recirculating still)
Mole fraction of n-dodecane	Pressure, kPa	Boiling temperature at pressure P, K	uncertainty
.088	2	426.05	
.091	2	421.25	
.109	2	415.75	
.131	2	412.55	
.131	2	408.95	
.168	2	401.65	
.21	2	396.75	
.221	2	395.65	
.361	2	389.45	
.377	2	386.95	
.468	2	383.85	
.666	2	379.25	
.694	2	378.35	
.763	2	377.35	
.809	2	376.15	
1	2	373.15	
1	2	372.25	

System: n-dodecane + dodecanedioic acid dimethyl ester; phases: Gas, Liquid
Property: Mole fraction of n-dodecane (Gas); method: Index of refraction calibration data
Mole fraction of n-dodecane	Pressure, kPa	Mole fraction of n-dodecane	uncertainty
.088	2	.809	
.091	2	.851	
.109	2	.903	
.131	2	.91	
.131	2	.932	
.168	2	.965	
.21	2	.961	
.221	2	.965	
.361	2	.976	
.377	2	.987	
.468	2	.976	
.666	2	.987	
.694	2	.99	
.763	2	.987	
.809	2	.987	
1	2	1	
1	2	1	

System: methyl 10-undecenoate + dodecanedioic acid dimethyl ester; phases: Liquid, Gas
Property: Boiling temperature at pressure P, K (Liquid); method: Ebulliometric method (Recirculating still)
Mole fraction of methyl 10-undecenoate	Pressure, kPa	Boiling temperature at pressure P, K	uncertainty
.114	2	436.95	
.154	2	434.05	
.22	2	428.85	
.19	2	428.25	
.303	2	424.95	
.257	2	424.55	
.383	2	419.05	
.413	2	418.75	
.518	2	414.95	
.541	2	414.35	
.701	2	409.45	
.858	2	405.45	
1	2	402.65	
1	2	401.95	

System: methyl 10-undecenoate + dodecanedioic acid dimethyl ester; phases: Gas, Liquid
Property: Mole fraction of methyl 10-undecenoate (Gas); method: Index of refraction calibration data
Mole fraction of methyl 10-undecenoate	Pressure, kPa	Mole fraction of methyl 10-undecenoate	uncertainty
.114	2	.704	
.154	2	.717	
.22	2	.79	
.19	2	.779	
.303	2	.851	
.257	2	.831	
.383	2	.883	
.413	2	.906	
.518	2	.937	
.541	2	.942	
.701	2	.965	
.858	2	.984	
1	2	1	
1	2	1	

System: methyl 10-undecenoate + carbon monoxide; phases: Liquid, Gas
Property: Mole fraction of carbon monoxide (Liquid); method: Phase equilibration
Temperature, K	Pressure, kPa	Mole fraction of carbon monoxide	uncertainty
362.71	2978	.0434	
362.71	3010	.0422	
362.71	7372	.0994	
362.71	7424	.099	
362.71	11812	.15	
362.71	11913	.1501	
393.04	6947	.099	
393.04	11089	.1501	

System: carbon monoxide + dodecanedioic acid dimethyl ester; phases: Liquid, Gas
Property: Mole fraction of carbon monoxide (Liquid); method: Phase equilibration
Temperature, K	Pressure, kPa	Mole fraction of carbon monoxide	uncertainty
362.63	3500	.0431	
362.63	3523	.0431	
362.63	8456	.1015	
362.63	8524	.1018	
362.63	13243	.1512	
362.63	13491	.1499	
392.87	3121	.0418	
392.87	7747	.1009	
392.87	12213	.1501	

System: methanol + carbon monoxide + dodecanedioic acid dimethyl ester; phases: Liquid, Gas
Fixed: Solvent: Mole fraction of methanol = .875
Property: Mole fraction of carbon monoxide (Liquid); method: Phase equilibration
Temperature, K	Pressure, kPa	Mole fraction of carbon monoxide	uncertainty
362.68	7282	.035	
362.68	7343	.035	
362.68	14769	.0707	
362.68	14885	.0708	
