Measured thermophysical data. Solubility and Chromatographic Separation of 5-Fluorouracil under Subcritical Water Conditions
Source: J. Chem. Eng. Data, 2017, 10.1021/acs.jced.7b00015
Compound 1: 5-fluorouracil, C4H3FN2O2, purity 99%
Compound 2: water, H2O, purity 99.5%

System: 5-fluorouracil + water; phases: Liquid, Crystal
Fixed: Pressure, kPa = 5070
Property: Mole fraction of 5-fluorouracil (Liquid); method: Chromatography
Temperature, K	Mole fraction of 5-fluorouracil	uncertainty
298	.00169	
323	.00289	
373	.00619	
423	.0124	
448	.0159	
473	.0203	
