Measured thermophysical data. Densities and molar volumes of aqueous solutions of LiClO4 at temperatures from 293 K to 343 K
Source: J. Chem. Eng. Data, 2016, 10.1021/acs.jced.5b00535
Compound 1: water, H2O, purity 99.9%
Compound 2: lithium perchlorate, ClLiO4

System: water; phases: Liquid
Fixed: Pressure, kPa = 101.325
Property: Mass density, kg/m3 (Liquid); method: Vibrating tube method
Temperature, K	Mass density, kg/m3	uncertainty
293.15	998.207	
298.15	997.047	
303.15	995.649	
308.15	994.033	
313.15	992.216	
318.15	990.213	
323.15	988.035	
328.15	985.693	
333.15	983.196	
338.15	980.551	
343.15	977.765	

System: water + lithium perchlorate; phases: Liquid
Fixed: Pressure, kPa = 100
Property: Mass density, kg/m3 (Liquid); method: Vibrating tube method
Temperature, K	Molality, mol/kg of lithium perchlorate	Mass density, kg/m3	uncertainty
293.15	.0527	3.34	
293.15	.0703	4.449	
293.15	.1014	6.394	
293.15	.1014	6.397	
293.15	.1998	12.518	
293.15	.4002	24.754	
293.15	.6996	42.586	
293.15	.7025	42.765	
293.15	1	59.92	
293.15	1.5019	87.76	
293.15	2.0025	114.255	
293.15	3.0029	163.597	
293.15	4.01	209.051	
293.15	5.006	250.383	
298.15	.0527	3.299	
298.15	.0703	4.393	
298.15	.1014	6.315	
298.15	.1014	6.32	
298.15	.1998	12.366	
298.15	.4002	24.453	
298.15	.6996	42.074	
298.15	.7025	42.252	
298.15	1	59.214	
298.15	1.5019	86.755	
298.15	2.0025	112.989	
298.15	3.0029	161.891	
298.15	4.01	206.997	
298.15	5.006	248.048	
303.15	.0527	3.262	
303.15	.0703	4.344	
303.15	.1014	6.246	
303.15	.1014	6.25	
303.15	.1998	12.228	
303.15	.4002	24.182	
303.15	.6996	41.618	
303.15	.7025	41.792	
303.15	1	58.578	
303.15	1.5019	85.847	
303.15	2.0025	111.845	
303.15	3.0029	160.336	
303.15	4.01	205.113	
303.15	5.006	245.901	
308.15	.0527	3.23	
308.15	.0703	4.301	
308.15	.1014	6.182	
308.15	.1014	6.188	
308.15	.1998	12.106	
308.15	.4002	23.943	
308.15	.6996	41.205	
308.15	.7025	41.377	
308.15	1	58.006	
308.15	1.5019	85.028	
308.15	2.0025	110.8	
308.15	3.0029	158.914	
308.15	4.01	203.388	
308.15	5.006	243.923	
313.15	.0527	3.202	
313.15	.0703	4.264	
313.15	.1014	6.125	
313.15	.1014	6.133	
313.15	.1998	11.997	
313.15	.4002	23.725	
313.15	.6996	40.831	
313.15	.7025	41.003	
313.15	1	57.487	
313.15	1.5019	84.282	
313.15	2.0025	109.849	
313.15	3.0029	157.615	
313.15	4.01	201.803	
313.15	5.006	242.112	
318.15	.0527	3.174	
318.15	.0703	4.227	
318.15	.1014	6.076	
318.15	.1014	6.083	
318.15	.1998	11.898	
318.15	.4002	23.529	
318.15	.6996	40.495	
318.15	.7025	40.665	
318.15	1	57.017	
318.15	1.5019	83.606	
318.15	2.0025	108.984	
318.15	3.0029	156.427	
318.15	4.01	200.347	
318.15	5.006	240.437	
323.15	.0527	3.151	
323.15	.0703	4.199	
323.15	.1014	6.033	
323.15	.1014	6.036	
323.15	.1998	11.806	
323.15	.4002	23.35	
323.15	.6996	40.188	
323.15	.7025	40.359	
323.15	1	56.587	
323.15	1.5019	82.987	
323.15	2.0025	108.194	
323.15	3.0029	155.336	
323.15	4.01	199.011	
323.15	5.006	238.9	
328.15	.0527	3.13	
328.15	.0703	4.17	
328.15	.1014	5.995	
328.15	.1014	5.995	
328.15	.1998	11.73	
328.15	.4002	23.192	
328.15	.6996	39.913	
328.15	.7025	40.079	
328.15	1	56.201	
328.15	1.5019	82.426	
328.15	2.0025	107.471	
328.15	3.0029	154.34	
328.15	4.01	197.792	
328.15	5.006	237.487	
333.15	.0527	3.111	
333.15	.0703	4.145	
333.15	.1014	5.955	
333.15	.1014	5.959	
333.15	.1998	11.654	
333.15	.4002	23.047	
333.15	.6996	39.661	
333.15	.7025	39.829	
333.15	1	55.848	
333.15	1.5019	81.915	
333.15	2.0025	106.818	
333.15	3.0029	153.427	
333.15	4.01	196.667	
333.15	5.006	236.187	
338.15	.0527	3.094	
338.15	.0703	4.123	
338.15	.1014	5.924	
338.15	.1014	5.926	
338.15	.1998	11.591	
338.15	.4002	22.917	
338.15	.6996	39.434	
338.15	.7025	39.601	
338.15	1	55.53	
338.15	1.5019	81.45	
338.15	2.0025	106.216	
338.15	3.0029	152.594	
338.15	4.01	195.639	
338.15	5.006	235	
343.15	.0527	3.078	
343.15	.0703	4.104	
343.15	.1014	5.897	
343.15	.1014	5.894	
343.15	.1998	11.534	
343.15	.4002	22.8	
343.15	.6996	39.235	
343.15	.7025	39.397	
343.15	1	55.243	
343.15	1.5019	81.031	
343.15	2.0025	105.677	
343.15	3.0029	151.842	
343.15	4.01	194.704	
343.15	5.006	233.919	
