Measured thermophysical data. Viscosities and Carbon Dioxide Solubilities of Guanidine Carbonate and Malic Acid-Based Eutectic Solvents
Source: J. Chem. Eng. Data, 2017, 10.1021/acs.jced.6b00680
Compound 1: choline chloride, C5H14ClNO
Compound 2: ethylene glycol, C2H6O2
Compound 3: urea, CH4N2O
Compound 4: water, H2O, purity 99.9%
Compound 5: glycerol, C3H8O3

System: glycerol; phases: Liquid
Fixed: Pressure, kPa = 101.325
Property: Viscosity, Pa*s (Liquid); method: Concentric cylinders viscometry
Temperature, K	Viscosity, Pa*s	uncertainty
296.5	1.252	
302.8	.6734	
315.8	.2606	
323.2	.1489	
332.7	.0975	
343.2	.0519	
348.2	.0428	
354.2	.0349	

System: urea + choline chloride + water; phases: Liquid
Fixed: Pressure, kPa = 100
Fixed: Amount ratio of solute to solvent of choline chloride = .5
Property: Viscosity, Pa*s (Liquid); method: Concentric cylinders viscometry
Mass fraction of water	Temperature, K	Viscosity, Pa*s	uncertainty
.001	293.2	1.6858	
.001	298.2	1.0123	
.001	303.2	.6585	
.001	308.2	.4549	
.001	313.2	.3336	
.001	318.2	.2598	
.001	323.2	.2106	
.001	328.2	.1795	
.001	333.2	.1608	
.001	338.2	.1426	
.001	343.2	.129	
.001	348.2	.1156	
.001	353.2	.1067	
.025	293.2	.4687	
.025	298.2	.3174	
.025	303.2	.2282	
.025	308.2	.1707	
.025	313.2	.1343	
.025	318.2	.1089	
.025	323.2	.0918	
.025	328.2	.0798	
.025	333.2	.0722	
.025	338.2	.0667	
.025	343.2	.0628	
.025	348.2	.0574	
.025	353.2	.0563	
.087	293.2	.0563	
.087	298.2	.0465	
.087	303.2	.0389	
.087	308.2	.0331	
.087	313.2	.0285	
.087	318.2	.025	
.087	323.2	.0222	
.087	328.2	.0199	
.087	333.2	.0182	
.087	338.2	.0166	
.087	343.2	.0155	
.087	348.2	.0144	
.087	353.2	.0136	

System: choline chloride + ethylene glycol + water; phases: Liquid
Fixed: Pressure, kPa = 100
Fixed: Amount ratio of solute to solvent of choline chloride = .5
Property: Viscosity, Pa*s (Liquid); method: Concentric cylinders viscometry
Mass fraction of water	Temperature, K	Viscosity, Pa*s	uncertainty
.002	293.2	.0609	
.002	298.2	.0514	
.002	303.2	.0443	
.002	308.2	.0381	
.002	313.2	.0335	
.002	318.2	.0294	
.002	323.2	.0261	
.002	328.2	.0233	
.002	333.2	.0211	
.002	338.2	.0193	
.002	343.2	.0176	
.002	348.2	.0163	
.002	353.2	.0152	
.034	293.2	.0389	
.034	298.2	.0303	
.034	303.2	.0243	
.034	308.2	.0199	
.034	313.2	.0166	
.034	318.2	.0142	
.034	323.2	.0122	
.034	328.2	.0108	
.034	333.2	.0097	
.034	338.2	.0088	
.034	343.2	.008	
.034	348.2	.0075	
.034	353.2	.007	
.088	293.2	.022	
.088	298.2	.0184	
.088	303.2	.0155	
.088	308.2	.0132	
.088	313.2	.0113	
.088	318.2	.0098	
.088	323.2	.0085	
.088	328.2	.0075	
.088	333.2	.0066	
.088	338.2	.0059	
.088	343.2	.0053	
.088	348.2	.0047	
.088	353.2	.0043	

System: urea + choline chloride; phases: Liquid
Fixed: Pressure, kPa = 100
Fixed: Amount ratio of solute to solvent of urea = 2
Property: Viscosity, Pa*s (Liquid); method: Concentric cylinders viscometry
Temperature, K	Viscosity, Pa*s	uncertainty
293.2	1.6858	
298.2	1.0123	
303.2	.6585	
308.2	.4549	
313.2	.3336	
318.2	.2598	
323.2	.2106	
328.2	.1795	
333.2	.1608	
338.2	.1426	
343.2	.129	
348.2	.1156	
353.2	.1067	

System: choline chloride + ethylene glycol; phases: Liquid
Fixed: Pressure, kPa = 100
Fixed: Amount ratio of solute to solvent of ethylene glycol = 2
Property: Viscosity, Pa*s (Liquid); method: Concentric cylinders viscometry
Temperature, K	Viscosity, Pa*s	uncertainty
293.2	.0609	
298.2	.0514	
303.2	.0443	
308.2	.0381	
313.2	.0335	
318.2	.0294	
323.2	.0261	
328.2	.0233	
333.2	.0211	
338.2	.0193	
343.2	.0176	
348.2	.0163	
353.2	.0152	
