Measured thermophysical data. Densities, Sound Speed, and Viscosities of Some Amino Acids with Aqueous Tetra-Butyl Ammonium Iodide Solutions at Different Temperatures
Source: J. Chem. Eng. Data, 2015, 10.1021/acs.jced.5b00198
Compound 1: glycine, C2H5NO2, purity 99%
Compound 2: L-alanine, C3H7NO2, purity 99%
Compound 3: L-valine, C5H11NO2, purity 99%
Compound 4: tetrabutylammonium iodide, C16H36IN, purity 98%
Compound 5: water, H2O

System: glycine + tetrabutylammonium iodide + water; phases: Liquid
Fixed: Pressure, kPa = 101
Property: Mass density, kg/m3 (Liquid); method: Vibrating tube method
Temperature, K	Solvent: Molality, mol/kg of tetrabutylammonium iodide	Molality, mol/kg of glycine	Mass density, kg/m3	uncertainty
288.15	.01	0	1001.069	.003
288.15	.01	.02051	1001.75	.003
288.15	.01	.05999	1003.049	.003
288.15	.01	.09828	1004.289	.003
288.15	.01	.13998	1005.64	.003
288.15	.01	.16997	1006.567	.003
288.15	.01	.19995	1007.496	.003
293.15	.01	0	1000.162	.003
293.15	.01	.02051	1000.843	.003
293.15	.01	.05999	1002.125	.003
293.15	.01	.09828	1003.34	.003
293.15	.01	.13998	1004.672	.003
293.15	.01	.16997	1005.586	.003
293.15	.01	.19995	1006.474	.003
298.15	.01	0	998.972	.003
298.15	.01	.02051	999.651	.003
298.15	.01	.05999	1000.93	.003
298.15	.01	.09828	1002.151	.003
298.15	.01	.13998	1003.452	.003
298.15	.01	.16997	1004.352	.003
298.15	.01	.19995	1005.261	.003
303.15	.01	0	997.53	.003
303.15	.01	.02051	998.207	.003
303.15	.01	.05999	999.487	.003
303.15	.01	.09828	1000.688	.003
303.15	.01	.13998	1002	.003
303.15	.01	.16997	1002.884	.003
303.15	.01	.19995	1003.786	.003
308.15	.01	0	995.952	.003
308.15	.01	.02051	996.58	.003
308.15	.01	.05999	997.797	.003
308.15	.01	.09828	998.998	.003
308.15	.01	.13998	1000.342	.003
308.15	.01	.16997	1001.295	.003
308.15	.01	.19995	1002.253	.003
288.15	.03	0	1002.217	.003
288.15	.03	.01992	1002.9	.003
288.15	.03	.06019	1004.258	.003
288.15	.03	.09936	1005.494	.003
288.15	.03	.13918	1006.776	.003
288.15	.03	.16999	1007.744	.003
288.15	.03	.2003	1008.656	.003
293.15	.03	0	1001.289	.003
293.15	.03	.01992	1001.967	.003
293.15	.03	.06019	1003.298	.003
293.15	.03	.09936	1004.52	.003
293.15	.03	.13918	1005.785	.003
293.15	.03	.16999	1006.742	.003
293.15	.03	.2003	1007.631	.003
298.15	.03	0	1000.094	.003
298.15	.03	.01992	1000.755	.003
298.15	.03	.06019	1002.078	.003
298.15	.03	.09936	1003.286	.003
298.15	.03	.13918	1004.543	.003
298.15	.03	.16999	1005.486	.003
298.15	.03	.2003	1006.33	.003
303.15	.03	0	998.614	.003
303.15	.03	.01992	999.276	.003
303.15	.03	.06019	1000.598	.003
303.15	.03	.09936	1001.825	.003
303.15	.03	.13918	1003.07	.003
303.15	.03	.16999	1004	.003
303.15	.03	.2003	1004.922	.003
308.15	.03	0	997.021	.003
308.15	.03	.01992	997.689	.003
308.15	.03	.06019	998.969	.003
308.15	.03	.09936	1000.187	.003
308.15	.03	.13918	1001.384	.003
308.15	.03	.16999	1002.329	.003
308.15	.03	.2003	1003.157	.003

System: glycine + tetrabutylammonium iodide + water; phases: Liquid
Fixed: Pressure, kPa = 101
Fixed: Frequency, MHz = 3
Property: Speed of sound, m/s (Liquid); method: Sing-around technique in a fixed-path interferometer
Temperature, K	Solvent: Molality, mol/kg of tetrabutylammonium iodide	Molality, mol/kg of glycine	Speed of sound, m/s	uncertainty
288.15	.01	0	1468.94	.5
288.15	.01	.02051	1470.09	.5
288.15	.01	.05999	1472.3	.5
288.15	.01	.09828	1474.47	.5
288.15	.01	.13998	1476.79	.5
288.15	.01	.16997	1478.42	.5
288.15	.01	.19995	1480.05	.5
293.15	.01	0	1484.93	.5
293.15	.01	.02051	1486.04	.5
293.15	.01	.05999	1488.16	.5
293.15	.01	.09828	1490.26	.5
293.15	.01	.13998	1492.51	.5
293.15	.01	.16997	1494.07	.5
293.15	.01	.19995	1495.61	.5
298.15	.01	0	1498.93	.5
298.15	.01	.02051	1500.02	.5
298.15	.01	.05999	1502.08	.5
298.15	.01	.09828	1504.11	.5
298.15	.01	.13998	1506.28	.5
298.15	.01	.16997	1507.85	.5
298.15	.01	.19995	1509.41	.5
303.15	.01	0	1511.06	.5
303.15	.01	.02051	1512.15	.5
303.15	.01	.05999	1514.23	.5
303.15	.01	.09828	1516.22	.5
303.15	.01	.13998	1518.18	.5
303.15	.01	.16997	1519.77	.5
303.15	.01	.19995	1521.27	.5
308.15	.01	0	1521.21	.5
308.15	.01	.02051	1522.27	.5
308.15	.01	.05999	1524.17	.5
308.15	.01	.09828	1526.23	.5
308.15	.01	.13998	1528.14	.5
308.15	.01	.16997	1529.88	.5
308.15	.01	.19995	1531.47	.5
288.15	.03	0	1473.57	.5
288.15	.03	.01992	1474.74	.5
288.15	.03	.06019	1477.01	.5
288.15	.03	.09936	1479.45	.5
288.15	.03	.13918	1481.49	.5
288.15	.03	.16999	1483.09	.5
288.15	.03	.2003	1484.7	.5
293.15	.03	0	1489.13	.5
293.15	.03	.01992	1490.24	.5
293.15	.03	.06019	1492.49	.5
293.15	.03	.09936	1494.83	.5
293.15	.03	.13918	1496.81	.5
293.15	.03	.16999	1498.35	.5
293.15	.03	.2003	1499.93	.5
298.15	.03	0	1502.79	.5
298.15	.03	.01992	1503.91	.5
298.15	.03	.06019	1506.05	.5
298.15	.03	.09936	1508.43	.5
298.15	.03	.13918	1510.26	.5
298.15	.03	.16999	1511.84	.5
298.15	.03	.2003	1513.26	.5
303.15	.03	0	1514.54	.5
303.15	.03	.01992	1515.53	.5
303.15	.03	.06019	1517.71	.5
303.15	.03	.09936	1520.11	.5
303.15	.03	.13918	1521.81	.5
303.15	.03	.16999	1523.36	.5
303.15	.03	.2003	1524.69	.5
308.15	.03	0	1524.41	.5
308.15	.03	.01992	1525.52	.5
308.15	.03	.06019	1527.58	.5
308.15	.03	.09936	1529.89	.5
308.15	.03	.13918	1531.49	.5
308.15	.03	.16999	1532.87	.5
308.15	.03	.2003	1534.23	.5

System: glycine + tetrabutylammonium iodide + water; phases: Liquid
Fixed: Pressure, kPa = 101
Property: Viscosity, Pa*s (Liquid); method: Capillary tube (Ostwald; Ubbelohde) method
Temperature, K	Solvent: Molality, mol/kg of tetrabutylammonium iodide	Molality, mol/kg of glycine	Viscosity, Pa*s	uncertainty
288.15	.01	0	.001173	.000005865
288.15	.01	.02047	.001176	.00000588
288.15	.01	.05957	.001179	.000005895
288.15	.01	.09983	.001186	.00000593
288.15	.01	.13882	.00119	.00000595
288.15	.01	.1711	.001192	.00000596
288.15	.01	.19615	.001193	.000005965
293.15	.01	0	.001007	.000005035
293.15	.01	.02047	.001013	.000005065
293.15	.01	.05957	.001016	.00000508
293.15	.01	.09983	.001024	.00000512
293.15	.01	.13882	.001025	.000005125
293.15	.01	.1711	.001028	.00000514
293.15	.01	.19615	.001031	.000005155
298.15	.01	0	.000862	.00000431
298.15	.01	.02047	.000867	.000004335
298.15	.01	.05957	.000871	.000004355
298.15	.01	.09983	.000875	.000004375
298.15	.01	.13882	.000879	.000004395
298.15	.01	.1711	.000883	.000004415
298.15	.01	.19615	.000887	.000004435
303.15	.01	0	.000817	.000004085
303.15	.01	.02047	.00082	.0000041
303.15	.01	.05957	.000823	.000004115
303.15	.01	.09983	.000828	.00000414
303.15	.01	.13882	.000832	.00000416
303.15	.01	.1711	.000836	.00000418
303.15	.01	.19615	.000838	.00000419
308.15	.01	0	.000732	.00000366
308.15	.01	.02047	.000736	.00000368
308.15	.01	.05957	.00074	.0000037
308.15	.01	.09983	.000742	.00000371
308.15	.01	.13882	.000745	.000003725
308.15	.01	.1711	.000747	.000003735
308.15	.01	.19615	.000748	.00000374
288.15	.03	0	.001205	.000006025
288.15	.03	.0215	.001215	.000006075
288.15	.03	.05994	.001217	.000006085
288.15	.03	.10034	.001227	.000006135
288.15	.03	.13784	.001228	.00000614
288.15	.03	.16982	.001236	.00000618
288.15	.03	.19936	.001237	.000006185
293.15	.03	0	.001036	.00000518
293.15	.03	.0215	.001043	.000005215
293.15	.03	.05994	.001048	.00000524
293.15	.03	.10034	.001056	.00000528
293.15	.03	.13784	.001067	.000005335
293.15	.03	.16982	.001069	.000005345
293.15	.03	.19936	.001075	.000005375
298.15	.03	0	.000884	.00000442
298.15	.03	.0215	.00089	.00000445
298.15	.03	.05994	.000896	.00000448
298.15	.03	.10034	.0009	.0000045
298.15	.03	.13784	.000903	.000004515
298.15	.03	.16982	.000906	.00000453
298.15	.03	.19936	.00091	.00000455
303.15	.03	0	.000831	.000004155
303.15	.03	.0215	.000837	.000004185
303.15	.03	.05994	.000843	.000004215
303.15	.03	.10034	.000846	.00000423
303.15	.03	.13784	.000851	.000004255
303.15	.03	.16982	.000856	.00000428
303.15	.03	.19936	.000861	.000004305
308.15	.03	0	.000744	.00000372
308.15	.03	.0215	.000751	.000003755
308.15	.03	.05994	.000756	.00000378
308.15	.03	.10034	.000757	.000003785
308.15	.03	.13784	.000762	.00000381
308.15	.03	.16982	.000765	.000003825
308.15	.03	.19936	.000768	.00000384

System: L-alanine + tetrabutylammonium iodide + water; phases: Liquid
Fixed: Pressure, kPa = 101
Property: Mass density, kg/m3 (Liquid); method: Vibrating tube method
Temperature, K	Solvent: Molality, mol/kg of tetrabutylammonium iodide	Molality, mol/kg of L-alanine	Mass density, kg/m3	uncertainty
288.15	.01	0	1001.069	.003
288.15	.01	.02001	1001.643	.003
288.15	.01	.06013	1002.8	.003
288.15	.01	.09972	1003.94	.003
288.15	.01	.1399	1005.099	.003
288.15	.01	.16917	1005.965	.003
288.15	.01	.20028	1006.868	.003
293.15	.01	0	1000.162	.003
293.15	.01	.02001	1000.727	.003
293.15	.01	.06013	1001.865	.003
293.15	.01	.09972	1003	.003
293.15	.01	.1399	1004.145	.003
293.15	.01	.16917	1004.99	.003
293.15	.01	.20028	1005.895	.003
298.15	.01	0	998.972	.003
298.15	.01	.02001	999.539	.003
298.15	.01	.06013	1000.675	.003
298.15	.01	.09972	1001.803	.003
298.15	.01	.1399	1002.936	.003
298.15	.01	.16917	1003.79	.003
298.15	.01	.20028	1004.673	.003
303.15	.01	0	997.53	.003
303.15	.01	.02001	998.091	.003
303.15	.01	.06013	999.221	.003
303.15	.01	.09972	1000.348	.003
303.15	.01	.1399	1001.488	.003
303.15	.01	.16917	1002.328	.003
303.15	.01	.20028	1003.221	.003
308.15	.01	0	995.952	.003
308.15	.01	.02001	996.499	.003
308.15	.01	.06013	997.618	.003
308.15	.01	.09972	998.729	.003
308.15	.01	.1399	999.851	.003
308.15	.01	.16917	1000.699	.003
308.15	.01	.20028	1001.565	.003
288.15	.03	0	1002.217	.003
288.15	.03	.02004	1002.819	.003
288.15	.03	.05962	1003.995	.003
288.15	.03	.10013	1005.183	.003
288.15	.03	.13847	1006.291	.003
288.15	.03	.16567	1007.007	.003
288.15	.03	.19683	1007.887	.003
293.15	.03	0	1001.289	.003
293.15	.03	.02004	1001.885	.003
293.15	.03	.05962	1003.043	.003
293.15	.03	.10013	1004.219	.003
293.15	.03	.13847	1005.316	.003
293.15	.03	.16567	1006.041	.003
293.15	.03	.19683	1006.902	.003
298.15	.03	0	1000.094	.003
298.15	.03	.02004	1000.684	.003
298.15	.03	.05962	1001.832	.003
298.15	.03	.10013	1002.998	.003
298.15	.03	.13847	1004.083	.003
298.15	.03	.16567	1004.812	.003
298.15	.03	.19683	1005.675	.003
303.15	.03	0	998.614	.003
303.15	.03	.02004	999.206	.003
303.15	.03	.05962	1000.366	.003
303.15	.03	.10013	1001.543	.003
303.15	.03	.13847	1002.62	.003
303.15	.03	.16567	1003.382	.003
303.15	.03	.19683	1004.241	.003
308.15	.03	0	997.021	.003
308.15	.03	.02004	997.607	.003
308.15	.03	.05962	998.746	.003
308.15	.03	.10013	999.884	.003
308.15	.03	.13847	1000.95	.003
308.15	.03	.16567	1001.675	.003
308.15	.03	.19683	1002.517	.003

System: L-alanine + tetrabutylammonium iodide + water; phases: Liquid
Fixed: Pressure, kPa = 101
Fixed: Frequency, MHz = 3
Property: Speed of sound, m/s (Liquid); method: Sing-around technique in a fixed-path interferometer
Temperature, K	Solvent: Molality, mol/kg of tetrabutylammonium iodide	Molality, mol/kg of L-alanine	Speed of sound, m/s	uncertainty
288.15	.01	0	1468.94	.5
288.15	.01	.02001	1470.35	.5
288.15	.01	.06013	1473.3	.5
288.15	.01	.09972	1475.8	.5
288.15	.01	.1399	1479.23	.5
288.15	.01	.16917	1480.72	.5
288.15	.01	.20028	1482.9	.5
293.15	.01	0	1484.93	.5
293.15	.01	.02001	1486.28	.5
293.15	.01	.06013	1489.11	.5
293.15	.01	.09972	1491.52	.5
293.15	.01	.1399	1494.85	.5
293.15	.01	.16917	1496.27	.5
293.15	.01	.20028	1498.35	.5
298.15	.01	0	1498.93	.5
298.15	.01	.02001	1500.22	.5
298.15	.01	.06013	1502.96	.5
298.15	.01	.09972	1505.31	.5
298.15	.01	.1399	1508.55	.5
298.15	.01	.16917	1509.88	.5
298.15	.01	.20028	1511.87	.5
303.15	.01	0	1511.06	.5
303.15	.01	.02001	1512.29	.5
303.15	.01	.06013	1514.96	.5
303.15	.01	.09972	1517.21	.5
303.15	.01	.1399	1520.41	.5
303.15	.01	.16917	1521.64	.5
303.15	.01	.20028	1523.53	.5
308.15	.01	0	1521.21	.5
308.15	.01	.02001	1522.42	.5
308.15	.01	.06013	1525.01	.5
308.15	.01	.09972	1527.2	.5
308.15	.01	.1399	1530.49	.5
308.15	.01	.16917	1531.55	.5
308.15	.01	.20028	1533.31	.5
288.15	.03	0	1473.57	.5
288.15	.03	.02004	1475.1	.5
288.15	.03	.05962	1477.83	.5
288.15	.03	.10013	1481.02	.5
288.15	.03	.13847	1483.3	.5
288.15	.03	.16567	1485.23	.5
288.15	.03	.19683	1487.41	.5
293.15	.03	0	1489.13	.5
293.15	.03	.02004	1490.6	.5
293.15	.03	.05962	1493.23	.5
293.15	.03	.10013	1496.33	.5
293.15	.03	.13847	1498.55	.5
293.15	.03	.16567	1500.36	.5
293.15	.03	.19683	1502.45	.5
298.15	.03	0	1502.79	.5
298.15	.03	.02004	1504.17	.5
298.15	.03	.05962	1506.73	.5
298.15	.03	.10013	1509.72	.5
298.15	.03	.13847	1511.84	.5
298.15	.03	.16567	1513.6	.5
298.15	.03	.19683	1515.63	.5
303.15	.03	0	1514.54	.5
303.15	.03	.02004	1515.89	.5
303.15	.03	.05962	1518.38	.5
303.15	.03	.10013	1521.25	.5
303.15	.03	.13847	1523.3	.5
303.15	.03	.16567	1525.07	.5
303.15	.03	.19683	1527	.5
308.15	.03	0	1524.41	.5
308.15	.03	.02004	1525.75	.5
308.15	.03	.05962	1528.07	.5
308.15	.03	.10013	1530.92	.5
308.15	.03	.13847	1532.86	.5
308.15	.03	.16567	1534.57	.5
308.15	.03	.19683	1536.43	.5

System: L-alanine + tetrabutylammonium iodide + water; phases: Liquid
Fixed: Pressure, kPa = 101
Property: Viscosity, Pa*s (Liquid); method: Capillary tube (Ostwald; Ubbelohde) method
Temperature, K	Solvent: Molality, mol/kg of tetrabutylammonium iodide	Molality, mol/kg of L-alanine	Viscosity, Pa*s	uncertainty
288.15	.01	0	.001171	.000005855
288.15	.01	.01997	.001176	.00000588
288.15	.01	.05986	.001181	.000005905
288.15	.01	.09983	.00119	.00000595
288.15	.01	.13974	.001209	.000006045
288.15	.01	.16995	.001221	.000006105
288.15	.01	.20017	.001232	.00000616
293.15	.01	0	.001006	.00000503
293.15	.01	.01997	.00101	.00000505
293.15	.01	.05986	.001026	.00000513
293.15	.01	.09983	.001033	.000005165
293.15	.01	.13974	.001044	.00000522
293.15	.01	.16995	.001058	.00000529
293.15	.01	.20017	.001072	.00000536
298.15	.01	0	.000861	.000004305
298.15	.01	.01997	.000868	.00000434
298.15	.01	.05986	.000875	.000004375
298.15	.01	.09983	.000885	.000004425
298.15	.01	.13974	.000891	.000004455
298.15	.01	.16995	.000898	.00000449
298.15	.01	.20017	.000905	.000004525
303.15	.01	0	.000817	.000004085
303.15	.01	.01997	.000824	.00000412
303.15	.01	.05986	.000826	.00000413
303.15	.01	.09983	.000833	.000004165
303.15	.01	.13974	.00084	.0000042
303.15	.01	.16995	.000844	.00000422
303.15	.01	.20017	.000854	.00000427
308.15	.01	0	.000731	.000003655
308.15	.01	.01997	.000736	.00000368
308.15	.01	.05986	.00074	.0000037
308.15	.01	.09983	.000745	.000003725
308.15	.01	.13974	.000753	.000003765
308.15	.01	.16995	.000756	.00000378
308.15	.01	.20017	.000763	.000003815
288.15	.03	0	.001197	.000005985
288.15	.03	.01957	.001204	.00000602
288.15	.03	.0606	.001216	.00000608
288.15	.03	.09912	.001224	.00000612
288.15	.03	.13998	.001234	.00000617
288.15	.03	.16795	.001244	.00000622
288.15	.03	.19988	.001253	.000006265
293.15	.03	0	.001033	.000005165
293.15	.03	.01957	.001039	.000005195
293.15	.03	.0606	.00105	.00000525
293.15	.03	.09912	.001055	.000005275
293.15	.03	.13998	.001064	.00000532
293.15	.03	.16795	.001073	.000005365
293.15	.03	.19988	.001083	.000005415
298.15	.03	0	.000883	.000004415
298.15	.03	.01957	.000888	.00000444
298.15	.03	.0606	.000901	.000004505
298.15	.03	.09912	.000906	.00000453
298.15	.03	.13998	.000914	.00000457
298.15	.03	.16795	.000921	.000004605
298.15	.03	.19988	.000923	.000004615
303.15	.03	0	.00083	.00000415
303.15	.03	.01957	.000836	.00000418
303.15	.03	.0606	.000842	.00000421
303.15	.03	.09912	.000858	.00000429
303.15	.03	.13998	.000862	.00000431
303.15	.03	.16795	.000869	.000004345
303.15	.03	.19988	.000876	.00000438
308.15	.03	0	.000739	.000003695
308.15	.03	.01957	.000746	.00000373
308.15	.03	.0606	.000752	.00000376
308.15	.03	.09912	.000756	.00000378
308.15	.03	.13998	.00076	.0000038
308.15	.03	.16795	.000766	.00000383
308.15	.03	.19988	.000775	.000003875

System: L-valine + tetrabutylammonium iodide + water; phases: Liquid
Fixed: Pressure, kPa = 101
Property: Mass density, kg/m3 (Liquid); method: Vibrating tube method
Temperature, K	Solvent: Molality, mol/kg of tetrabutylammonium iodide	Molality, mol/kg of L-valine	Mass density, kg/m3	uncertainty
288.15	.01	0	1001.069	.003
288.15	.01	.02	1001.635	.003
288.15	.01	.06008	1002.724	.003
288.15	.01	.09982	1003.805	.003
288.15	.01	.13993	1004.845	.003
288.15	.01	.17	1005.608	.003
288.15	.01	.19963	1006.363	.003
293.15	.01	0	1000.162	.003
293.15	.01	.02	1000.721	.003
293.15	.01	.06008	1001.796	.003
293.15	.01	.09982	1002.852	.003
293.15	.01	.13993	1003.892	.003
293.15	.01	.17	1004.643	.003
293.15	.01	.19963	1005.404	.003
298.15	.01	0	998.972	.003
298.15	.01	.02	999.522	.003
298.15	.01	.06008	1000.607	.003
298.15	.01	.09982	1001.661	.003
298.15	.01	.13993	1002.681	.003
298.15	.01	.17	1003.425	.003
298.15	.01	.19963	1004.177	.003
303.15	.01	0	997.53	.003
303.15	.01	.02	998.082	.003
303.15	.01	.06008	999.171	.003
303.15	.01	.09982	1000.214	.003
303.15	.01	.13993	1001.235	.003
303.15	.01	.17	1001.973	.003
303.15	.01	.19963	1002.713	.003
308.15	.01	0	995.952	.003
308.15	.01	.02	996.489	.003
308.15	.01	.06008	997.547	.003
308.15	.01	.09982	998.574	.003
308.15	.01	.13993	999.584	.003
308.15	.01	.17	1000.313	.003
308.15	.01	.19963	1001.043	.003
288.15	.03	0	1002.217	.003
288.15	.03	.0202	1002.787	.003
288.15	.03	.05997	1003.889	.003
288.15	.03	.10009	1004.982	.003
288.15	.03	.13983	1006.043	.003
288.15	.03	.16939	1006.821	.003
288.15	.03	.1999	1007.612	.003
293.15	.03	0	1001.289	.003
293.15	.03	.0202	1001.851	.003
293.15	.03	.05997	1002.939	.003
293.15	.03	.10009	1004.016	.003
293.15	.03	.13983	1005.074	.003
293.15	.03	.16939	1005.834	.003
293.15	.03	.1999	1006.614	.003
298.15	.03	0	1000.094	.003
298.15	.03	.0202	1000.651	.003
298.15	.03	.05997	1001.727	.003
298.15	.03	.10009	1002.792	.003
298.15	.03	.13983	1003.818	.003
298.15	.03	.16939	1004.59	.003
298.15	.03	.1999	1005.363	.003
303.15	.03	0	998.614	.003
303.15	.03	.0202	999.166	.003
303.15	.03	.05997	1000.235	.003
303.15	.03	.10009	1001.305	.003
303.15	.03	.13983	1002.341	.003
303.15	.03	.16939	1003.109	.003
303.15	.03	.1999	1003.88	.003
308.15	.03	0	997.021	.003
308.15	.03	.0202	997.563	.003
308.15	.03	.05997	998.617	.003
308.15	.03	.10009	999.661	.003
308.15	.03	.13983	1000.68	.003
308.15	.03	.16939	1001.431	.003
308.15	.03	.1999	1002.187	.003

System: L-valine + tetrabutylammonium iodide + water; phases: Liquid
Fixed: Pressure, kPa = 101
Fixed: Frequency, MHz = 3
Property: Speed of sound, m/s (Liquid); method: Sing-around technique in a fixed-path interferometer
Temperature, K	Solvent: Molality, mol/kg of tetrabutylammonium iodide	Molality, mol/kg of L-valine	Speed of sound, m/s	uncertainty
288.15	.01	0	1468.94	.5
288.15	.01	.02	1471.08	.5
288.15	.01	.06008	1475.33	.5
288.15	.01	.09982	1479.55	.5
288.15	.01	.13993	1483.78	.5
288.15	.01	.17	1486.8	.5
288.15	.01	.19963	1489.87	.5
293.15	.01	0	1484.93	.5
293.15	.01	.02	1486.97	.5
293.15	.01	.06008	1491	.5
293.15	.01	.09982	1495.01	.5
293.15	.01	.13993	1499.05	.5
293.15	.01	.17	1501.94	.5
293.15	.01	.19963	1504.87	.5
298.15	.01	0	1498.93	.5
298.15	.01	.02	1500.89	.5
298.15	.01	.06008	1504.84	.5
298.15	.01	.09982	1508.62	.5
298.15	.01	.13993	1512.4	.5
298.15	.01	.17	1515.16	.5
298.15	.01	.19963	1517.95	.5
303.15	.01	0	1511.06	.5
303.15	.01	.02	1512.9	.5
303.15	.01	.06008	1516.79	.5
303.15	.01	.09982	1520.12	.5
303.15	.01	.13993	1523.91	.5
303.15	.01	.17	1526.54	.5
303.15	.01	.19963	1529.26	.5
308.15	.01	0	1521.21	.5
308.15	.01	.02	1523	.5
308.15	.01	.06008	1526.7	.5
308.15	.01	.09982	1530.14	.5
308.15	.01	.13993	1533.55	.5
308.15	.01	.17	1536.06	.5
308.15	.01	.19963	1538.69	.5
288.15	.03	0	1473.57	.5
288.15	.03	.0202	1475.76	.5
288.15	.03	.05997	1479.98	.5
288.15	.03	.10009	1484.22	.5
288.15	.03	.13983	1488.38	.5
288.15	.03	.16939	1491.53	.5
288.15	.03	.1999	1494.65	.5
293.15	.03	0	1489.13	.5
293.15	.03	.0202	1491.22	.5
293.15	.03	.05997	1495.25	.5
293.15	.03	.10009	1499.29	.5
293.15	.03	.13983	1503.27	.5
293.15	.03	.16939	1506.27	.5
293.15	.03	.1999	1509.23	.5
298.15	.03	0	1502.79	.5
298.15	.03	.0202	1504.78	.5
298.15	.03	.05997	1508.88	.5
298.15	.03	.10009	1512.5	.5
298.15	.03	.13983	1516.3	.5
298.15	.03	.16939	1519.21	.5
298.15	.03	.1999	1521.93	.5
303.15	.03	0	1514.54	.5
303.15	.03	.0202	1516.46	.5
303.15	.03	.05997	1520.43	.5
303.15	.03	.10009	1523.84	.5
303.15	.03	.13983	1527.44	.5
303.15	.03	.16939	1530.23	.5
303.15	.03	.1999	1532.86	.5
308.15	.03	0	1524.41	.5
308.15	.03	.0202	1526.29	.5
308.15	.03	.05997	1529.99	.5
308.15	.03	.10009	1533.37	.5
308.15	.03	.13983	1536.7	.5
308.15	.03	.16939	1539.31	.5
308.15	.03	.1999	1542.05	.5

System: L-valine + tetrabutylammonium iodide + water; phases: Liquid
Fixed: Pressure, kPa = 101
Property: Viscosity, Pa*s (Liquid); method: Capillary tube (Ostwald; Ubbelohde) method
Temperature, K	Solvent: Molality, mol/kg of tetrabutylammonium iodide	Molality, mol/kg of L-valine	Viscosity, Pa*s	uncertainty
288.15	.01	0	.001173	.000005865
288.15	.01	.0202	.001178	.00000589
288.15	.01	.06065	.001193	.000005965
288.15	.01	.09913	.001204	.00000602
288.15	.01	.14024	.001219	.000006095
288.15	.01	.17132	.001238	.00000619
288.15	.01	.19958	.001254	.00000627
293.15	.01	0	.001007	.000005035
293.15	.01	.0202	.001013	.000005065
293.15	.01	.06065	.001028	.00000514
293.15	.01	.09913	.00104	.0000052
293.15	.01	.14024	.001051	.000005255
293.15	.01	.17132	.001068	.00000534
293.15	.01	.19958	.001083	.000005415
298.15	.01	0	.000862	.00000431
298.15	.01	.0202	.000868	.00000434
298.15	.01	.06065	.00088	.0000044
298.15	.01	.09913	.000894	.00000447
298.15	.01	.14024	.000911	.000004555
298.15	.01	.17132	.00093	.00000465
298.15	.01	.19958	.000944	.00000472
303.15	.01	0	.000818	.00000409
303.15	.01	.0202	.000824	.00000412
303.15	.01	.06065	.000832	.00000416
303.15	.01	.09913	.000844	.00000422
303.15	.01	.14024	.000853	.000004265
303.15	.01	.17132	.000861	.000004305
303.15	.01	.19958	.000877	.000004385
308.15	.01	0	.000732	.00000366
308.15	.01	.0202	.000737	.000003685
308.15	.01	.06065	.000742	.00000371
308.15	.01	.09913	.000749	.000003745
308.15	.01	.14024	.000758	.00000379
308.15	.01	.17132	.000768	.00000384
308.15	.01	.19958	.000781	.000003905
288.15	.03	0	.001201	.000006005
288.15	.03	.01995	.001209	.000006045
288.15	.03	.06001	.001224	.00000612
288.15	.03	.10004	.001242	.00000621
288.15	.03	.14026	.00126	.0000063
288.15	.03	.16992	.001281	.000006405
288.15	.03	.19916	.001303	.000006515
293.15	.03	0	.001025	.000005125
293.15	.03	.01995	.001036	.00000518
293.15	.03	.06001	.001051	.000005255
293.15	.03	.10004	.00107	.00000535
293.15	.03	.14026	.001088	.00000544
293.15	.03	.16992	.001104	.00000552
293.15	.03	.19916	.001123	.000005615
298.15	.03	0	.000882	.00000441
298.15	.03	.01995	.00089	.00000445
298.15	.03	.06001	.000902	.00000451
298.15	.03	.10004	.000916	.00000458
298.15	.03	.14026	.000934	.00000467
298.15	.03	.16992	.000945	.000004725
298.15	.03	.19916	.000958	.00000479
303.15	.03	0	.000828	.00000414
303.15	.03	.01995	.000837	.000004185
303.15	.03	.06001	.000847	.000004235
303.15	.03	.10004	.000859	.000004295
303.15	.03	.14026	.000869	.000004345
303.15	.03	.16992	.000882	.00000441
303.15	.03	.19916	.000891	.000004455
308.15	.03	0	.000744	.00000372
308.15	.03	.01995	.000752	.00000376
308.15	.03	.06001	.000757	.000003785
308.15	.03	.10004	.000759	.000003795
308.15	.03	.14026	.000768	.00000384
308.15	.03	.16992	.000779	.000003895
308.15	.03	.19916	.000786	.00000393

System: tetrabutylammonium iodide + water; phases: Liquid
Property: Mass density, kg/m3 (Liquid); method: Vibrating tube method
Temperature, K	Molality, mol/kg of tetrabutylammonium iodide	Pressure, kPa	Mass density, kg/m3	uncertainty
288.15	.01	101	1001.069	.003
293.15	.01	101	1000.162	.003
298.15	.01	101	998.972	.003
303.15	.01	101	997.53	.003
308.15	.01	101	995.952	.003
288.15	.03	101	1002.217	.003
293.15	.03	101	1001.289	.003
298.15	.03	101	1000.094	.003
303.15	.03	101	998.614	.003
308.15	.03	101	997.021	.003

System: tetrabutylammonium iodide + water; phases: Liquid
Fixed: Frequency, MHz = 3
Property: Speed of sound, m/s (Liquid); method: Sing-around technique in a fixed-path interferometer
Temperature, K	Molality, mol/kg of tetrabutylammonium iodide	Pressure, kPa	Speed of sound, m/s	uncertainty
288.15	.01	101	1468.94	.5
293.15	.01	101	1484.93	.5
298.15	.01	101	1498.93	.5
303.15	.01	101	1511.06	.5
308.15	.01	101	1521.21	.5
288.15	.03	101	1473.57	.5
293.15	.03	101	1489.13	.5
298.15	.03	101	1502.79	.5
303.15	.03	101	1514.54	.5
308.15	.03	101	1524.41	.5

System: tetrabutylammonium iodide + water; phases: Liquid
Property: Viscosity, Pa*s (Liquid); method: Capillary tube (Ostwald; Ubbelohde) method
Temperature, K	Molality, mol/kg of tetrabutylammonium iodide	Pressure, kPa	Viscosity, Pa*s	uncertainty
288.15	.01	101	.001173	.000005865
293.15	.01	101	.001007	.000005035
298.15	.01	101	.000862	.00000431
303.15	.01	101	.000817	.000004085
308.15	.01	101	.000732	.00000366
288.15	.03	101	.001205	.000006025
293.15	.03	101	.001036	.00000518
298.15	.03	101	.000884	.00000442
303.15	.03	101	.000831	.000004155
308.15	.03	101	.000744	.00000372
288.15	.01	101	.001171	.000005855
293.15	.01	101	.001006	.00000503
298.15	.01	101	.000861	.000004305
308.15	.01	101	.000731	.000003655
288.15	.03	101	.001197	.000005985
293.15	.03	101	.001033	.000005165
298.15	.03	101	.000883	.000004415
303.15	.03	101	.00083	.00000415
308.15	.03	101	.000739	.000003695
303.15	.01	101	.000818	.00000409
288.15	.03	101	.001201	.000006005
293.15	.03	101	.001025	.000005125
298.15	.03	101	.000882	.00000441
303.15	.03	101	.000828	.00000414
