Measured thermophysical data. Viscous Calibration Liquids for Self-diffusion Measurements
Source: J. Chem. Eng. Data, 2015, 10.1021/acs.jced.5b00246
Compound 1: cyclohexane, C6H12, purity 99.9%
Compound 2: 1,4-dioxane, C4H8O2, purity 99.8%
Compound 3: dimethyl sulfoxide, C2H6OS, purity 99.5%
Compound 4: dodecane, C12H26, purity 99%
Compound 5: 2-ethylhexyl benzoate, C15H22O2, purity 99%
Compound 6: bis(2-ethylhexyl) 1,2-benzenedicarboxylate, C24H38O4, purity 99.7%
Compound 7: 1-pentanol, C5H12O, purity 99%
Compound 8: 2,6,10,15,19,23-hexamethyltetracosane, C30H62, purity 99%
Compound 9: toluene, C7H8, purity 99.8%

System: cyclohexane; phases: Liquid
Fixed: Pressure, kPa = 101.325
Property: Self diffusion coefficient, m2/s (Liquid); method: NMR spin-echo technique
Temperature, K	Self diffusion coefficient, m2/s	uncertainty
308.16	0.000000001712	.0000000000428
308.17	0.000000001718	.00000000004295
318.22	0.000000002053	.000000000051325
318.25	0.000000002048	.0000000000512
328.13	0.000000002469	.000000000061725
328.15	0.000000002465	.000000000061625

System: cyclohexane; phases: Liquid
Fixed: Pressure, kPa = 101.325
Property: Self diffusion coefficient, m2/s (Liquid); method: NMR spin-echo technique
Temperature, K	Self diffusion coefficient, m2/s	uncertainty
283.47	0.000000001072	.0000000000268
283.53	0.000000001085	.000000000027125
288.31	0.000000001191	.000000000029775
288.32	0.000000001199	.000000000029975
298.12	0.000000001457	.000000000036425
298.15	0.00000000147	.00000000003675
308.02	0.000000001728	.0000000000432
308.03	0.000000001758	.00000000004395
317.68	0.00000000203	.00000000005075
317.73	0.000000002078	.00000000005195
323.04	0.000000002234	.00000000005585
333.02	0.000000002598	.00000000006495
333.05	0.000000002646	.00000000006615
342.79	0.000000002968	.0000000000742
348.16	0.000000003251	.000000000081275

System: 1,4-dioxane; phases: Liquid
Fixed: Pressure, kPa = 101.325
Property: Self diffusion coefficient, m2/s (Liquid); method: NMR spin-echo technique
Temperature, K	Self diffusion coefficient, m2/s	uncertainty
288.31	0.00000000091	.00000000002275
288.33	0.0000000008974	.000000000022435
293.11	0.000000001031	.000000000025775
298.13	0.000000001102	.00000000002755
298.17	0.000000001124	.0000000000281
298.18	0.000000001091	.000000000027275
298.2	0.000000001126	.00000000002815
303.12	0.000000001238	.00000000003095
307.92	0.000000001304	.0000000000326
308.06	0.000000001324	.0000000000331
317.85	0.000000001555	.000000000038875
318.24	0.000000001571	.000000000039275
327.94	0.000000001791	.000000000044775
327.95	0.000000001813	.000000000045325
338.09	0.000000002153	.000000000053825
338.12	0.000000002092	.0000000000523
338.13	0.000000002105	.000000000052625
347.87	0.000000002365	.000000000059125
347.97	0.000000002426	.00000000006065
358.25	0.00000000266	.0000000000665
358.49	0.000000002658	.00000000006645

System: dimethyl sulfoxide; phases: Liquid
Fixed: Pressure, kPa = 101.325
Property: Self diffusion coefficient, m2/s (Liquid); method: NMR spin-echo technique
Temperature, K	Self diffusion coefficient, m2/s	uncertainty
298.26	0.0000000007456	.00000000001864
298.29	0.0000000007447	1.86175E-11
308.1	0.00000000091	.00000000002275
318.03	0.000000001116	.0000000000279
328.1	0.000000001335	.000000000033375
338.12	0.000000001586	.00000000003965
348.17	0.000000001838	.00000000004595
363.71	0.000000002292	.0000000000573

System: dodecane; phases: Liquid
Fixed: Pressure, kPa = 101.325
Property: Self diffusion coefficient, m2/s (Liquid); method: NMR spin-echo technique
Temperature, K	Self diffusion coefficient, m2/s	uncertainty
264.14	0.0000000003954	.000000000009885
266.5	0.0000000004204	.00000000001051
268.03	0.0000000004372	.00000000001093
278.2	0.0000000005594	.000000000013985
278.52	0.0000000005635	1.40875E-11
278.56	0.000000000564	.0000000000141
278.72	0.0000000005661	1.41525E-11
288.09	0.0000000006968	.00000000001742
288.49	0.0000000007027	1.75675E-11
288.52	0.0000000007032	.00000000001758
298.15	0.0000000008557	2.13925E-11
298.2	0.0000000008566	.000000000021415
298.21	0.0000000008567	2.14175E-11
308.15	0.000000001034	.00000000002585
308.16	0.000000001035	.000000000025875
318.15	0.000000001224	.0000000000306
318.16	0.000000001228	.0000000000307
323.17	0.000000001326	.00000000003315
328.17	0.000000001426	.00000000003565
328.22	0.000000001439	.000000000035975
328.25	0.000000001465	.000000000036625
333.14	0.000000001538	.00000000003845
337.93	0.000000001668	.0000000000417
337.97	0.000000001665	.000000000041625
337.99	0.000000001674	.00000000004185
348.08	0.000000001917	.000000000047925
352.75	0.000000002068	.0000000000517
352.77	0.00000000204	.000000000051
364.53	0.000000002436	.0000000000609
364.54	0.00000000241	.00000000006025

System: 2-ethylhexyl benzoate; phases: Liquid
Fixed: Pressure, kPa = 101.325
Property: Self diffusion coefficient, m2/s (Liquid); method: NMR spin-echo technique
Temperature, K	Self diffusion coefficient, m2/s	uncertainty
258.42	0.00002256	.000000564
258.44	0.00002184	.000000546
258.46	0.0000221	.0000005525
264.21	0.00003298	.0000008245
264.21	0.00003314	.0000008285
273.42	0.00005566	.0000013915
273.5	0.00005611	.00000140275
273.67	0.00005668	.000001417
278.4	0.00007319	.00000182975
278.43	0.00007245	.00000181125
278.45	0.00007271	.00000181775
278.5	0.00007335	.00000183375
288.41	0.0001101	.0000027525
288.46	0.0001113	.0000027825
293.37	0.0001343	.0000033575
293.38	0.0001348	.00000337
298.06	0.0001633	.0000040825
298.09	0.0001638	.000004095
298.14	0.0001647	.0000041175
298.27	0.0001605	.0000040125
298.29	0.0001604	.00000401
307.92	0.0002254	.000005635
308.07	0.0002256	.00000564
308.26	0.0002222	.000005555
308.3	0.000221	.000005525
313.05	0.0002539	.0000063475
313.06	0.0002544	.00000636
317.99	0.0002914	.000007285
318.06	0.0002922	.000007305
327.81	0.000374	.00000935
327.87	0.0003737	.0000093425
332.77	0.0004178	.000010445
332.8	0.0004183	.0000104575
333.3	0.0004217	.0000105425
337.81	0.0004725	.0000118125
337.81	0.0004713	.0000117825
347.49	0.0005845	.0000146125
347.52	0.0005821	.0000145525
352.18	0.0006378	.000015945
352.33	0.0006359	.0000158975
352.41	0.0006357	.0000158925

System: bis(2-ethylhexyl) 1,2-benzenedicarboxylate; phases: Liquid
Fixed: Pressure, kPa = 101.325
Property: Self diffusion coefficient, m2/s (Liquid); method: NMR spin-echo technique
Temperature, K	Self diffusion coefficient, m2/s	uncertainty
303.18	0.00001714	.0000004285
312.89	0.00002909	.00000072725
322.7	0.00004501	.00000112525
322.84	0.00004529	.00000113225
322.88	0.00004533	.00000113325
323.03	0.00004569	.00000114225
323.05	0.0000457	.0000011425
333.16	0.00006744	.000001686
333.2	0.00006779	.00000169475
343.65	0.00009737	.00000243425
343.7	0.00009795	.00000244875
352.86	0.0001298	.000003245
352.88	0.0001309	.0000032725
362.72	0.0001687	.0000042175
362.75	0.0001716	.00000429

System: bis(2-ethylhexyl) 1,2-benzenedicarboxylate; phases: Liquid
Fixed: Pressure, kPa = 101.325
Property: Self diffusion coefficient, m2/s (Liquid); method: NMR spin-echo technique
Temperature, K	Self diffusion coefficient, m2/s	uncertainty
268	0.00000131	.0000000524
273	0.00000205	.000000082
283	0.00000457	.0000001828
298.1	0.0000124	.000000496
303.2	0.0000186	.000000744
313.2	0.0000305	.00000122
323.1	0.0000473	.000001892
332.7	0.0000693	.000002772
342.5	0.0000948	.000003792

System: 1-pentanol; phases: Liquid
Fixed: Pressure, kPa = 101.325
Property: Self diffusion coefficient, m2/s (Liquid); method: NMR spin-echo technique
Temperature, K	Self diffusion coefficient, m2/s	uncertainty
253.13	0.00005271	.00000131775
253.19	0.00005317	.00000132925
258.42	0.00006615	.00000165375
258.47	0.00006612	.000001653
263.25	0.00008057	.00000201425
263.28	0.00008112	.000002028
268.65	0.0001013	.0000025325
268.66	0.0001019	.0000025475
278.4	0.0001509	.0000037725
278.43	0.0001522	.000003805
288.31	0.0002166	.000005415
288.33	0.0002167	.0000054175
298.16	0.0003007	.0000075175
298.17	0.0003002	.000007505
298.19	0.0002988	.00000747
298.21	0.0003021	.0000075525
298.21	0.0003021	.0000075525
298.27	0.0003021	.0000075525
298.27	0.0003021	.0000075525
308.09	0.0004129	.0000103225
308.11	0.0004136	.00001034
318.08	0.0005542	.000013855
318.09	0.0005564	.00001391
323.1	0.0006385	.0000159625
323.1	0.0006385	.0000159625
323.15	0.0006425	.0000160625
323.15	0.0006425	.0000160625
327.86	0.0007304	.00001826
327.86	0.0007359	.0000183975
337.71	0.0009563	.0000239075
337.74	0.0009494	.000023735
347.21	0.001218	.00003045
347.25	0.001218	.00003045
352.35	0.001399	.000034975
352.36	0.001396	.0000349
352.55	0.001413	.000035325
364.52	0.001844	.0000461
364.59	0.001825	.000045625
364.73	0.001835	.000045875

System: 2,6,10,15,19,23-hexamethyltetracosane; phases: Liquid
Fixed: Pressure, kPa = 101.325
Property: Self diffusion coefficient, m2/s (Liquid); method: NMR spin-echo technique
Temperature, K	Self diffusion coefficient, m2/s	uncertainty
283.3	0.00001345	.00000033625
288.28	0.00001811	.00000045275
293.13	0.00002195	.00000054875
293.19	0.00002262	.0000005655
298.19	0.00002875	.00000071875
298.44	0.00002914	.0000007285
303	0.00003567	.00000089175
303.18	0.00003685	.00000092125
312.99	0.000057	.000001425
322.69	0.00008148	.000002037
322.72	0.00008235	.00000205875
323.16	0.00008123	.00000203075
333.03	0.0001171	.0000029275
333.49	0.0001143	.0000028575
342.81	0.0001504	.00000376
348.2	0.0001736	.00000434
352.82	0.0001959	.0000048975
353.15	0.0001982	.000004955
362.6	0.0002444	.00000611
362.82	0.0002499	.0000062475
362.88	0.0002602	.000006505

System: 2,6,10,15,19,23-hexamethyltetracosane; phases: Liquid
Fixed: Pressure, kPa = 101.325
Property: Self diffusion coefficient, m2/s (Liquid); method: NMR spin-echo technique
Temperature, K	Self diffusion coefficient, m2/s	uncertainty
270.4	0.00000532	.0000001596
273	0.00000672	.0000002016
283.6	0.0000132	.000000396
298	0.0000279	.000000837
314.3	0.000057	.00000171
325.7	0.0000883	.000002649
334.8	0.000118	.00000354
344.9	0.00016	.0000048

System: toluene; phases: Liquid
Fixed: Pressure, kPa = 101.325
Property: Self diffusion coefficient, m2/s (Liquid); method: NMR spin-echo technique
Temperature, K	Self diffusion coefficient, m2/s	uncertainty
253.27	0.000000001007	.000000000025175
253.28	0.000000001015	.000000000025375
258.16	0.000000001131	.000000000028275
258.23	0.000000001128	.0000000000282
268.32	0.000000001376	.0000000000344
273.54	0.000000001517	.000000000037925
278.07	0.000000001674	.00000000004185
278.15	0.000000001668	.0000000000417
288.05	0.000000001984	.0000000000496
298	0.000000002301	.000000000057525
298.18	0.000000002267	.000000000056675
298.2	0.000000002324	.0000000000581
298.21	0.000000002278	.00000000005695
298.21	0.00000000228	.000000000057
298.21	0.000000002299	.000000000057475
308.07	0.000000002711	.000000000067775
323.16	0.000000003316	.0000000000829
323.18	0.000000003302	.00000000008255
239.09	0.000000000712	.0000000000178
240.94	0.000000000753	.000000000018825
248.57	0.000000000898	.00000000002245
251.71	0.000000000977	.000000000024425
263.51	0.000000001236	.0000000000309
273.43	0.000000001497	.000000000037425
293.08	0.000000002125	.000000000053125
322.69	0.000000003151	.000000000078775
332.93	0.000000003556	.0000000000889
333.16	0.000000003562	.00000000008905
343.45	0.000000004095	.000000000102375
