Measured thermophysical data. Conductance and Ionic Association of Imidazolium-Based Ionic Liquids in N,N-Dimethylacetamide
Source: J. Chem. Eng. Data, 2016, 10.1021/acs.jced.6b00354
Compound 1: N,N-dimethylacetamide, C4H9NO, purity 99.8%
Compound 2: 1-ethyl-3-methylimidazolium tetrafluoroborate, C6H11BF4N2, purity 99.0%
Compound 3: 1-butyl-3-methylimidazolium tetrafluoroborate, C8H15BF4N2, purity 98.5%

System: N,N-dimethylacetamide; phases: Liquid
Fixed: Pressure, kPa = 101.325
Property: Mass density, kg/m3 (Liquid); method: Vibrating tube method
Temperature, K	Mass density, kg/m3	uncertainty
283.15	950.189	
288.15	945.589	
293.15	940.983	
298.15	936.38	
303.15	931.762	
308.15	927.145	
313.15	922.523	
318.15	917.893	

System: N,N-dimethylacetamide + 1-ethyl-3-methylimidazolium tetrafluoroborate; phases: Liquid
Fixed: Pressure, kPa = 100
Property: Electrical conductivity, S/m (Liquid); method: Alternating current cell with electrodes
Temperature, K	Molality, mol/kg of 1-ethyl-3-methylimidazolium tetrafluoroborate	Electrical conductivity, S/m	uncertainty
283.15	.00056287	.0031908	
283.15	.00068954	.0038906	
283.15	.00098201	.0054941	
283.15	.0019392	.010589	
283.15	.002956	.015824	
283.15	.0040465	.021327	
283.15	.0056882	.029289	
283.15	.0078085	.039246	
283.15	.0098565	.048544	
283.15	.011917	.057623	
283.15	.013924	.066221	
283.15	.01584	.074143	
288.15	.00056287	.0034405	
288.15	.00068954	.004193	
288.15	.00098201	.0059172	
288.15	.0019392	.011412	
288.15	.002956	.017057	
288.15	.0040465	.022927	
288.15	.0056882	.031559	
288.15	.0078085	.042233	
288.15	.0098565	.052266	
288.15	.011917	.062014	
288.15	.013924	.071259	
288.15	.01584	.079848	
293.15	.00056287	.0036939	
293.15	.00068954	.0045017	
293.15	.00098201	.0063518	
293.15	.0019392	.012243	
293.15	.002956	.018294	
293.15	.0040465	.024608	
293.15	.0056882	.033817	
293.15	.0078085	.045277	
293.15	.0098565	.056056	
293.15	.011917	.06648	
293.15	.013924	.076376	
293.15	.01584	.085601	
298.15	.00056287	.0039526	
298.15	.00068954	.0048205	
298.15	.00098201	.0067988	
298.15	.0019392	.013099	
298.15	.002956	.019571	
298.15	.0040465	.026319	
298.15	.0056882	.036147	
298.15	.0078085	.048414	
298.15	.0098565	.059913	
298.15	.011917	.071	
298.15	.013924	.081634	
298.15	.01584	.091493	
303.15	.00056287	.0042191	
303.15	.00068954	.0051443	
303.15	.00098201	.0072509	
303.15	.0019392	.013967	
303.15	.002956	.020868	
303.15	.0040465	.028044	
303.15	.0056882	.038528	
303.15	.0078085	.051576	
303.15	.0098565	.063775	
303.15	.011917	.075636	
303.15	.013924	.08688	
303.15	.01584	.097323	
308.15	.00056287	.004484	
308.15	.00068954	.0054656	
308.15	.00098201	.0077078	
308.15	.0019392	.014834	
308.15	.002956	.022135	
308.15	.0040465	.029762	
308.15	.0056882	.040878	
308.15	.0078085	.054665	
308.15	.0098565	.067588	
308.15	.011917	.08016	
308.15	.013924	.09207	
308.15	.01584	.10312	
313.15	.00056287	.0047434	
313.15	.00068954	.0057804	
313.15	.00098201	.0081485	
313.15	.0019392	.015676	
313.15	.002956	.023398	
313.15	.0040465	.031425	
313.15	.0056882	.043126	
313.15	.0078085	.057654	
313.15	.0098565	.071261	
313.15	.011917	.08449	
313.15	.013924	.097012	
313.15	.01584	.10873	
318.15	.00056287	.0050185	
318.15	.00068954	.0061132	
318.15	.00098201	.0086157	
318.15	.0019392	.016565	
318.15	.002956	.024707	
318.15	.0040465	.033169	
318.15	.0056882	.045508	
318.15	.0078085	.060821	
318.15	.0098565	.075126	
318.15	.011917	.089017	
318.15	.013924	.10224	
318.15	.01584	.11459	

System: N,N-dimethylacetamide + 1-butyl-3-methylimidazolium tetrafluoroborate; phases: Liquid
Fixed: Pressure, kPa = 100
Property: Electrical conductivity, S/m (Liquid); method: Alternating current cell with electrodes
Temperature, K	Molality, mol/kg of 1-butyl-3-methylimidazolium tetrafluoroborate	Electrical conductivity, S/m	uncertainty
283.15	.00039561	.0021612	
283.15	.00067102	.0036275	
283.15	.0009718	.0051999	
283.15	.0019592	.010227	
283.15	.0029756	.01525	
283.15	.0037776	.019105	
283.15	.0059932	.02947	
283.15	.0079763	.03841	
283.15	.009999	.047279	
283.15	.012029	.055972	
283.15	.014082	.064541	
283.15	.015984	.072339	
288.15	.00039561	.0023283	
288.15	.00067102	.0039047	
288.15	.0009718	.0056027	
288.15	.0019592	.011022	
288.15	.0029756	.016416	
288.15	.0037776	.020563	
288.15	.0059932	.03171	
288.15	.0079763	.041353	
288.15	.009999	.050928	
288.15	.012029	.060177	
288.15	.014082	.069536	
288.15	.015984	.07784	
293.15	.00039561	.0025019	
293.15	.00067102	.004196	
293.15	.0009718	.0060224	
293.15	.0019592	.011831	
293.15	.0029756	.017623	
293.15	.0037776	.022088	
293.15	.0059932	.034016	
293.15	.0079763	.044368	
293.15	.009999	.054557	
293.15	.012029	.064588	
293.15	.014082	.074489	
293.15	.015984	.083519	
298.15	.00039561	.0026803	
298.15	.00067102	.0044945	
298.15	.0009718	.0064451	
298.15	.0019592	.012666	
298.15	.0029756	.018852	
298.15	.0037776	.023628	
298.15	.0059932	.036401	
298.15	.0079763	.047396	
298.15	.009999	.058325	
298.15	.012029	.069017	
298.15	.014082	.079576	
298.15	.015984	.089184	
303.15	.00039561	.0028647	
303.15	.00067102	.0047984	
303.15	.0009718	.0068768	
303.15	.0019592	.013508	
303.15	.0029756	.020112	
303.15	.0037776	.025189	
303.15	.0059932	.038756	
303.15	.0079763	.050472	
303.15	.009999	.062033	
303.15	.012029	.073419	
303.15	.014082	.084557	
303.15	.015984	.094781	
308.15	.00039561	.0030385	
308.15	.00067102	.0050953	
308.15	.0009718	.0073024	
308.15	.0019592	.014339	
308.15	.0029756	.021302	
308.15	.0037776	.026664	
308.15	.0059932	.041015	
308.15	.0079763	.053564	
308.15	.009999	.065747	
308.15	.012029	.077654	
308.15	.014082	.089517	
308.15	.015984	.10031	
313.15	.00039561	.00322	
313.15	.00067102	.0053975	
313.15	.0009718	.0077338	
313.15	.0019592	.015175	
313.15	.0029756	.022571	
313.15	.0037776	.028258	
313.15	.0059932	.043439	
313.15	.0079763	.056503	
313.15	.009999	.069408	
313.15	.012029	.082086	
313.15	.014082	.094529	
313.15	.015984	.10588	
318.15	.00039561	.0034051	
318.15	.00067102	.0057039	
318.15	.0009718	.0081707	
318.15	.0019592	.01603	
318.15	.0029756	.023828	
318.15	.0037776	.029817	
318.15	.0059932	.045784	
318.15	.0079763	.059519	
318.15	.009999	.073087	
318.15	.012029	.086346	
318.15	.014082	.099432	
318.15	.015984	.1113	
