Measured thermophysical data. Melting Behavior and Heat of Fusion of Compounds that Undergo Simultaneous Melting and Decomposition: An investigation with HMX
Source: J. Chem. Eng. Data, 2017, 10.1021/acs.jced.6b00769
Compound 1: PETN, C5H8N4O12, purity 99.7%
Compound 2: RDX, C3H6N6O6, purity 99.7%
Compound 3: HMX, C4H8N8O8, purity 99.7%

System: PETN; phases: Crystal 1, Liquid, Air at 1 atmosphere
Property: Normal melting temperature, K (Crystal 1); method: DSC/DTA
Normal melting temperature, K	uncertainty
414.1	.2

System: PETN; phases: Crystal 1, Liquid, Air at 1 atmosphere
Property: Molar enthalpy of transition or fusion, kJ/mol (Crystal 1); method: DSC
Molar enthalpy of transition or fusion, kJ/mol	uncertainty
53.8	3.9

System: RDX; phases: Crystal 1, Liquid, Air at 1 atmosphere
Property: Normal melting temperature, K (Crystal 1); method: DSC/DTA
Normal melting temperature, K	uncertainty
477.1	.1

System: RDX; phases: Crystal 1, Liquid, Air at 1 atmosphere
Property: Molar enthalpy of transition or fusion, kJ/mol (Crystal 1); method: DSC
Molar enthalpy of transition or fusion, kJ/mol	uncertainty
33.9	1

System: HMX; phases: Crystal 1, Liquid, Air at 1 atmosphere
Property: Normal melting temperature, K (Crystal 1); method: DSC/DTA
Normal melting temperature, K	uncertainty
553.9	1.1

System: HMX; phases: Crystal 1, Liquid, Air at 1 atmosphere
Property: Molar enthalpy of transition or fusion, kJ/mol (Crystal 1); method: DSC
Molar enthalpy of transition or fusion, kJ/mol	uncertainty
31.9	3.9

System: RDX + HMX; phases: Liquid, Crystal 1
Fixed: Pressure, kPa = 100
Property: Solid-liquid equilibrium temperature, K (Liquid); method: DSC/DTA
Mole fraction of HMX	Solid-liquid equilibrium temperature, K	uncertainty
1	554.45	
.978	552.51	
.976	552.56	
.97	551.71	
.97	551.61	
.969	552.09	
.967	551.55	
.966	551.45	
.966	551.44	
.965	551.59	
.96	551.52	
.959	551.49	
.957	551.32	
1	554.65	
.945	550.94	
.955	551.02	
.96	551.51	
.961	552.07	
.964	551.03	
.965	551.45	
.966	551.64	
.967	552.15	
.97	552.04	
.971	552.61	
.971	552.15	
.976	551.49	
