Measured thermophysical data. Vapor-Phase (p, .rho., T, x) Behavior and Virial Coefficients for the (Argon + Carbon Dioxide) System
Source: J. Chem. Eng. Data, 2017, 10.1021/acs.jced.6b00687
Compound 1: argon, Ar, purity 99.9990%
Compound 2: carbon dioxide, CO2, purity 99.9995%

System: carbon dioxide + argon; phases: Gas
Property: Mass density, kg/m3 (Gas); method: Buoyancy - hydrostatic balance with magnetic suspension - two sinkers
Pressure, kPa	Temperature, K	Mole fraction of carbon dioxide	Mass density, kg/m3	uncertainty
511.42	273.15	.5	9.60258	
1013.15	273.15	.5	19.3275	
3008.37	273.15	.5	61.4185	
5016.97	273.15	.5	110.665	
6031.11	273.15	.5	138.861	
6410.04	273.15	.5	150.086	
505.28	298.15	.5	8.65443	
1014.59	298.15	.5	17.5824	
2019.19	298.15	.5	35.8258	
3020.69	298.15	.5	54.9064	
4024.4	298.15	.5	75.0005	
5016.98	298.15	.5	95.8895	
6025.36	298.15	.5	118.229	
7045.16	298.15	.5	142.007	
8014.04	298.15	.5	165.743	
516.98	323.15	.49975	8.14761	
1021.95	323.15	.49975	16.244	
3034.02	323.15	.49975	49.9179	
5040.18	323.15	.49975	85.8585	
7040.04	323.15	.49975	124.127	
9016.63	323.15	.49975	164.336	
510.11	273.15	.75093	9.89648	
1005.7	273.15	.75093	20.0055	
2007.28	273.15	.75093	42.2195	
2996.66	273.15	.75093	67.1561	
4022.47	273.15	.75093	97.4841	
4488.6	273.15	.75093	113.378	
5000.59	273.15	.75093	133.062	
508.18	283.15	.75093	9.48215	
1002	283.15	.75093	19.109	
2002.5	283.15	.75093	40.0616	
2989.05	283.15	.75093	63.047	
3992.24	283.15	.75093	89.5274	
4988.06	283.15	.75093	120.07	
6073.3	283.15	.75093	160.561	
6587.97	283.15	.75093	183.67	
7263.79	283.15	.75093	219.753	
502.06	293.15	.75093	9.02478	
1001.82	293.15	.75093	18.3618	
2024.36	293.15	.75093	38.7149	
3001.06	293.15	.75093	60.0081	
4009.01	293.15	.75093	84.353	
4996.79	293.15	.75093	111.184	
6024	293.15	.75093	143.207	
7049.03	293.15	.75093	180.86	
8016.81	293.15	.75093	223.61	
9051.06	293.15	.75093	279.404	
514.24	323.15	.75093	8.34326	
1020.97	323.15	.75093	16.796	
2012.19	323.15	.75093	34.0421	
3036.14	323.15	.75093	52.9514	
4037.8	323.15	.75093	72.6588	
5061.79	323.15	.75093	94.214	
6055.47	323.15	.75093	116.646	
7054.84	323.15	.75093	140.911	
8053.72	323.15	.75093	167.037	
9045.01	323.15	.75093	195.026	
