Measured thermophysical data. Thermodynamic Properties of LiCl + MgSO4 + H2O at Temperatures from 273.15 K to 373.15 K and Representation with Pitzer Ion-Interaction Model
Source: J. Chem. Eng. Data, 2016, 10.1021/acs.jced.5b00987
Compound 1: lithium chloride, ClLi, purity 99.80%
Compound 2: calcium chloride, CaCl2, purity 99.90%
Compound 3: magnesium sulfate, MgO4S, purity 99.95%
Compound 4: water, H2O, purity 99.8%

System: lithium chloride + magnesium sulfate + water; phases: Liquid, Gas
Property: (Relative) activity of water (Liquid); method: isopiestic
Temperature, K	Molality, mol/kg of lithium chloride	Molality, mol/kg of magnesium sulfate	(Relative) activity of water	uncertainty
273.15	.5552	0	.9807	
273.15	.4434	.1887	.9807	
273.15	.3512	.3518	.9807	
273.15	0	1.0257	.9807	
273.15	1.0093	0	.9634	
273.15	.7926	.3374	.9634	
273.15	.6202	.6214	.9634	
273.15	0	1.6894	.9634	
273.15	1.2908	0	.9518	
273.15	1.0038	.4272	.9518	
273.15	.78	.7814	.9518	
273.15	0	2.0188	.9518	
273.15	1.7426	0	.932	
273.15	1.3336	.5676	.932	
273.15	1.0187	1.0206	.932	
273.15	0	2.4615	.932	
273.15	1.9893	0	.9205	
273.15	1.5072	.6414	.9205	
273.15	1.1414	1.1435	.9205	
273.15	0	2.6743	.9205	
273.15	2.6859	0	.8852	
273.15	1.9837	.8443	.8852	
273.15	1.4729	1.4756	.8852	
273.15	3.5148	0	.8375	
273.15	2.5335	1.0782	.8375	
273.15	4.0922	0	.8014	
273.15	2.9015	1.2348	.8014	
298.15	.6186	0	.9786	
298.15	.5931	.0312	.9786	
298.15	.5362	.134	.9786	
298.15	.3886	.3894	.9786	
298.15	.1892	.7537	.9786	
298.15	0	1.1149	.9786	
298.15	1.1137	0	.9596	
298.15	1.0758	.0566	.9596	
298.15	.9543	.2384	.9596	
298.15	.6768	.678	.9596	
298.15	.3216	1.2809	.9596	
298.15	0	1.819	.9596	
298.15	1.7949	0	.9306	
298.15	1.7272	.091	.9306	
298.15	1.5155	.3786	.9306	
298.15	.4729	1.8832	.9306	
298.15	0	2.5412	.9306	
298.15	2.3119	0	.9063	
298.15	2.2191	.1169	.9063	
298.15	1.9315	.4826	.9063	
298.15	1.3113	1.3139	.9063	
298.15	.5711	2.2745	.9063	
298.15	0	2.9876	.9063	
298.15	2.8446	0	.8789	
298.15	2.7228	.1434	.8789	
298.15	2.3525	.5878	.8789	
298.15	1.5553	1.5581	.8789	
298.15	.663	2.6406	.8789	
298.15	1.5847	1.5878	.8756	
298.15	3.0552	0	.8677	
298.15	2.5246	.6308	.8677	
298.15	1.667	1.6704	.8677	
298.15	3.3732	0	.8491	
298.15	3.0705	.3424	.8491	
298.15	1.8048	1.8084	.8491	
298.15	3.8664	0	.82	
298.15	2.0212	2.0252	.82	
298.15	4.5071	0	.7803	
298.15	2.2988	2.3034	.7803	
298.15	5.7476	0	.6967	
298.15	5.4548	.2873	.6967	
323.15	.5787	0	.9804	
323.15	.4989	.1246	.9804	
323.15	.3686	.3693	.9804	
323.15	.1825	.7267	.9804	
323.15	0	1.0933	.9804	
323.15	1.0498	0	.9626	
323.15	.9059	.2263	.9626	
323.15	.6529	.6541	.9626	
323.15	.3139	1.2498	.9626	
323.15	0	1.8096	.9626	
323.15	1.2409	0	.9551	
323.15	1.0677	.2668	.9551	
323.15	.7635	.7649	.9551	
323.15	.3618	1.4406	.9551	
323.15	0	2.053	.9551	
323.15	2.0529	0	.9201	
323.15	1.7398	.4347	.9201	
323.15	1.206	1.2083	.9201	
323.15	.5408	2.1537	.9201	
323.15	0	2.903	.9201	
323.15	2.6112	0	.8932	
323.15	2.1911	.5474	.8932	
323.15	1.4846	1.4874	.8932	
323.15	.645	2.5686	.8932	
323.15	0	3.3699	.8932	
323.15	3.4499	0	.8492	
323.15	2.8571	.7138	.8492	
323.15	1.8809	1.8844	.8492	
323.15	.7887	3.1407	.8492	
323.15	0	4.0057	.8492	
323.15	3.6858	0	.8357	
323.15	3.0426	.7602	.8357	
323.15	1.9891	1.9927	.8357	
323.15	.8241	3.2815	.8357	
323.15	4.7233	0	.7738	
323.15	3.8679	.9664	.7738	
323.15	2.4528	2.4573	.7738	
323.15	4.8662	0	.7651	
323.15	4.4098	.4911	.7651	
323.15	4.1905	.7476	.7651	
323.15	3.9698	.9918	.7651	
323.15	5.4467	0	.7278	
323.15	4.9206	.5486	.7278	
323.15	5.79	0	.7054	
323.15	5.5257	.291	.7054	
323.15	6.7613	0	.6406	
323.15	6.6959	.0789	.6406	
348.15	.3556	0	.9879	
348.15	.3158	.0789	.9879	
348.15	.2349	.2353	.9879	
348.15	.1181	.4703	.9879	
348.15	0	.7264	.9879	
348.15	.9653	0	.966	
348.15	.8399	.2098	.966	
348.15	.6173	.6185	.966	
348.15	.3052	1.2154	.966	
348.15	0	1.808	.966	
348.15	1.5002	0	.9448	
348.15	1.2938	.3232	.9448	
348.15	.9338	.9355	.9448	
348.15	.4434	1.7656	.9448	
348.15	0	2.5033	.9448	
348.15	1.9036	0	.928	
348.15	1.6329	.408	.928	
348.15	1.1565	1.1586	.928	
348.15	.5341	2.127	.928	
348.15	0	2.9041	.928	
348.15	2.4268	0	.9054	
348.15	2.0635	.5156	.9054	
348.15	1.4108	1.4134	.9054	
348.15	0	3.3833	.9054	
348.15	2.7073	0	.8909	
348.15	2.2908	.5723	.8909	
348.15	1.5737	1.5766	.8909	
348.15	.6931	2.7599	.8909	
348.15	0	3.6563	.8909	
348.15	3.2095	0	.8655	
348.15	2.695	.6733	.8655	
348.15	1.8208	1.8241	.8655	
348.15	.7829	3.1177	.8655	
348.15	0	4.0572	.8655	
348.15	3.8706	0	.8291	
348.15	3.2204	.8046	.8291	
348.15	2.1341	2.138	.8291	
348.15	.8943	3.5611	.8291	
348.15	0	4.5552	.8291	
348.15	2.4035	2.4079	.7944	
348.15	.9888	3.9375	.7944	
348.15	1.0982	4.3732	.7529	
348.15	4.77	.851	.7316	
348.15	6.2063	0	.6902	
348.15	5.9507	.3134	.6902	
348.15	6.7188	0	.6573	
348.15	6.6751	.0787	.6573	
348.15	7.3327	0	.6177	
348.15	7.1539	.2225	.6177	
373.15	1.051	0	.9637	
373.15	.6852	.6864	.9637	
373.15	0	2.1092	.9637	
373.15	1.5866	0	.9428	
373.15	1.3866	.3464	.9428	
373.15	1.0145	1.0164	.9428	
373.15	0	2.7872	.9428	
373.15	2.521	0	.9018	
373.15	2.1694	.542	.9018	
373.15	1.535	1.5378	.9018	
373.15	.7006	2.79	.9018	
373.15	0	3.7601	.9018	
373.15	2.5905	0	.8988	
373.15	2.2262	.5562	.8988	
373.15	1.5677	1.5706	.8988	
373.15	.7148	2.8469	.8988	
373.15	0	3.822	.8988	
373.15	3.5359	0	.8518	
373.15	3.0058	.751	.8518	
373.15	2.0541	2.0579	.8518	
373.15	.8925	3.5544	.8518	
373.15	0	4.6129	.8518	
373.15	3.9625	0	.8296	
373.15	3.3381	.834	.8296	
373.15	2.2651	2.2693	.8296	
373.15	.9733	3.8763	.8296	
373.15	0	4.9796	.8296	
373.15	4.8185	0	.7821	
373.15	4.0535	1.0128	.7821	
373.15	2.685	2.6899	.7821	
373.15	1.1213	4.4655	.7821	
373.15	0	5.6512	.7821	
373.15	5.1677	0	.7626	
373.15	4.3047	1.0755	.7626	
373.15	2.8567	2.8619	.7626	
373.15	5.2992	0	.7527	
373.15	4.4696	1.1167	.7527	
373.15	1.2159	4.8426	.7527	
373.15	5.9644	0	.7148	
373.15	5.8429	.1818	.7148	
373.15	5.7564	.3032	.7148	
373.15	6.3912	0	.6881	
373.15	6.2482	.1944	.6881	
373.15	7.0004	0	.6514	
373.15	6.8958	.2145	.6514	
