Measured thermophysical data. Thermodynamics of amide + amine mixtures. 1. Volumetric, speed of sound, and refractive index data for N,Ndimethylformamide + N-propylpropan-1-amine, + N-butylbutan-1-amine, + butan-1-amine, or + hexan-1-amine systems at several temperatures
Source: J. Chem. Eng. Data, 2016, 10.1021/acs.jced.5b00802
Compound 1: N,N-dimethylformamide, C3H7NO, purity 99.5%
Compound 2: N-propyl-1-propanamine, C6H15N, purity 99%
Compound 3: N-butylbutanamine, C8H19N, purity 99.5%
Compound 4: 1-aminobutane, C4H11N, purity 99%
Compound 5: 1-aminohexane, C6H15N, purity 99.5%

System: N,N-dimethylformamide; phases: Liquid
Fixed: Pressure, kPa = 101.325
Property: Mass density, kg/m3 (Liquid); method: Vibrating tube method
Temperature, K	Mass density, kg/m3	uncertainty
293.15	948.881	
298.15	944.081	
303.15	939.361	

System: N,N-dimethylformamide; phases: Liquid
Fixed: Pressure, kPa = 101.325
Property: Speed of sound, m/s (Liquid); method: Sing-around technique in a fixed-path interferometer
Temperature, K	Speed of sound, m/s	uncertainty
293.15	1476.8	
298.15	1457.2	
303.15	1438.2	

System: N,N-dimethylformamide; phases: Liquid
Fixed: Pressure, kPa = 101.325
Property: Refractive index (Na D-line) (Liquid); method: Standard Abbe refractometry
Temperature, K	Refractive index (Na D-line)	uncertainty
293.15	1.43055	
298.15	1.42828	
303.15	1.42603	

System: N-propyl-1-propanamine; phases: Liquid
Fixed: Pressure, kPa = 101.325
Property: Mass density, kg/m3 (Liquid); method: Vibrating tube method
Temperature, K	Mass density, kg/m3	uncertainty
293.15	738.194	
298.15	733.618	
303.15	729.098	

System: N-propyl-1-propanamine; phases: Liquid
Fixed: Pressure, kPa = 101.325
Property: Speed of sound, m/s (Liquid); method: Sing-around technique in a fixed-path interferometer
Temperature, K	Speed of sound, m/s	uncertainty
293.15	1209.4	
298.15	1187.7	
303.15	1167.2	

System: N-propyl-1-propanamine; phases: Liquid
Fixed: Pressure, kPa = 101.325
Property: Refractive index (Na D-line) (Liquid); method: Standard Abbe refractometry
Temperature, K	Refractive index (Na D-line)	uncertainty
293.15	1.40432	
298.15	1.40139	
303.15	1.39883	

System: N-butylbutanamine; phases: Liquid
Fixed: Pressure, kPa = 101.325
Property: Mass density, kg/m3 (Liquid); method: Vibrating tube method
Temperature, K	Mass density, kg/m3	uncertainty
293.15	759.695	
298.15	755.525	
303.15	751.458	

System: N-butylbutanamine; phases: Liquid
Fixed: Pressure, kPa = 101.325
Property: Speed of sound, m/s (Liquid); method: Sing-around technique in a fixed-path interferometer
Temperature, K	Speed of sound, m/s	uncertainty
293.15	1261.1	
298.15	1241.5	
303.15	1222.5	

System: N-butylbutanamine; phases: Liquid
Fixed: Pressure, kPa = 101.325
Property: Refractive index (Na D-line) (Liquid); method: Standard Abbe refractometry
Temperature, K	Refractive index (Na D-line)	uncertainty
293.15	1.41724	
298.15	1.41488	
303.15	1.41253	

System: 1-aminobutane; phases: Liquid
Fixed: Pressure, kPa = 101.325
Property: Mass density, kg/m3 (Liquid); method: Vibrating tube method
Temperature, K	Mass density, kg/m3	uncertainty
293.15	737.048	
298.15	732.231	
303.15	727.452	

System: 1-aminobutane; phases: Liquid
Fixed: Pressure, kPa = 101.325
Property: Speed of sound, m/s (Liquid); method: Sing-around technique in a fixed-path interferometer
Temperature, K	Speed of sound, m/s	uncertainty
293.15	1268.3	
298.15	1246	
303.15	1224.6	

System: 1-aminobutane; phases: Liquid
Fixed: Pressure, kPa = 101.325
Property: Refractive index (Na D-line) (Liquid); method: Standard Abbe refractometry
Temperature, K	Refractive index (Na D-line)	uncertainty
293.15	1.4006	
298.15	1.39786	
303.15	1.395	

System: 1-aminohexane; phases: Liquid
Fixed: Pressure, kPa = 101.325
Property: Mass density, kg/m3 (Liquid); method: Vibrating tube method
Temperature, K	Mass density, kg/m3	uncertainty
293.15	764.423	
298.15	760.073	
303.15	755.848	

System: 1-aminohexane; phases: Liquid
Fixed: Pressure, kPa = 101.325
Property: Speed of sound, m/s (Liquid); method: Sing-around technique in a fixed-path interferometer
Temperature, K	Speed of sound, m/s	uncertainty
293.15	1324	
298.15	1303.6	
303.15	1283.6	

System: 1-aminohexane; phases: Liquid
Fixed: Pressure, kPa = 101.325
Property: Refractive index (Na D-line) (Liquid); method: Standard Abbe refractometry
Temperature, K	Refractive index (Na D-line)	uncertainty
298.15	1.41577	

System: N,N-dimethylformamide + N-propyl-1-propanamine; phases: Liquid
Fixed: Pressure, kPa = 100
Property: Mass density, kg/m3 (Liquid); method: Vibrating tube method
Temperature, K	Mole fraction of N,N-dimethylformamide	Mass density, kg/m3	uncertainty
293.15	.06	745.894	
293.15	.1071	752.141	
293.15	.156	758.933	
293.15	.1975	764.87	
293.15	.249	772.54	
293.15	.3099	782.194	
293.15	.3463	788.151	
293.15	.3985	797.199	
293.15	.448	806.192	
298.15	.0626	741.577	
298.15	.1083	747.697	
298.15	.1544	754.025	
298.15	.2541	768.732	
298.15	.3148	778.293	
298.15	.3609	786.012	
298.15	.4077	794.223	
298.15	.4966	810.8	
303.15	.0453	734.885	
303.15	.1034	742.55	
303.15	.1963	755.529	
303.15	.2582	764.775	
303.15	.3559	780.614	
303.15	.4099	790.03	
303.15	.4565	798.539	
293.15	.4974	815.656	
293.15	.5487	825.989	
293.15	.6562	849.651	
293.15	.7514	873.097	
293.15	.8216	892.212	
293.15	.8501	900.523	
293.15	.9025	916.508	
293.15	.9486	931.283	
298.15	.5386	819.199	
298.15	.6082	833.997	
298.15	.6527	844.084	
298.15	.7477	867.448	
298.15	.8063	883.226	
298.15	.902	911.457	
298.15	.9482	926.367	
303.15	.5415	815.193	
303.15	.6016	827.909	
303.15	.6517	839.209	
303.15	.7502	863.388	
303.15	.8498	890.941	
303.15	.9	906.165	
303.15	.9498	922.203	

System: N,N-dimethylformamide + N-propyl-1-propanamine; phases: Liquid
Fixed: Pressure, kPa = 100
Property: Refractive index (Na D-line) (Liquid); method: Standard Abbe refractometry
Temperature, K	Mole fraction of N,N-dimethylformamide	Refractive index (Na D-line)	uncertainty
293.15	.06	1.40543	
293.15	.1556	1.40725	
293.15	.2614	1.40952	
293.15	.3463	1.4114	
293.15	.3985	1.41266	
293.15	.4554	1.41402	
293.15	.5487	1.41645	
293.15	.6018	1.41789	
293.15	.7033	1.42079	
293.15	.8216	1.42444	
293.15	.8844	1.42653	
293.15	.9486	1.42882	
298.15	.0626	1.40259	
298.15	.1083	1.40358	
298.15	.1544	1.40443	
298.15	.2541	1.40662	
298.15	.3148	1.40796	
298.15	.3609	1.40908	
298.15	.4077	1.41017	
298.15	.4966	1.41247	
298.15	.6527	1.41673	
298.15	.7477	1.4196	
298.15	.8063	1.42147	
298.15	.902	1.42478	
298.15	.9482	1.42645	
303.15	.0453	1.39971	
303.15	.1034	1.40091	
303.15	.1963	1.40293	
303.15	.2582	1.40419	
303.15	.3559	1.40647	
303.15	.4099	1.40779	
303.15	.6016	1.41295	
303.15	.7502	1.41745	
303.15	.8498	1.4207	
303.15	.9	1.42246	
303.15	.9498	1.42417	

System: N,N-dimethylformamide + N-propyl-1-propanamine; phases: Liquid
Fixed: Pressure, kPa = 100
Fixed: Frequency, MHz = 3
Property: Speed of sound, m/s (Liquid); method: Sing-around technique in a fixed-path interferometer
Temperature, K	Mole fraction of N,N-dimethylformamide	Speed of sound, m/s	uncertainty
293.15	.06	1218.2	
293.15	.1071	1225	
293.15	.156	1232.9	
293.15	.1975	1239.3	
293.15	.249	1248.1	
293.15	.3099	1259.4	
293.15	.3463	1266.2	
293.15	.3985	1276.9	
293.15	.448	1287.6	
298.15	.0626	1196.9	
298.15	.1083	1204	
298.15	.1544	1211.2	
298.15	.2541	1228.1	
298.15	.3148	1239.3	
298.15	.3609	1248.3	
298.15	.4077	1258.2	
298.15	.4966	1278.5	
303.15	.0453	1174	
303.15	.1034	1183	
303.15	.1963	1198	
303.15	.2582	1208.8	
303.15	.3559	1227.6	
303.15	.4099	1239	
303.15	.4565	1249.4	
293.15	.4974	1299.2	
293.15	.5487	1312	
293.15	.6562	1342.1	
293.15	.7514	1373.4	
293.15	.8216	1399.8	
293.15	.8501	1411.2	
293.15	.9025	1433.3	
293.15	.9486	1453.4	
298.15	.5386	1288.9	
298.15	.6082	1307.9	
298.15	.6527	1321.1	
298.15	.7477	1352.4	
298.15	.8063	1374	
298.15	.902	1413.1	
298.15	.9482	1433.5	
303.15	.5415	1270.3	
303.15	.6016	1286.6	
303.15	.6517	1301.4	
303.15	.7502	1334	
303.15	.8498	1372	
303.15	.9	1393.2	
303.15	.9498	1415.2	

System: N,N-dimethylformamide + N-butylbutanamine; phases: Liquid
Fixed: Pressure, kPa = 100
Property: Mass density, kg/m3 (Liquid); method: Vibrating tube method
Temperature, K	Mole fraction of N,N-dimethylformamide	Mass density, kg/m3	uncertainty
298.15	.0642	761.171	
298.15	.1134	765.782	
298.15	.1647	770.882	
298.15	.2121	775.872	
298.15	.2734	782.835	
298.15	.3213	788.624	
298.15	.4114	800.702	
298.15	.4526	806.766	
298.15	.5072	815.344	
298.15	.5574	823.977	
298.15	.5996	831.688	
298.15	.6514	842.013	
298.15	.6869	849.571	
298.15	.7361	860.924	
298.15	.7904	874.714	
298.15	.8418	889.103	
298.15	.8921	904.666	
298.15	.9471	923.65	

System: N,N-dimethylformamide + N-butylbutanamine; phases: Liquid
Fixed: Pressure, kPa = 100
Property: Refractive index (Na D-line) (Liquid); method: Standard Abbe refractometry
Temperature, K	Mole fraction of N,N-dimethylformamide	Refractive index (Na D-line)	uncertainty
298.15	.1038	1.41553	
298.15	.2076	1.41628	
298.15	.3608	1.41761	
298.15	.4897	1.419	
298.15	.5933	1.42034	
298.15	.688	1.42178	
298.15	.7709	1.42323	
298.15	.8398	1.42459	
298.15	.8989	1.42587	
298.15	.9497	1.42706	
298.15	.9738	1.42765	

System: N,N-dimethylformamide + N-butylbutanamine; phases: Liquid
Fixed: Pressure, kPa = 100
Fixed: Frequency, MHz = 3
Property: Speed of sound, m/s (Liquid); method: Sing-around technique in a fixed-path interferometer
Temperature, K	Mole fraction of N,N-dimethylformamide	Speed of sound, m/s	uncertainty
298.15	.0642	1246.4	
298.15	.1134	1250.5	
298.15	.1647	1255	
298.15	.2121	1259.5	
298.15	.2734	1266.1	
298.15	.3213	1271.6	
298.15	.4114	1283.5	
298.15	.4526	1289.7	
298.15	.5072	1298.6	
298.15	.5574	1307.9	
298.15	.5996	1316.3	
298.15	.6514	1328.1	
298.15	.6869	1336.8	
298.15	.7361	1350.4	
298.15	.7904	1367.5	
298.15	.8418	1385.9	
298.15	.8921	1406.1	
298.15	.9471	1431	

System: N,N-dimethylformamide + 1-aminobutane; phases: Liquid
Fixed: Pressure, kPa = 100
Property: Mass density, kg/m3 (Liquid); method: Vibrating tube method
Temperature, K	Mole fraction of N,N-dimethylformamide	Mass density, kg/m3	uncertainty
293.15	.0599	747.39	
293.15	.1056	755.445	
293.15	.1591	765.035	
293.15	.2505	782.005	
293.15	.3017	791.811	
293.15	.3583	802.88	
293.15	.3992	811.114	
293.15	.5059	833.13	
293.15	.5483	842.154	
293.15	.6569	866.102	
293.15	.6999	875.844	
293.15	.7537	888.314	
293.15	.8036	900.101	
293.15	.8579	913.315	
293.15	.9048	924.751	
293.15	.9546	937.212	
298.15	.0575	742.224	
298.15	.1092	751.333	
298.15	.1519	759.015	
298.15	.2043	768.674	
298.15	.2448	776.215	
298.15	.309	788.51	
298.15	.3558	797.705	
298.15	.3986	806.285	
298.15	.4381	814.268	
298.15	.5028	827.736	
298.15	.6005	848.795	
298.15	.6934	869.781	
298.15	.7572	884.516	
298.15	.8056	895.958	
298.15	.9076	920.837	
298.15	.9553	932.723	
303.15	.0505	736.213	
303.15	.1477	753.539	
303.15	.2019	763.466	
303.15	.241	770.708	
303.15	.3024	782.423	
303.15	.3558	792.882	
303.15	.4358	808.96	
303.15	.5114	824.673	
303.15	.5281	828.281	
303.15	.6056	845.104	
303.15	.696	865.473	
303.15	.7558	879.286	
303.15	.8006	889.962	
303.15	.8544	902.88	
303.15	.8998	914.033	
303.15	.9466	925.732	

System: N,N-dimethylformamide + 1-aminobutane; phases: Liquid
Fixed: Pressure, kPa = 100
Property: Refractive index (Na D-line) (Liquid); method: Standard Abbe refractometry
Temperature, K	Mole fraction of N,N-dimethylformamide	Refractive index (Na D-line)	uncertainty
293.15	.0599	1.40222	
293.15	.1056	1.40348	
293.15	.1591	1.40498	
293.15	.201	1.40619	
293.15	.2505	1.4076	
293.15	.3017	1.40911	
293.15	.3583	1.41079	
293.15	.3992	1.412	
293.15	.4401	1.41322	
293.15	.5059	1.41521	
293.15	.6043	1.41829	
293.15	.6569	1.41992	
293.15	.6999	1.42126	
293.15	.7537	1.42292	
293.15	.8036	1.42448	
293.15	.8579	1.42618	
293.15	.9048	1.42763	
293.15	.9546	1.42915	
298.15	.0575	1.39946	
298.15	.1092	1.40093	
298.15	.1519	1.40215	
298.15	.2043	1.40367	
298.15	.2448	1.40485	
298.15	.309	1.4068	
298.15	.3558	1.4082	
298.15	.5028	1.41274	
298.15	.6005	1.41578	
298.15	.6608	1.41769	
298.15	.6934	1.41871	
298.15	.7572	1.42076	
298.15	.8056	1.4223	
298.15	.8546	1.42383	
298.15	.9076	1.42553	
298.15	.9553	1.42705	
303.15	.0505	1.39644	
303.15	.1477	1.39927	
303.15	.2019	1.40087	
303.15	.241	1.40209	
303.15	.3024	1.40392	
303.15	.3558	1.40552	
303.15	.3992	1.40686	
303.15	.4358	1.40802	
303.15	.5114	1.41041	
303.15	.5281	1.41094	
303.15	.6056	1.41337	
303.15	.6574	1.41502	
303.15	.696	1.41625	
303.15	.7558	1.4182	
303.15	.8006	1.41964	
303.15	.8544	1.42138	
303.15	.8998	1.42282	
303.15	.9466	1.42431	

System: N,N-dimethylformamide + 1-aminobutane; phases: Liquid
Fixed: Pressure, kPa = 100
Fixed: Frequency, MHz = 3
Property: Speed of sound, m/s (Liquid); method: Sing-around technique in a fixed-path interferometer
Temperature, K	Mole fraction of N,N-dimethylformamide	Speed of sound, m/s	uncertainty
293.15	.0599	1277.7	
293.15	.1056	1285	
293.15	.1591	1293.8	
293.15	.2505	1309.6	
293.15	.3017	1318.9	
293.15	.3583	1329.6	
293.15	.3992	1337.8	
293.15	.5059	1359.6	
293.15	.5483	1368.9	
293.15	.6569	1393.7	
293.15	.6999	1404	
293.15	.7537	1416.7	
293.15	.8036	1429	
293.15	.8579	1442.3	
293.15	.9048	1453.7	
293.15	.9546	1465.6	
298.15	.0575	1255.4	
298.15	.1092	1263.9	
298.15	.1519	1271.1	
298.15	.2043	1280.1	
298.15	.2448	1287.4	
298.15	.309	1299.3	
298.15	.3558	1308.4	
298.15	.3986	1317	
298.15	.4381	1324.9	
298.15	.5028	1338.6	
298.15	.6005	1360.6	
298.15	.6934	1382.5	
298.15	.7572	1398	
298.15	.8056	1410	
298.15	.9076	1435.1	
298.15	.9553	1446.6	
303.15	.0505	1233	
303.15	.1477	1249.4	
303.15	.2019	1259	
303.15	.241	1266	
303.15	.3024	1277.5	
303.15	.3558	1287.8	
303.15	.4358	1304.1	
303.15	.5114	1320.3	
303.15	.5281	1324	
303.15	.6056	1341.6	
303.15	.696	1363.2	
303.15	.7558	1377.7	
303.15	.8006	1389	
303.15	.8544	1402.3	
303.15	.8998	1413.7	
303.15	.9466	1425.2	

System: N,N-dimethylformamide + 1-aminohexane; phases: Liquid
Fixed: Pressure, kPa = 100
Property: Mass density, kg/m3 (Liquid); method: Vibrating tube method
Temperature, K	Mole fraction of N,N-dimethylformamide	Mass density, kg/m3	uncertainty
298.15	.0506	765.582	
298.15	.0992	771.096	
298.15	.1725	779.897	
298.15	.2548	790.546	
298.15	.3476	803.611	
298.15	.4461	818.861	
298.15	.55	836.751	
298.15	.6022	846.551	
298.15	.7056	867.688	
298.15	.7996	889.217	
298.15	.8492	901.602	
298.15	.8982	914.549	
298.15	.953	929.99	

System: N,N-dimethylformamide + 1-aminohexane; phases: Liquid
Fixed: Pressure, kPa = 100
Property: Refractive index (Na D-line) (Liquid); method: Standard Abbe refractometry
Temperature, K	Mole fraction of N,N-dimethylformamide	Refractive index (Na D-line)	uncertainty
298.15	.0506	1.41613	
298.15	.1725	1.41707	
298.15	.2548	1.41779	
298.15	.3476	1.4187	
298.15	.4461	1.4198	
298.15	.55	1.42107	
298.15	.6558	1.42257	
298.15	.7573	1.42411	
298.15	.8492	1.42564	
298.15	.953	1.42747	

System: N,N-dimethylformamide + 1-aminohexane; phases: Liquid
Fixed: Pressure, kPa = 100
Fixed: Frequency, MHz = 3
Property: Speed of sound, m/s (Liquid); method: Sing-around technique in a fixed-path interferometer
Temperature, K	Mole fraction of N,N-dimethylformamide	Speed of sound, m/s	uncertainty
298.15	.0506	1307.1	
298.15	.0992	1310.8	
298.15	.1725	1316.7	
298.15	.2548	1324.2	
298.15	.3476	1333.7	
298.15	.4461	1345.5	
298.15	.55	1360.1	
298.15	.6022	1368.3	
298.15	.7056	1387.1	
298.15	.7996	1406.8	
298.15	.8492	1418.4	
298.15	.8982	1430.4	
298.15	.953	1444.7	
