Measured thermophysical data. Phase diagram of the NaCl+RbCl+H2O system
Source: J. Chem. Eng. Data, 2017, 10.1021/acs.jced.6b00879
Compound 1: rubidium chloride, ClRb, purity 99.95%
Compound 2: sodium chloride, ClNa
Compound 3: water, H2O, purity 99.8%

System: sodium chloride + water + rubidium chloride; phases: Liquid, Crystal
Fixed: Pressure, kPa = 100
Property: Mass fraction of rubidium chloride (Liquid); method: Titration method
Temperature, K	Mass fraction of sodium chloride	Mass fraction of rubidium chloride	uncertainty
298.15	0	.4829	
298.15	.0273	.4472	
298.15	.0614	.4144	
298.15	.0722	.4029	
298.15	.0975	.3733	
298.15	.1259	.3448	
298.15	.1251	.3475	
298.15	.1306	.3408	
298.15	.131	.3395	
273.15	0	.4369	
273.15	.0311	.4005	
273.15	.0637	.363	
273.15	.0788	.3479	
273.15	.1068	.318	
273.15	.1353	.2888	
273.15	.1591	.2646	
273.15	.1598	.2631	
263.15	.239	.1648	
323.15	.3964	.1129	
338.15	.4229	.1046	
348.15	.4341	.1034	

System: sodium chloride + water + rubidium chloride; phases: Liquid, Crystal
Fixed: Pressure, kPa = 100
Property: Mass fraction of rubidium chloride (Liquid); method: Titration method
Temperature, K	Mass fraction of sodium chloride	Mass fraction of rubidium chloride	uncertainty
298.15	.1306	.3408	
298.15	.131	.3395	
298.15	.1535	.2806	
298.15	.1732	.2275	
298.15	.2014	.1541	
298.15	.2023	.1521	
298.15	.2217	.1013	
298.15	.2463	.0457	
298.15	.2652	0	
273.15	.1591	.2646	
273.15	.1598	.2631	
273.15	.1698	.2322	
273.15	.2006	.1543	
273.15	.2018	.1537	
273.15	.223	.0986	
273.15	.2448	.0449	
273.15	.2632	0	
323.15	.3964	.1129	
338.15	.4229	.1046	
348.15	.4341	.1034	

System: sodium chloride + water + rubidium chloride; phases: Liquid, Crystal of intercomponent compound 1
Fixed: Pressure, kPa = 100
Property: Mass fraction of rubidium chloride (Liquid); method: Titration method
Temperature, K	Mass fraction of sodium chloride	Mass fraction of rubidium chloride	uncertainty
263.15	.239	.1648	

System: water + rubidium chloride; phases: Liquid, Crystal
Property: Mass fraction of rubidium chloride (Liquid); method: Titration method
Temperature, K	Pressure, kPa	Mass fraction of rubidium chloride	uncertainty
298.15	100	.4829	
273.15	100	.4369	

System: sodium chloride + water; phases: Liquid, Crystal
Property: Mass fraction of sodium chloride (Liquid); method: Titration method
Temperature, K	Pressure, kPa	Mass fraction of sodium chloride	uncertainty
298.15	100	.2652	
273.15	100	.2632	
