Measured thermophysical data. Diffusion Coefficients of Carbon Dioxide in Eight Hydrocarbon Liquids at Temperatures between (298.15 and 423.15) K at Pressures up to 69 MPa
Source: J. Chem. Eng. Data, 2016, 10.1021/acs.jced.6b00691
Compound 1: carbon dioxide, CO2, purity 99.995%
Compound 2: hexane, C6H14, purity 97%
Compound 3: heptane, C7H16, purity 99%
Compound 4: octane, C8H18, purity 99%
Compound 5: decane, C10H22, purity 99%
Compound 6: dodecane, C12H26, purity 99%
Compound 7: hexadecane, C16H34, purity 99%
Compound 8: squalane, C30H62, purity 99%
Compound 9: methylbenzene, C7H8, purity 99.9%

System: hexane + carbon dioxide; phases: Liquid
Fixed: Mole fraction of carbon dioxide = 0
Property: Binary diffusion coefficient, m2/s (Liquid); method: Taylor dispersion method
Temperature, K	Pressure, kPa	Binary diffusion coefficient, m2/s	uncertainty
298	1300	0.00000000832	
298	23000	0.00000000727	
298	49000	0.00000000606	
298	65000	0.00000000513	
323	1200	0.0000000105	
323	22000	0.00000000927	
323	50000	0.00000000761	
323	66000	0.00000000715	
373	1200	0.0000000158	
373	22000	0.0000000134	
373	49000	0.000000011	
373	64000	0.0000000103	
423	1200	0.0000000187	
423	22000	0.0000000179	
423	48000	0.0000000149	
423	64000	0.0000000137	

System: carbon dioxide + heptane; phases: Liquid
Fixed: Mole fraction of carbon dioxide = 0
Property: Binary diffusion coefficient, m2/s (Liquid); method: Taylor dispersion method
Temperature, K	Pressure, kPa	Binary diffusion coefficient, m2/s	uncertainty
298	1000	0.00000000728	
298	10000	0.00000000682	
298	31000	0.0000000059	
298	50000	0.00000000537	
298	68000	0.00000000506	
323	1000	0.00000000925	
323	10000	0.00000000872	
323	30000	0.00000000764	
323	51000	0.00000000695	
323	68000	0.00000000637	
348	1000	0.0000000114	
348	10000	0.0000000102	
348	30000	0.0000000094	
348	48000	0.0000000081	
348	67000	0.00000000789	
373	1000	0.0000000137	
373	10000	0.0000000125	
373	30000	0.0000000112	
373	49000	0.00000000995	
373	68000	0.00000000932	
398	1000	0.0000000161	
398	10000	0.0000000149	
398	30000	0.0000000131	
398	50000	0.0000000117	
398	68000	0.0000000109	
423	1000	0.000000018	
423	10000	0.0000000168	
423	30000	0.000000015	
423	50000	0.0000000136	
423	68000	0.0000000123	

System: octane + carbon dioxide; phases: Liquid
Fixed: Mole fraction of carbon dioxide = 0
Property: Binary diffusion coefficient, m2/s (Liquid); method: Taylor dispersion method
Temperature, K	Pressure, kPa	Binary diffusion coefficient, m2/s	uncertainty
298	1000	0.00000000632	
298	11000	0.00000000566	
298	33000	0.00000000472	
298	50000	0.00000000428	
298	66000	0.00000000383	
323	900	0.00000000819	
323	11000	0.00000000736	
323	32000	0.0000000061	
323	51000	0.00000000562	
323	68000	0.0000000051	
348	900	0.0000000104	
348	11000	0.00000000898	
348	33000	0.0000000077	
348	50000	0.00000000707	
348	69000	0.00000000654	
373	1100	0.0000000126	
373	11000	0.0000000111	
373	31000	0.00000000946	
373	50000	0.00000000887	
373	67000	0.00000000801	
398	1100	0.0000000148	
398	11000	0.0000000134	
398	31000	0.0000000114	
398	51000	0.0000000106	
398	69000	0.00000000967	
423	1100	0.0000000167	
423	11000	0.0000000162	
423	29000	0.0000000136	
423	51000	0.0000000127	
423	65000	0.0000000114	

System: decane + carbon dioxide; phases: Liquid
Fixed: Mole fraction of carbon dioxide = 0
Property: Binary diffusion coefficient, m2/s (Liquid); method: Taylor dispersion method
Temperature, K	Pressure, kPa	Binary diffusion coefficient, m2/s	uncertainty
298	1100	0.00000000469	
298	22000	0.000000004	
298	45000	0.00000000322	
298	68000	0.00000000284	
323	1100	0.00000000644	
323	22000	0.00000000541	
323	46000	0.00000000439	
323	68000	0.00000000391	
373	1100	0.0000000104	
373	22000	0.00000000876	
373	44000	0.00000000708	
373	67000	0.00000000634	
423	1100	0.0000000151	
423	21000	0.0000000127	
423	43000	0.0000000102	
423	66000	0.00000000917	

System: dodecane + carbon dioxide; phases: Liquid
Fixed: Mole fraction of carbon dioxide = 0
Property: Binary diffusion coefficient, m2/s (Liquid); method: Taylor dispersion method
Temperature, K	Pressure, kPa	Binary diffusion coefficient, m2/s	uncertainty
298	1300	0.00000000372	
298	24000	0.0000000031	
298	47000	0.00000000265	
323	1200	0.00000000553	
323	25000	0.00000000423	
323	46000	0.00000000365	
323	63000	0.00000000344	
373	1200	0.0000000093	
373	24000	0.00000000757	
373	46000	0.00000000654	
373	61000	0.00000000598	
423	1200	0.0000000135	
423	23000	0.0000000114	
423	46000	0.00000000975	
423	65000	0.00000000865	

System: carbon dioxide + hexadecane; phases: Liquid
Fixed: Mole fraction of carbon dioxide = 0
Property: Binary diffusion coefficient, m2/s (Liquid); method: Taylor dispersion method
Temperature, K	Pressure, kPa	Binary diffusion coefficient, m2/s	uncertainty
298	1000	0.00000000249	
298	10000	0.00000000231	
298	30000	0.00000000208	
323	1100	0.00000000375	
323	10000	0.00000000341	
323	30000	0.00000000317	
323	51000	0.00000000261	
323	69000	0.00000000251	
348	1000	0.00000000513	
348	10000	0.00000000464	
348	30000	0.00000000437	
348	50000	0.00000000377	
348	67000	0.00000000349	
373	1100	0.00000000672	
373	10000	0.00000000617	
373	30000	0.00000000588	
373	52000	0.00000000484	
373	67000	0.00000000467	
398	1100	0.00000000853	
398	29000	0.00000000742	
398	53000	0.00000000627	
398	69000	0.00000000586	
423	1100	0.0000000104	
423	10000	0.00000000972	
423	29000	0.00000000916	
423	45000	0.00000000796	
423	69000	0.00000000707	

System: squalane + carbon dioxide; phases: Liquid
Fixed: Mole fraction of carbon dioxide = 0
Property: Binary diffusion coefficient, m2/s (Liquid); method: Taylor dispersion method
Temperature, K	Pressure, kPa	Binary diffusion coefficient, m2/s	uncertainty
298	1100	0.00000000096	
298	10000	0.00000000086	
298	32000	0.00000000069	
298	52000	0.00000000056	
298	66000	0.00000000049	
323	1100	0.00000000178	
323	10000	0.00000000161	
323	30000	0.00000000135	
323	52000	0.00000000114	
323	64000	0.00000000102	
348	1000	0.00000000283	
348	11000	0.00000000257	
348	31000	0.00000000218	
348	50000	0.00000000194	
348	67000	0.00000000173	
373	1000	0.00000000406	
373	10000	0.00000000372	
373	30000	0.00000000321	
373	47000	0.00000000288	
373	66000	0.00000000258	
398	1000	0.00000000545	
398	11000	0.00000000498	
398	31000	0.00000000438	
398	50000	0.00000000389	
398	66000	0.00000000355	
423	1000	0.00000000701	
423	11000	0.00000000636	
423	30000	0.00000000569	
423	50000	0.000000005	
423	67000	0.0000000046	

System: methylbenzene + carbon dioxide; phases: Liquid
Fixed: Mole fraction of carbon dioxide = 0
Property: Binary diffusion coefficient, m2/s (Liquid); method: Taylor dispersion method
Temperature, K	Pressure, kPa	Binary diffusion coefficient, m2/s	uncertainty
298	1000	0.00000000553	
298	11000	0.00000000509	
298	30000	0.00000000477	
298	48000	0.00000000428	
298	68000	0.00000000392	
323	1000	0.00000000728	
323	10000	0.00000000678	
323	30000	0.00000000632	
323	49000	0.0000000057	
323	66000	0.00000000517	
348	1000	0.00000000926	
348	11000	0.00000000862	
348	30000	0.00000000802	
348	48000	0.00000000731	
348	67000	0.00000000654	
373	1000	0.0000000114	
373	10000	0.0000000104	
373	30000	0.00000000981	
373	51000	0.00000000894	
373	67000	0.000000008	
398	1000	0.0000000138	
398	10000	0.0000000124	
398	30000	0.0000000117	
398	48000	0.0000000105	
398	68000	0.0000000096	
423	1100	0.000000016	
423	10000	0.000000015	
423	30000	0.000000014	
423	50000	0.0000000123	
423	67000	0.0000000114	
