Measured thermophysical data. Thermal and Volumetric Properties of Some C5 and C6 Alkanones at Infinite Dilution in Water
Source: J. Chem. Eng. Data, 2017, 10.1021/acs.jced.7b00035
Compound 1: 2-pentanone, C5H10O, purity 99.7%
Compound 2: 3-pentanone, C5H10O, purity 99.7%
Compound 3: 3-methyl-2-butanone, C5H10O, purity 98.5%
Compound 4: 2-hexanone, C6H12O, purity 98.2%
Compound 5: 4-methyl-2-pentanone, C6H12O, purity 99.8%
Compound 6: water, H2O, purity 99.9%

System: 2-pentanone; phases: Liquid
Fixed: Pressure, kPa = 101.325
Property: Mass density, kg/m3 (Liquid); method: Vibrating tube method
Temperature, K	Mass density, kg/m3	uncertainty
288.15	811.06	
298.15	801.41	
308.15	791.66	
318.15	781.83	

System: 3-pentanone; phases: Liquid
Fixed: Pressure, kPa = 101.325
Property: Mass density, kg/m3 (Liquid); method: Vibrating tube method
Temperature, K	Mass density, kg/m3	uncertainty
288.15	818.9	
298.15	809.16	
308.15	799.32	
318.15	789.41	

System: 3-methyl-2-butanone; phases: Liquid
Fixed: Pressure, kPa = 101.325
Property: Mass density, kg/m3 (Liquid); method: Vibrating tube method
Temperature, K	Mass density, kg/m3	uncertainty
288.15	808.3	
298.15	798.51	
308.15	788.6	
318.15	778.62	

System: 2-hexanone; phases: Liquid
Fixed: Pressure, kPa = 101.325
Property: Mass density, kg/m3 (Liquid); method: Vibrating tube method
Temperature, K	Mass density, kg/m3	uncertainty
288.15	815.72	
298.15	806.7	
308.15	797.6	
318.15	788.45	

System: 4-methyl-2-pentanone; phases: Liquid
Fixed: Pressure, kPa = 101.325
Property: Mass density, kg/m3 (Liquid); method: Vibrating tube method
Temperature, K	Mass density, kg/m3	uncertainty
288.15	805.12	
298.15	795.98	
308.15	786.75	
318.15	777.46	

System: 2-pentanone + water; phases: Liquid
Fixed: Pressure, kPa = 100
Property: Mass density, kg/m3 (Liquid); method: Vibrating tube method
Mole fraction of 2-pentanone	Temperature, K	Mass density, kg/m3	uncertainty
.005032	288.15	996.016	
.005035	288.15	996.015	
.004197	288.15	996.522	
.004198	288.15	996.499	
.00336	288.15	997.021	
.003361	288.15	997.002	
.002522	288.15	997.512	
.002522	288.15	997.513	
.001683	288.15	998.027	
.001683	288.15	998.026	
.000842	288.15	998.562	
.000842	288.15	998.56	
.005028	298.15	993.716	
.005029	298.15	993.707	
.004193	298.15	994.25	
.004193	298.15	994.26	
.003358	298.15	994.811	
.003357	298.15	994.797	
.002521	298.15	995.334	
.00252	298.15	995.346	
.001682	298.15	995.902	
.001681	298.15	995.903	
.000842	298.15	996.472	
.000841	298.15	996.472	
.005034	308.15	990.474	
.005031	308.15	990.475	
.004197	308.15	991.045	
.004194	308.15	991.052	
.00336	308.15	991.643	
.003358	308.15	991.617	
.002522	308.15	992.228	
.00252	308.15	992.226	
.001683	308.15	992.818	
.001681	308.15	992.814	
.000842	308.15	993.42	
.005024	318.15	986.447	
.004189	318.15	987.058	
.003354	318.15	987.666	
.002517	318.15	988.307	
.001679	318.15	988.929	
.00084	318.15	989.57	

System: 2-pentanone + water; phases: Liquid
Fixed: Pressure, kPa = 100
Property: Excess molar enthalpy (molar enthalpy of mixing), kJ/mol (Liquid); method: Flow calorimetry
Mole fraction of 2-pentanone	Temperature, K	Excess molar enthalpy (molar enthalpy of mixing), kJ/mol	uncertainty
.005032	288.15	-.06121	
.005035	288.15	-.06127	
.004197	288.15	-.05111	
.004198	288.15	-.05149	
.00336	288.15	-.0413	
.003361	288.15	-.04146	
.002522	288.15	-.0315	
.002522	288.15	-.03141	
.001683	288.15	-.02116	
.001683	288.15	-.02118	
.000842	288.15	-.01062	
.000842	288.15	-.01066	
.005028	298.15	-.04965	
.005029	298.15	-.04968	
.004193	298.15	-.04181	
.004193	298.15	-.04164	
.003358	298.15	-.03346	
.003357	298.15	-.03383	
.002521	298.15	-.02581	
.00252	298.15	-.02566	
.001682	298.15	-.01724	
.001681	298.15	-.01721	
.000842	298.15	-.00867	
.000841	298.15	-.00867	
.005034	308.15	-.03834	
.005031	308.15	-.03839	
.004197	308.15	-.03243	
.004194	308.15	-.03236	
.00336	308.15	-.02607	
.003358	308.15	-.02621	
.002522	308.15	-.01981	
.00252	308.15	-.01993	
.001683	308.15	-.01349	
.001681	308.15	-.01348	
.000842	308.15	-.00685	
.000841	308.15	-.00681	
.005024	318.15	-.02719	
.004189	318.15	-.02312	
.003354	318.15	-.01883	
.002517	318.15	-.01427	
.001679	318.15	-.00971	
.00084	318.15	-.00492	

System: 3-pentanone + water; phases: Liquid
Fixed: Pressure, kPa = 100
Property: Mass density, kg/m3 (Liquid); method: Vibrating tube method
Mole fraction of 3-pentanone	Temperature, K	Mass density, kg/m3	uncertainty
.005071	288.15	996.221	
.005069	288.15	996.228	
.004229	288.15	996.682	
.004227	288.15	996.667	
.003386	288.15	997.139	
.003385	288.15	997.144	
.002542	288.15	997.616	
.00254	288.15	997.609	
.001696	288.15	998.104	
.001695	288.15	998.107	
.000849	288.15	998.589	
.000848	288.15	998.595	
.005066	298.15	993.902	
.005064	298.15	993.924	
.004225	298.15	994.423	
.004222	298.15	994.42	
.003383	298.15	994.931	
.00338	298.15	994.944	
.002539	298.15	995.442	
.002537	298.15	995.458	
.001694	298.15	995.958	
.001693	298.15	995.96	
.000847	298.15	996.504	
.000847	298.15	996.504	
.005074	308.15	990.66	
.005069	308.15	990.666	
.004231	308.15	991.216	
.004226	308.15	991.241	
.003387	308.15	991.774	
.003384	308.15	991.77	
.002543	308.15	992.311	
.00254	308.15	992.322	
.001696	308.15	992.873	
.001695	308.15	992.887	
.000849	308.15	993.449	
.000848	308.15	993.46	
.005073	318.15	986.636	
.005076	318.15	986.636	
.004231	318.15	987.229	
.004233	318.15	987.234	
.003388	318.15	987.821	
.00339	318.15	987.82	
.002543	318.15	988.399	
.002544	318.15	988.396	
.001697	318.15	989.005	
.001698	318.15	988.992	
.000849	318.15	989.61	
.00085	318.15	989.603	

System: 3-pentanone + water; phases: Liquid
Fixed: Pressure, kPa = 100
Property: Excess molar enthalpy (molar enthalpy of mixing), kJ/mol (Liquid); method: Flow calorimetry
Mole fraction of 3-pentanone	Temperature, K	Excess molar enthalpy (molar enthalpy of mixing), kJ/mol	uncertainty
.005071	288.15	-.06286	
.005069	288.15	-.06273	
.004229	288.15	-.05272	
.004227	288.15	-.05295	
.003386	288.15	-.04268	
.003385	288.15	-.04257	
.002542	288.15	-.03216	
.00254	288.15	-.03225	
.001696	288.15	-.02176	
.001695	288.15	-.0215	
.000849	288.15	-.01104	
.000848	288.15	-.01092	
.005066	298.15	-.05157	
.005064	298.15	-.05126	
.004225	298.15	-.04314	
.004222	298.15	-.04312	
.003383	298.15	-.03474	
.00338	298.15	-.03443	
.002539	298.15	-.02635	
.002537	298.15	-.02621	
.001694	298.15	-.01783	
.001693	298.15	-.01797	
.000847	298.15	-.00897	
.000847	298.15	-.00895	
.005074	308.15	-.04005	
.005069	308.15	-.03995	
.004231	308.15	-.03338	
.004226	308.15	-.03333	
.003387	308.15	-.02681	
.003384	308.15	-.02703	
.002543	308.15	-.02078	
.00254	308.15	-.02063	
.001696	308.15	-.01388	
.001695	308.15	-.01387	
.000849	308.15	-.00709	
.000848	308.15	-.00697	
.005073	318.15	-.02835	
.005076	318.15	-.02855	
.004231	318.15	-.02411	
.004233	318.15	-.02398	
.003388	318.15	-.01931	
.00339	318.15	-.01956	
.002543	318.15	-.01487	
.002544	318.15	-.01495	
.001697	318.15	-.01008	
.001698	318.15	-.0101	
.000849	318.15	-.00506	
.00085	318.15	-.00512	

System: 3-methyl-2-butanone + water; phases: Liquid
Fixed: Pressure, kPa = 100
Property: Mass density, kg/m3 (Liquid); method: Vibrating tube method
Mole fraction of 3-methyl-2-butanone	Temperature, K	Mass density, kg/m3	uncertainty
.004998	288.15	995.988	
.005001	288.15	996	
.004168	288.15	996.494	
.004171	288.15	996.488	
.003337	288.15	996.996	
.003339	288.15	996.993	
.002505	288.15	997.502	
.002506	288.15	997.502	
.001672	288.15	998.026	
.001672	288.15	998.025	
.000837	288.15	998.559	
.000837	288.15	998.558	
.004998	298.15	993.722	
.004994	298.15	993.729	
.004168	298.15	994.254	
.004166	298.15	994.261	
.003337	298.15	994.799	
.003337	298.15	994.805	
.002505	298.15	995.337	
.002505	298.15	995.348	
.001671	298.15	995.897	
.001672	298.15	995.899	
.000836	298.15	996.47	
.000836	298.15	996.47	
.005001	308.15	990.494	
.004167	308.15	991.064	
.004171	308.15	991.067	
.003336	308.15	991.647	
.00334	308.15	991.646	
.002504	308.15	992.235	
.002506	308.15	992.224	
.001672	308.15	992.827	
.001672	308.15	992.824	
.000836	308.15	993.424	
.000837	308.15	993.426	
.004998	318.15	986.481	
.004997	318.15	986.477	
.004168	318.15	987.083	
.004167	318.15	987.091	
.003337	318.15	987.696	
.003336	318.15	987.702	
.002505	318.15	988.318	
.002338	318.15	988.447	
.001671	318.15	988.945	
.00167	318.15	988.947	
.000836	318.15	989.576	
.000836	318.15	989.578	

System: 3-methyl-2-butanone + water; phases: Liquid
Fixed: Pressure, kPa = 100
Property: Excess molar enthalpy (molar enthalpy of mixing), kJ/mol (Liquid); method: Flow calorimetry
Mole fraction of 3-methyl-2-butanone	Temperature, K	Excess molar enthalpy (molar enthalpy of mixing), kJ/mol	uncertainty
.004998	288.15	-.06047	
.005001	288.15	-.06025	
.004168	288.15	-.05055	
.004171	288.15	-.05067	
.003337	288.15	-.04075	
.003339	288.15	-.04085	
.002505	288.15	-.03091	
.002506	288.15	-.03097	
.001672	288.15	-.02073	
.001672	288.15	-.0208	
.000837	288.15	-.01046	
.000837	288.15	-.01048	
.004998	298.15	-.04948	
.004994	298.15	-.0492	
.004168	298.15	-.04157	
.004166	298.15	-.0414	
.003337	298.15	-.03356	
.003337	298.15	-.03341	
.002505	298.15	-.02559	
.002505	298.15	-.02534	
.001671	298.15	-.0172	
.001672	298.15	-.0172	
.000836	298.15	-.00867	
.000836	298.15	-.00866	
.005001	308.15	-.03875	
.004167	308.15	-.03275	
.004171	308.15	-.03268	
.003336	308.15	-.02644	
.00334	308.15	-.02653	
.002504	308.15	-.01999	
.002506	308.15	-.02016	
.001672	308.15	-.01347	
.001672	308.15	-.01353	
.000836	308.15	-.00685	
.000837	308.15	-.00683	
.004998	318.15	-.02833	
.004997	318.15	-.02833	
.004168	318.15	-.02399	
.004167	318.15	-.02388	
.003337	318.15	-.01947	
.003336	318.15	-.01944	
.002505	318.15	-.01478	
.002338	318.15	-.01381	
.001671	318.15	-.00998	
.00167	318.15	-.00998	
.000836	318.15	-.00506	
.000836	318.15	-.00505	

System: 2-hexanone + water; phases: Liquid
Fixed: Pressure, kPa = 100
Property: Mass density, kg/m3 (Liquid); method: Vibrating tube method
Mole fraction of 2-hexanone	Temperature, K	Mass density, kg/m3	uncertainty
.001739	288.15	997.852	
.001739	288.15	997.853	
.00145	288.15	998.054	
.00145	288.15	998.054	
.00116	288.15	998.248	
.00116	288.15	998.255	
.00087	288.15	998.466	
.00087	288.15	998.439	
.00174	298.15	995.681	
.001737	298.15	995.664	
.00145	298.15	995.903	
.001448	298.15	995.926	
.00116	298.15	996.137	
.001159	298.15	996.128	
.00087	298.15	996.364	
.000869	298.15	996.347	
.001735	308.15	992.573	
.001737	308.15	992.571	
.001447	308.15	992.84	
.001448	308.15	992.834	
.001158	308.15	993.074	
.001159	308.15	993.08	
.000869	308.15	993.309	
.000869	308.15	993.32	
.001737	318.15	988.651	
.001737	318.15	988.636	
.001736	318.15	988.678	
.001448	318.15	988.931	
.001448	318.15	988.956	
.001447	318.15	988.934	
.001159	318.15	989.168	
.001159	318.15	989.197	
.001158	318.15	989.173	
.000869	318.15	989.446	
.00087	318.15	989.455	
.000868	318.15	989.45	

System: 2-hexanone + water; phases: Liquid
Fixed: Pressure, kPa = 100
Property: Excess molar enthalpy (molar enthalpy of mixing), kJ/mol (Liquid); method: Flow calorimetry
Mole fraction of 2-hexanone	Temperature, K	Excess molar enthalpy (molar enthalpy of mixing), kJ/mol	uncertainty
.001739	288.15	-.02105	
.001739	288.15	-.02109	
.00145	288.15	-.0177	
.00145	288.15	-.01761	
.00116	288.15	-.01435	
.00116	288.15	-.0142	
.00087	288.15	-.01072	
.00087	288.15	-.01061	
.00174	298.15	-.01632	
.001737	298.15	-.01648	
.00145	298.15	-.01376	
.001448	298.15	-.01343	
.00116	298.15	-.01096	
.001159	298.15	-.01103	
.00087	298.15	-.00828	
.000869	298.15	-.00825	
.001735	308.15	-.01142	
.001737	308.15	-.01144	
.001447	308.15	-.00946	
.001448	308.15	-.00938	
.001158	308.15	-.00754	
.001159	308.15	-.00759	
.000869	308.15	-.00579	
.000869	308.15	-.00579	
.001737	318.15	-.00679	
.001737	318.15	-.00692	
.001736	318.15	-.00672	
.001448	318.15	-.00564	
.001448	318.15	-.00552	
.001447	318.15	-.00555	
.001159	318.15	-.00466	
.001159	318.15	-.00454	
.001158	318.15	-.0046	
.000869	318.15	-.00342	
.00087	318.15	-.0034	
.000868	318.15	-.00345	

System: 4-methyl-2-pentanone + water; phases: Liquid
Fixed: Pressure, kPa = 100
Property: Mass density, kg/m3 (Liquid); method: Vibrating tube method
Mole fraction of 4-methyl-2-pentanone	Temperature, K	Mass density, kg/m3	uncertainty
.002006	288.15	997.567	
.002004	288.15	997.592	
.00172	288.15	997.788	
.001718	288.15	997.779	
.001434	288.15	998.001	
.001432	288.15	997.995	
.001147	288.15	998.21	
.001146	288.15	998.224	
.00086	288.15	998.405	
.00086	288.15	998.422	
.000574	288.15	998.655	
.000573	288.15	998.669	
.002004	298.15	995.417	
.002007	298.15	995.402	
.001718	298.15	995.624	
.001721	298.15	995.64	
.001433	298.15	995.875	
.001435	298.15	995.871	
.001146	298.15	996.114	
.001148	298.15	996.078	
.00086	298.15	996.345	
.000861	298.15	996.319	
.000574	298.15	996.572	
.000574	298.15	996.58	
.002002	308.15	992.3	
.002003	308.15	992.285	
.001716	308.15	992.542	
.001717	308.15	992.525	
.001431	308.15	992.791	
.001431	308.15	992.795	
.001145	308.15	993.03	
.001145	308.15	993.053	
.000859	308.15	993.283	
.000859	308.15	993.282	
.000573	308.15	993.534	
.000573	308.15	993.533	
.002004	318.15	988.379	
.002003	318.15	988.402	
.001718	318.15	988.636	
.001717	318.15	988.633	
.001432	318.15	988.91	
.001431	318.15	988.905	
.001146	318.15	989.147	
.001145	318.15	989.156	
.000859	318.15	989.411	
.000859	318.15	989.421	

System: 4-methyl-2-pentanone + water; phases: Liquid
Fixed: Pressure, kPa = 100
Property: Excess molar enthalpy (molar enthalpy of mixing), kJ/mol (Liquid); method: Flow calorimetry
Mole fraction of 4-methyl-2-pentanone	Temperature, K	Excess molar enthalpy (molar enthalpy of mixing), kJ/mol	uncertainty
.002006	288.15	-.02473	
.002004	288.15	-.02471	
.00172	288.15	-.02125	
.001718	288.15	-.02143	
.001434	288.15	-.01778	
.001432	288.15	-.01795	
.001147	288.15	-.0144	
.001146	288.15	-.01425	
.000574	288.15	-.00727	
.000573	288.15	-.00724	
.002004	298.15	-.01921	
.002007	298.15	-.01905	
.001718	298.15	-.01649	
.001721	298.15	-.01659	
.001433	298.15	-.01382	
.001435	298.15	-.014	
.001146	298.15	-.01127	
.001148	298.15	-.01133	
.00086	298.15	-.00836	
.000861	298.15	-.00851	
.000574	298.15	-.00565	
.000574	298.15	-.0056	
.002002	308.15	-.01382	
.002003	308.15	-.01382	
.001716	308.15	-.01193	
.001717	308.15	-.01204	
.001431	308.15	-.01	
.001431	308.15	-.00997	
.001145	308.15	-.00809	
.001145	308.15	-.00802	
.000859	308.15	-.00615	
.000859	308.15	-.00616	
.000573	308.15	-.00405	
.000573	318.15	-.00411	
.002004	318.15	-.00844	
.002003	318.15	-.00855	
.001718	318.15	-.00743	
.001717	318.15	-.00748	
.001432	318.15	-.00618	
.001431	318.15	-.00624	
.001146	318.15	-.0051	
.001145	318.15	-.0051	
.000859	318.15	-.00389	
.000859	318.15	-.00384	
.000573	318.15	-.00265	
