Measured thermophysical data. Solubility Determination and Modeling for 4,4'-Dihydroxydiphenyl Sulfone in Mixed Solvents of (Acetone, Ethyl Acetate, or Acetonitrile) + Methanol and Acetone + Ethanol from (278.15 to 313.15) K
Source: J. Chem. Eng. Data, 2016, 10.1021/acs.jced.6b00421
Compound 1: 4,4'-dihydroxydiphenyl sulfone, C12H10O4S
Compound 2: acetonitrile, C2H3N, purity 99.6%
Compound 3: methanol, CH4O, purity 99.5%
Compound 4: acetone, C3H6O, purity 99.3%
Compound 5: ethyl acetate, C4H8O2, purity 99.4%
Compound 6: ethanol, C2H6O, purity 99.7%

System: methanol + acetone + 4,4'-dihydroxydiphenyl sulfone; phases: Liquid, Crystal
Fixed: Pressure, kPa = 101.1
Property: Mole fraction of 4,4'-dihydroxydiphenyl sulfone (Liquid); method: Chromatography
Solvent: Mass fraction of acetone	Temperature, K	Mole fraction of 4,4'-dihydroxydiphenyl sulfone	uncertainty
.101	278.15	.0002718	
.101	283.15	.0004052	
.101	288.15	.0006018	
.101	293.15	.0008001	
.101	298.15	.001061	
.101	303.15	.001322	
.101	308.15	.00175	
.101	313.15	.002231	
.1996	278.15	.0005961	
.1996	283.15	.0007609	
.1996	288.15	.00101	
.1996	293.15	.001341	
.1996	298.15	.00172	
.1996	303.15	.002213	
.1996	308.15	.002891	
.1996	313.15	.003841	
.3018	278.15	.0009618	
.3018	283.15	.001251	
.3018	288.15	.001568	
.3018	293.15	.002011	
.3018	298.15	.002537	
.3018	303.15	.003169	
.3018	308.15	.003951	
.3018	313.15	.005121	
.4042	278.15	.001411	
.4042	283.15	.00173	
.4042	288.15	.002219	
.4042	293.15	.002959	
.4042	298.15	.003911	
.4042	303.15	.005008	
.4042	308.15	.00643	
.4042	313.15	.007819	
.5025	278.15	.002018	
.5025	283.15	.00257	
.5025	288.15	.003421	
.5025	293.15	.004418	
.5025	298.15	.005919	
.5025	303.15	.007576	
.5025	308.15	.00931	
.5025	313.15	.01128	
.6017	278.15	.002652	
.6017	283.15	.003438	
.6017	288.15	.004691	
.6017	293.15	.006014	
.6017	298.15	.007602	
.6017	303.15	.009679	
.6017	308.15	.01216	
.6017	313.15	.01546	
.7019	278.15	.004048	
.7019	283.15	.005061	
.7019	288.15	.006206	
.7019	293.15	.007895	
.7019	298.15	.01008	
.7019	303.15	.01237	
.7019	308.15	.01525	
.7019	313.15	.01902	
.8019	278.15	.005411	
.8019	283.15	.007096	
.8019	288.15	.008913	
.8019	293.15	.01127	
.8019	298.15	.01403	
.8019	303.15	.01715	
.8019	308.15	.02095	
.8019	313.15	.02498	
.9009	278.15	.0074875	
.9009	283.15	.00918	
.9009	288.15	.01143	
.9009	293.15	.01445	
.9009	298.15	.01823	
.9009	303.15	.02239	
.9009	308.15	.02683	
.9009	313.15	.03199	

System: methanol + 4,4'-dihydroxydiphenyl sulfone + ethyl acetate; phases: Liquid, Crystal
Fixed: Pressure, kPa = 101.1
Property: Mole fraction of 4,4'-dihydroxydiphenyl sulfone (Liquid); method: Chromatography
Solvent: Mass fraction of ethyl acetate	Temperature, K	Mole fraction of 4,4'-dihydroxydiphenyl sulfone	uncertainty
.102	278.15	.0002733	
.102	283.15	.0004634	
.102	288.15	.0006996	
.102	293.15	.0009246	
.102	298.15	.001223	
.102	303.15	.001548	
.102	308.15	.001918	
.102	313.15	.002352	
.2011	278.15	.0005527	
.2011	283.15	.0007975	
.2011	288.15	.001061	
.2011	293.15	.001387	
.2011	298.15	.001849	
.2011	303.15	.002338	
.2011	308.15	.002912	
.2011	313.15	.003711	
.3	278.15	.0009208	
.3	283.15	.001202	
.3	288.15	.001551	
.3	293.15	.001958	
.3	298.15	.00251	
.3	303.15	.003413	
.3	308.15	.004448	
.3	313.15	.005692	
.3981	278.15	.001378	
.3981	283.15	.001783	
.3981	288.15	.002217	
.3981	293.15	.002843	
.3981	298.15	.003629	
.3981	303.15	.004741	
.3981	308.15	.006083	
.3981	313.15	.007668	
.4994	278.15	.001721	
.4994	283.15	.002567	
.4994	288.15	.003462	
.4994	293.15	.004481	
.4994	298.15	.005402	
.4994	303.15	.006572	
.4994	308.15	.00817	
.4994	313.15	.009979	
.5987	278.15	.002658	
.5987	283.15	.003762	
.5987	288.15	.004974	
.5987	293.15	.00625	
.5987	298.15	.007764	
.5987	303.15	.009722	
.5987	308.15	.01183	
.5987	313.15	.01443	
.6997	278.15	.003927	
.6997	283.15	.005161	
.6997	288.15	.006586	
.6997	293.15	.008288	
.6997	298.15	.01023	
.6997	303.15	.01288	
.6997	308.15	.01612	
.6997	313.15	.01977	
.7991	278.15	.004547	
.7991	283.15	.006072	
.7991	288.15	.007821	
.7991	293.15	.009943	
.7991	298.15	.01228	
.7991	303.15	.01565	
.7991	308.15	.01959	
.7991	313.15	.02432	
.8998	278.15	.005878	
.8998	283.15	.007431	
.8998	288.15	.009564	
.8998	293.15	.01222	
.8998	298.15	.01547	
.8998	303.15	.01945	
.8998	308.15	.02334	
.8998	313.15	.0275	

System: methanol + acetonitrile + 4,4'-dihydroxydiphenyl sulfone; phases: Liquid, Crystal
Fixed: Pressure, kPa = 101.1
Property: Mole fraction of 4,4'-dihydroxydiphenyl sulfone (Liquid); method: Chromatography
Solvent: Mass fraction of acetonitrile	Temperature, K	Mole fraction of 4,4'-dihydroxydiphenyl sulfone	uncertainty
.0993	278.15	.0004259	
.0993	283.15	.0006015	
.0993	288.15	.000801	
.0993	293.15	.001061	
.0993	298.15	.001358	
.0993	303.15	.001682	
.0993	308.15	.002087	
.0993	313.15	.00261	
.1988	278.15	.00073	
.1988	283.15	.0009698	
.1988	288.15	.00122	
.1988	293.15	.001513	
.1988	298.15	.001879	
.1988	303.15	.002386	
.1988	308.15	.003038	
.1988	313.15	.003859	
.2985	278.15	.0009604	
.2985	283.15	.001238	
.2985	288.15	.001568	
.2985	293.15	.002071	
.2985	298.15	.002668	
.2985	303.15	.003387	
.2985	308.15	.004341	
.2985	313.15	.005466	
.3982	278.15	.00106	
.3982	283.15	.001431	
.3982	288.15	.002029	
.3982	293.15	.002701	
.3982	298.15	.003552	
.3982	303.15	.004568	
.3982	308.15	.005811	
.3982	313.15	.007312	
.4982	278.15	.001291	
.4982	283.15	.001968	
.4982	288.15	.002803	
.4982	293.15	.003671	
.4982	298.15	.004692	
.4982	303.15	.005951	
.4982	308.15	.007589	
.4982	313.15	.009841	
.5982	278.15	.001961	
.5982	283.15	.002638	
.5982	288.15	.003469	
.5982	293.15	.004692	
.5982	298.15	.005966	
.5982	303.15	.007642	
.5982	308.15	.009574	
.5982	313.15	.01251	
.6985	278.15	.002292	
.6985	283.15	.003153	
.6985	288.15	.004181	
.6985	293.15	.00559	
.6985	298.15	.007465	
.6985	303.15	.009412	
.6985	308.15	.01155	
.6985	313.15	.01426	
.7988	278.15	.003419	
.7988	283.15	.004288	
.7988	288.15	.005662	
.7988	293.15	.007163	
.7988	298.15	.00904	
.7988	303.15	.01123	
.7988	308.15	.01395	
.7988	313.15	.01743	
.8993	278.15	.00374	
.8993	283.15	.004802	
.8993	288.15	.006323	
.8993	293.15	.008114	
.8993	298.15	.009952	
.8993	303.15	.01205	
.8993	308.15	.01484	
.8993	313.15	.01862	

System: ethanol + acetone + 4,4'-dihydroxydiphenyl sulfone; phases: Liquid, Crystal
Fixed: Pressure, kPa = 101.1
Property: Mole fraction of 4,4'-dihydroxydiphenyl sulfone (Liquid); method: Chromatography
Solvent: Mass fraction of acetone	Temperature, K	Mole fraction of 4,4'-dihydroxydiphenyl sulfone	uncertainty
.0996	278.15	.0007469	
.0996	283.15	.0009968	
.0996	288.15	.001338	
.0996	293.15	.001717	
.0996	298.15	.002151	
.0996	303.15	.002574	
.0996	308.15	.002979	
.0996	313.15	.003453	
.2008	278.15	.00125	
.2008	283.15	.001738	
.2008	288.15	.002176	
.2008	293.15	.002673	
.2008	298.15	.003755	
.2008	303.15	.003911	
.2008	308.15	.005195	
.2008	313.15	.005981	
.2992	278.15	.001744	
.2992	283.15	.002283	
.2992	288.15	.002983	
.2992	293.15	.003642	
.2992	298.15	.004896	
.2992	303.15	.005435	
.2992	308.15	.006692	
.2992	313.15	.008001	
.4013	278.15	.002245	
.4013	283.15	.002955	
.4013	288.15	.003857	
.4013	293.15	.004582	
.4013	298.15	.006193	
.4013	303.15	.006783	
.4013	308.15	.008693	
.4013	313.15	.01053	
.4981	278.15	.002869	
.4981	283.15	.003574	
.4981	288.15	.00471	
.4981	293.15	.005601	
.4981	298.15	.0076	
.4981	303.15	.008304	
.4981	308.15	.01103	
.4981	313.15	.01299	
.5991	278.15	.003619	
.5991	283.15	.004463	
.5991	288.15	.006027	
.5991	293.15	.007184	
.5991	298.15	.008787	
.5991	303.15	.01065	
.5991	308.15	.01321	
.5991	313.15	.01597	
.6993	278.15	.004613	
.6993	283.15	.005809	
.6993	288.15	.007659	
.6993	293.15	.009148	
.6993	298.15	.011569	
.6993	303.15	.01327	
.6993	308.15	.016726	
.6993	313.15	.02062	
.7994	278.15	.005898	
.7994	283.15	.007395	
.7994	288.15	.009407	
.7994	293.15	.011624	
.7994	298.15	.01394	
.7994	303.15	.01649	
.7994	308.15	.01969	
.7994	313.15	.02407	
.8997	278.15	.007492	
.8997	283.15	.009092	
.8997	288.15	.011801	
.8997	293.15	.01455	
.8997	298.15	.01772	
.8997	303.15	.02092	
.8997	308.15	.02463	
.8997	313.15	.02965	
