Measured thermophysical data. A Sodium Chloride Zinc Chloride Water System: Solubility of Solids and Density of Liquid in Wide Range of Temperatures
Source: J. Chem. Eng. Data, 2016, 10.1021/acs.jced.6b00048
Compound 1: zinc chloride, Cl2Zn
Compound 2: sodium chloride, ClNa
Compound 3: water, H2O, purity 99.8%

System: zinc chloride + sodium chloride + water; phases: Liquid, Crystal of intercomponent compound 1
Fixed: Pressure, kPa = 100
Property: Mass fraction of sodium chloride (Liquid); method: titration and spectroscopy
Temperature, K	Mass fraction of zinc chloride	Mass fraction of sodium chloride	uncertainty
262.35	.547	.0672	
262.35	.4595	.1067	
262.35	.3752	.1459	
250.15	.483	.0558	
250.15	.4597	.0785	
250.15	.3163	.1735	
250.15	.4119	.1107	
250.15	.5515	.0292	
250.15	.5426	.0277	

System: zinc chloride + sodium chloride + water; phases: Liquid, Crystal
Fixed: Pressure, kPa = 100
Property: Mass fraction of sodium chloride (Liquid); method: titration and spectroscopy
Temperature, K	Mass fraction of zinc chloride	Mass fraction of sodium chloride	uncertainty
262.35	.0908	.0996	
262.35	.0521	.1188	
250.15	.2857	.0575	
250.15	.2305	.1165	
250.15	.1801	.159	

System: zinc chloride + sodium chloride + water; phases: Liquid, Crystal
Fixed: Pressure, kPa = 100
Property: Mass fraction of sodium chloride (Liquid); method: titration and spectroscopy
Temperature, K	Mass fraction of zinc chloride	Mass fraction of sodium chloride	uncertainty
262.35	.1536	.214	
262.35	.1121	.2195	
262.35	.2852	.2081	
262.35	.0313	.2191	
250.15	.2393	.1982	
250.15	.1497	.2095	
250.15	.0423	.2021	

System: zinc chloride + sodium chloride + water; phases: Liquid, Crystal of intercomponent compound 2
Fixed: Pressure, kPa = 100
Property: Mass fraction of sodium chloride (Liquid); method: titration and spectroscopy
Temperature, K	Mass fraction of zinc chloride	Mass fraction of sodium chloride	uncertainty
262.35	.0313	.2191	
250.15	.0423	.2021	

System: zinc chloride + sodium chloride + water; phases: Liquid, Crystal of intercomponent compound 3
Fixed: Pressure, kPa = 100
Property: Mass fraction of sodium chloride (Liquid); method: titration and spectroscopy
Temperature, K	Mass fraction of zinc chloride	Mass fraction of sodium chloride	uncertainty
250.15	.483	.0558	

System: zinc chloride + sodium chloride + water; phases: Liquid
Fixed: Pressure, kPa = 100
Property: Mass density, kg/m3 (Liquid); method: Vibrating tube method
Temperature, K	Mass fraction of zinc chloride	Mass fraction of sodium chloride	Mass density, kg/m3	uncertainty
288.15	.5821	0	1702.7	
288.15	.5354	.0905	1703.5	
288.15	.5591	.0446	1703.2	
288.15	.3707	.0627	1468.1	
288.15	.3736	.1325	1505.5	
288.15	.2585	.0924	1352.1	
288.15	.2042	.1303	1316.4	
288.15	.1244	.2148	1277.8	
288.15	.1038	.1792	1225.2	
288.15	.0811	.14	1176.8	
288.15	.0567	.0979	1121.7	
298.15	.5821	0	1692.5	
298.15	.5354	.0905	1692.5	
298.15	.5591	.0446	1692.6	
298.15	.3707	.0627	1461.2	
298.15	.3736	.1325	1495.4	
298.15	.2585	.0924	1342.7	
298.15	.2042	.1303	1307.9	
298.15	.1244	.2148	1271.4	
298.15	.1038	.1792	1218.8	
298.15	.0811	.14	1170.5	
298.15	.0567	.0979	1116.2	
323.15	.5821	0	1666.6	
323.15	.5354	.0905	1665.7	
323.15	.5591	.0446	1666.1	
323.15	.3707	.0627	1435.6	
323.15	.3736	.1325	1471.9	
323.15	.2585	.0924	1321.6	
323.15	.2042	.1303	1287.9	
323.15	.1244	.2148	1255	
323.15	.1038	.1792	1203.2	
323.15	.0811	.14	1155.1	
323.15	.0567	.0979	1101.6	

System: zinc chloride + water; phases: Liquid
Property: Mass density, kg/m3 (Liquid); method: Vibrating tube method
Temperature, K	Mass fraction of zinc chloride	Pressure, kPa	Mass density, kg/m3	uncertainty
288.15	.5821	100	1702.7	
298.15	.5821	100	1692.5	
323.15	.5821	100	1666.6	
