Measured thermophysical data. Solubility Investigations in the MgSO4 Al2(SO4)3 (NH4)2SO4 H2O Quaternary System at 40 and 80 deg C
Source: J. Chem. Eng. Data, 2017, 10.1021/acs.jced.6b00819
Compound 1: magnesium sulfate, MgO4S, purity 99%
Compound 2: aluminum sulfate, Al2O12S3, purity 99%
Compound 3: ammonium sulfate, H8N2O4S, purity 99%
Compound 4: water, H2O, purity 99.9%

System: magnesium sulfate + water + ammonium sulfate; phases: Liquid
Fixed: Temperature, K = 313.15
Fixed: Pressure, kPa = 100
Property: Mass density, kg/m3 (Liquid); method: Pycnometric method
Mass fraction of magnesium sulfate	Mass fraction of ammonium sulfate	Mass density, kg/m3	uncertainty
.2895	.0261	1296	
.2714	.0345	1289	
.2481	.0432	1245	
.2275	.0566	1240	
.1992	.0679	1208	
.175	.0856	1177	
.1287	.0977	1169	
.0828	.1251	1158	
.0328	.2251	1142	
.02025	.301	1139	

System: magnesium sulfate + water + ammonium sulfate; phases: Liquid, Crystal of intercomponent compound 1
Fixed: Temperature, K = 313.15
Fixed: Pressure, kPa = 100
Property: Mass fraction of ammonium sulfate (Liquid); method: Titration method
Mass fraction of magnesium sulfate	Mass fraction of ammonium sulfate	uncertainty
.2895	.0261	
.2714	.0345	
.2481	.0432	
.2275	.0566	
.1992	.0679	
.175	.0856	
.1287	.0977	
.0828	.1251	
.0328	.2251	
.02025	.301	

System: magnesium sulfate + water + ammonium sulfate; phases: Liquid, Crystal of intercomponent compound 2
Fixed: Temperature, K = 313.15
Fixed: Pressure, kPa = 100
Property: Mass fraction of ammonium sulfate (Liquid); method: Titration method
Mass fraction of magnesium sulfate	Mass fraction of ammonium sulfate	uncertainty
.2895	.0261	

System: water + ammonium sulfate + aluminum sulfate; phases: Liquid
Fixed: Temperature, K = 313.15
Fixed: Pressure, kPa = 100
Property: Mass density, kg/m3 (Liquid); method: Pycnometric method
Mass fraction of aluminum sulfate	Mass fraction of ammonium sulfate	Mass density, kg/m3	uncertainty
.2451	.0059	1304	
.2362	.0052	1281	
.1383	.0107	1195	
.0788	.0251	1161	
.0243	.1123	1179	
.016	.1973	1198	
.0101	.2706	1200	
.0089	.3632	1242	

System: water + ammonium sulfate + aluminum sulfate; phases: Liquid, Crystal of intercomponent compound 1
Fixed: Temperature, K = 313.15
Fixed: Pressure, kPa = 100
Property: Mass fraction of ammonium sulfate (Liquid); method: Titration method
Mass fraction of aluminum sulfate	Mass fraction of ammonium sulfate	uncertainty
.2451	.0059	
.2362	.0052	
.1383	.0107	
.0788	.0251	
.0243	.1123	
.016	.1973	
.0101	.2706	
.0089	.3632	

System: water + ammonium sulfate + aluminum sulfate; phases: Liquid, Crystal of intercomponent compound 2
Fixed: Temperature, K = 313.15
Fixed: Pressure, kPa = 100
Property: Mass fraction of ammonium sulfate (Liquid); method: Titration method
Mass fraction of aluminum sulfate	Mass fraction of ammonium sulfate	uncertainty
.2451	.0059	
.2362	.0052	

System: water + ammonium sulfate + aluminum sulfate; phases: Liquid, Crystal
Fixed: Temperature, K = 313.15
Fixed: Pressure, kPa = 100
Property: Mass fraction of ammonium sulfate (Liquid); method: Titration method
Mass fraction of aluminum sulfate	Mass fraction of ammonium sulfate	uncertainty
.0089	.3632	

System: magnesium sulfate + water + aluminum sulfate; phases: Liquid
Fixed: Pressure, kPa = 100
Property: Mass density, kg/m3 (Liquid); method: Pycnometric method
Temperature, K	Mass fraction of magnesium sulfate	Mass fraction of aluminum sulfate	Mass density, kg/m3	uncertainty
313.15	.2673	.2251	1420	
353.15	.1912	.2544	1421	

System: magnesium sulfate + water + aluminum sulfate; phases: Liquid, Crystal of intercomponent compound 1
Fixed: Pressure, kPa = 100
Property: Mass fraction of aluminum sulfate (Liquid); method: Titration method
Temperature, K	Mass fraction of magnesium sulfate	Mass fraction of aluminum sulfate	uncertainty
313.15	.2673	.2251	

System: magnesium sulfate + water + aluminum sulfate; phases: Liquid, Crystal of intercomponent compound 2
Fixed: Pressure, kPa = 100
Property: Mass fraction of aluminum sulfate (Liquid); method: Titration method
Temperature, K	Mass fraction of magnesium sulfate	Mass fraction of aluminum sulfate	uncertainty
313.15	.2673	.2251	

System: magnesium sulfate + water + aluminum sulfate; phases: Liquid, Crystal of intercomponent compound 1
Fixed: Pressure, kPa = 100
Property: Mass fraction of aluminum sulfate (Liquid); method: Titration method
Temperature, K	Mass fraction of magnesium sulfate	Mass fraction of aluminum sulfate	uncertainty
353.15	.1912	.2544	

System: magnesium sulfate + water + aluminum sulfate; phases: Liquid, Crystal of intercomponent compound 2
Fixed: Pressure, kPa = 100
Property: Mass fraction of aluminum sulfate (Liquid); method: Titration method
Temperature, K	Mass fraction of magnesium sulfate	Mass fraction of aluminum sulfate	uncertainty
353.15	.1912	.2544	

System: water + ammonium sulfate; phases: Liquid
Fixed: Pressure, kPa = 100
Property: Mass density, kg/m3 (Liquid); method: Pycnometric method
Temperature, K	Mass fraction of ammonium sulfate	Mass density, kg/m3	uncertainty
313.15	.446	1238	
353.15	.481	1242	

System: water + ammonium sulfate; phases: Liquid, Crystal
Fixed: Pressure, kPa = 100
Property: Mass fraction of ammonium sulfate (Liquid); method: Titration method
Temperature, K	Mass fraction of ammonium sulfate	uncertainty
313.15	.446	
353.15	.481	
