Measured thermophysical data. Measurement of Physical Properties and Correlation of the Solubility of Calcium Carbonate in Ammonium Sulfate Aqueous Solution at T = (298.15, 323.15, and 348.15) K in the Process of Preparing Calcium Carbonate Products by the Desulfurization of Gypsum
Source: J. Chem. Eng. Data, 2016, 10.1021/acs.jced.6b00454
Compound 1: ammonium sulfate, H8N2O4S, purity 99%
Compound 2: calcium carbonate, CCaO3, purity 99%
Compound 3: water, H2O, purity 99.8%

System: calcium carbonate + water + ammonium sulfate; phases: Liquid, Crystal
Fixed: Pressure, kPa = 88.4
Property: Molality, mol/kg of calcium carbonate (Liquid); method: titration
Temperature, K	Molality, mol/kg of ammonium sulfate	Molality, mol/kg of calcium carbonate	uncertainty
298.15	.093	.0033654	
298.15	.1795	.0035016	
298.15	.4281	.0044079	
298.15	.5779	.0060417	
298.15	.7398	.0069985	
298.15	.9233	.0076849	
298.15	1.3436	.0087413	
298.15	1.7351	.010842	
298.15	2.4842	.0130754	
298.15	3.1733	.0141183	
298.15	4.6637	.0165709	
323.15	.0962	.0039245	
323.15	.1967	.0058719	
323.15	.3845	.0075623	
323.15	.5772	.0096199	
323.15	.7666	.0106643	
323.15	.9522	.0130944	
323.15	1.34	.0151345	
323.15	1.7245	.0181305	
323.15	2.5482	.0185733	
323.15	3.2102	.0220579	
323.15	5.7306	.0256335	
348.15	.1028	.0062443	
348.15	.1896	.0081287	
348.15	.3837	.0116511	
348.15	.5737	.0147842	
348.15	.7275	.0179054	
348.15	.9054	.0209714	
348.15	1.3282	.0230271	
348.15	1.7927	.0257119	
348.15	2.5107	.0263799	
348.15	3.0957	.0312544	
348.15	6.1699	.0330588	

System: calcium carbonate + water + ammonium sulfate; phases: Liquid
Fixed: Pressure, kPa = 88.4
Property: Viscosity, Pa*s (Liquid); method: Capillary tube (Ostwald; Ubbelohde) method
Temperature, K	Molality, mol/kg of ammonium sulfate	Molality, mol/kg of calcium carbonate	Viscosity, Pa*s	uncertainty
298.15	.093	.0033654	.0009077	
298.15	.1795	.0035016	.0009205	
298.15	.4281	.0044079	.0009398	
298.15	.5779	.0060417	.0009607	
298.15	.7398	.0069985	.0009804	
298.15	.9233	.0076849	.0009941	
298.15	1.3436	.0087413	.0010417	
298.15	1.7351	.010842	.0010962	
298.15	2.4842	.0130754	.0012036	
298.15	3.1733	.0141183	.0013427	
298.15	4.6637	.0165709	.0017481	
323.15	.0962	.0039245	.0005558	
323.15	.1967	.0058719	.0005646	
323.15	.3845	.0075623	.0005702	
323.15	.5772	.0096199	.0005942	
323.15	.7666	.0106643	.0006113	
323.15	.9522	.0130944	.0006232	
323.15	1.34	.0151345	.0006495	
323.15	1.7245	.0181305	.0006881	
323.15	2.5482	.0185733	.0007696	
323.15	3.2102	.0220579	.000834	
323.15	5.7306	.0256335	.0013	
348.15	.1028	.0062443	.0003621	
348.15	.1896	.0081287	.000371	
348.15	.3837	.0116511	.0003852	
348.15	.5737	.0147842	.0003883	
348.15	.7275	.0179054	.0003944	
348.15	.9054	.0209714	.0004106	
348.15	1.3282	.0230271	.0004284	
348.15	1.7927	.0257119	.0004571	
348.15	2.5107	.0263799	.0005021	
348.15	3.0957	.0312544	.0005559	
348.15	6.1699	.0330588	.0009897	

System: calcium carbonate + water + ammonium sulfate; phases: Liquid
Fixed: Pressure, kPa = 88.4
Property: Mass density, kg/m3 (Liquid); method: Pycnometric method
Temperature, K	Molality, mol/kg of ammonium sulfate	Molality, mol/kg of calcium carbonate	Mass density, kg/m3	uncertainty
298.15	.093	.0033654	1001.6	
298.15	.1795	.0035016	1002.6	
298.15	.4281	.0044079	1010	
298.15	.5779	.0060417	1021.1	
298.15	.7398	.0069985	1026.9	
298.15	.9233	.0076849	1034.5	
298.15	1.3436	.0087413	1049.9	
298.15	1.7351	.010842	1065.4	
298.15	2.4842	.0130754	1091.5	
298.15	3.1733	.0141183	1119.8	
298.15	4.6637	.0165709	1180.3	
323.15	.0962	.0039245	994.6	
323.15	.1967	.0058719	999.4	
323.15	.3845	.0075623	1007.1	
323.15	.5772	.0096199	1016.7	
323.15	.7666	.0106643	1023.4	
323.15	.9522	.0130944	1029.7	
323.15	1.34	.0151345	1041.2	
323.15	1.7245	.0181305	1057.1	
323.15	2.5482	.0185733	1086.5	
323.15	3.2102	.0220579	1116.2	
323.15	5.7306	.0256335	1210.7	
348.15	.1028	.0062443	985.8	
348.15	.1896	.0081287	990.7	
348.15	.3837	.0116511	995	
348.15	.5737	.0147842	996.9	
348.15	.7275	.0179054	1010.2	
348.15	.9054	.0209714	1015.3	
348.15	1.3282	.0230271	1033.5	
348.15	1.7927	.0257119	1055.2	
348.15	2.5107	.0263799	1072.3	
348.15	3.0957	.0312544	1103.5	
348.15	6.1699	.0330588	1223.6	

System: calcium carbonate + water + ammonium sulfate; phases: Liquid
Fixed: Pressure, kPa = 88.4
Property: Refractive index (Na D-line) (Liquid); method: Standard Abbe refractometry
Temperature, K	Molality, mol/kg of ammonium sulfate	Molality, mol/kg of calcium carbonate	Refractive index (Na D-line)	uncertainty
298.15	.093	.0033654	1.3341	
298.15	.1795	.0035016	1.3362	
298.15	.4281	.0044079	1.3392	
298.15	.5779	.0060417	1.3409	
298.15	.7398	.0069985	1.3424	
298.15	.9233	.0076849	1.3435	
298.15	1.3436	.0087413	1.3478	
298.15	1.7351	.010842	1.3525	
298.15	2.4842	.0130754	1.3596	
298.15	3.1733	.0141183	1.3661	
298.15	4.6637	.0165709	1.381	
323.15	.0962	.0039245	1.3303	
323.15	.1967	.0058719	1.3316	
323.15	.3845	.0075623	1.3332	
323.15	.5772	.0096199	1.3342	
323.15	.7666	.0106643	1.3364	
323.15	.9522	.0130944	1.3399	
323.15	1.34	.0151345	1.3439	
323.15	1.7245	.0181305	1.348	
323.15	2.5482	.0185733	1.3553	
323.15	3.2102	.0220579	1.3621	
323.15	5.7306	.0256335	1.3864	
348.15	.1028	.0062443	1.3243	
348.15	.1896	.0081287	1.326	
348.15	.3837	.0116511	1.328	
348.15	.5737	.0147842	1.3308	
348.15	.7275	.0179054	1.3327	
348.15	.9054	.0209714	1.3352	
348.15	1.3282	.0230271	1.3389	
348.15	1.7927	.0257119	1.3434	
348.15	2.5107	.0263799	1.3512	
348.15	3.0957	.0312544	1.3571	
348.15	6.1699	.0330588	1.3877	
