Measured thermophysical data. Density Measurements of Unloaded and CO2-Loaded 3-Amino-1-propanol Solutions at Temperatures (293.15 to 353.15) K
Source: J. Chem. Eng. Data, 2016, 10.1021/acs.jced.5b00412
Compound 1: 3-amino-1-propanol, C3H9NO, purity 99%
Compound 2: carbon dioxide, CO2, purity 99.99%
Compound 3: water, H2O, purity 99.9%

System: 3-amino-1-propanol; phases: Liquid
Property: Mass density, kg/m3 (Liquid); method: Vibrating tube method
Temperature, K	Pressure, kPa	Mass density, kg/m3	uncertainty
293.15	101.3	987.5	2.82
298.15	101.3	983.6	2.82
303.15	101.3	979.6	2.82
308.15	101.3	975.5	2.82
313.15	101.3	971.5	2.82
318.15	101.3	967.5	2.82
323.15	101.3	963.4	2.82
328.15	101.3	959.3	2.82
333.15	101.3	955.8	2.82
338.15	101.3	951.7	2.82
343.15	101.3	947.6	2.82
348.15	101.3	943.5	2.82
353.15	101.3	939.3	2.82

System: 3-amino-1-propanol + water; phases: Liquid
Fixed: Pressure, kPa = 101.3
Property: Mass density, kg/m3 (Liquid); method: Vibrating tube method
Mass fraction of 3-amino-1-propanol	Temperature, K	Mass density, kg/m3	uncertainty
.1	293.15	998.7	2.82
.1	298.15	997.3	2.82
.1	303.15	995.7	2.82
.1	308.15	993.9	2.82
.1	313.15	991.9	2.82
.1	318.15	989.7	2.82
.1	323.15	987.3	2.82
.1	328.15	984.8	2.82
.1	333.15	983	2.82
.1	338.15	980.3	2.82
.1	343.15	977.5	2.82
.1	348.15	974.5	2.82
.1	353.15	971.2	2.82
.2	293.15	1002.2	2.82
.2	298.15	1000.4	2.82
.2	303.15	998.4	2.82
.2	308.15	996.3	2.82
.2	313.15	994	2.82
.2	318.15	991.6	2.82
.2	323.15	989	2.82
.2	328.15	986.3	2.82
.2	333.15	983.5	2.82
.2	338.15	980.5	2.82
.2	343.15	977.5	2.82
.2	348.15	974.3	2.82
.2	353.15	971	2.82
.3	293.15	1005.9	2.82
.3	298.15	1003.7	2.82
.3	303.15	1001.3	2.82
.3	308.15	998.8	2.82
.3	313.15	996.2	2.82
.3	318.15	993.3	2.82
.3	323.15	990.6	2.82
.3	328.15	987.6	2.82
.3	333.15	984.5	2.82
.3	338.15	981.3	2.82
.3	343.15	978	2.82
.3	348.15	974.6	2.82
.3	353.15	971.1	2.82
.41	293.15	1008.8	2.82
.41	298.15	1006	2.82
.41	303.15	1003.1	2.82
.41	308.15	1000.1	2.82
.41	313.15	997.1	2.82
.41	318.15	993.9	2.82
.41	323.15	990.6	2.82
.41	328.15	987.9	2.82
.41	333.15	984.5	2.82
.41	338.15	981.9	2.82
.41	343.15	978.3	2.82
.41	348.15	974.7	2.82
.41	353.15	971.1	2.82
.51	293.15	1011.3	2.82
.51	298.15	1008.2	2.82
.51	303.15	1005	2.82
.51	308.15	1001.8	2.82
.51	313.15	998.5	2.82
.51	318.15	995	2.82
.51	323.15	991.5	2.82
.51	328.15	988	2.82
.51	333.15	984.4	2.82
.51	338.15	980.8	2.82
.51	343.15	977.5	2.82
.51	348.15	972.9	2.82
.51	353.15	970.8	2.82
.61	293.15	1015.4	2.82
.61	298.15	1011.8	2.82
.61	303.15	1008	2.82
.61	308.15	1003.9	2.82
.61	313.15	1001	2.82
.61	318.15	997.2	2.82
.61	323.15	993.3	2.82
.61	328.15	989.5	2.82
.61	333.15	985.6	2.82
.61	338.15	981.6	2.82
.61	343.15	977.6	2.82
.61	348.15	973.6	2.82
.61	353.15	969.5	2.82
.7	293.15	1014.9	2.82
.7	298.15	1011.2	2.82
.7	303.15	1007.3	2.82
.7	308.15	1003.4	2.82
.7	313.15	999.2	2.82
.7	318.15	995.6	2.82
.7	323.15	991.7	2.82
.7	328.15	987.8	2.82
.7	333.15	983.9	2.82
.7	338.15	979.9	2.82
.7	343.15	975.8	2.82
.7	348.15	971.6	2.82
.7	353.15	967.4	2.82
.8	293.15	1009.8	2.82
.8	298.15	1005.9	2.82
.8	303.15	1002	2.82
.8	308.15	998	2.82
.8	313.15	994	2.82
.8	318.15	990	2.82
.8	323.15	986	2.82
.8	328.15	981.9	2.82
.8	333.15	977.7	2.82
.8	338.15	973.2	2.82
.8	343.15	969.1	2.82
.8	348.15	965.1	2.82
.8	353.15	961.2	2.82
.91	293.15	1001.4	2.82
.91	298.15	997.5	2.82
.91	303.15	993.5	2.82
.91	308.15	989.5	2.82
.91	313.15	985.5	2.82
.91	318.15	981.5	2.82
.91	323.15	977.5	2.82
.91	328.15	973.4	2.82
.91	333.15	969.3	2.82
.91	338.15	965.2	2.82
.91	343.15	961	2.82
.91	348.15	956.9	2.82
.91	353.15	952.7	2.82
1	293.15	987.5	2.82
1	298.15	983.6	2.82
1	303.15	979.6	2.82
1	308.15	975.5	2.82
1	313.15	971.5	2.82
1	318.15	967.5	2.82
1	323.15	963.4	2.82
1	328.15	959.3	2.82
1	333.15	955.8	2.82
1	338.15	951.7	2.82
1	343.15	947.6	2.82
1	348.15	943.5	2.82
1	353.15	939.3	2.82

System: carbon dioxide + 3-amino-1-propanol + water; phases: Liquid
Fixed: Pressure, kPa = 101.3
Property: Mass density, kg/m3 (Liquid); method: Vibrating tube method
Solvent: Mass fraction of 3-amino-1-propanol	Mole fraction of carbon dioxide	Temperature, K	Mass density, kg/m3	uncertainty
.1	.003	293.15	1004.7	4.32
.1	.003	298.15	1003.2	4.32
.1	.003	303.15	1001.5	4.32
.1	.003	308.15	999.7	4.32
.1	.003	313.15	997.5	4.32
.1	.003	318.15	995.2	4.32
.1	.003	323.15	992.6	4.32
.1	.003	328.15	990.2	4.32
.1	.003	333.15	987.4	4.32
.1	.003	338.15	984.5	4.32
.1	.003	343.15	981.6	4.32
.1	.003	348.15	978.6	4.32
.1	.003	353.15	975.5	4.32
.1	.005	293.15	1009.4	4.32
.1	.005	298.15	1007.9	4.32
.1	.005	303.15	1006.2	4.32
.1	.005	308.15	1004.2	4.32
.1	.005	313.15	1001.9	4.32
.1	.005	318.15	999.4	4.32
.1	.005	323.15	997.3	4.32
.1	.005	328.15	994.1	4.32
.1	.005	333.15	991.4	4.32
.1	.005	338.15	988.4	4.32
.1	.005	343.15	985.5	4.32
.1	.005	348.15	982.5	4.32
.1	.005	353.15	979.3	4.32
.1	.008	293.15	1014.8	4.32
.1	.008	298.15	1013.2	4.32
.1	.008	303.15	1011.4	4.32
.1	.008	308.15	1009.4	4.32
.1	.008	313.15	1007	4.32
.1	.008	318.15	1004.4	4.32
.1	.008	323.15	1001.5	4.32
.1	.008	328.15	998.5	4.32
.1	.008	333.15	995.6	4.32
.1	.008	338.15	992.8	4.32
.1	.008	343.15	989.9	4.32
.1	.008	348.15	986.9	4.32
.1	.008	353.15	983.7	4.32
.1	.011	293.15	1019.5	4.32
.1	.011	298.15	1017.8	4.32
.1	.011	303.15	1015.8	4.32
.1	.011	308.15	1013.4	4.32
.1	.011	313.15	1010.9	4.32
.1	.011	318.15	1007.9	4.32
.1	.011	323.15	1006	4.32
.1	.011	328.15	1002.3	4.32
.1	.011	333.15	999.5	4.32
.1	.011	338.15	996.7	4.32
.1	.011	343.15	993.8	4.32
.1	.011	348.15	990.9	4.32
.1	.011	353.15	987.8	4.32
.1	.013	293.15	1022.8	4.32
.1	.013	298.15	1021	4.32
.1	.013	303.15	1019	4.32
.1	.013	308.15	1016.5	4.32
.1	.013	313.15	1013.8	4.32
.1	.013	318.15	1010.7	4.32
.1	.013	323.15	1008	4.32
.1	.013	328.15	1005.2	4.32
.1	.013	333.15	1002.6	4.32
.1	.013	338.15	998.5	4.32
.1	.013	343.15	996.4	4.32
.1	.013	348.15	992.9	4.32
.1	.013	353.15	990.8	4.32
.1	.008	293.15	1021.9	4.32
.1	.008	298.15	1018.9	4.32
.1	.008	303.15	1015.7	4.32
.1	.008	308.15	1012.5	4.32
.1	.008	313.15	1009.2	4.32
.1	.008	318.15	1005.8	4.32
.1	.008	323.15	1002.4	4.32
.1	.008	328.15	998.9	4.32
.1	.008	333.15	995.3	4.32
.1	.008	338.15	991.7	4.32
.1	.008	343.15	988	4.32
.1	.008	348.15	984.3	4.32
.1	.008	353.15	980.5	4.32
.1	.02	293.15	1035.5	4.32
.1	.02	298.15	1032.5	4.32
.1	.02	303.15	1029.4	4.32
.1	.02	308.15	1026.3	4.32
.1	.02	313.15	1023.1	4.32
.1	.02	318.15	1019.9	4.32
.1	.02	323.15	1016.6	4.32
.1	.02	328.15	1013.2	4.32
.1	.02	333.15	1009.8	4.32
.1	.02	338.15	1006.3	4.32
.1	.02	343.15	1002.7	4.32
.1	.02	348.15	991	4.32
.1	.02	353.15	995.4	4.32
.1	.039	293.15	1055.7	4.32
.1	.039	298.15	1052.8	4.32
.1	.039	303.15	1049.9	4.32
.1	.039	308.15	1047	4.32
.1	.039	313.15	1043.9	4.32
.1	.039	318.15	1040.8	4.32
.1	.039	323.15	1037.7	4.32
.1	.039	328.15	1034.5	4.32
.1	.039	333.15	1031.2	4.32
.1	.039	338.15	1027.9	4.32
.1	.039	343.15	1024.5	4.32
.1	.039	348.15	1021	4.32
.1	.039	353.15	1017.5	4.32
.1	.047	293.15	1071.3	4.32
.1	.047	298.15	1068.5	4.32
.1	.047	303.15	1065.7	4.32
.1	.047	308.15	1062.8	4.32
.1	.047	313.15	1059.8	4.32
.1	.047	318.15	1056.8	4.32
.1	.047	323.15	1053.8	4.32
.1	.047	328.15	1050.7	4.32
.1	.047	333.15	1047.5	4.32
.1	.047	338.15	1044.3	4.32
.1	.047	343.15	1041	4.32
.1	.047	348.15	1037.7	4.32
.1	.047	353.15	1034.3	4.32
.1	.062	293.15	1092.6	4.32
.1	.062	298.15	1090	4.32
.1	.062	303.15	1087.3	4.32
.1	.062	308.15	1084.5	4.32
.1	.062	313.15	1081.7	4.32
.1	.062	318.15	1078.9	4.32
.1	.062	323.15	1076	4.32
.1	.062	328.15	1073	4.32
.1	.062	333.15	1070	4.32
.1	.062	338.15	1066.9	4.32
.1	.062	343.15	1063.8	4.32
.1	.062	348.15	1060.6	4.32
.1	.062	353.15	1057.3	4.32
