Measured thermophysical data. Specific Heat Capacities of Two Functional Ionic Liquids and Two Functional Deep Eutectic Solvents for the Absorption of SO2
Source: J. Chem. Eng. Data, 2017, 10.1021/acs.jced.7b00102
Compound 1: monoethanolamine, C2H7NO, purity 99%
Compound 2: 1,1,3,3-tetramethylguanidine, C5H13N3, purity 99%
Compound 3: dl-lactic acid, C3H6O3, purity 98%
Compound 4: betaine, C5H11NO2, purity 99%
Compound 5: ethylene glycol, C2H6O2, purity 99%
Compound 6: L-Carnitine, C7H15NO3, purity 99%
Compound 7: water, H2O, purity 99.8%
Compound 8: 2-hydroxy-N-(2-hydroxyethyl)propanamide, C5H11NO3, purity 99%

System: ethylene glycol; phases: Liquid
Property: Molar heat capacity at constant pressure, J/K/mol (Liquid); method: Extra sensitive DSC
Pressure, kPa	Temperature, K	Molar heat capacity at constant pressure, J/K/mol	uncertainty
100.59	323.15	151.56966528	
100.59	333.15	155.23166784	
100.59	343.15	158.5833312	
100.59	353.15	161.31431616	
100.59	363.15	164.85218304	

System: betaine + ethylene glycol; phases: Liquid
Fixed: Pressure, kPa = 100.59
Fixed: Mole fraction of betaine = .25
Property: Molar heat capacity at constant pressure, J/K/mol (Liquid); method: Extra sensitive DSC
Temperature, K	Molar heat capacity at constant pressure, J/K/mol	uncertainty
318.15	164.794833175	
323.15	167.1457949	
328.15	168.51086945	
333.15	170.255131375	
338.15	171.6960434	
343.15	172.985280475	
348.15	174.198680075	
353.15	175.18456725	
358.15	176.473804325	
363.15	177.535528975	

System: L-Carnitine + ethylene glycol; phases: Liquid
Fixed: Pressure, kPa = 100.59
Fixed: Mole fraction of L-Carnitine = .25
Property: Molar heat capacity at constant pressure, J/K/mol (Liquid); method: Extra sensitive DSC
Temperature, K	Molar heat capacity at constant pressure, J/K/mol	uncertainty
318.15	180.99668166	
323.15	183.94960257	
328.15	185.947166715	
333.15	188.205282705	
338.15	190.20284685	
343.15	192.11356038	
348.15	193.85057268	
353.15	195.327033135	
358.15	197.411447895	
363.15	199.322161425	

System: monoethanolamine + dl-lactic acid + 2-hydroxy-N-(2-hydroxyethyl)propanamide; phases: Liquid
Fixed: Pressure, kPa = 100.59
Fixed: Mole fraction of monoethanolamine = .443
Fixed: Mole fraction of 2-hydroxy-N-(2-hydroxyethyl)propanamide = .115
Property: Molar heat capacity at constant pressure, J/K/mol (Liquid); method: Extra sensitive DSC
Temperature, K	Molar heat capacity at constant pressure, J/K/mol	uncertainty
318.15	155.90691093698	
323.15	160.18058482666	
328.15	163.22146817124	
333.15	166.67328169752	
338.15	169.96072315112	
343.15	173.24816460472	
348.15	176.53560605832	
353.15	179.65867543924	
358.15	183.52141914722	
363.15	187.46634889154	

System: dl-lactic acid + 1,1,3,3-tetramethylguanidine; phases: Liquid
Fixed: Pressure, kPa = 100.59
Fixed: Mole fraction of dl-lactic acid = .5
Property: Molar heat capacity at constant pressure, J/K/mol (Liquid); method: Extra sensitive DSC
Temperature, K	Molar heat capacity at constant pressure, J/K/mol	uncertainty
318.15	176.92970656	
323.15	183.7031176	
328.15	189.24499936	
333.15	195.19739088	
338.15	200.6366452	
343.15	205.87064464	
348.15	211.00201664	
353.15	215.92813376	
358.15	221.1621332	
363.15	226.19087776	
