Measured thermophysical data. Solubility of (S)-3-(Aminomethyl)-5-Methylhexanoic Acid in Pure and Binary Solvent Mixtures
Source: J. Chem. Eng. Data, 2016, 10.1021/acs.jced.5b00736
Compound 1: (S)-3-(aminomethyl)-5-methylhexanoic acid, C8H17NO2, purity 97.0%
Compound 2: methanol, CH4O, purity 99.9%
Compound 3: 2-propanol, C3H8O, purity 99.9%
Compound 4: water, H2O

System: 2-propanol + water + (S)-3-(aminomethyl)-5-methylhexanoic acid; phases: Liquid, Crystal
Fixed: Pressure, kPa = 100
Property: Mole fraction of (S)-3-(aminomethyl)-5-methylhexanoic acid (Liquid); method: gravimetric
Temperature, K	Solvent: Mole fraction of 2-propanol	Mole fraction of (S)-3-(aminomethyl)-5-methylhexanoic acid	uncertainty
283.15	0	.003492	.0013968
298.15	0	.003729	.0014916
308.15	0	.003974	.0015896
315.65	0	.004465	.001786
323.15	0	.00486	.001944
328.15	0	.005311	.0021244
338.15	0	.006408	.0025632
315.65	.032	.004283	.0017132
328.15	.032	.005615	.002246
338.15	.032	.007445	.002978
308.15	.07	.003427	.0013708
283.15	.07	.001598	.0006392
315.65	.07	.004786	.0019144
323.15	.07	.0062	.00248
298.15	.07	.002626	.0010504
328.15	.07	.007179	.0028716
338.15	.07	.009969	.0039876
315.65	.114	.005932	.0023728
328.15	.114	.00905	.00362
338.15	.114	.012581	.0050324
315.65	.166	.00679	.002716
323.15	.166	.008636	.0034544
283.15	.166	.001855	.000742
328.15	.166	.010426	.0041704
298.15	.166	.003579	.0014316
308.15	.166	.005035	.002014
338.15	.166	.014331	.0057324
283.15	.229	.002049	.0008196
323.15	.229	.008932	.0035728
298.15	.229	.003648	.0014592
328.15	.229	.010469	.0041876
308.15	.229	.005268	.0021072
315.65	.229	.007047	.0028188
338.15	.229	.013634	.0054536
323.15	.308	.008128	.0032512
298.15	.308	.003526	.0014104
308.15	.308	.004859	.0019436
328.15	.308	.009368	.0037472
283.15	.308	.001829	.0007316
315.65	.308	.00644	.002576
338.15	.308	.012599	.0050396
328.15	.411	.007148	.0028592
315.65	.411	.005019	.0020076
338.15	.411	.009396	.0037584
323.15	.546	.003423	.0013692
328.15	.546	.003959	.0015836
283.15	.546	.000774	.0003096
308.15	.546	.002107	.0008428
298.15	.546	.001625	.00065
315.65	.546	.003037	.0012148
338.15	.546	.004908	.0019632
328.15	1	.000068	.0000272
298.15	1	.000069	.0000276
283.15	1	.000025	.00001
323.15	1	.000092	.0000368
315.65	1	.000116	.0000464
308.15	1	.000128	.0000512

System: methanol + water + (S)-3-(aminomethyl)-5-methylhexanoic acid; phases: Liquid, Crystal
Fixed: Pressure, kPa = 100
Property: Mole fraction of (S)-3-(aminomethyl)-5-methylhexanoic acid (Liquid); method: gravimetric
Temperature, K	Solvent: Mole fraction of methanol	Mole fraction of (S)-3-(aminomethyl)-5-methylhexanoic acid	uncertainty
283.15	0	.003492	.00027936
283.15	.059	.002852	.00022816
283.15	.123	.002155	.0001724
283.15	.194	.001991	.00015928
283.15	.273	.001858	.00014864
283.15	.36	.001804	.00014432
283.15	.457	.001842	.00014736
283.15	.568	.001721	.00013768
283.15	.694	.001578	.00012624
283.15	1	.000864	.00006912
298.15	0	.003729	.00029832
298.15	.059	.003383	.00027064
298.15	.123	.003046	.00024368
298.15	.194	.002787	.00022296
298.15	.273	.00281	.0002248
298.15	.36	.003005	.0002404
298.15	.457	.002905	.0002324
298.15	.568	.002584	.00020672
298.15	.694	.001899	.00015192
298.15	1	.001085	.0000868
308.15	0	.003974	.00031792
308.15	.059	.003804	.00030432
308.15	.123	.003717	.00029736
308.15	.194	.00368	.0002944
308.15	.273	.003829	.00030632
308.15	.36	.003987	.00031896
308.15	.457	.003994	.00031952
308.15	.568	.003715	.0002972
308.15	.694	.002795	.0002236
308.15	1	.001713	.00013704
315.65	0	.004465	.0003572
315.65	.059	.004449	.00035592
315.65	.123	.004466	.00035728
315.65	.194	.004726	.00037808
315.65	.273	.004919	.00039352
315.65	.36	.005091	.00040728
315.65	.457	.005085	.0004068
315.65	.568	.004789	.00038312
315.65	.694	.004054	.00032432
315.65	1	.001986	.00015888
323.15	0	.00486	.0003888
323.15	.059	.00525	.00042
323.15	.123	.005391	.00043128
323.15	.194	.005732	.00045856
323.15	.273	.006193	.00049544
323.15	.36	.006558	.00052464
323.15	.457	.006546	.00052368
323.15	.568	.006026	.00048208
323.15	.694	.005065	.0004052
323.15	1	.002662	.00021296
328.15	0	.005311	.00042488
328.15	.059	.005714	.00045712
328.15	.123	.006049	.00048392
328.15	.194	.006651	.00053208
328.15	.273	.007209	.00057672
328.15	.36	.007702	.00061616
328.15	.457	.007571	.00060568
328.15	.568	.007107	.00056856
328.15	.694	.0058	.000464
328.15	1	.002906	.00023248
338.15	0	.006408	.00051264
338.15	.059	.00711	.0005688
338.15	.123	.007818	.00062544
338.15	.194	.008947	.00071576
338.15	.273	.009099	.00072792
338.15	.36	.010494	.00083952
338.15	.457	.010416	.00083328
338.15	.568	.009658	.00077264
338.15	.694	.007807	.00062456
338.15	1	.003229	.00025832

System: water + (S)-3-(aminomethyl)-5-methylhexanoic acid; phases: Liquid, Crystal
Property: Mole fraction of (S)-3-(aminomethyl)-5-methylhexanoic acid (Liquid); method: gravimetric
Temperature, K	Pressure, kPa	Mole fraction of (S)-3-(aminomethyl)-5-methylhexanoic acid	uncertainty
283.15	100	.003492	.00027936
298.15	100	.003729	.00029832
308.15	100	.003974	.00031792
315.65	100	.004465	.0003572
323.15	100	.00486	.0003888
328.15	100	.005311	.00042488
338.15	100	.006408	.00051264

System: 2-propanol + (S)-3-(aminomethyl)-5-methylhexanoic acid; phases: Liquid, Crystal
Property: Mole fraction of (S)-3-(aminomethyl)-5-methylhexanoic acid (Liquid); method: gravimetric
Temperature, K	Pressure, kPa	Mole fraction of (S)-3-(aminomethyl)-5-methylhexanoic acid	uncertainty
283.15	100	.000025	.00001
298.15	100	.000069	.0000276
308.15	100	.000128	.0000512
315.65	100	.000116	.0000464
323.15	100	.000092	.0000368
328.15	100	.000068	.0000272

System: methanol + (S)-3-(aminomethyl)-5-methylhexanoic acid; phases: Liquid, Crystal
Property: Mole fraction of (S)-3-(aminomethyl)-5-methylhexanoic acid (Liquid); method: gravimetric
Temperature, K	Pressure, kPa	Mole fraction of (S)-3-(aminomethyl)-5-methylhexanoic acid	uncertainty
283.15	100	.000864	.00006912
298.15	100	.001085	.0000868
308.15	100	.001713	.00013704
315.65	100	.001986	.00015888
323.15	100	.002662	.00021296
328.15	100	.002906	.00023248
338.15	100	.003229	.00025832
