Measured thermophysical data. Isobaric Vapor Liquid Equilibrium for Binary Systems of Allyl Alcohol with Water, Methanol, and Ethanol at 101.3 kPa
Source: J. Chem. Eng. Data, 2016, 10.1021/acs.jced.5b01048
Compound 1: allyl alcohol, C3H6O, purity 99%
Compound 2: methanol, CH4O, purity 99.5%
Compound 3: ethanol, C2H6O, purity 99.7%
Compound 4: water, H2O, purity 99.8%

System: allyl alcohol; phases: Liquid
Fixed: Pressure, kPa = 101.325
Property: Mass density, kg/m3 (Liquid); method: Buoyancy - hydrostatic balance
Temperature, K	Mass density, kg/m3	uncertainty
293.15	854	.5

System: allyl alcohol; phases: Liquid
Fixed: Pressure, kPa = 101.325
Property: Refractive index (Na D-line) (Liquid); method: Standard Abbe refractometry
Temperature, K	Refractive index (Na D-line)	uncertainty
293.15	1.4119	.0002

System: methanol; phases: Liquid
Fixed: Pressure, kPa = 101.325
Property: Mass density, kg/m3 (Liquid); method: Buoyancy - hydrostatic balance
Temperature, K	Mass density, kg/m3	uncertainty
293.15	792.2	.5

System: methanol; phases: Liquid
Fixed: Pressure, kPa = 101.325
Property: Refractive index (Na D-line) (Liquid); method: Standard Abbe refractometry
Temperature, K	Refractive index (Na D-line)	uncertainty
293.15	1.3276	.0002

System: ethanol; phases: Liquid
Fixed: Pressure, kPa = 101.325
Property: Mass density, kg/m3 (Liquid); method: Buoyancy - hydrostatic balance
Temperature, K	Mass density, kg/m3	uncertainty
293.15	790	.5

System: ethanol; phases: Liquid
Fixed: Pressure, kPa = 101.325
Property: Refractive index (Na D-line) (Liquid); method: Standard Abbe refractometry
Temperature, K	Refractive index (Na D-line)	uncertainty
293.15	1.3616	.0002

System: water; phases: Liquid
Fixed: Pressure, kPa = 101.325
Property: Mass density, kg/m3 (Liquid); method: Buoyancy - hydrostatic balance
Temperature, K	Mass density, kg/m3	uncertainty
293.15	998.4	.5

System: water; phases: Liquid
Fixed: Pressure, kPa = 101.325
Property: Refractive index (Na D-line) (Liquid); method: Standard Abbe refractometry
Temperature, K	Refractive index (Na D-line)	uncertainty
293.15	1.3328	.0002

System: allyl alcohol + water; phases: Liquid, Gas
Fixed: Pressure, kPa = 101.33
Property: Boiling temperature at pressure P, K (Liquid); method: Ebulliometric method (Recirculating still)
Mole fraction of allyl alcohol	Boiling temperature at pressure P, K	uncertainty
.001	372.95	
.004	372.08	
.008	371.21	
.013	370.13	
.02	369.04	
.032	367.79	
.043	366.88	
.085	364.9	
.129	363.83	
.272	362.88	
.401	362.41	
.535	362.68	
.736	363.66	
.821	364.93	
.875	366.07	
.913	367.13	
.944	368.04	
.963	368.7	
.978	369.23	
.995	369.8	

System: allyl alcohol + water; phases: Gas, Liquid
Fixed: Pressure, kPa = 101.3
Property: Mole fraction of allyl alcohol (Gas); method: Chromatography
Temperature, K	Mole fraction of allyl alcohol	uncertainty
372.95	.008	
372.08	.043	
371.21	.075	
370.13	.115	
369.04	.155	
367.79	.199	
366.88	.233	
364.9	.305	
363.83	.347	
362.88	.404	
362.41	.459	
362.68	.502	
363.66	.612	
364.93	.696	
366.07	.764	
367.13	.827	
368.04	.879	
368.7	.919	
369.23	.951	
369.8	.987	

System: methanol + allyl alcohol; phases: Liquid, Gas
Fixed: Pressure, kPa = 101.33
Property: Boiling temperature at pressure P, K (Liquid); method: Ebulliometric method (Recirculating still)
Mole fraction of allyl alcohol	Boiling temperature at pressure P, K	uncertainty
.967	368.2	
.937	366.33	
.907	365.08	
.874	363.52	
.811	360.76	
.775	359.42	
.707	356.69	
.575	352.37	
.455	348.47	
.419	347.68	
.355	345.86	
.28	343.81	
.197	341.97	
.078	339.19	
.057	338.82	

System: methanol + allyl alcohol; phases: Gas, Liquid
Fixed: Pressure, kPa = 101.33
Property: Mole fraction of allyl alcohol (Gas); method: Chromatography
Temperature, K	Mole fraction of allyl alcohol	uncertainty
368.2	.903	
366.33	.815	
365.08	.754	
363.52	.685	
360.76	.568	
359.42	.512	
356.69	.435	
352.37	.305	
348.47	.211	
347.68	.186	
345.86	.144	
343.81	.095	
341.97	.06	
339.19	.019	
338.82	.012	

System: ethanol + allyl alcohol; phases: Liquid, Gas
Fixed: Pressure, kPa = 101.33
Property: Boiling temperature at pressure P, K (Liquid); method: Ebulliometric method (Recirculating still)
Mole fraction of allyl alcohol	Boiling temperature at pressure P, K	uncertainty
.993	370.11	
.973	369.5	
.886	367.14	
.843	366.08	
.776	364.45	
.738	363.53	
.664	362.01	
.64	361.55	
.609	360.94	
.545	359.58	
.488	358.54	
.436	357.71	
.383	356.86	
.333	356.01	
.24	354.5	
.129	352.92	

System: ethanol + allyl alcohol; phases: Gas, Liquid
Fixed: Pressure, kPa = 101.33
Property: Mole fraction of allyl alcohol (Gas); method: Chromatography
Temperature, K	Mole fraction of allyl alcohol	uncertainty
370.11	.987	
369.5	.953	
367.14	.799	
366.08	.735	
364.45	.642	
363.53	.588	
362.01	.5	
361.55	.473	
360.94	.443	
359.58	.375	
358.54	.325	
357.71	.28	
356.86	.241	
356.01	.195	
354.5	.13	
352.92	.063	
