Measured thermophysical data. Isobaric and Isothermal Vapor Liquid Equilibria for the Binary System of Water + Formic Acid at 99.41 kPa, 388.15 K, and 398.15 K
Source: J. Chem. Eng. Data, 2016, 10.1021/acs.jced.6b00139
Compound 1: formic acid, CH2O2, purity 68.9%
Compound 2: water, H2O, purity 99.8%

System: formic acid; phases: Liquid, Gas
Property: Vapor or sublimation pressure, kPa (Liquid); method: Ebulliometric method (Recirculating still)
Temperature, K	Vapor or sublimation pressure, kPa	uncertainty
388.15	153.7	
398.15	200.6	

System: formic acid + water; phases: Liquid, Gas
Property: Boiling temperature at pressure P, K (Liquid); method: Ebulliometric method (Recirculating still)
Mole fraction of water	Pressure, kPa	Boiling temperature at pressure P, K	uncertainty
.103	99.41	376.3	
.206	99.41	378.8	
.302	99.41	379.9	
.41	99.41	380.6	
.487	99.24	380.6	
.536	99.24	380.1	
.678	99.24	378.4	
.854	99.24	375.5	

System: formic acid + water; phases: Gas, Liquid
Property: Mole fraction of water (Gas); method: Titration method
Mole fraction of water	Pressure, kPa	Mole fraction of water	uncertainty
.103	99.41	.064	
.206	99.41	.156	
.302	99.41	.256	
.41	99.41	.404	
.487	99.24	.512	
.536	99.24	.594	
.678	99.24	.769	
.854	99.24	.931	

System: formic acid + water; phases: Liquid, Gas
Property: Vapor or sublimation pressure, kPa (Liquid); method: Ebulliometric method (Recirculating still)
Mole fraction of water	Temperature, K	Vapor or sublimation pressure, kPa	uncertainty
0	388.15	153.7	
.1554	388.15	138.5	
.2855	388.15	130.6	
.4067	388.15	128.5	
.5275	388.15	131.1	
.6226	388.15	136	
.7364	388.15	143.9	
.8453	388.15	153.7	
.905	388.15	159.4	
.9549	388.15	164.9	
.9784	388.15	166.9	
0	398.15	200.6	
.1672	398.15	183.3	
.2853	398.15	177.2	
.4042	398.15	176.7	
.5291	398.15	182	
.6297	398.15	190	
.7397	398.15	200.7	
.8501	398.15	213.3	
.9082	398.15	220.6	
.9553	398.15	226.1	
.9782	398.15	229.2	

System: formic acid + water; phases: Gas, Liquid
Property: Mole fraction of water (Gas); method: Titration method
Mole fraction of water	Temperature, K	Mole fraction of water	uncertainty
0	388.15	0	
.1554	388.15	.1224	
.2855	388.15	.2482	
.4067	388.15	.3915	
.5275	388.15	.5803	
.6226	388.15	.7164	
.7364	388.15	.8634	
.8453	388.15	.9302	
.905	388.15	.9609	
.9549	388.15	.9834	
.9784	388.15	.9914	
0	398.15	0	
.1672	398.15	.1422	
.2853	398.15	.245	
.4042	398.15	.4063	
.5291	398.15	.5925	
.6297	398.15	.7284	
.7397	398.15	.8619	
.8501	398.15	.9305	
.9082	398.15	.9587	
.9553	398.15	.9829	
.9782	398.15	.9914	
