Measured thermophysical data. Determination and Correlation of Solubility of 3,4-Dinitro-1H-pyrazole in Different Pure Solvents from 298.15 K to 338.15 K
Source: J. Chem. Eng. Data, 2016, 10.1021/acs.jced.6b00219
Compound 1: 3,4-dinitro-1H-pyrazole, C3H2N4O4
Compound 2: benzene, C6H6, purity 99.5%
Compound 3: toluene, C7H8, purity 99.5%
Compound 4: chlorobenzene, C6H5Cl, purity 99.5%
Compound 5: anisole, C7H8O, purity 99.5%
Compound 6: n-butanol, C4H10O, purity 99.5%
Compound 7: isopropanol, C3H8O, purity 99.5%

System: 3,4-dinitro-1H-pyrazole; phases: Crystal, Liquid, Air at 1 atmosphere
Property: Molar enthalpy of transition or fusion, kJ/mol (Crystal); method: DSC
Molar enthalpy of transition or fusion, kJ/mol	uncertainty
11.744	.4

System: 3,4-dinitro-1H-pyrazole; phases: Crystal, Liquid, Air at 1 atmosphere
Property: Normal melting temperature, K (Crystal); method: DSC/DTA
Normal melting temperature, K	uncertainty
360.98	.5

System: benzene + 3,4-dinitro-1H-pyrazole; phases: Liquid, Crystal
Fixed: Pressure, kPa = 100
Property: Mole fraction of 3,4-dinitro-1H-pyrazole (Liquid); method: visual
Temperature, K	Mole fraction of 3,4-dinitro-1H-pyrazole	uncertainty
298.15	.001712	
303.15	.002108	
308.15	.002639	
313.15	.003166	
318.15	.00389	
323.15	.00482	
328.15	.005847	
333.15	.007424	
338.15	.009355	

System: toluene + 3,4-dinitro-1H-pyrazole; phases: Liquid, Crystal
Fixed: Pressure, kPa = 100
Property: Mole fraction of 3,4-dinitro-1H-pyrazole (Liquid); method: visual
Temperature, K	Mole fraction of 3,4-dinitro-1H-pyrazole	uncertainty
298.15	.002006	
303.15	.002404	
308.15	.002907	
313.15	.00345	
318.15	.004113	
323.15	.004987	
328.15	.006006	
333.15	.00725	
338.15	.008772	

System: chlorobenzene + 3,4-dinitro-1H-pyrazole; phases: Liquid, Crystal
Fixed: Pressure, kPa = 100
Property: Mole fraction of 3,4-dinitro-1H-pyrazole (Liquid); method: visual
Temperature, K	Mole fraction of 3,4-dinitro-1H-pyrazole	uncertainty
298.15	.001203	
303.15	.001468	
308.15	.001805	
313.15	.002185	
318.15	.002658	
323.15	.003278	
328.15	.00402	
333.15	.004943	
338.15	.00609	

System: anisole + 3,4-dinitro-1H-pyrazole; phases: Liquid, Crystal
Fixed: Pressure, kPa = 100
Property: Mole fraction of 3,4-dinitro-1H-pyrazole (Liquid); method: visual
Temperature, K	Mole fraction of 3,4-dinitro-1H-pyrazole	uncertainty
298.15	.043013	
303.15	.057957	
308.15	.07782	
313.15	.103412	
318.15	.137762	
323.15	.181402	
328.15	.236802	
333.15	.313144	
338.15	.410601	

System: n-butanol + 3,4-dinitro-1H-pyrazole; phases: Liquid, Crystal
Fixed: Pressure, kPa = 100
Property: Mole fraction of 3,4-dinitro-1H-pyrazole (Liquid); method: visual
Temperature, K	Mole fraction of 3,4-dinitro-1H-pyrazole	uncertainty
298.15	.318233	
303.15	.348024	
308.15	.38667	
313.15	.41096	
318.15	.444008	
323.15	.48914	
328.15	.528106	
333.15	.586047	
338.15	.648253	

System: isopropanol + 3,4-dinitro-1H-pyrazole; phases: Liquid, Crystal
Fixed: Pressure, kPa = 100
Property: Mole fraction of 3,4-dinitro-1H-pyrazole (Liquid); method: visual
Temperature, K	Mole fraction of 3,4-dinitro-1H-pyrazole	uncertainty
298.15	.388071	
303.15	.412868	
308.15	.4413	
313.15	.471754	
318.15	.50875	
323.15	.546851	
328.15	.587709	
333.15	.64182	
338.15	.70018	
