Measured thermophysical data. Differential Scanning Calorimetry Data and Solubility of Rosmarinic Acid in Different Pure Solvents and in Binary Mixtures (Methyl Acetate + Water) and (Ethyl Acetate + Water) from 293.2 to 313.2 K
Source: J. Chem. Eng. Data, 2016, 10.1021/acs.jced.6b00008
Compound 1: rosmarinic acid, C18H16O8, purity 95.5%
Compound 2: ethyl acetate, C4H8O2, purity 99.8%
Compound 3: methyl acetate, C3H6O2, purity 98%
Compound 4: water, H2O, purity 99.9%
Compound 5: gallic acid, C7H6O5, purity 97%

System: rosmarinic acid; phases: Crystal, Liquid, Air at 1 atmosphere
Property: Molar enthalpy of transition or fusion, kJ/mol (Crystal); method: DSC
Molar enthalpy of transition or fusion, kJ/mol	uncertainty
16.39	.66

System: rosmarinic acid; phases: Crystal, Liquid, Air at 1 atmosphere
Property: Normal melting temperature, K (Crystal); method: DSC/DTA
Normal melting temperature, K	uncertainty
434.11	1.71

System: methyl acetate + rosmarinic acid; phases: Liquid, Crystal
Fixed: Pressure, kPa = 100
Property: Mole fraction of rosmarinic acid (Liquid); method: spectroscopy
Temperature, K	Mole fraction of rosmarinic acid	uncertainty
293.15	.036308	
298.15	.04899	
303.15	.053257	
308.15	.061886	
313.15	.076442	

System: ethyl acetate + rosmarinic acid; phases: Liquid, Crystal
Fixed: Pressure, kPa = 100
Property: Mole fraction of rosmarinic acid (Liquid); method: spectroscopy
Temperature, K	Mole fraction of rosmarinic acid	uncertainty
293.15	.034496	
298.15	.046575	
303.15	.050632	
308.15	.058798	
313.15	.072195	

System: methyl acetate + water + rosmarinic acid; phases: Liquid, Crystal
Fixed: Pressure, kPa = 100
Property: Mole fraction of rosmarinic acid (Liquid); method: spectroscopy
Temperature, K	Mole fraction of methyl acetate	Mole fraction of rosmarinic acid	uncertainty
293.15	.1	.014053	
298.15	.1	.017552	
303.15	.1	.018719	
308.15	.1	.020492	
313.15	.1	.028014	
293.15	.3	.017595	
298.15	.3	.021234	
303.15	.3	.023622	
308.15	.3	.028005	
313.15	.3	.034871	
293.15	.5	.021855	
298.15	.5	.026665	
303.15	.5	.029874	
308.15	.5	.035191	
313.15	.5	.04331	
293.15	.7	.027792	
298.15	.7	.034076	
303.15	.7	.037827	
308.15	.7	.044841	
313.15	.7	.055308	
293.15	.9	.032293	
298.15	.9	.040464	
303.15	.9	.045204	
308.15	.9	.053078	
313.15	.9	.065351	

System: ethyl acetate + water + rosmarinic acid; phases: Liquid, Crystal
Fixed: Pressure, kPa = 100
Property: Mole fraction of rosmarinic acid (Liquid); method: spectroscopy
Temperature, K	Mole fraction of ethyl acetate	Mole fraction of rosmarinic acid	uncertainty
293.15	.1	.013292	
298.15	.1	.017048	
303.15	.1	.017615	
308.15	.1	.019553	
313.15	.1	.026768	
298.15	.3	.020269	
303.15	.3	.022333	
308.15	.3	.026477	
293.15	.3	.016918	
313.15	.3	.032969	
293.15	.5	.020855	
298.15	.5	.024831	
303.15	.5	.028082	
308.15	.5	.033435	
313.15	.5	.040765	
293.15	.7	.026406	
303.15	.7	.035596	
298.15	.7	.032558	
308.15	.7	.042214	
313.15	.7	.05196	
298.15	.9	.03847	
303.15	.9	.042758	
308.15	.9	.049904	
293.15	.9	.030396	
313.15	.9	.062091	

System: gallic acid + water; phases: Liquid, Crystal
Fixed: Pressure, kPa = 100
Property: Mass fraction of gallic acid (Liquid); method: spectroscopy
Temperature, K	Mass fraction of gallic acid	uncertainty
293.15	.01274	
298.15	.01452	
303.15	.01456	
308.15	.02211	
313.15	.02721	
