Measured thermophysical data. Densities and Apparent Molar Volumes of Aqueous Solutions of Li2SO4 and LiCF3SO3 at Temperatures from 293 to 343 K
Source: J. Chem. Eng. Data, 2016, 10.1021/acs.jced.6b00519
Compound 1: lithium trifluoromethanesulfonate, CF3LiO3S
Compound 2: lithium sulfate, Li2O4S
Compound 3: water, H2O, purity 99.9%

System: water + lithium sulfate; phases: Liquid
Fixed: Pressure, kPa = 100
Property: Mass density, kg/m3 (Liquid); method: Vibrating tube method
Temperature, K	Molality, mol/kg of lithium sulfate	Mass density, kg/m3	uncertainty
293.15	.05013	4.788	
293.15	.07004	6.663	
293.15	.10081	9.539	
293.15	.2024	18.889	
293.15	.4025	36.769	
293.15	.4993	45.199	
293.15	.50752	45.919	
293.15	.70609	62.796	
293.15	.9969	86.613	
293.15	1.001	86.962	
293.15	1.5033	125.89	
293.15	2.0008	161.91	
293.15	2.6814	207.48	
298.15	.05013	4.76	
298.15	.07004	6.624	
298.15	.10081	9.486	
298.15	.2024	18.779	
298.15	.4025	36.568	
298.15	.4993	44.959	
298.15	.50752	45.674	
298.15	.70609	62.486	
298.15	.9969	86.225	
298.15	1.001	86.573	
298.15	1.5033	125.42	
298.15	2.0008	161.41	
298.15	2.6814	207.02	
303.15	.05013	4.74	
303.15	.07004	6.593	
303.15	.10081	9.442	
303.15	.2024	18.696	
303.15	.4025	36.417	
303.15	.4993	44.779	
303.15	.50752	45.489	
303.15	.70609	62.252	
303.15	.9969	85.933	
303.15	1.001	86.276	
303.15	1.5033	125.07	
303.15	2.0008	161.04	
303.15	2.6814	206.67	
308.15	.05013	4.724	
308.15	.07004	6.574	
308.15	.10081	9.412	
308.15	.2024	18.635	
308.15	.4025	36.306	
308.15	.4993	44.644	
308.15	.50752	45.353	
308.15	.70609	62.08	
308.15	.9969	85.723	
308.15	1.001	86.068	
308.15	1.5033	124.83	
308.15	2.0008	160.79	
308.15	2.6814	206.44	
313.15	.05013	4.714	
313.15	.07004	6.559	
313.15	.10081	9.392	
313.15	.2024	18.595	
313.15	.4025	36.228	
313.15	.4993	44.553	
313.15	.50752	45.261	
313.15	.70609	61.963	
313.15	.9969	85.584	
313.15	1.001	85.929	
313.15	1.5033	124.67	
313.15	2.0008	160.64	
313.15	2.6814	206.33	
318.15	.05013	4.709	
318.15	.07004	6.552	
318.15	.10081	9.381	
318.15	.2024	18.57	
318.15	.4025	36.182	
318.15	.4993	44.503	
318.15	.50752	45.209	
318.15	.70609	61.895	
318.15	.9969	85.503	
318.15	1.001	85.847	
318.15	1.5033	124.59	
318.15	2.0008	160.58	
318.15	2.6814	206.31	
323.15	.05013	4.707	
323.15	.07004	6.55	
323.15	.10081	9.375	
323.15	.2024	18.561	
323.15	.4025	36.164	
323.15	.4993	44.479	
323.15	.50752	45.184	
323.15	.70609	61.869	
323.15	.9969	85.477	
323.15	1.001	85.821	
323.15	1.5033	124.57	
323.15	2.0008	160.59	
323.15	2.6814	206.38	
328.15	.05013	4.711	
328.15	.07004	6.553	
328.15	.10081	9.379	
328.15	.2024	18.565	
328.15	.4025	36.17	
328.15	.4993	44.486	
328.15	.50752	45.193	
328.15	.70609	61.878	
328.15	.9969	85.496	
328.15	1.001	85.84	
328.15	1.5033	124.62	
328.15	2.0008	160.68	
328.15	2.6814	206.52	
333.15	.05013	4.717	
333.15	.07004	6.561	
333.15	.10081	9.389	
333.15	.2024	18.581	
333.15	.4025	36.194	
333.15	.4993	44.518	
333.15	.50752	45.225	
333.15	.70609	61.923	
333.15	.9969	85.56	
333.15	1.001	85.906	
333.15	1.5033	124.73	
333.15	2.0008	160.83	
333.15	2.6814	206.74	
338.15	.05013	4.725	
338.15	.07004	6.572	
338.15	.10081	9.406	
338.15	.2024	18.608	
338.15	.4025	36.239	
338.15	.4993	44.574	
338.15	.50752	45.284	
338.15	.70609	61.998	
338.15	.9969	85.662	
338.15	1.001	86.008	
338.15	1.5033	124.88	
338.15	2.0008	161.04	
338.15	2.6814	207.03	
343.15	.05013	4.736	
343.15	.07004	6.586	
343.15	.10081	9.426	
343.15	.2024	18.644	
343.15	.4025	36.302	
343.15	.4993	44.651	
343.15	.50752	45.363	
343.15	.70609	62.099	
343.15	.9969	85.799	
343.15	1.001	86.145	
343.15	1.5033	125.08	
343.15	2.0008	161.3	
343.15	2.6814	207.37	

System: water + lithium trifluoromethanesulfonate; phases: Liquid
Fixed: Pressure, kPa = 100
Property: Mass density, kg/m3 (Liquid); method: Vibrating tube method
Temperature, K	Molality, mol/kg of lithium trifluoromethanesulfonate	Mass density, kg/m3	uncertainty
293.15	.04996	4.072	
293.15	.06998	5.691	
293.15	.1002	8.127	
293.15	.2	16.076	
293.15	.3997	31.641	
293.15	.6998	54.196	
293.15	.9883	74.988	
293.15	1.4996	109.79	
293.15	1.9995	141.56	
293.15	2.9985	198.98	
293.15	3.9912	249.09	
293.15	5.8794	328.65	
293.15	7.4931	383.91	
293.15	9.6345	443.3	
298.15	.04996	4.048	
298.15	.06998	5.657	
298.15	.1002	8.079	
298.15	.2	15.975	
298.15	.3997	31.444	
298.15	.6998	53.838	
298.15	.9883	74.479	
298.15	1.4996	109.01	
298.15	1.9995	140.54	
298.15	2.9985	197.47	
298.15	3.9912	247.15	
298.15	5.8794	326.1	
298.15	7.4931	381.04	
298.15	9.6345	440.17	
303.15	.04996	4.026	
303.15	.06998	5.627	
303.15	.1002	8.034	
303.15	.2	15.884	
303.15	.3997	31.257	
303.15	.6998	53.509	
303.15	.9883	74.011	
303.15	1.4996	108.3	
303.15	1.9995	139.59	
303.15	2.9985	196.07	
303.15	3.9912	245.35	
303.15	5.8794	323.74	
303.15	7.4931	378.37	
303.15	9.6345	437.24	
308.15	.04996	4.002	
308.15	.06998	5.596	
308.15	.1002	7.989	
308.15	.2	15.798	
308.15	.3997	31.085	
308.15	.6998	53.203	
308.15	.9883	73.576	
308.15	1.4996	107.63	
308.15	1.9995	138.7	
308.15	2.9985	194.77	
308.15	3.9912	243.67	
308.15	5.8794	321.54	
308.15	7.4931	375.87	
308.15	9.6345	434.51	
313.15	.04996	3.983	
313.15	.06998	5.567	
313.15	.1002	7.95	
313.15	.2	15.719	
313.15	.3997	30.92	
313.15	.6998	52.913	
313.15	.9883	73.165	
313.15	1.4996	107	
313.15	1.9995	137.87	
313.15	2.9985	193.54	
313.15	3.9912	242.1	
313.15	5.8794	319.49	
313.15	7.4931	373.53	
313.15	9.6345	431.96	
318.15	.04996	3.965	
318.15	.06998	5.54	
318.15	.1002	7.912	
318.15	.2	15.643	
318.15	.3997	30.767	
318.15	.6998	52.643	
318.15	.9883	72.778	
318.15	1.4996	106.41	
318.15	1.9995	137.08	
318.15	2.9985	192.39	
318.15	3.9912	240.63	
318.15	5.8794	317.56	
318.15	7.4931	371.35	
318.15	9.6345	429.56	
323.15	.04996	3.946	
323.15	.06998	5.514	
323.15	.1002	7.873	
323.15	.2	15.57	
323.15	.3997	30.62	
323.15	.6998	52.384	
323.15	.9883	72.413	
323.15	1.4996	105.86	
323.15	1.9995	136.33	
323.15	2.9985	191.3	
323.15	3.9912	239.25	
323.15	5.8794	315.75	
323.15	7.4931	369.31	
323.15	9.6345	427.32	
328.15	.04996	3.93	
328.15	.06998	5.489	
328.15	.1002	7.842	
328.15	.2	15.502	
328.15	.3997	30.482	
328.15	.6998	52.138	
328.15	.9883	72.062	
328.15	1.4996	105.32	
328.15	1.9995	135.63	
328.15	2.9985	190.28	
328.15	3.9912	237.95	
328.15	5.8794	314.07	
328.15	7.4931	367.4	
328.15	9.6345	425.22	
333.15	.04996	3.912	
333.15	.06998	5.467	
333.15	.1002	7.81	
333.15	.2	15.438	
333.15	.3997	30.35	
333.15	.6998	51.901	
333.15	.9883	71.729	
333.15	1.4996	104.82	
333.15	1.9995	134.96	
333.15	2.9985	189.3	
333.15	3.9912	236.72	
333.15	5.8794	312.48	
333.15	7.4931	365.6	
333.15	9.6345	423.25	
338.15	.04996	3.897	
338.15	.06998	5.446	
338.15	.1002	7.779	
338.15	.2	15.376	
338.15	.3997	30.219	
338.15	.6998	51.678	
338.15	.9883	71.41	
338.15	1.4996	104.33	
338.15	1.9995	134.32	
338.15	2.9985	188.38	
338.15	3.9912	235.56	
338.15	5.8794	310.99	
338.15	7.4931	363.91	
338.15	9.6345	421.4	
343.15	.04996	3.884	
343.15	.06998	5.426	
343.15	.1002	7.75	
343.15	.2	15.319	
343.15	.3997	30.098	
343.15	.6998	51.462	
343.15	.9883	71.105	
343.15	1.4996	103.87	
343.15	1.9995	133.71	
343.15	2.9985	187.5	
343.15	3.9912	234.47	
343.15	5.8794	309.59	
343.15	7.4931	362.32	
343.15	9.6345	419.67	
