Measured thermophysical data. Thermodynamic Investigation of the CaF2 ThF4 and the LiF CaF2 ThF4 Systems
Source: J. Chem. Eng. Data, 2015, 10.1021/acs.jced.5b00347
Compound 1: lithium fluoride, FLi, purity 99.99%
Compound 2: calcium difluoride, CaF2, purity 99.99%
Compound 3: thorium(IV) fluoride, F4Th, purity 99.8%

System: calcium difluoride + thorium(IV) fluoride; phases: Liquid, Crystal, Crystal of intercomponent compound 1, Air at 1 atmosphere
Fixed: Pressure, kPa = 101.325
Property: Eutectic temperature, K (Liquid); method: DSC/DTA
Eutectic temperature, K	uncertainty
1224.4	5

System: calcium difluoride + thorium(IV) fluoride; phases: Liquid, Crystal of intercomponent compound 1, Crystal of intercomponent compound 2, Air at 1 atmosphere
Fixed: Pressure, kPa = 101.325
Property: Eutectic temperature, K (Liquid); method: DSC/DTA
Eutectic temperature, K	uncertainty
1332.6	5

System: calcium difluoride + thorium(IV) fluoride; phases: Liquid, Crystal
Fixed: Pressure, kPa = 101
Property: Solid-liquid equilibrium temperature, K (Liquid); method: DSC/DTA
Mole fraction of calcium difluoride	Solid-liquid equilibrium temperature, K	uncertainty
.032	1373.6	5
.086	1348.5	5
.162	1333	5
.184	1315.7	5
.22	1274.7	5
.247	1271.8	5
.264	1263.5	5
.271	1249.6	5
.285	1240	5
.285	1251.8	5

System: calcium difluoride + thorium(IV) fluoride; phases: Liquid, Crystal of intercomponent compound 1
Fixed: Pressure, kPa = 101
Property: Solid-liquid equilibrium temperature, K (Liquid); method: DSC/DTA
Mole fraction of calcium difluoride	Solid-liquid equilibrium temperature, K	uncertainty
.309	1249.8	5
.334	1272.8	5
.36	1298.3	5
.394	1311.5	5
.441	1326.8	5
.461	1335.8	5
.484	1350.6	5

System: calcium difluoride + thorium(IV) fluoride; phases: Liquid, Crystal of intercomponent compound 3
Fixed: Pressure, kPa = 101
Property: Solid-liquid equilibrium temperature, K (Liquid); method: DSC/DTA
Mole fraction of calcium difluoride	Solid-liquid equilibrium temperature, K	uncertainty
.501	1358.5	5
.507	1362.9	5
