Measured thermophysical data. Ternary and Quaternary Liquid-Liquid Equilibria for Systems of Methyl Butyl Ketone + Water + Hydroquinone + Phenol at 313.2 K and Atmospheric Pressure
Source: J. Chem. Eng. Data, 2016, 10.1021/acs.jced.5b00918
Compound 1: methyl butyl ketone, C6H12O, purity 99%
Compound 2: phenol, C6H6O, purity 99.5%
Compound 3: hydroquinone, C6H6O2, purity 99%
Compound 4: 1-octanol, C8H18O, purity 99.5%
Compound 5: n-propyl acetate, C5H10O2, purity 99.9%
Compound 6: water, H2O

System: methyl butyl ketone; phases: Liquid
Fixed: Pressure, kPa = 101.325
Property: Mass density, kg/m3 (Liquid); method: Buoyancy - hydrostatic balance
Temperature, K	Mass density, kg/m3	uncertainty
293.2	811	1

System: methyl butyl ketone; phases: Liquid
Fixed: Pressure, kPa = 101.325
Property: Refractive index (Na D-line) (Liquid); method: Standard Abbe refractometry
Temperature, K	Refractive index (Na D-line)	uncertainty
293.2	1.40065	.0002

System: phenol; phases: Liquid
Fixed: Pressure, kPa = 101.325
Property: Mass density, kg/m3 (Liquid); method: Buoyancy - hydrostatic balance
Temperature, K	Mass density, kg/m3	uncertainty
314.5	1058.1	1

System: phenol; phases: Liquid
Fixed: Pressure, kPa = 101.325
Property: Refractive index (Na D-line) (Liquid); method: Standard Abbe refractometry
Temperature, K	Refractive index (Na D-line)	uncertainty
314.5	1.54182	.0002

System: hydroquinone; phases: Crystal
Fixed: Pressure, kPa = 101.325
Property: Mass density, kg/m3 (Crystal); method: Buoyancy - hydrostatic balance
Temperature, K	Mass density, kg/m3	uncertainty
293.2	1332	1

System: 1-octanol; phases: Liquid
Fixed: Pressure, kPa = 101.325
Property: Mass density, kg/m3 (Liquid); method: Buoyancy - hydrostatic balance
Temperature, K	Mass density, kg/m3	uncertainty
293.2	823.6	1

System: 1-octanol; phases: Liquid
Fixed: Pressure, kPa = 101.325
Property: Refractive index (Na D-line) (Liquid); method: Standard Abbe refractometry
Temperature, K	Refractive index (Na D-line)	uncertainty
293.2	1.4288	.0002

System: n-propyl acetate; phases: Liquid
Fixed: Pressure, kPa = 101.325
Property: Mass density, kg/m3 (Liquid); method: Buoyancy - hydrostatic balance
Temperature, K	Mass density, kg/m3	uncertainty
293.2	889	1

System: n-propyl acetate; phases: Liquid
Fixed: Pressure, kPa = 101.325
Property: Refractive index (Na D-line) (Liquid); method: Standard Abbe refractometry
Temperature, K	Refractive index (Na D-line)	uncertainty
293.2	1.3842	.0002

System: phenol + methyl butyl ketone + water; phases: Liquid mixture 2, Liquid mixture 1
Property: Mole fraction of methyl butyl ketone (Liquid mixture 2); method: Chromatography
Property: Mole fraction of methyl butyl ketone (Liquid mixture 1); method: Chromatography
Property: Mole fraction of phenol (Liquid mixture 1); method: Chromatography
Temperature, K	Pressure, kPa	Mole fraction of phenol	Mole fraction of methyl butyl ketone	uncertainty	Mole fraction of methyl butyl ketone	uncertainty	Mole fraction of phenol	uncertainty
313.2	101.3	.0003299	.002087	.002	.686	.002	.1118	.002
313.2	101.3	.00008661	.002155	.002	.8066	.002	.03721	.002
313.2	101.3	.00006631	.002161	.002	.8195	.002	.02921	.002
313.2	101.3	.0000607	.002162	.002	.8232	.002	.02693	.002
313.2	101.3	.00003982	.002168	.002	.8374	.002	.01818	.002
313.2	101.3	0	.002185	.002	.8672	.002	0	.002
313.2	101.3	.0002822	.0021	.002	.7065	.002	.09913	.002
313.2	101.3	.0002067	.002122	.002	.7419	.002	.07725	.002
313.2	101.3	.0001435	.002139	.002	.774	.002	.05736	.002
313.2	101.3	.0001067	.002149	.002	.7945	.002	.04467	.002

System: hydroquinone + methyl butyl ketone + water; phases: Liquid mixture 1, Liquid mixture 2
Property: Mole fraction of hydroquinone (Liquid mixture 1); method: Chromatography
Property: Mole fraction of hydroquinone (Liquid mixture 2); method: Chromatography
Property: Mole fraction of methyl butyl ketone (Liquid mixture 2); method: Chromatography
Temperature, K	Pressure, kPa	Mole fraction of methyl butyl ketone	Mole fraction of hydroquinone	uncertainty	Mole fraction of hydroquinone	uncertainty	Mole fraction of methyl butyl ketone	uncertainty
313.2	101.3	.7286	.0792	.002	.001764	.002	.001604	.002
313.2	101.3	.8507	.009189	.002	.0001417	.002	.002133	.002
313.2	101.3	.8567	.005734	.002	.0000856	.002	.002151	.002
313.2	101.3	.8611	.003235	.002	.00004693	.002	.002164	.002
313.2	101.3	.8672	0	.002	0	.002	.002185	.002
313.2	101.3	.7589	.06182	.002	.001297	.002	.001756	.002
313.2	101.3	.7857	.04645	.002	.0009201	.002	.001879	.002
313.2	101.3	.8055	.03509	.002	.0006685	.002	.001961	.002
313.2	101.3	.8133	.03065	.002	.0005691	.002	.001994	.002
313.2	101.3	.8254	.02374	.002	.0004193	.002	.002043	.002
313.2	101.3	.8351	.01812	.002	.0003038	.002	.00208	.002

System: methyl butyl ketone + water; phases: Liquid mixture 1, Liquid mixture 2
Property: Mole fraction of methyl butyl ketone (Liquid mixture 1); method: Chromatography
Pressure, kPa	Temperature, K	Mole fraction of methyl butyl ketone	uncertainty
101.3	313.2	.8672	

System: methyl butyl ketone + water; phases: Liquid mixture 2, Liquid mixture 1
Property: Mole fraction of methyl butyl ketone (Liquid mixture 2); method: Chromatography
Temperature, K	Pressure, kPa	Mole fraction of methyl butyl ketone	uncertainty
313.2	101.3	.002185	
