Measured thermophysical data. Phase Diagrams and Physicochemical Properties for the Ternary System (CsCl + NaCl + H2O) at T = (298.15, 308.15, and 318.15) K
Source: J. Chem. Eng. Data, 2017, 10.1021/acs.jced.7b00023
Compound 1: sodium chloride, ClNa, purity 99.5%
Compound 2: cesium chloride, ClCs, purity 99.5%
Compound 3: water, H2O, purity 99.9%

System: sodium chloride + cesium chloride + water; phases: Liquid
Fixed: Pressure, kPa = 101.3
Property: Mass density, kg/m3 (Liquid); method: Vibrating tube method
Temperature, K	Mass fraction of cesium chloride	Mass fraction of sodium chloride	Mass density, kg/m3	uncertainty
298.15	0	.263	1197.8	
298.15	.0433	.2481	1230.8	
298.15	.0834	.2338	1263.1	
298.15	.127	.2181	1310.5	
298.15	.1951	.1926	1384.8	
298.15	.2579	.1735	1457.7	
298.15	.2964	.162	1498.1	
298.15	.3375	.1479	1547.4	
298.15	.3859	.1275	1597	
298.15	.4219	.1161	1641.7	
298.15	.4343	.1054	1655.2	
298.15	.4828	.085	1727.4	
298.15	.5285	.0655	1774.1	
298.15	.5575	.0493	1801.5	
298.15	.5699	.0428	1829.7	
298.15	.6005	.029	1859	
298.15	.6178	.0208	1885.5	
298.15	.6538	0	1923.9	
308.15	0	.2666	1193.6	
308.15	.0454	.25	1227.9	
308.15	.0811	.2365	1258.5	
308.15	.1378	.2136	1320.2	
308.15	.1919	.1975	1375.7	
308.15	.2117	.1902	1403.5	
308.15	.2701	.1733	1478.4	
308.15	.3327	.1503	1542.3	
308.15	.3836	.1324	1588.5	
308.15	.4278	.115	1655.6	
308.15	.4495	.1099	1684.1	
308.15	.4622	.1025	1695.2	
308.15	.5031	.0854	1743.2	
308.15	.5356	.0704	1767.7	
308.15	.5593	.0577	1798.5	
308.15	.5868	.0448	1848.1	
308.15	.6459	.0152	1916.5	
308.15	.6693	0	1946.1	
318.15	0	.2669	1188.9	
318.15	.0448	.2497	1222.6	
318.15	.0721	.24	1244.4	
318.15	.128	.2189	1300.1	
318.15	.2016	.1938	1391.8	
318.15	.2755	.1704	1486.7	
318.15	.3378	.1489	1556.8	
318.15	.3963	.1275	1623.4	
318.15	.4506	.11	1694.1	
318.15	.4898	.0985	1740.6	
318.15	.4999	.0945	1750.2	
318.15	.5133	.0896	1762.5	
318.15	.5453	.0733	1804.7	
318.15	.5849	.0525	1850.1	
318.15	.6188	.0365	1902.7	
318.15	.6458	.0214	1938.1	
318.15	.6788	0	1980.8	

System: sodium chloride + cesium chloride + water; phases: Liquid
Fixed: Pressure, kPa = 101.3
Property: Refractive index (Na D-line) (Liquid); method: Standard Abbe refractometry
Temperature, K	Mass fraction of cesium chloride	Mass fraction of sodium chloride	Refractive index (Na D-line)	uncertainty
298.15	0	.263	1.3796	
298.15	.0433	.2481	1.3816	
298.15	.0834	.2338	1.3837	
298.15	.127	.2181	1.3874	
298.15	.1951	.1926	1.3915	
298.15	.2579	.1735	1.3962	
298.15	.2964	.162	1.3994	
298.15	.3375	.1479	1.4024	
298.15	.3859	.1275	1.4056	
298.15	.4219	.1161	1.4081	
298.15	.4343	.1054	1.4082	
298.15	.4828	.085	1.4122	
298.15	.5285	.0655	1.4141	
298.15	.5575	.0493	1.4153	
298.15	.5699	.0428	1.4161	
298.15	.6005	.029	1.4178	
298.15	.6178	.0208	1.4184	
298.15	.6538	0	1.4196	
308.15	0	.2666	1.3781	
308.15	.0454	.25	1.3802	
308.15	.0811	.2365	1.3822	
308.15	.1378	.2136	1.3861	
308.15	.1919	.1975	1.3899	
308.15	.2117	.1902	1.3916	
308.15	.2701	.1733	1.3967	
308.15	.3327	.1503	1.4009	
308.15	.3836	.1324	1.4041	
308.15	.4278	.115	1.4069	
308.15	.4495	.1099	1.41	
308.15	.4622	.1025	1.4102	
308.15	.5031	.0854	1.413	
308.15	.5356	.0704	1.414	
308.15	.5593	.0577	1.4153	
308.15	.5868	.0448	1.4174	
308.15	.6459	.0152	1.4197	
308.15	.6693	0	1.4204	
318.15	0	.2669	1.3766	
318.15	.0448	.2497	1.3788	
318.15	.0721	.24	1.3807	
318.15	.128	.2189	1.3835	
318.15	.2016	.1938	1.3899	
318.15	.2755	.1704	1.3963	
318.15	.3378	.1489	1.4008	
318.15	.3963	.1275	1.4044	
318.15	.4506	.11	1.4097	
318.15	.4898	.0985	1.413	
318.15	.4999	.0945	1.4132	
318.15	.5133	.0896	1.4146	
318.15	.5453	.0733	1.4158	
318.15	.5849	.0525	1.4181	
318.15	.6188	.0365	1.4199	
318.15	.6458	.0214	1.4212	
318.15	.6788	0	1.4218	

System: sodium chloride + cesium chloride + water; phases: Liquid, Crystal
Fixed: Pressure, kPa = 101.3
Property: Mass fraction of sodium chloride (Liquid); method: titration and gravimetric
Mass fraction of cesium chloride	Temperature, K	Mass fraction of sodium chloride	uncertainty
0	298.15	.263	
.0433	298.15	.2481	
.0834	298.15	.2338	
.127	298.15	.2181	
.1951	298.15	.1926	
.2579	298.15	.1735	
.2964	298.15	.162	
.3375	298.15	.1479	
.3859	298.15	.1275	
.4219	298.15	.1161	
0	308.15	.2666	
.0454	308.15	.25	
.0811	308.15	.2365	
.1378	308.15	.2136	
.1919	308.15	.1975	
.2117	308.15	.1902	
.2701	308.15	.1733	
.3327	308.15	.1503	
.3836	308.15	.1324	
.4278	308.15	.115	
.4495	308.15	.1099	
0	318.15	.2669	
.0448	318.15	.2497	
.0721	318.15	.24	
.128	318.15	.2189	
.2016	318.15	.1938	
.2755	318.15	.1704	
.3378	318.15	.1489	
.3963	318.15	.1275	
.4506	318.15	.11	
.4898	318.15	.0985	

System: sodium chloride + cesium chloride + water; phases: Liquid, Crystal
Fixed: Pressure, kPa = 101.3
Property: Mass fraction of sodium chloride (Liquid); method: titration and gravimetric
Mass fraction of cesium chloride	Temperature, K	Mass fraction of sodium chloride	uncertainty
.6538	298.15	0	
.6693	308.15	0	
.6788	318.15	0	

System: sodium chloride + cesium chloride + water; phases: Liquid, Crystal of intercomponent compound 1
Fixed: Pressure, kPa = 101.3
Property: Mass fraction of sodium chloride (Liquid); method: titration and gravimetric
Mass fraction of cesium chloride	Temperature, K	Mass fraction of sodium chloride	uncertainty
.4219	298.15	.1161	
.4343	298.15	.1054	
.4495	308.15	.1099	
.4622	308.15	.1025	
.4898	318.15	.0985	
.4999	318.15	.0945	

System: sodium chloride + cesium chloride + water; phases: Liquid, Crystal of unknown type
Fixed: Pressure, kPa = 101.3
Property: Mass fraction of sodium chloride (Liquid); method: titration and gravimetric
Mass fraction of cesium chloride	Temperature, K	Mass fraction of sodium chloride	uncertainty
.4343	298.15	.1054	
.4828	298.15	.085	
.5285	298.15	.0655	
.5575	298.15	.0493	
.5699	298.15	.0428	
.6005	298.15	.029	
.6178	298.15	.0208	
.4622	308.15	.1025	
.5031	308.15	.0854	
.5356	308.15	.0704	
.5593	308.15	.0577	
.5868	308.15	.0448	
.6459	308.15	.0152	
.4999	318.15	.0945	
.5133	318.15	.0896	
.5453	318.15	.0733	
.5849	318.15	.0525	
.6188	318.15	.0365	
.6458	318.15	.0214	

System: sodium chloride + water; phases: Liquid
Property: Mass density, kg/m3 (Liquid); method: Vibrating tube method
Temperature, K	Mass fraction of sodium chloride	Pressure, kPa	Mass density, kg/m3	uncertainty
298.15	.263	101.3	1197.8	
308.15	.2666	101.3	1193.6	
318.15	.2669	101.3	1188.9	

System: sodium chloride + water; phases: Liquid
Property: Refractive index (Na D-line) (Liquid); method: Standard Abbe refractometry
Temperature, K	Mass fraction of sodium chloride	Pressure, kPa	Refractive index (Na D-line)	uncertainty
298.15	.263	101.3	1.3796	
308.15	.2666	101.3	1.3781	
318.15	.2669	101.3	1.3766	

System: sodium chloride + water; phases: Liquid, Crystal
Property: Mass fraction of sodium chloride (Liquid); method: titration and gravimetric
Temperature, K	Pressure, kPa	Mass fraction of sodium chloride	uncertainty
298.15	101.3	.263	
308.15	101.3	.2666	
318.15	101.3	.2669	

System: cesium chloride + water; phases: Liquid
Property: Mass density, kg/m3 (Liquid); method: Vibrating tube method
Temperature, K	Mass fraction of cesium chloride	Pressure, kPa	Mass density, kg/m3	uncertainty
298.15	.6538	101.3	1923.9	
308.15	.6693	101.3	1946.1	
318.15	.6788	101.3	1980.8	

System: cesium chloride + water; phases: Liquid
Property: Refractive index (Na D-line) (Liquid); method: Standard Abbe refractometry
Temperature, K	Mass fraction of cesium chloride	Pressure, kPa	Refractive index (Na D-line)	uncertainty
298.15	.6538	101.3	1.4196	
308.15	.6693	101.3	1.4204	
318.15	.6788	101.3	1.4218	

System: cesium chloride + water; phases: Liquid, Crystal
Property: Mass fraction of cesium chloride (Liquid); method: titration and gravimetric
Temperature, K	Pressure, kPa	Mass fraction of cesium chloride	uncertainty
298.15	101.3	.6538	
308.15	101.3	.6693	
318.15	101.3	.6788	
