Measured thermophysical data. Phase Behavior of Binary Mixtures Containing Succinic Acid or Its Esters
Source: J. Chem. Eng. Data, 2017, 10.1021/acs.jced.7b00005
Compound 1: diethyl succinate, C8H14O4, purity 99%
Compound 2: 1-butanol, C4H10O, purity 99.8%
Compound 3: dibutyl succinate, C12H22O4, purity 99%
Compound 4: acetonitrile, C2H3N, purity 99.9%
Compound 5: tetrahydrofuran, C4H8O, purity 99.9%
Compound 6: methanol, CH4O, purity 99.99%
Compound 7: water, H2O, purity 99.9%

System: acetonitrile; phases: Liquid, Gas
Property: Vapor or sublimation pressure, kPa (Liquid); method: Ebulliometric method (Recirculating still)
Temperature, K	Vapor or sublimation pressure, kPa	uncertainty
295.25	10	
295.4	10	

System: 1-butanol + dibutyl succinate; phases: Liquid, Gas
Fixed: Pressure, kPa = 20
Property: Boiling temperature at pressure P, K (Liquid); method: Ebulliometric method (Recirculating still)
Mole fraction of 1-butanol	Boiling temperature at pressure P, K	uncertainty
.9273	352.85	
.8086	358.65	
.6812	357.65	
.5591	360.65	
.3935	368.65	
.2378	380.05	
.1619	396.15	
.1564	405.75	
.0997	428.95	

System: 1-butanol + dibutyl succinate; phases: Gas, Liquid
Fixed: Pressure, kPa = 20
Property: Mole fraction of 1-butanol (Gas); method: Chromatography
Mole fraction of 1-butanol	Mole fraction of 1-butanol	uncertainty
.9273	.9989	
.8086	.9961	
.6812	.9963	
.5591	.9961	
.3935	.994	
.2378	.9899	
.1619	.9814	
.1564	.9465	
.0997	.8667	

System: acetonitrile + diethyl succinate; phases: Liquid, Gas
Fixed: Pressure, kPa = 10
Property: Boiling temperature at pressure P, K (Liquid); method: Ebulliometric method (Recirculating still)
Mole fraction of acetonitrile	Boiling temperature at pressure P, K	uncertainty
1	295.25	
.7919	299.25	
.7694	304.52	
.5448	308.05	
.4554	311.75	
.4726	314.31	
.2849	320.05	
.1506	334.85	
.1346	346.65	

System: acetonitrile + diethyl succinate; phases: Gas, Liquid
Fixed: Pressure, kPa = 10
Property: Mole fraction of acetonitrile (Gas); method: Chromatography
Mole fraction of acetonitrile	Mole fraction of acetonitrile	uncertainty
1	1	
.7919	.9993	
.7694	.9996	
.5448	.9974	
.4554	.9956	
.4726	.9987	
.2849	.9912	
.1506	.9759	
.1346	.9494	

System: acetonitrile + dibutyl succinate; phases: Liquid, Gas
Fixed: Pressure, kPa = 10
Property: Boiling temperature at pressure P, K (Liquid); method: Ebulliometric method (Recirculating still)
Mole fraction of acetonitrile	Boiling temperature at pressure P, K	uncertainty
1	295.4	
.8746	297.49	
.4267	313.96	
.2803	325.95	
.209	334.93	
.1893	338.09	

System: acetonitrile + dibutyl succinate; phases: Gas, Liquid
Fixed: Pressure, kPa = 10
Property: Mole fraction of acetonitrile (Gas); method: Chromatography
Mole fraction of acetonitrile	Mole fraction of acetonitrile	uncertainty
1	1	
.8746	.9999	
.4267	.9999	
.2803	.9999	
.209	.9995	
.1893	.9998	

System: acetonitrile + dibutyl succinate; phases: Liquid, Gas
Fixed: Pressure, kPa = 10
Property: Boiling temperature at pressure P, K (Liquid); method: Ebulliometric method (Recirculating still)
Mole fraction of acetonitrile	Boiling temperature at pressure P, K	uncertainty
.1688	341.79	
.1342	349.48	
.0916	363.08	
.0547	383.01	

System: tetrahydrofuran + dibutyl succinate; phases: Liquid, Gas
Fixed: Pressure, kPa = 30
Property: Boiling temperature at pressure P, K (Liquid); method: Ebulliometric method (Recirculating still)
Mole fraction of tetrahydrofuran	Boiling temperature at pressure P, K	uncertainty
.96129764	306.35	
.86219202	310.55	
.64090578	318.45	
.67182239	318.45	
.54773541	324.85	
.34844018	339.65	
.25769598	347.35	

System: tetrahydrofuran + dibutyl succinate; phases: Gas, Liquid
Fixed: Pressure, kPa = 30
Property: Mole fraction of tetrahydrofuran (Gas); method: Chromatography
Mole fraction of tetrahydrofuran	Mole fraction of tetrahydrofuran	uncertainty
.9613	.9987	
.8622	.9945	
.6409	.9975	
.6718	.9828	
.5477	.9733	
.3484	.9855	
.2577	.9916	

System: water + dibutyl succinate; phases: Liquid mixture 1, Liquid mixture 2
Property: Mole fraction of water (Liquid mixture 1); method: Other
Temperature, K	Pressure, kPa	Mole fraction of water	uncertainty
313.15	100	.9989	
323.15	100	.9991	
333.15	100	.9995	
353.15	100	.9975	

System: water + dibutyl succinate; phases: Liquid mixture 2, Liquid mixture 1
Property: Mole fraction of water (Liquid mixture 2); method: Other
Temperature, K	Pressure, kPa	Mole fraction of water	uncertainty
313.15	100	.1045	
323.15	100	.1144	
333.15	100	.1074	
353.15	100	.1432	
