Measured thermophysical data. The Solubility of Hydrogen Sulfide and Carbon Dioxide in Propylene Carbonate
Source: J. Chem. Eng. Data, 2015, 10.1021/acs.jced.5b00669
Compound 1: propylene carbonate, C4H6O3
Compound 2: hydrogen sulfide, H2S

System: propylene carbonate + hydrogen sulfide; phases: Liquid, Gas
Property: Mole fraction of hydrogen sulfide (Liquid); method: Chromatography
Temperature, K	Partial pressure, kPa of hydrogen sulfide	Mole fraction of hydrogen sulfide	uncertainty
248.15	1.41	.003	.00009
248.15	3.22	.00687	.0002061
248.15	10.3	.022	.00066
248.15	12	.024	.00072
248.15	75.2	.146	.00438
248.15	280	.563	.01689
248.15	385	.814	.02442
273.15	6.16	.00568	.0001704
273.15	34.3	.0323	.000969
273.15	110	.0947	.002841
273.15	205	.188	.00564
273.15	490	.461	.01383
273.15	708	.671	.02013
273.15	850	.808	.02424
273.15	900	.864	.02592
298.15	3.19	.00149	.0000447
298.15	3.76	.00195	.0000585
298.15	39.7	.0186	.000558
298.15	110	.0516	.001548
298.15	110	.0548	.001644
298.15	300	.138	.00414
298.15	320	.15	.0045
298.15	710	.33	.0099
298.15	1400	.671	.02013
298.15	1660	.77	.0231
333.15	6.83	.00162	.0000486
333.15	59.7	.014	.00042
333.15	198	.0445	.001335
333.15	512	.114	.00342
333.15	1281	.282	.00846
333.15	2650	.574	.01722
373.15	218	.0262	.000786
373.15	480	.0567	.001701
373.15	1750	.202	.00606
373.15	2680	.299	.00897
373.15	4464	.484	.01452
