Measured thermophysical data. Exploration of Solvation Consequence of Ionic Liquid [Bu4PCH3SO3] in Various Solvent Systems by Conductance and FTIR Study
Source: J. Chem. Eng. Data, 2016, 10.1021/acs.jced.5b00670
Compound 1: tetrabutylphosphonium methanesulfonate, C17H39O3PS, purity 98.0%
Compound 2: cyanomethane, C2H3N, purity 99.8%
Compound 3: methanol, CH4O, purity 99.8%
Compound 4: nitromethane, CH3NO2, purity 98.5%
Compound 5: water, H2O
Compound 6: carbamaldehyde, CH3NO, purity 99.5%

System: cyanomethane; phases: Liquid
Property: Mass density, kg/m3 (Liquid); method: Vibrating tube method
Pressure, kPa	Temperature, K	Mass density, kg/m3	uncertainty
101.325	298.15	776.68	

System: cyanomethane; phases: Liquid
Property: Viscosity, Pa*s (Liquid); method: Concentric cylinders viscometry
Pressure, kPa	Temperature, K	Viscosity, Pa*s	uncertainty
101.325	298.15	.00034	

System: methanol; phases: Liquid
Property: Mass density, kg/m3 (Liquid); method: Vibrating tube method
Pressure, kPa	Temperature, K	Mass density, kg/m3	uncertainty
101.325	298.15	786.61	

System: methanol; phases: Liquid
Property: Viscosity, Pa*s (Liquid); method: Concentric cylinders viscometry
Pressure, kPa	Temperature, K	Viscosity, Pa*s	uncertainty
101.325	298.15	.00055	

System: nitromethane; phases: Liquid
Property: Mass density, kg/m3 (Liquid); method: Vibrating tube method
Pressure, kPa	Temperature, K	Mass density, kg/m3	uncertainty
101.325	298.15	1130.15	

System: nitromethane; phases: Liquid
Property: Viscosity, Pa*s (Liquid); method: Concentric cylinders viscometry
Pressure, kPa	Temperature, K	Viscosity, Pa*s	uncertainty
101.325	298.15	.00062	

System: water; phases: Liquid
Property: Mass density, kg/m3 (Liquid); method: Vibrating tube method
Pressure, kPa	Temperature, K	Mass density, kg/m3	uncertainty
101.325	298.15	997.12	

System: water; phases: Liquid
Property: Viscosity, Pa*s (Liquid); method: Concentric cylinders viscometry
Pressure, kPa	Temperature, K	Viscosity, Pa*s	uncertainty
101.325	298.15	.00089	

System: carbamaldehyde; phases: Liquid
Property: Mass density, kg/m3 (Liquid); method: Vibrating tube method
Pressure, kPa	Temperature, K	Mass density, kg/m3	uncertainty
101.325	298.15	1129.22	

System: carbamaldehyde; phases: Liquid
Property: Viscosity, Pa*s (Liquid); method: Concentric cylinders viscometry
Pressure, kPa	Temperature, K	Viscosity, Pa*s	uncertainty
101.325	298.15	.0033	

System: cyanomethane + tetrabutylphosphonium methanesulfonate; phases: Liquid
Fixed: Pressure, kPa = 101.325
Fixed: Temperature, K = 298.15
Property: Molar conductivity, S*m2/mol (Liquid); method: Alternating current cell with electrodes
Molality, mol/kg of tetrabutylphosphonium methanesulfonate	Molar conductivity, S*m2/mol	uncertainty
.000975	.015892	
.001787	.015601	
.002451	.015409	
.003035	.015266	
.00354	.015134	
.00398	.015032	
.004717	.014892	
.005305	.01476	
.006188	.014611	
.007186	.014453	
.00808	.01432	
.008774	.014218	

System: methanol + tetrabutylphosphonium methanesulfonate; phases: Liquid
Fixed: Pressure, kPa = 101.325
Fixed: Temperature, K = 298.15
Property: Molar conductivity, S*m2/mol (Liquid); method: Alternating current cell with electrodes
Molality, mol/kg of tetrabutylphosphonium methanesulfonate	Molar conductivity, S*m2/mol	uncertainty
.000912	.008264	
.001456	.007933	
.001998	.007686	
.002473	.007521	
.002947	.007367	
.003599	.007208	
.00425	.007003	
.004926	.006862	
.005759	.0066	
.006723	.006445	
.007795	.006199	
.008664	.006029	

System: nitromethane + tetrabutylphosphonium methanesulfonate; phases: Liquid
Fixed: Pressure, kPa = 101.325
Fixed: Temperature, K = 298.15
Property: Molar conductivity, S*m2/mol (Liquid); method: Alternating current cell with electrodes
Molality, mol/kg of tetrabutylphosphonium methanesulfonate	Molar conductivity, S*m2/mol	uncertainty
.000865	.007649	
.001335	.007408	
.00177	.007231	
.002409	.00698	
.002979	.006742	
.003623	.006533	
.004197	.006304	
.004926	.006106	
.005713	.005881	
.006624	.005634	
.007619	.005406	
.008608	.00518	

System: water + tetrabutylphosphonium methanesulfonate; phases: Liquid
Fixed: Pressure, kPa = 101.325
Fixed: Temperature, K = 298.15
Property: Molar conductivity, S*m2/mol (Liquid); method: Alternating current cell with electrodes
Molality, mol/kg of tetrabutylphosphonium methanesulfonate	Molar conductivity, S*m2/mol	uncertainty
.000818	.004119	
.001471	.003877	
.002032	.003665	
.002641	.003479	
.003191	.003344	
.003793	.003168	
.004583	.003004	
.005305	.002879	
.006146	.002736	
.007072	.002577	
.007937	.00245	
.008497	.002397	

System: carbamaldehyde + tetrabutylphosphonium methanesulfonate; phases: Liquid
Fixed: Pressure, kPa = 101.325
Fixed: Temperature, K = 298.15
Property: Molar conductivity, S*m2/mol (Liquid); method: Alternating current cell with electrodes
Molality, mol/kg of tetrabutylphosphonium methanesulfonate	Molar conductivity, S*m2/mol	uncertainty
.00084	.002152	
.001471	.002007	
.002032	.00186	
.002641	.001766	
.003191	.001672	
.003793	.001593	
.004583	.001476	
.005305	.001391	
.006146	.001297	
.007072	.001194	
.007937	.001132	
.008497	.00107	
