Measured thermophysical data. Viscosities of liquid cyclohexane and decane at temperatures between (303 and 598) K and pressures up to 4 MPa measured in a dual-capillary viscometer
Source: J. Chem. Eng. Data, 2015, 10.1021/acs.jced.5b00270
Compound 1: cyclohexane, C6H12, purity 99.5%
Compound 2: decane, C10H22, purity 98.7%

System: cyclohexane; phases: Liquid
Property: Viscosity, Pa*s (Liquid); method: Capillary tube (Ostwald; Ubbelohde) method
Temperature, K	Pressure, kPa	Viscosity, Pa*s	uncertainty
303.1	2930	.000852	.00001278
305.2	140	.000796	.00001194
305.1	960	.000801	.000012015
305.2	1960	.000819	.000012285
305.2	3940	.000839	.000012585
313.8	2920	.000721	.000010815
323.7	150	.000601	.000009015
324	1020	.000616	.00000924
323.7	1990	.000614	.00000921
323.7	4000	.000631	.000009465
348.9	140	.000432	.00000648
348.9	990	.00044	.0000066
348.9	2080	.000445	.000006675
348.9	3030	.000451	.000006765
348.9	3930	.000449	.000006735
373.7	970	.000331	.000004965
373.7	2020	.000336	.00000504
373.7	2930	.00034	.0000051
373.7	3960	.000346	.00000519
398.2	960	.000258	.00000387
398.1	2000	.000262	.00000393
398.2	2940	.000266	.00000399
398.1	4010	.00027	.00000405
422.4	960	.000204	.00000306
422.5	1970	.000209	.000003135
422.5	2960	.000214	.00000321
422.5	3960	.000216	.00000324
447.5	1010	.000165	.000002475
447.6	2040	.000165	.000002475
447.7	3010	.00017	.00000255
447.7	4000	.000174	.00000261
473.4	1930	.000131	.000001965
473.3	3000	.000138	.00000207
473.4	3930	.000139	.000002085
498.2	3020	.000106	.00000159
497.9	3050	.000106	.00000159
498.1	3980	.00011	.00000165
498.3	4020	.00011	.00000165
523	3050	.0000791	.0000011865
523	3970	.0000856	.000001284

System: decane; phases: Liquid
Property: Viscosity, Pa*s (Liquid); method: Capillary tube (Ostwald; Ubbelohde) method
Temperature, K	Pressure, kPa	Viscosity, Pa*s	uncertainty
303.3	150	.000788	.00001182
303.2	960	.0008	.000012
303.3	2000	.000808	.00001212
303.2	3010	.000814	.00001221
303.1	3970	.000828	.00001242
323.8	140	.000606	.00000909
323.7	1120	.000617	.000009255
323.7	1990	.000628	.00000942
323.7	3010	.000625	.000009375
323.8	3960	.000631	.000009465
348.9	140	.000459	.000006885
348.9	1050	.000465	.000006975
348.9	2090	.000469	.000007035
348.9	2930	.000475	.000007125
348.9	3950	.000481	.000007215
373.7	130	.000365	.000005475
373.7	960	.000368	.00000552
373.7	2040	.000373	.000005595
373.7	2890	.000376	.00000564
373.7	3960	.000381	.000005715
398.2	140	.000295	.000004425
398.2	990	.000299	.000004485
398.2	2030	.000304	.00000456
398.2	2910	.000309	.000004635
398.1	3940	.000312	.00000468
423.5	950	.000247	.000003705
423.5	1060	.000246	.00000369
423.5	2110	.000251	.000003765
423.4	2960	.000254	.00000381
423.4	3940	.000258	.00000387
447.7	1060	.000206	.00000309
447.7	1990	.000209	.000003135
447.7	2960	.000212	.00000318
447.7	3990	.000216	.00000324
473.4	2150	.000174	.00000261
473.4	2920	.000177	.000002655
473.4	3990	.00018	.0000027
498.3	2090	.000146	.00000219
498.3	3060	.00015	.00000225
498.2	3890	.000152	.00000228
523.1	1060	.000118	.00000177
523.1	1940	.000122	.00000183
523.1	3000	.000126	.00000189
523	3970	.000129	.000001935
547.9	1070	.0000957	.0000014355
547.9	1980	.0001	.0000015
547.9	2940	.000105	.000001575
547.9	4000	.000108	.00000162
573.6	1930	.0000796	.000001194
573.7	2970	.0000855	.0000012825
573.8	4030	.000091	.000001365
598.5	2090	.0000619	.0000009285
598.5	2980	.0000696	.000001044
598.4	4020	.0000745	.0000011175
