Measured thermophysical data. Effect of Temperature on Reactive Extraction of Gallic Acid Using Tri-n-butyl Phosphate, Tri-n-octylamine and Aliquat 336
Source: J. Chem. Eng. Data, 2016, 10.1021/acs.jced.6b00310
Compound 1: gallic acid, C7H6O5, purity 99%
Compound 2: 1-hexanol, C6H14O, purity 98.5%
Compound 3: 1-octanol, C8H18O, purity 99.5%
Compound 4: water, H2O, purity 99.8%

System: 1-hexanol + gallic acid + water; phases: Liquid mixture 2, Liquid mixture 1
Fixed: Pressure, kPa = 100
Property: Molality, mol/kg of gallic acid (Liquid mixture 2); method: chromatography
Molality, mol/kg of gallic acid	Temperature, K	Molality, mol/kg of gallic acid	uncertainty
.0013	288	3.44	
.0018	288	3.79	
.0021	288	4.58	
.0022	288	5.63	
.0015	298	3	
.002	298	3.353	
.0023	298	4.13	
.0026	298	4.762	
.0015	308	2.81	
.0022	308	3.1	
.0025	308	3.724	
.0027	308	4.437	
.0017	318	2.56	
.00225	318	2.93	
.00276	318	3.25	
.00321	318	3.57	

System: 1-octanol + gallic acid + water; phases: Liquid mixture 2, Liquid mixture 1
Fixed: Pressure, kPa = 100
Property: Molality, mol/kg of gallic acid (Liquid mixture 2); method: chromatography
Molality, mol/kg of gallic acid	Temperature, K	Molality, mol/kg of gallic acid	uncertainty
.0019	288	2.03	
.0024	288	2.62	
.0031	288	2.79	
.0032	288	3.56	
.0022	298	1.732	
.0029	298	2.06	
.0035	298	2.367	
.0038	298	2.83	
.0022	308	1.63	
.0031	308	1.84	
.0038	308	2.11	
.0041	308	2.58	
.00228	318	1.58	
.00331	318	1.66	
.00379	318	2.1	
.00452	318	2.25	
