Measured thermophysical data. Correlation of Experimental Liquid Liquid Equilibrium Data for Ternary Systems Using NRTL and GMDH-Type Neural Network
Source: J. Chem. Eng. Data, 2017, 10.1021/acs.jced.6b00985
Compound 1: propionic acid, C3H6O2, purity 99%
Compound 2: cyclopentane, C5H10, purity 98%
Compound 3: cyclopentanol, C5H10O, purity 99%
Compound 4: 2-octanone, C8H16O, purity 98%
Compound 5: dibutyl maleate, C12H20O4, purity 97%
Compound 6: water, H2O

System: propionic acid; phases: Liquid
Fixed: Pressure, kPa = 101.325
Property: Mass density, kg/m3 (Liquid); method: Vibrating tube method
Temperature, K	Mass density, kg/m3	uncertainty
293.15	988	4

System: propionic acid; phases: Liquid
Fixed: Pressure, kPa = 101.325
Property: Refractive index (Na D-line) (Liquid); method: Standard Abbe refractometry
Temperature, K	Refractive index (Na D-line)	uncertainty
293.15	1.3809	.0005

System: cyclopentane; phases: Liquid
Fixed: Pressure, kPa = 101.325
Property: Mass density, kg/m3 (Liquid); method: Vibrating tube method
Temperature, K	Mass density, kg/m3	uncertainty
293.15	745.7	4

System: cyclopentane; phases: Liquid
Fixed: Pressure, kPa = 101.325
Property: Refractive index (Na D-line) (Liquid); method: Standard Abbe refractometry
Temperature, K	Refractive index (Na D-line)	uncertainty
293.15	1.4066	.0005

System: cyclopentanol; phases: Liquid
Fixed: Pressure, kPa = 101.325
Property: Mass density, kg/m3 (Liquid); method: Vibrating tube method
Temperature, K	Mass density, kg/m3	uncertainty
293.15	948.7	4

System: cyclopentanol; phases: Liquid
Fixed: Pressure, kPa = 101.325
Property: Refractive index (Na D-line) (Liquid); method: Standard Abbe refractometry
Temperature, K	Refractive index (Na D-line)	uncertainty
293.15	1.4531	.0005

System: 2-octanone; phases: Liquid
Fixed: Pressure, kPa = 101.325
Property: Mass density, kg/m3 (Liquid); method: Vibrating tube method
Temperature, K	Mass density, kg/m3	uncertainty
293.15	819.9	4

System: 2-octanone; phases: Liquid
Fixed: Pressure, kPa = 101.325
Property: Refractive index (Na D-line) (Liquid); method: Standard Abbe refractometry
Temperature, K	Refractive index (Na D-line)	uncertainty
293.15	1.4151	.0005

System: dibutyl maleate; phases: Liquid
Fixed: Pressure, kPa = 101.325
Property: Mass density, kg/m3 (Liquid); method: Vibrating tube method
Temperature, K	Mass density, kg/m3	uncertainty
293.15	990.1	4

System: dibutyl maleate; phases: Liquid
Fixed: Pressure, kPa = 101.325
Property: Refractive index (Na D-line) (Liquid); method: Standard Abbe refractometry
Temperature, K	Refractive index (Na D-line)	uncertainty
293.15	1.4452	.0005

System: propionic acid + cyclopentane + water; phases: Liquid mixture 1, Liquid mixture 2
Fixed: Temperature, K = 298.15
Fixed: Pressure, kPa = 101
Property: Mole fraction of propionic acid (Liquid mixture 1); method: Titration method
Mole fraction of water	Mole fraction of propionic acid	uncertainty
.9999	0	
.9687	.0294	
.9367	.0606	
.8939	.1003	
.8447	.1486	
.6838	.2984	
.5907	.3704	
.4718	.4449	
.3668	.481	
.2446	.4975	
.0424	.3727	
.0341	.3381	
.0217	.2253	
.0086	.0969	
.0038	0	

System: propionic acid + cyclopentane + water; phases: Liquid mixture 1, Liquid mixture 2
Fixed: Temperature, K = 298.2
Fixed: Pressure, kPa = 101
Property: Mole fraction of water (Liquid mixture 1); method: Chromatography
Property: Mole fraction of propionic acid (Liquid mixture 2); method: Chromatography
Property: Mole fraction of water (Liquid mixture 2); method: Chromatography
Mole fraction of propionic acid	Mole fraction of water	uncertainty	Mole fraction of propionic acid	uncertainty	Mole fraction of water	uncertainty
.0203	.0058	.005	.0194	.005	.9782	.005
.3412	.036	.005	.2441	.005	.7421	.005
.3928	.0852	.005	.2963	.005	.686	.005
.4283	.1261	.005	.3619	.005	.6029	.005
.067	.0058	.005	.0386	.005	.9582	.005
.1253	.0097	.005	.0625	.005	.9334	.005
.1743	.0152	.005	.0817	.005	.9133	.005
.2328	.0225	.005	.1118	.005	.8822	.005
.2756	.0275	.005	.1442	.005	.8492	.005
.3089	.0302	.005	.1853	.005	.8052	.005

System: propionic acid + cyclopentanol + water; phases: Liquid mixture 1, Liquid mixture 2
Fixed: Temperature, K = 298.15
Fixed: Pressure, kPa = 101
Property: Mole fraction of propionic acid (Liquid mixture 1); method: Titration method
Mole fraction of water	Mole fraction of propionic acid	uncertainty
.9835	0	
.9462	.028	
.885	.0577	
.8695	.0664	
.8309	.0794	
.8034	.0882	
.7792	.0973	
.742	.1078	
.7037	.1165	
.656	.1143	
.587	.0942	
.5458	.0571	
.486	0	

System: propionic acid + cyclopentanol + water; phases: Liquid mixture 1, Liquid mixture 2
Fixed: Temperature, K = 298.2
Fixed: Pressure, kPa = 101
Property: Mole fraction of propionic acid (Liquid mixture 1); method: Chromatography
Property: Mole fraction of water (Liquid mixture 2); method: Chromatography
Property: Mole fraction of propionic acid (Liquid mixture 2); method: Chromatography
Mole fraction of water	Mole fraction of propionic acid	uncertainty	Mole fraction of water	uncertainty	Mole fraction of propionic acid	uncertainty
.5173	.0299	.005	.978	.005	.0041	.005
.5391	.0482	.005	.9766	.005	.0051	.005
.5675	.081	.005	.968	.005	.0116	.005
.6024	.1002	.005	.9597	.005	.0179	.005
.6662	.1146	.005	.9491	.005	.0258	.005
.6856	.1156	.005	.9471	.005	.0274	.005

System: propionic acid + 2-octanone + water; phases: Liquid mixture 1, Liquid mixture 2
Fixed: Temperature, K = 298.15
Fixed: Pressure, kPa = 101
Property: Mole fraction of propionic acid (Liquid mixture 1); method: Titration method
Mole fraction of water	Mole fraction of propionic acid	uncertainty
.9998	0	
.9711	.0286	
.9367	.0627	
.8939	.1019	
.8383	.1465	
.7875	.1828	
.7158	.2303	
.6264	.2837	
.5185	.3315	
.4218	.3523	
.3774	.3388	
.328	.2954	
.2344	.2472	
.1491	.143	
.0827	0	

System: propionic acid + 2-octanone + water; phases: Liquid mixture 1, Liquid mixture 2
Fixed: Temperature, K = 293.15
Fixed: Pressure, kPa = 101
Property: Mole fraction of propionic acid (Liquid mixture 1); method: Chromatography
Property: Mole fraction of water (Liquid mixture 2); method: Chromatography
Property: Mole fraction of propionic acid (Liquid mixture 2); method: Chromatography
Mole fraction of water	Mole fraction of propionic acid	uncertainty	Mole fraction of water	uncertainty	Mole fraction of propionic acid	uncertainty
.1042	.094	.005	.99	.005	.0098	.005
.1747	.174	.005	.9816	.005	.0181	.005
.2204	.2236	.005	.9734	.005	.0262	.005
.2751	.266	.005	.9635	.005	.036	.005
.328	.2952	.005	.9585	.005	.0409	.005
.3642	.326	.005	.9504	.005	.0489	.005
.3931	.3418	.005	.9395	.005	.0596	.005
.4217	.3542	.005	.9282	.005	.0704	.005
.4899	.3368	.005	.9193	.005	.0785	.005

System: propionic acid + dibutyl maleate + water; phases: Liquid mixture 1, Liquid mixture 2
Fixed: Temperature, K = 298.15
Fixed: Pressure, kPa = 101
Property: Mole fraction of propionic acid (Liquid mixture 1); method: Titration method
Mole fraction of water	Mole fraction of propionic acid	uncertainty
1	0	
.9725	.0275	
.9389	.061	
.8992	.1007	
.8461	.1498	
.785	.1988	
.6557	.2929	
.6313	.3087	
.4705	.3874	
.4349	.3866	
.3178	.396	
.0739	.4107	
.0195	.2579	
.0175	0	

System: propionic acid + dibutyl maleate + water; phases: Liquid mixture 2, Liquid mixture 1
Fixed: Temperature, K = 298.2
Fixed: Pressure, kPa = 101
Property: Mole fraction of propionic acid (Liquid mixture 2); method: Chromatography
Property: Mole fraction of water (Liquid mixture 1); method: Chromatography
Property: Mole fraction of propionic acid (Liquid mixture 1); method: Chromatography
Mole fraction of water	Mole fraction of propionic acid	uncertainty	Mole fraction of water	uncertainty	Mole fraction of propionic acid	uncertainty
.018	.1405	.005	.9886	.005	.0114	.005
.0408	.3176	.005	.9667	.005	.0332	.005
.0661	.3876	.005	.9555	.005	.0444	.005
.1887	.4043	.005	.946	.005	.0539	.005
.2969	.3973	.005	.9285	.005	.0714	.005
.3937	.3891	.005	.9104	.005	.0894	.005
.4381	.3869	.005	.8931	.005	.1064	.005
.5829	.3342	.005	.8331	.005	.1602	.005

System: cyclopentane + water; phases: Liquid mixture 1, Liquid mixture 2
Property: Mole fraction of water (Liquid mixture 1); method: Titration method
Temperature, K	Pressure, kPa	Mole fraction of water	uncertainty
298.15	101	.9999	
298.15	101	.0038	

System: cyclopentanol + water; phases: Liquid mixture 1, Liquid mixture 2
Property: Mole fraction of water (Liquid mixture 1); method: Titration method
Temperature, K	Pressure, kPa	Mole fraction of water	uncertainty
298.15	101	.9835	
298.15	101	.486	

System: 2-octanone + water; phases: Liquid mixture 1, Liquid mixture 2
Property: Mole fraction of water (Liquid mixture 1); method: Titration method
Temperature, K	Pressure, kPa	Mole fraction of water	uncertainty
298.15	101	.9998	
298.15	101	.0827	

System: dibutyl maleate + water; phases: Liquid mixture 1, Liquid mixture 2
Property: Mole fraction of water (Liquid mixture 1); method: Titration method
Temperature, K	Pressure, kPa	Mole fraction of water	uncertainty
298.15	101	.0175	
