Measured thermophysical data. Liquid Liquid Equilibrium for the Ternary Systems Methyl tert-Butyl Ketone + o-, m-, p-Cresol + Water at (298.2, 313.2, and 323.2) K
Source: J. Chem. Eng. Data, 2017, 10.1021/acs.jced.6b00825
Compound 1: tert-butyl methyl ketone, C6H12O, purity 98%
Compound 2: o-cresol, C7H8O, purity 99.5%
Compound 3: m-cresol, C7H8O, purity 99.5%
Compound 4: p-cresol, C7H8O, purity 99%
Compound 5: n-butyl acetate, C6H12O2, purity 99%
Compound 6: 1,3,5-trimethylbenzene, C9H12, purity 99%
Compound 7: methanol, CH4O, purity 99%
Compound 8: water, H2O, purity 99.8%

System: tert-butyl methyl ketone + o-cresol + water; phases: Liquid mixture 1, Liquid mixture 2
Fixed: Pressure, kPa = 101.3
Property: Mass fraction of o-cresol (Liquid mixture 1); method: Chromatography
Property: Mass fraction of tert-butyl methyl ketone (Liquid mixture 2); method: Chromatography
Property: Mass fraction of o-cresol (Liquid mixture 2); method: Chromatography
Temperature, K	Mass fraction of tert-butyl methyl ketone	Mass fraction of o-cresol	uncertainty	Mass fraction of tert-butyl methyl ketone	uncertainty	Mass fraction of o-cresol	uncertainty
298.2	.63955	.31884	.0066	.00832	.0049	.00218	.0036
313.2	.83382	.13753	.0066	.01213	.0049	.00049	.0036
313.2	.85319	.12046	.0066	.01251	.0049	.00037	.0036
298.2	.65644	.30303	.0066	.00872	.0049	.00179	.0036
313.2	.98272	0	.0066	.01592	.0049	0	.0036
323.2	.67022	.28415	.0066	.00853	.0049	.00205	.0036
323.2	.69726	.25782	.0066	.00875	.0049	.00158	.0036
323.2	.72516	.23105	.0066	.0093	.0049	.00133	.0036
323.2	.74961	.20908	.0066	.00952	.0049	.00106	.0036
323.2	.77159	.18826	.0066	.0105	.0049	.00087	.0036
323.2	.79667	.16581	.0066	.01081	.0049	.00074	.0036
298.2	.98529	0	.0066	.01714	.0049	0	.0036
323.2	.81671	.1492	.0066	.01126	.0049	.00063	.0036
323.2	.82964	.13697	.0066	.01167	.0049	.00053	.0036
323.2	.85421	.11469	.0066	.01197	.0049	.00041	.0036
298.2	.68839	.27633	.0066	.00933	.0049	.0015	.0036
323.2	.98065	0	.0066	.01413	.0049	0	.0036
298.2	.69747	.26897	.0066	.00984	.0049	.00141	.0036
298.2	.72506	.2435	.0066	.01094	.0049	.00107	.0036
298.2	.73185	.23724	.0066	.01195	.0049	.00099	.0036
298.2	.73784	.23158	.0066	.01239	.0049	.00093	.0036
298.2	.76239	.20855	.0066	.01355	.0049	.00077	.0036
313.2	.62872	.32591	.0066	.00803	.0049	.00215	.0036
298.2	.77707	.19448	.0066	.01397	.0049	.00069	.0036
313.2	.66312	.29379	.0066	.00895	.0049	.0019	.0036
313.2	.71394	.24527	.0066	.00922	.0049	.00149	.0036
313.2	.739	.22545	.0066	.01027	.0049	.00118	.0036
313.2	.76582	.20211	.0066	.01047	.0049	.001	.0036
313.2	.79376	.17525	.0066	.01128	.0049	.00081	.0036
313.2	.81266	.15756	.0066	.01182	.0049	.00064	.0036

System: tert-butyl methyl ketone + m-cresol + water; phases: Liquid mixture 1, Liquid mixture 2
Fixed: Pressure, kPa = 101.3
Property: Mass fraction of m-cresol (Liquid mixture 1); method: Chromatography
Property: Mass fraction of tert-butyl methyl ketone (Liquid mixture 2); method: Chromatography
Property: Mass fraction of m-cresol (Liquid mixture 2); method: Chromatography
Temperature, K	Mass fraction of tert-butyl methyl ketone	Mass fraction of m-cresol	uncertainty	Mass fraction of tert-butyl methyl ketone	uncertainty	Mass fraction of m-cresol	uncertainty
298.2	.6407	.31725	.0066	.00789	.0049	.00239	.0036
313.2	.86896	.10216	.0066	.01157	.0049	.00048	.0036
313.2	.89422	.07816	.0066	.01207	.0049	.00033	.0036
298.2	.66131	.29944	.0066	.00843	.0049	.00199	.0036
313.2	.98272	0	.0066	.01592	.0049	0	.0036
323.2	.63517	.31672	.0066	.00707	.0049	.00266	.0036
323.2	.69141	.26153	.0066	.00891	.0049	.00205	.0036
323.2	.73888	.21467	.0066	.00979	.0049	.00158	.0036
323.2	.75313	.20093	.0066	.01024	.0049	.00128	.0036
323.2	.78104	.17649	.0066	.01052	.0049	.00112	.0036
323.2	.80161	.15856	.0066	.01062	.0049	.00094	.0036
298.2	.98529	0	.0066	.01714	.0049	0	.0036
323.2	.81719	.14726	.0066	.01076	.0049	.0008	.0036
323.2	.83747	.12924	.0066	.01091	.0049	.00062	.0036
323.2	.85897	.10817	.0066	.01137	.0049	.00048	.0036
298.2	.69895	.26586	.0066	.01089	.0049	.00155	.0036
323.2	.98065	0	.0066	.01413	.0049	0	.0036
298.2	.72994	.23893	.0066	.01132	.0049	.00138	.0036
298.2	.74793	.21731	.0066	.01196	.0049	.0011	.0036
298.2	.7564	.20943	.0066	.01238	.0049	.00098	.0036
298.2	.76632	.20059	.0066	.01296	.0049	.00088	.0036
298.2	.78234	.18639	.0066	.0133	.0049	.00077	.0036
313.2	.63723	.31847	.0066	.00775	.0049	.00249	.0036
298.2	.79883	.17289	.0066	.01448	.0049	.00062	.0036
313.2	.69689	.26174	.0066	.00749	.0049	.00185	.0036
313.2	.73197	.23292	.0066	.00997	.0049	.00153	.0036
313.2	.76254	.20409	.0066	.01013	.0049	.00118	.0036
313.2	.7961	.17222	.0066	.01045	.0049	.00097	.0036
313.2	.82673	.14271	.0066	.01087	.0049	.00073	.0036
313.2	.83996	.12979	.0066	.01131	.0049	.00063	.0036

System: tert-butyl methyl ketone + p-cresol + water; phases: Liquid mixture 1, Liquid mixture 2
Fixed: Pressure, kPa = 101.3
Property: Mass fraction of p-cresol (Liquid mixture 1); method: Chromatography
Property: Mass fraction of tert-butyl methyl ketone (Liquid mixture 2); method: Chromatography
Property: Mass fraction of p-cresol (Liquid mixture 2); method: Chromatography
Temperature, K	Mass fraction of tert-butyl methyl ketone	Mass fraction of p-cresol	uncertainty	Mass fraction of tert-butyl methyl ketone	uncertainty	Mass fraction of p-cresol	uncertainty
298.2	.62148	.33663	.0066	.00745	.0049	.00235	.0036
313.2	.87054	.10274	.0066	.01091	.0049	.00042	.0036
313.2	.89481	.08013	.0066	.01175	.0049	.00029	.0036
298.2	.66468	.29577	.0066	.00829	.0049	.0018	.0036
313.2	.98272	0	.0066	.01592	.0049	0	.0036
323.2	.62894	.32218	.0066	.0064	.0049	.00256	.0036
323.2	.67548	.27857	.0066	.00759	.0049	.00212	.0036
323.2	.71809	.24176	.0066	.00851	.0049	.00151	.0036
323.2	.74981	.21069	.0066	.009	.0049	.00118	.0036
323.2	.78594	.17561	.0066	.00973	.0049	.00091	.0036
323.2	.80636	.15596	.0066	.0104	.0049	.00083	.0036
298.2	.98529	0	.0066	.01714	.0049	0	.0036
323.2	.82793	.13703	.0066	.01072	.0049	.00065	.0036
323.2	.85245	.11297	.0066	.01111	.0049	.00051	.0036
323.2	.87527	.09437	.0066	.01152	.0049	.00036	.0036
298.2	.6892	.27373	.0066	.01029	.0049	.00161	.0036
323.2	.98065	0	.0066	.01413	.0049	0	.0036
298.2	.72809	.23724	.0066	.01167	.0049	.00119	.0036
298.2	.74183	.22613	.0066	.01202	.0049	.00102	.0036
298.2	.75516	.21546	.0066	.01253	.0049	.00085	.0036
298.2	.7786	.19264	.0066	.01265	.0049	.00073	.0036
298.2	.79673	.17509	.0066	.0132	.0049	.00063	.0036
313.2	.64699	.30749	.0066	.00709	.0049	.0023	.0036
298.2	.81229	.16018	.0066	.01446	.0049	.00052	.0036
313.2	.68649	.27219	.0066	.00812	.0049	.00193	.0036
313.2	.73148	.23134	.0066	.00875	.0049	.00142	.0036
313.2	.77115	.19442	.0066	.00891	.0049	.00109	.0036
313.2	.79588	.172	.0066	.01002	.0049	.00089	.0036
313.2	.82844	.14358	.0066	.01035	.0049	.0007	.0036
313.2	.84035	.13246	.0066	.01078	.0049	.00062	.0036

System: tert-butyl methyl ketone + water; phases: Liquid mixture 2, Liquid mixture 1
Property: Mass fraction of tert-butyl methyl ketone (Liquid mixture 2); method: Chromatography
Temperature, K	Pressure, kPa	Mass fraction of tert-butyl methyl ketone	uncertainty
298.2	101.3	.01714	
313.2	101.3	.01592	
323.2	101.3	.01413	

System: tert-butyl methyl ketone + water; phases: Liquid mixture 1, Liquid mixture 2
Property: Mass fraction of tert-butyl methyl ketone (Liquid mixture 1); method: Chromatography
Temperature, K	Pressure, kPa	Mass fraction of tert-butyl methyl ketone	uncertainty
298.2	101.3	.98529	
313.2	101.3	.98272	
323.2	101.3	.98065	
