Measured thermophysical data. Solubility of FeSO4*7H2O in the H2SO4 Ti(SO4)2 H2O, H2SO4 MgSO4 H2O, and HCl H2O Systems from 278 to 313 K
Source: J. Chem. Eng. Data, 2017, 10.1021/acs.jced.6b00783
Compound 1: iron(II) sulfate, FeO4S, purity 99.0%
Compound 2: hydrogen chloride, ClH, purity 99%
Compound 3: water, H2O, purity 99.8%

System: hydrogen chloride + iron(II) sulfate + water; phases: Liquid, Crystal of intercomponent compound 1
Fixed: Pressure, kPa = 100
Property: Molality, mol/kg of iron(II) sulfate (Liquid); method: titration
Temperature, K	Molality, mol/kg of hydrogen chloride	Molality, mol/kg of iron(II) sulfate	uncertainty
293.15	.1554	1.7682	
293.15	.3119	1.7471	
293.15	.4682	1.7428	
293.15	.6259	1.7272	
293.15	.7796	1.7496	
293.15	1.1774	1.707	
293.15	1.5602	1.7451	
293.15	1.9363	1.7895	
293.15	2.3053	1.8378	
293.15	2.6593	1.9063	
293.15	3.0023	1.9796	
298.15	.1502	1.9758	
298.15	.3015	1.9538	
298.15	.4535	1.9372	
298.15	.6091	1.8936	
298.15	.7589	1.9138	
298.15	1.1431	1.8884	
298.15	1.5134	1.9309	
298.15	1.8727	1.9915	
298.15	2.2225	2.0568	
298.15	2.5657	2.1184	
298.15	2.8959	2.1908	
303.15	.1447	2.1936	
303.15	.2911	2.1608	
303.15	.4378	2.1458	
303.15	.5883	2.0998	
303.15	.7332	2.1178	
303.15	1.1016	2.1081	
303.15	1.4611	2.1386	
303.15	1.8025	2.2141	
303.15	2.1376	2.2813	
303.15	2.4697	2.336	
303.15	2.7765	2.4275	
308.15	.1392	2.4128	
308.15	.2798	2.3845	
308.15	.4205	2.374	
308.15	.5664	2.3178	
308.15	.7052	2.3399	
308.15	1.0617	2.3191	
308.15	1.4078	2.35	
308.15	1.7314	2.4399	
308.15	2.0588	2.4897	
308.15	2.3639	2.5761	
308.15	2.6605	2.6577	
313.15	.133	2.6596	
313.15	.2679	2.6213	
313.15	.4037	2.5967	
313.15	.5413	2.5664	
313.15	.6774	2.5603	
313.15	1.0176	2.5524	
313.15	1.3467	2.5926	
313.15	1.6575	2.6745	
313.15	1.9649	2.7383	
313.15	2.2547	2.8237	
313.15	2.5364	2.9039	
