Measured thermophysical data. Measurements of the Thermal Conductivity of 1,1,1,3,3-Pentafluoropropane (R245fa) and Correlations for the Viscosity and Thermal Conductivity Surfaces
Source: J. Chem. Eng. Data, 2016, 10.1021/acs.jced.6b00350
Compound 1: 1,1,1,3,3-pentafluoropropane, C3H3F5, purity 99.6%

System: 1,1,1,3,3-pentafluoropropane; phases: Liquid
Property: Thermal conductivity, W/m/K (Liquid); method: Hot wire method
Pressure, kPa	Temperature, K	Thermal conductivity, W/m/K	uncertainty
41639	298.738	.10432	
41635	298.748	.10429	
41634	299.092	.1044	
41635	299.089	.10441	
41635	299.486	.10423	
41634	299.483	.10432	
41632	299.894	.10425	
41629	299.896	.10419	
41629	300.351	.10438	
41624	300.351	.10423	
33915	298.731	.10218	
33916	298.727	.10192	
33913	299.094	.10111	
33914	299.089	.10131	
33912	299.491	.10114	
33910	299.486	.10122	
33910	299.922	.10133	
33908	299.912	.10134	
33907	300.38	.10154	
33905	300.372	.10148	
26080	298.717	.09952	
26079	298.718	.09945	
26077	299.094	.09835	
26079	299.091	.09892	
26076	299.495	.099	
26073	299.497	.09896	
26071	299.93	.09862	
26073	299.931	.09884	
26067	300.41	.09891	
26067	300.405	.09874	
19337	297.486	.09665	
19332	297.486	.09652	
19340	297.855	.09658	
19322	297.86	.09664	
19334	298.272	.09654	
19324	298.263	.09657	
19329	298.711	.09658	
19323	298.705	.09665	
19316	299.188	.09651	
19328	299.194	.09648	
12586	297.366	.09376	
12582	297.358	.09405	
12582	297.748	.09397	
12583	297.745	.09395	
12574	298.177	.09352	
12583	298.168	.09365	
12577	298.618	.09374	
12578	298.62	.09384	
12583	299.115	.09382	
12580	299.112	.0938	
12567	297.335	.09379	
12571	297.327	.09396	
12572	297.725	.0939	
12571	297.716	.09392	
12568	298.142	.09369	
12571	298.141	.09358	
12568	298.585	.09385	
12563	298.591	.09379	
12561	299.092	.09382	
12562	299.079	.09373	
6682	297.307	.09132	
6681	297.304	.09147	
6677	297.697	.0909	
6677	297.701	.09107	
6680	298.138	.09232	
6680	298.137	.09104	
6668	298.598	.09111	
6673	298.598	.0911	
6673	299.111	.0912	
6675	299.102	.09125	
238	297.283	.08846	
238	297.277	.0884	
239	297.692	.0881	
229	297.688	.08847	
234	298.14	.08789	
233	298.132	.08778	
234	298.609	.08787	
230	298.61	.08804	
227	299.14	.08804	
238	299.137	.08799	
68041	301.589	.11155	
68044	301.593	.1115	
68038	301.928	.11168	
68033	301.929	.11152	
68022	302.298	.11162	
68021	302.294	.11154	
68023	302.681	.1115	
68021	302.684	.11157	
68009	303.12	.11143	
68011	303.113	.11153	
62455	301.585	.11003	
62451	301.584	.11029	
62448	301.924	.10983	
62442	301.916	.10998	
62445	302.3	.11001	
62439	302.289	.1101	
62429	302.7	.10974	
62436	302.694	.11013	
62430	303.128	.11002	
62436	303.127	.11005	
52493	301.627	.10664	
52493	301.623	.10706	
52486	301.972	.10728	
52491	301.967	.10698	
52489	302.357	.10698	
52487	302.358	.10675	
52483	302.76	.107	
52489	302.758	.10686	
52487	303.215	.10679	
52481	303.213	.10682	
43573	301.65	.10411	
43574	301.65	.104	
43570	302.007	.10385	
43569	302.005	.10398	
43574	302.4	.10399	
43573	302.394	.10397	
43572	302.82	.10405	
43572	302.81	.10396	
43576	303.272	.10406	
43574	303.273	.10397	
35538	301.66	.10136	
35535	301.658	.10151	
35523	302.02	.10157	
35525	302.025	.10115	
35524	302.429	.10127	
35521	302.426	.10119	
35521	302.847	.10128	
35512	302.854	.10117	
35514	303.33	.10119	
35513	303.329	.10111	
27823	301.657	.09824	
27815	301.655	.0982	
27819	302.03	.09867	
27815	302.026	.09838	
27822	302.442	.09861	
27824	302.433	.09846	
27817	302.878	.09814	
27813	302.884	.09844	
27811	303.365	.09842	
27804	303.363	.0984	
21591	301.692	.09669	
21597	301.693	.09656	
21589	302.074	.09606	
21586	302.072	.09614	
21586	302.494	.09609	
21587	302.491	.09598	
21581	302.942	.09604	
21589	302.937	.09618	
21587	303.439	.09607	
21579	303.438	.09595	
15353	301.751	.09399	
15355	301.745	.0941	
15358	302.143	.09347	
15361	302.145	.09381	
15359	302.573	.09341	
15368	302.57	.0935	
15370	303.036	.09341	
15369	303.034	.09337	
15365	303.543	.09343	
15366	303.538	.09328	
9755	301.606	.09136	
9757	301.601	.09158	
9757	301.982	.09137	
9759	301.986	.09137	
9755	302.405	.09135	
9754	302.407	.09128	
9754	302.871	.091	
9749	302.868	.09105	
9753	303.36	.09097	
9758	303.361	.09104	
4924	301.631	.08962	
4920	301.637	.089	
4920	302.029	.08894	
4923	302.031	.08935	
4920	302.466	.08908	
4917	302.466	.08905	
4920	302.927	.0888	
4918	302.934	.08893	
4916	303.439	.08869	
4920	303.438	.08879	
293	301.674	.08649	
289	301.672	.08665	
296	302.082	.0866	
299	302.067	.08696	
297	302.513	.08675	
295	302.525	.08688	
298	302.994	.08647	
297	302.991	.08639	
294	303.507	.08655	
297	303.515	.08645	
69906	321.651	.10828	
69905	321.648	.10846	
69896	322.021	.10827	
69892	322.018	.1082	
69881	322.424	.10769	
69875	322.423	.10768	
69861	322.857	.10781	
69859	322.851	.10771	
69859	323.326	.10788	
69855	323.327	.10791	
58592	321.679	.10492	
58591	321.682	.1047	
58584	322.062	.10495	
58582	322.058	.10492	
58576	322.477	.10463	
58570	322.468	.10465	
58569	322.922	.1047	
58557	322.923	.10466	
58551	323.405	.10457	
58550	323.406	.10465	
49873	321.699	.10192	
49855	321.699	.10149	
49848	322.086	.10213	
49847	322.083	.10211	
49834	322.512	.10193	
49828	322.506	.10166	
49830	322.967	.10181	
49820	322.961	.1018	
49813	323.462	.10189	
49806	323.465	.10182	
40558	321.697	.09918	
40553	321.689	.09923	
40546	322.098	.09896	
40542	322.092	.09897	
40531	322.529	.09882	
40525	322.534	.09861	
40525	323.003	.09862	
40517	323.003	.09874	
40523	323.52	.09883	
40518	323.517	.09873	
33193	321.707	.0964	
33197	321.713	.09631	
33200	322.12	.09642	
33198	322.111	.09595	
33194	322.562	.09577	
33194	322.562	.09565	
33192	323.046	.09594	
33192	323.039	.0959	
33190	323.572	.0959	
33191	323.564	.09593	
26151	321.729	.093	
26150	321.734	.09344	
26148	322.154	.09328	
26147	322.145	.09346	
26148	322.611	.09299	
26147	322.613	.09305	
26150	323.106	.09307	
26147	323.103	.09286	
26145	323.65	.09305	
26148	323.646	.09303	
19703	321.757	.09051	
19697	321.74	.09044	
19694	322.176	.09034	
19689	322.179	.09041	
19689	322.658	.09023	
19690	322.65	.0904	
19684	323.162	.09037	
19687	323.159	.09046	
19685	323.711	.09038	
19683	323.719	.09025	
13839	321.781	.08772	
13835	321.774	.08752	
13837	322.231	.08773	
13831	322.225	.08764	
13830	322.721	.08785	
13830	322.714	.08772	
13836	323.234	.08777	
13828	323.228	.0878	
13826	323.804	.08762	
13825	323.8	.08771	
8795	321.813	.08531	
8794	321.817	.08538	
8795	322.27	.08522	
8791	322.268	.08514	
8793	322.77	.08496	
8791	322.761	.08512	
8786	323.307	.08508	
8785	323.306	.08509	
8785	323.892	.08516	
8784	323.883	.08522	
4352	321.622	.08273	
4356	321.627	.08308	
4350	322.07	.08295	
4352	322.07	.08313	
4352	322.564	.0827	
4352	322.563	.08272	
4349	323.098	.08248	
4348	323.093	.08267	
4353	323.671	.08281	
4345	323.661	.08263	
338	321.648	.08047	
337	321.641	.08036	
332	322.111	.08034	
332	322.102	.08025	
332	322.607	.08024	
328	322.602	.08026	
330	323.162	.08023	
332	323.152	.0802	
330	323.741	.08004	
331	323.743	.08014	
69269	341.745	.10382	
69248	341.734	.10391	
69238	342.117	.10396	
69235	342.119	.10424	
69218	342.536	.10384	
69205	342.53	.10395	
69203	342.992	.10432	
69188	342.99	.1043	
69172	343.485	.10448	
69162	343.478	.10427	
58417	341.709	.101	
58414	341.693	.10061	
58406	342.101	.1005	
58399	342.091	.1006	
58390	342.528	.1005	
58384	342.515	.1004	
58374	342.998	.10074	
58371	342.991	.10067	
58363	343.504	.10087	
58358	343.499	.10087	
48505	341.657	.09738	
48504	341.647	.09719	
48492	342.056	.09719	
48492	342.047	.09719	
48493	342.507	.09719	
48484	342.494	.09716	
48479	342.982	.09746	
48476	342.99	.09717	
48479	343.515	.0974	
48465	343.502	.09758	
39675	341.443	.0951	
39673	341.44	.09407	
39667	341.832	.09362	
39657	341.832	.09382	
39659	342.282	.09393	
39655	342.274	.09411	
39649	342.751	.09419	
39640	342.75	.09416	
39648	343.276	.09409	
39640	343.267	.09411	
31723	341.363	.09099	
31717	341.354	.09048	
31711	341.767	.09067	
31709	341.767	.09087	
31701	342.226	.09082	
31695	342.213	.09091	
31697	342.724	.09082	
31698	342.717	.09091	
31692	343.255	.09092	
31683	343.246	.09097	
24450	341.433	.08726	
24457	341.436	.08772	
24452	341.807	.08759	
24448	341.812	.08731	
24457	342.238	.08773	
24443	342.229	.08756	
24437	342.709	.08761	
24435	342.7	.08753	
24434	343.223	.0876	
24431	343.215	.0874	
18258	341.416	.08459	
18251	341.407	.08455	
18254	341.804	.0841	
18252	341.803	.08459	
18254	342.244	.08456	
18263	342.237	.08459	
18277	342.725	.08453	
18288	342.715	.08467	
18297	343.255	.0846	
18305	343.251	.08481	
12858	341.397	.08189	
12846	341.392	.08132	
12851	341.806	.08125	
12862	341.797	.08133	
12846	342.257	.08139	
12847	342.253	.08139	
12854	342.753	.08161	
12836	342.742	.08165	
12844	343.295	.08186	
12856	343.289	.08212	
8222	341.384	.07861	
8227	341.374	.07909	
8213	341.789	.07901	
8220	341.791	.07915	
8213	342.252	.0788	
8211	342.252	.079	
8214	342.769	.07886	
8198	342.769	.07878	
8208	343.334	.07905	
8193	343.326	.07913	
4066	341.371	.07637	
4061	341.37	.07637	
4060	341.795	.07627	
4049	341.803	.07607	
4064	342.284	.07591	
4048	342.269	.07633	
4048	342.815	.07623	
4060	342.8	.07628	
4043	343.383	.07572	
4045	343.389	.07592	
807	341.362	.07373	
791	341.355	.07387	
798	341.802	.074	
800	341.786	.07352	
784	342.293	.07414	
795	342.281	.07417	
778	342.823	.074	
779	342.835	.07358	
791	343.428	.07347	
777	343.422	.07373	
150	173.206	.12355	
150	173.206	.12317	
150	173.414	.12336	
150	173.656	.12309	
150	173.659	.12305	
150	173.913	.1233	
150	173.913	.1231	
150	174.212	.12336	
150	174.208	.12337	
132	173.298	.12386	
133	173.298	.12336	
135	173.507	.12344	
135	173.509	.12311	
136	173.745	.12375	
137	173.749	.12361	
138	174.009	.12354	
140	174.012	.12346	
140	174.293	.12326	
141	174.293	.12311	
148	173.302	.12374	
148	173.299	.12312	
148	173.512	.12346	
148	173.511	.12381	
148	173.752	.12361	
148	173.752	.12362	
148	174.008	.12353	
149	174.007	.12352	
149	174.3	.12391	
149	174.296	.12356	
159	181.78	.12235	
159	181.783	.12226	
158	182.062	.12266	
158	182.062	.12223	
158	182.369	.12222	
158	182.37	.12247	
158	182.705	.12218	
158	182.7	.12217	
158	183.063	.12232	
158	183.061	.1222	
70521	182.506	.13361	
70514	182.809	.13404	
70507	182.81	.134	
70492	183.136	.1338	
70493	183.143	.13401	
70484	183.497	.13357	
70475	183.499	.13379	
70475	183.888	.13409	
70464	183.882	.13377	
63262	182.543	.13312	
63262	182.543	.13296	
63255	182.853	.13315	
63254	183.188	.13302	
63248	183.182	.13294	
63252	183.546	.13292	
63251	183.538	.13296	
63243	183.927	.13247	
63247	183.929	.1328	
54974	182.605	.1317	
54979	182.603	.13143	
54983	182.918	.1316	
54970	182.914	.13141	
54980	183.254	.13166	
54977	183.248	.13122	
54975	183.621	.13137	
54970	184.013	.1314	
54967	184.007	.13129	
47632	182.636	.13031	
47638	182.643	.13089	
47631	182.953	.13051	
47626	182.952	.13043	
47628	183.298	.1305	
47629	183.292	.13005	
47626	183.662	.13038	
47632	183.666	.13033	
47634	184.057	.13002	
47633	184.057	.1303	
39979	182.675	.12937	
39974	182.676	.12931	
39966	182.993	.129	
39976	182.989	.12913	
39964	183.341	.1291	
39965	183.336	.1291	
39959	183.708	.12907	
39948	183.708	.12903	
39957	184.104	.12899	
39951	184.105	.12899	
32455	182.529	.12831	
32519	182.549	.12804	
32589	182.84	.128	
32528	182.839	.12812	
32553	183.167	.12823	
32517	183.163	.12814	
32519	183.515	.12821	
32578	183.507	.12808	
32497	183.884	.12806	
32541	183.892	.12808	
25387	182.543	.12707	
25434	182.543	.12748	
25436	182.832	.12719	
25420	182.836	.12704	
25441	183.162	.12678	
25402	183.154	.12662	
25404	183.507	.12687	
25455	183.506	.12688	
25416	183.884	.12672	
25431	183.887	.12678	
18849	182.532	.126	
18829	182.526	.12597	
18827	182.829	.12592	
18835	182.83	.12588	
18832	183.157	.1258	
18865	183.151	.12569	
18836	183.507	.12579	
18859	183.507	.12582	
18828	183.88	.12567	
18858	183.883	.12569	
12298	182.516	.12477	
12334	182.523	.12522	
12333	182.817	.12475	
12341	183.147	.12463	
12323	183.158	.12465	
12360	183.508	.12463	
12421	183.5	.12455	
12374	183.894	.12464	
12395	183.891	.1244	
5857	182.508	.12356	
5874	182.516	.12371	
5874	182.813	.12342	
5870	182.813	.12356	
5877	183.143	.12343	
5876	183.143	.12341	
5883	183.503	.12337	
5882	183.507	.12333	
5875	183.881	.12331	
5878	183.888	.12328	
269	182.501	.12258	
266	182.499	.12247	
266	182.809	.1225	
278	182.81	.12236	
277	183.139	.12244	
269	183.132	.12235	
279	183.503	.12225	
290	183.504	.12248	
287	183.895	.12224	
282	183.895	.12228	
27158	201.869	.12479	
27161	202.208	.1249	
27161	202.209	.12487	
27164	202.574	.12486	
27157	202.971	.12468	
27152	202.971	.1247	
27157	203.393	.12434	
27154	203.394	.12457	
21433	201.863	.12392	
21419	201.86	.124	
21420	202.202	.12369	
21408	202.196	.12375	
21412	202.571	.12376	
21416	202.566	.12366	
21421	202.968	.12365	
21416	202.966	.1236	
21419	203.395	.1235	
15810	201.81	.12315	
15804	202.146	.12286	
15839	202.145	.12286	
15780	202.522	.12293	
15825	202.523	.12285	
15863	202.917	.12275	
15810	202.923	.12273	
15840	203.354	.12267	
15898	203.345	.12264	
10055	201.776	.12184	
10078	201.776	.12192	
10088	202.119	.12175	
10097	202.121	.12176	
10097	202.492	.12161	
10103	202.494	.12163	
10110	202.898	.12156	
10125	203.33	.12142	
10131	203.33	.12144	
4752	201.756	.12071	
4760	201.758	.12067	
4763	202.104	.1206	
4763	202.481	.12046	
4763	202.476	.12045	
4767	202.89	.12031	
4772	202.886	.12036	
4769	203.325	.12021	
4775	203.321	.12019	
245	201.857	.11975	
253	201.852	.11971	
267	202.2	.11932	
275	202.204	.11952	
275	202.577	.1195	
288	202.583	.1194	
306	202.989	.11933	
337	202.99	.11941	
372	203.427	.11903	
393	203.427	.1193	
67588	202.288	.13266	
67566	202.287	.13281	
67552	202.632	.13273	
67539	202.631	.13253	
67521	203.005	.13259	
67499	202.999	.13267	
67491	203.407	.13253	
67478	203.402	.13235	
67465	203.832	.13238	
67450	203.834	.13252	
60684	202.278	.13188	
60672	202.282	.13133	
60673	202.626	.13172	
60672	202.628	.13184	
60670	203.002	.13136	
60661	203.002	.13138	
60664	203.414	.1315	
60658	203.405	.13134	
60649	203.839	.13126	
60649	203.838	.13106	
53774	202.277	.13038	
53774	202.273	.13044	
53770	202.617	.13024	
53770	202.623	.13028	
53775	203.002	.13006	
53771	202.998	.13024	
53772	203.408	.13015	
53771	203.414	.13021	
53769	203.845	.13001	
53757	203.847	.13005	
46779	202.268	.12906	
46773	202.266	.12895	
46778	202.623	.12905	
46780	202.617	.12886	
46783	203	.12893	
46783	202.998	.12897	
46771	203.408	.12894	
46773	203.413	.12872	
46774	203.855	.1288	
46765	203.85	.12876	
40147	202.263	.12791	
40151	202.264	.1278	
40147	202.615	.12778	
40142	202.611	.12782	
40146	203.008	.12757	
40148	203	.12775	
40147	203.416	.12764	
40141	203.418	.12768	
40141	203.863	.12757	
40135	203.859	.12752	
33666	202.238	.12671	
33675	202.238	.12664	
33679	202.591	.12643	
33675	202.6	.12654	
33685	202.988	.12645	
33690	202.979	.12657	
33685	203.407	.1264	
33699	203.402	.12631	
33690	203.853	.12629	
33700	203.85	.12629	
27673	202.237	.12547	
27677	202.229	.12523	
27679	202.594	.12527	
27683	202.594	.12531	
27679	202.988	.12521	
27682	202.984	.12527	
27689	203.408	.12518	
27682	203.862	.12504	
27696	203.853	.1251	
67960	222.022	.13004	
67941	222.022	.13016	
67938	222.386	.12977	
67942	222.383	.12969	
67930	222.767	.12976	
67928	222.778	.12965	
67921	223.196	.12952	
67923	223.192	.12949	
67916	223.649	.12938	
67907	223.649	.12909	
61325	222.018	.12846	
61363	222.017	.12862	
61385	222.386	.12831	
61389	222.381	.12837	
61395	222.781	.12815	
61401	222.775	.12817	
61402	223.207	.128	
61398	223.203	.12801	
61396	223.671	.12783	
61399	223.662	.12787	
54323	222.013	.12688	
54322	222.011	.12688	
54316	222.381	.12669	
54318	222.382	.12668	
54319	222.778	.12658	
54318	222.78	.12649	
54313	223.215	.12647	
54306	223.211	.12625	
54305	223.681	.12612	
54302	223.677	.12623	
47190	222.004	.12518	
47202	222.007	.12583	
47197	222.375	.12498	
47190	222.372	.12506	
47189	222.776	.12489	
47193	222.777	.12496	
47186	223.217	.12479	
47187	223.218	.12479	
47193	223.695	.12468	
47183	223.685	.12466	
39755	221.995	.1236	
39756	221.998	.12362	
39761	222.377	.12351	
39767	222.374	.12354	
39758	222.778	.12336	
39765	222.782	.12361	
39767	223.221	.12313	
39773	223.226	.12309	
39772	223.709	.12294	
39777	223.7	.12299	
33686	222.129	.12123	
33712	222.155	.12146	
33800	222.525	.12128	
33833	222.524	.12148	
33837	222.941	.12132	
33847	222.936	.12132	
33861	223.392	.12108	
33868	223.385	.12106	
33873	223.876	.1209	
33885	223.871	.12087	
27420	221.783	.12019	
27443	221.785	.12041	
27470	222.135	.12005	
27478	222.129	.12017	
27479	222.517	.11982	
27487	222.513	.12002	
27487	222.942	.11965	
27478	222.938	.11989	
27486	223.397	.11955	
27487	223.395	.11954	
21259	221.77	.11834	
21264	221.772	.11884	
21261	222.121	.11838	
21267	222.124	.11862	
21266	222.511	.11852	
21262	222.51	.11821	
21269	222.945	.11806	
21277	222.94	.11802	
21280	223.408	.11777	
21286	223.398	.11772	
15754	221.76	.11695	
15760	221.756	.11686	
15761	222.12	.11689	
15756	222.111	.11701	
15761	222.514	.11658	
15763	222.514	.11659	
15762	222.943	.11622	
15767	222.941	.11631	
15769	223.412	.1159	
15762	223.406	.11592	
10011	221.749	.11587	
10031	221.744	.11555	
10047	222.11	.11556	
10038	222.107	.11553	
9999	222.508	.11516	
10021	222.511	.11516	
10017	222.945	.11468	
10023	222.943	.11474	
10011	223.418	.1143	
10015	223.418	.11446	
4830	221.727	.11425	
4854	221.728	.11452	
4859	222.092	.11386	
4863	222.089	.11395	
4863	222.497	.11338	
4873	222.504	.1134	
4862	222.947	.11297	
4870	222.942	.11301	
4862	223.421	.11272	
4869	223.422	.11274	
250	221.725	.1129	
251	221.715	.113	
247	222.096	.11242	
253	222.09	.11254	
255	222.503	.11206	
245	222.517	.11198	
242	222.946	.11153	
262	222.948	.11157	
243	223.43	.11113	
251	223.428	.1111	
68711	241.43	.12408	
68724	241.425	.12377	
68669	241.774	.12362	
68692	241.777	.12406	
68676	242.144	.12355	
68636	242.139	.12349	
68673	242.565	.12359	
68688	242.551	.1238	
68624	243.009	.12354	
68665	243.012	.1235	
61279	241.413	.12216	
61272	241.751	.12228	
61249	241.754	.12227	
61278	242.132	.12191	
61286	242.12	.1221	
61245	242.548	.12204	
61277	242.544	.12214	
61280	243.002	.12199	
61272	243.006	.12203	
53704	241.383	.12094	
53707	241.376	.1206	
53704	241.73	.12055	
53687	241.729	.12084	
53701	242.115	.12028	
53712	242.105	.12035	
53700	242.536	.12038	
53711	242.536	.12054	
53705	242.994	.12046	
53703	242.993	.1204	
46714	241.346	.11923	
46711	241.353	.11865	
46714	241.707	.11887	
46707	241.699	.11843	
46703	242.093	.11945	
46702	242.09	.11872	
46700	242.52	.11908	
46692	242.515	.11887	
46703	242.992	.11869	
46699	242.986	.11863	
39784	241.362	.11726	
39780	241.368	.1174	
39791	241.726	.1169	
39777	241.719	.11698	
39775	242.123	.11709	
39778	242.113	.11711	
39776	242.552	.11733	
39775	242.554	.117	
39791	243.026	.11735	
39783	243.024	.117	
33390	241.338	.11531	
33388	241.334	.11502	
33378	241.696	.11582	
33381	241.702	.11544	
33384	242.102	.11551	
33385	242.091	.11543	
33390	242.538	.11552	
33403	242.537	.1154	
33391	243.017	.11573	
33387	243.014	.11535	
26975	241.347	.11337	
26974	241.346	.11339	
26968	241.707	.11373	
26981	241.714	.11393	
26965	242.116	.11389	
26987	242.112	.11394	
26983	242.561	.11399	
26980	242.559	.11363	
26975	243.046	.11373	
26979	243.039	.11389	
21021	241.319	.11211	
21013	241.32	.11225	
21027	241.691	.11194	
21032	241.693	.11257	
21026	242.099	.11245	
21045	242.098	.11259	
21038	242.554	.11208	
21035	242.55	.11226	
21037	243.054	.11221	
21046	243.043	.11188	
15301	241.298	.11107	
15293	241.687	.11073	
15290	241.681	.11033	
15296	242.099	.11069	
15292	242.095	.11067	
15291	242.554	.11074	
15291	242.553	.11068	
15300	243.057	.11051	
15285	243.044	.11076	
9877	241.307	.10936	
9886	241.303	.10918	
9892	241.695	.10927	
9889	241.688	.10884	
9885	242.108	.10907	
9889	242.112	.10865	
9889	242.576	.10925	
9883	242.573	.10901	
9885	243.075	.10935	
9881	243.074	.10911	
4974	241.374	.10768	
4982	241.384	.10739	
4997	241.767	.1079	
4987	241.756	.108	
4998	242.193	.10751	
5009	242.19	.10781	
5012	242.662	.10742	
5012	242.654	.10737	
5015	243.17	.10747	
5024	243.163	.1074	
297	241.37	.10645	
297	241.37	.10687	
296	241.756	.10582	
303	241.759	.10607	
312	242.19	.10578	
312	242.186	.10638	
311	242.668	.10589	
307	242.655	.10562	
306	243.184	.10609	
305	243.171	.10591	
68930	261.64	.11968	
68933	261.626	.11979	
68921	262.011	.11991	
68914	262.017	.11989	
68907	262.432	.11957	
68875	262.432	.11993	
68869	262.896	.12037	
68892	262.892	.12033	
68877	263.39	.12022	
68867	263.393	.1202	
68837	261.609	.12057	
68826	261.614	.12017	
68802	261.994	.11992	
68824	261.985	.11979	
68836	262.408	.11978	
68835	262.403	.11988	
68811	262.867	.12005	
68778	262.871	.12001	
68795	263.377	.11997	
68817	263.371	.1201	
58797	261.578	.1178	
58812	261.575	.11739	
58829	261.965	.1179	
58819	261.959	.11739	
58814	262.392	.1181	
58816	262.388	.11761	
58823	262.867	.11768	
58802	262.862	.1175	
58767	263.383	.11788	
58789	263.377	.11747	
51260	261.552	.1154	
51262	261.549	.11532	
51262	261.946	.11574	
51257	261.94	.11567	
51253	262.381	.1155	
51242	262.371	.11568	
51253	262.858	.1158	
51258	262.848	.11584	
51246	263.38	.11577	
51250	263.367	.11583	
43978	261.522	.11469	
43919	261.928	.11461	
43962	261.919	.11362	
43965	262.36	.11383	
43961	262.357	.11348	
43951	262.845	.11376	
43922	262.843	.11368	
43899	263.376	.11393	
43936	263.371	.1139	
36952	261.133	.11314	
36968	261.13	.11352	
36964	261.901	.11246	
36937	262.348	.11189	
36929	262.335	.11188	
36891	262.839	.11213	
36917	262.84	.11205	
31202	261.231	.11127	
31204	261.23	.11161	
31216	261.599	.11121	
31199	262.015	.1102	
31199	262.01	.11037	
31214	262.464	.11072	
31210	262.472	.11069	
31171	262.971	.11049	
31137	262.972	.11043	
25223	261.219	.10809	
25237	261.215	.10871	
25212	261.595	.10835	
25254	262.01	.1088	
25264	262.006	.10873	
25250	262.466	.10909	
25272	262.463	.10828	
25286	262.975	.10846	
25291	262.973	.10884	
19569	261.617	.10695	
19564	261.613	.10662	
19538	262.044	.10686	
19563	262.041	.10633	
19565	262.513	.10628	
19581	262.497	.10682	
19587	263.015	.10689	
19580	263.014	.10683	
14126	261.194	.10621	
14118	261.199	.10597	
14132	261.576	.10515	
14121	262.009	.10488	
14134	262.005	.10497	
14126	262.48	.10531	
14086	262.479	.10512	
14094	262.999	.10495	
14117	263.002	.10479	
8849	261.17	.103	
8838	261.56	.10258	
8847	261.566	.10294	
8858	261.996	.10319	
8855	261.995	.10368	
8852	262.477	.10362	
8826	262.464	.10334	
8795	263.003	.10316	
8802	263.012	.10319	
4298	261.165	.10268	
4289	261.169	.10307	
4294	262.007	.10171	
4301	262.012	.10143	
4315	262.492	.1017	
4309	262.489	.10164	
4280	263.035	.10188	
4283	263.025	.10171	
260	261.208	.10046	
254	261.206	.10051	
256	261.613	.09949	
263	261.605	.09978	
260	262.058	.10017	
263	262.056	.10013	
264	262.549	.09976	
274	262.544	.09981	
258	263.086	.10027	
251	263.086	.09992	
68575	281.399	.11561	
68582	281.393	.11527	
68577	281.781	.11484	
68579	281.778	.11539	
68577	282.207	.11575	
68599	282.218	.11565	
68577	282.685	.11554	
68589	282.683	.11568	
68582	283.194	.1158	
68547	283.191	.1156	
61447	281.369	.1138	
61439	281.365	.11316	
61458	281.749	.11385	
61451	281.744	.1132	
61445	282.18	.11367	
61442	282.176	.11405	
61439	282.652	.11358	
61432	282.644	.11362	
61445	283.173	.11376	
61441	283.172	.11349	
52956	281.359	.11209	
52979	281.746	.11156	
52967	281.741	.11131	
52971	282.188	.11109	
52974	282.183	.11137	
52971	282.665	.11095	
52972	282.669	.11146	
52984	283.208	.11122	
52973	283.201	.11128	
44270	281.316	.10863	
44258	281.312	.10943	
44250	281.715	.10903	
44261	281.716	.10957	
44256	282.161	.10874	
44239	282.157	.10903	
44247	282.656	.10916	
44235	282.65	.10903	
44239	283.198	.10893	
44231	283.203	.10897	
36450	281.273	.10667	
36455	281.276	.10686	
36460	281.687	.1069	
36448	281.675	.10685	
36443	282.144	.10659	
36448	282.14	.10613	
36437	282.647	.10641	
36446	283.196	.10676	
36442	283.205	.10676	
29163	281.283	.10368	
29163	281.283	.10424	
29164	281.706	.10452	
29156	281.7	.10457	
29166	282.169	.10449	
29157	282.165	.10377	
29162	282.677	.10403	
29156	282.679	.10397	
29157	283.251	.10406	
29153	283.239	.10459	
22340	281.294	.10168	
22340	281.293	.10158	
22328	281.723	.10232	
22339	281.72	.10181	
22330	282.199	.10224	
22326	282.201	.10177	
22342	282.725	.10209	
22340	282.722	.10192	
22330	283.293	.10217	
22338	283.299	.10199	
16109	281.259	.09972	
16120	281.267	.09962	
16110	281.693	.0999	
16102	281.691	.09989	
16097	282.19	.09999	
16109	282.179	.09967	
16110	282.712	.09975	
16110	282.709	.09954	
16102	283.305	.09978	
10502	281.256	.09742	
10497	281.266	.09773	
10506	281.712	.09793	
10499	281.704	.09772	
10491	282.199	.09788	
10493	282.211	.0975	
10500	282.735	.09762	
10490	283.344	.09781	
10482	283.348	.09779	
5081	281.267	.09537	
5085	281.262	.09534	
5092	281.725	.09542	
5099	281.72	.09526	
5088	282.225	.0957	
5074	282.219	.09546	
5079	282.782	.0959	
5087	282.775	.09576	
5084	283.394	.09578	
5078	283.389	.09561	
123	281.236	.09294	
123	281.697	.09319	
123	281.693	.09324	
122	282.214	.09344	
123	282.21	.09288	
123	282.778	.09344	
123	282.777	.09326	
124	283.401	.09369	
