Measured thermophysical data. Compressed Liquid Viscosity of 2-Methylpentane, 3-Methylpentane, and 2,3-Dimethylbutane at Temperatures from (273 to 343) K and Pressures up to 40 MPa
Source: J. Chem. Eng. Data, 2017, 10.1021/acs.jced.6b01024
Compound 1: 2-methylpentane, C6H14, purity 99%
Compound 2: 3-methylpentane, C6H14, purity 99%
Compound 3: 2,3-dimethylbutane, C6H14, purity 98%

System: 2-methylpentane; phases: Liquid
Property: Viscosity, Pa*s (Liquid); method: Vibrating wire viscometry
Temperature, K	Pressure, kPa	Viscosity, Pa*s	uncertainty
283.16	1000	.00032	
283.15	5000	.0003362	
283.15	10000	.0003548	
283.14	15000	.0003708	
283.15	20000	.0003883	
283.15	25000	.0004074	
283.15	30000	.0004244	
293.16	1000	.0002925	
293.16	5000	.0003061	
293.16	10000	.0003212	
293.15	15000	.000339	
293.16	20000	.0003547	
293.16	25000	.0003707	
293.17	30000	.0003863	
303.15	1000	.0002668	
303.15	5000	.000279	
303.17	10000	.0002925	
303.17	15000	.000307	
303.16	20000	.0003236	
303.17	25000	.0003389	
303.17	30000	.0003525	
313.16	1000	.0002435	
313.17	5000	.0002545	
313.15	10000	.0002682	
313.15	15000	.0002829	
313.15	20000	.0002966	
313.15	25000	.0003106	
313.15	30000	.0003241	
323.16	1000	.0002231	
323.16	5000	.0002327	
323.17	10000	.0002468	
323.17	15000	.0002594	
323.17	20000	.0002734	
323.17	25000	.0002866	
323.17	30000	.0002999	
333.15	1000	.0002046	
333.15	5000	.0002142	
333.15	10000	.0002278	
333.15	15000	.0002402	
333.15	20000	.0002532	
333.15	25000	.0002656	
333.15	30000	.0002785	
343.16	1000	.0001901	
343.16	5000	.0001986	
343.17	10000	.0002106	
343.17	15000	.0002245	
343.17	20000	.0002367	
343.17	25000	.0002511	
343.16	30000	.0002615	

System: 3-methylpentane; phases: Liquid
Property: Viscosity, Pa*s (Liquid); method: Vibrating wire viscometry
Temperature, K	Pressure, kPa	Viscosity, Pa*s	uncertainty
273.14	1000	.000384	
273.14	5000	.0003979	
273.14	10000	.0004162	
273.13	15000	.0004369	
273.14	20000	.00046	
273.14	25000	.0004785	
273.14	30000	.0004944	
273.14	35000	.0005201	
273.14	40000	.0005384	
283.14	1000	.0003459	
283.14	5000	.0003583	
283.14	10000	.0003743	
283.15	15000	.0003943	
283.14	20000	.0004131	
283.14	25000	.0004318	
283.14	30000	.0004485	
283.15	35000	.0004678	
283.15	40000	.0004873	
293.17	1000	.0003109	
293.17	5000	.000323	
293.17	10000	.0003397	
293.16	15000	.0003562	
293.16	20000	.0003728	
293.16	25000	.0003906	
293.17	30000	.0004076	
293.16	35000	.0004237	
293.16	40000	.0004416	
303.16	1000	.0002824	
303.16	5000	.0002938	
303.16	10000	.0003092	
303.16	15000	.0003247	
303.16	20000	.000341	
303.16	25000	.0003574	
303.16	30000	.0003723	
303.15	35000	.0003877	
303.16	40000	.0004042	
313.16	1000	.0002568	
313.16	5000	.0002679	
313.17	10000	.0002819	
313.14	15000	.0002973	
313.16	20000	.0003116	
313.15	25000	.0003261	
313.16	30000	.0003413	
313.16	35000	.0003557	
313.16	40000	.0003704	
323.16	1000	.0002351	
323.17	5000	.0002451	
323.17	10000	.0002593	
323.17	15000	.0002744	
323.17	20000	.0002871	
323.17	25000	.0003	
323.17	30000	.0003143	
323.17	35000	.0003283	
323.17	40000	.0003409	
333.15	1000	.0002149	
333.16	5000	.0002251	
333.16	10000	.0002367	
333.16	15000	.0002509	
333.16	20000	.0002637	
333.16	25000	.0002789	
333.16	30000	.0002901	
333.16	35000	.0003031	
333.17	40000	.0003155	
343.15	1000	.000198	
343.15	5000	.0002075	
343.16	10000	.0002195	
343.16	15000	.0002324	
343.16	20000	.0002468	
343.16	25000	.0002587	
343.15	30000	.0002713	
343.16	35000	.0002826	
343.15	40000	.0002939	

System: 2,3-dimethylbutane; phases: Liquid
Property: Viscosity, Pa*s (Liquid); method: Vibrating wire viscometry
Temperature, K	Pressure, kPa	Viscosity, Pa*s	uncertainty
273.15	1000	.0004335	
273.16	5000	.0004595	
273.14	10000	.0004829	
273.17	15000	.0005077	
273.15	20000	.0005391	
273.16	25000	.0005681	
273.17	30000	.0006022	
273.15	35000	.0006264	
273.16	40000	.000656	
283.12	1000	.0003904	
283.13	5000	.0004095	
283.15	10000	.0004294	
283.15	15000	.0004568	
283.14	20000	.0004823	
283.14	25000	.000506	
283.14	30000	.0005337	
283.14	35000	.000559	
283.16	40000	.000586	
293.15	1000	.0003485	
293.15	5000	.0003644	
293.15	10000	.0003838	
293.14	15000	.0004097	
293.14	20000	.0004292	
293.15	25000	.0004555	
293.15	30000	.0004762	
293.15	35000	.0005015	
293.15	40000	.0005256	
303.18	1000	.0003136	
303.17	5000	.0003279	
303.17	10000	.0003471	
303.16	15000	.000368	
303.16	20000	.0003887	
303.13	25000	.0004091	
303.15	30000	.0004303	
303.15	35000	.000452	
303.15	40000	.0004719	
313.14	1000	.000282	
313.14	5000	.0002963	
313.14	10000	.0003151	
313.13	15000	.0003337	
313.14	20000	.0003528	
313.13	25000	.0003714	
313.15	30000	.0003915	
313.16	35000	.00041	
313.16	40000	.0004293	
323.17	1000	.000256	
323.17	5000	.0002686	
323.17	10000	.0002861	
323.16	15000	.0003032	
323.16	20000	.0003201	
323.16	25000	.0003375	
323.16	30000	.0003555	
323.16	35000	.0003733	
323.16	40000	.000392	
333.16	1000	.0002331	
333.16	5000	.000245	
333.16	10000	.0002619	
333.16	15000	.0002772	
333.15	20000	.000294	
333.15	25000	.0003102	
333.15	30000	.0003275	
333.16	35000	.0003436	
333.16	40000	.00036	
343.15	1000	.0002132	
343.15	5000	.0002244	
343.15	10000	.0002396	
343.15	15000	.000256	
343.15	20000	.0002719	
343.15	25000	.0002866	
343.15	30000	.000302	
343.15	35000	.0003173	
343.15	40000	.0003304	
