Measured thermophysical data. Phase Equilibrium in the Ternary System NaH2PO4 + Na2SO4 + H2O at 323.15 K and 343.15 K
Source: J. Chem. Eng. Data, 2015, 10.1021/acs.jced.5b00531
Compound 1: sodium dihydrogen phosphate anhydrous, H2NaO4P, purity 99.5%
Compound 2: sodium sulfate, Na2O4S, purity 99.5%
Compound 3: water, H2O, purity 99.8%

System: sodium dihydrogen phosphate anhydrous + water + sodium sulfate; phases: Liquid, Crystal of intercomponent compound 1
Fixed: Temperature, K = 323.15
Fixed: Pressure, kPa = 100
Property: Mass fraction of sodium sulfate (Liquid); method: Titration method
Mass fraction of sodium dihydrogen phosphate anhydrous	Mass fraction of sodium sulfate	uncertainty
.6143	0	.01
.6058	.0123	.01
.5971	.0224	.01
.5897	.0305	.01
.5897	.0305	.01

System: sodium dihydrogen phosphate anhydrous + water + sodium sulfate; phases: Liquid, Crystal
Fixed: Pressure, kPa = 100
Property: Mass fraction of sodium sulfate (Liquid); method: Titration method
Temperature, K	Mass fraction of sodium dihydrogen phosphate anhydrous	Mass fraction of sodium sulfate	uncertainty
323.15	.5897	.0305	.01
323.15	.5897	.0305	.01
323.15	.5399	.0486	.01
323.15	.5108	.0608	.01
323.15	.4664	.0787	.01
323.15	.4178	.0984	.01
323.15	.3766	.1137	.01
323.15	.3296	.1339	.01
323.15	.2699	.1663	.01
323.15	.2048	.2025	.01
323.15	.1548	.2268	.01
323.15	.1134	.2522	.01
323.15	.0473	.2907	.01
323.15	0	.3178	.01
343.15	.6397	.03	.01
343.15	.6397	.03	.01
343.15	.5704	.0497	.01
343.15	.4983	.072	.01
343.15	.4254	.1012	.01
343.15	.3728	.1238	.01
343.15	.3194	.1475	.01
343.15	.2678	.1725	.01
343.15	.2146	.1971	.01
343.15	.1648	.2229	.01
343.15	.1031	.2541	.01
343.15	.0565	.2766	.01
343.15	.0308	.2921	.01
343.15	0	.3056	.01

System: sodium dihydrogen phosphate anhydrous + water + sodium sulfate; phases: Liquid, Crystal
Fixed: Temperature, K = 343.15
Fixed: Pressure, kPa = 100
Property: Mass fraction of sodium sulfate (Liquid); method: Titration method
Mass fraction of sodium dihydrogen phosphate anhydrous	Mass fraction of sodium sulfate	uncertainty
.662	0	.01
.6546	.0088	.01
.6463	.0206	.01
.6397	.03	.01
.6397	.03	.01

System: sodium dihydrogen phosphate anhydrous + water; phases: Liquid, Crystal of intercomponent compound 1
Property: Mass fraction of sodium dihydrogen phosphate anhydrous (Liquid); method: Titration method
Temperature, K	Pressure, kPa	Mass fraction of sodium dihydrogen phosphate anhydrous	uncertainty
323.15	100	.6143	.01

System: sodium dihydrogen phosphate anhydrous + water; phases: Liquid, Crystal
Property: Mass fraction of sodium dihydrogen phosphate anhydrous (Liquid); method: Titration method
Temperature, K	Pressure, kPa	Mass fraction of sodium dihydrogen phosphate anhydrous	uncertainty
343.15	100	.662	.01

System: water + sodium sulfate; phases: Liquid, Crystal
Property: Mass fraction of sodium sulfate (Liquid); method: Titration method
Temperature, K	Pressure, kPa	Mass fraction of sodium sulfate	uncertainty
323.15	100	.3178	.01
343.15	100	.3056	.01
