Measured thermophysical data. Phase Equilibria for Perfluoroethane + (n-Perfluorohexane or n-Perfluorooctane) Binary Systems: Measurement and Modeling
Source: J. Chem. Eng. Data, 2016, 10.1021/acs.jced.6b00409
Compound 1: hexafluoroethane, C2F6
Compound 2: perfluorohexane, C6F14, purity 99%
Compound 3: perfluorooctane, C8F18, purity 99%

System: hexafluoroethane; phases: Liquid, Gas
Property: Vapor or sublimation pressure, kPa (Liquid); method: Closed cell (Static) method
Temperature, K	Vapor or sublimation pressure, kPa	uncertainty
258.55	1240	
260.26	1300	
262.75	1390	
264.72	1480	
266.78	1550	
268.76	1650	
270.81	1730	
272.77	1830	
276.28	2000	
279.3	2160	
282.31	2330	
284.83	2470	

System: perfluorohexane; phases: Liquid
Fixed: Pressure, kPa = 101.325
Property: Mass density, kg/m3 (Liquid); method: Vibrating tube method
Temperature, K	Mass density, kg/m3	uncertainty
298.15	1667	1

System: perfluorohexane; phases: Liquid
Fixed: Pressure, kPa = 101.325
Property: Refractive index (Na D-line) (Liquid); method: Standard Abbe refractometry
Temperature, K	Refractive index (Na D-line)	uncertainty
293.15	1.253	.001

System: perfluorohexane; phases: Liquid, Gas
Property: Vapor or sublimation pressure, kPa (Liquid); method: Closed cell (Static) method
Temperature, K	Vapor or sublimation pressure, kPa	uncertainty
277.74	11	
282.73	14.24	
287.77	18.23	
292.74	23.03	
297.71	28.8	
302.73	35.76	
307.72	43.95	
312.71	53.55	
317.71	64.72	
322.72	77.66	

System: perfluorooctane; phases: Liquid
Fixed: Pressure, kPa = 101.325
Property: Mass density, kg/m3 (Liquid); method: Vibrating tube method
Temperature, K	Mass density, kg/m3	uncertainty
298.15	1755	1

System: perfluorooctane; phases: Liquid
Fixed: Pressure, kPa = 101.325
Property: Refractive index (Na D-line) (Liquid); method: Standard Abbe refractometry
Temperature, K	Refractive index (Na D-line)	uncertainty
293.15	1.268	.001

System: perfluorooctane; phases: Liquid, Gas
Property: Vapor or sublimation pressure, kPa (Liquid); method: Closed cell (Static) method
Temperature, K	Vapor or sublimation pressure, kPa	uncertainty
277.72	1.07	
282.74	1.58	
292.72	2.85	
302.65	4.87	
307.64	6.14	
317.78	9.85	
327.84	15.53	
332.87	19.23	
337.88	23.76	
347.85	35.15	

System: hexafluoroethane + perfluorohexane; phases: Liquid, Gas
Property: Vapor or sublimation pressure, kPa (Liquid); method: Closed cell (Static) method
Mole fraction of hexafluoroethane	Temperature, K	Vapor or sublimation pressure, kPa	uncertainty
.304	272.8	470	
.393	272.8	620	
.48	272.8	770	
.566	272.8	920	
.648	272.8	1070	
.724	272.8	1210	
.798	272.8	1360	
.868	272.8	1510	
.953	272.8	1700	
.237	282.85	450	
.35	282.85	670	
.455	282.85	890	
.542	282.85	1090	
.627	282.85	1300	
.709	282.85	1490	
.788	282.85	1690	
.865	282.85	1890	
.933	282.85	2090	
.951	282.85	2160	
.194	292.87	440	
.296	292.87	680	
.397	292.87	940	
.482	292.87	1170	
.565	292.87	1410	
.648	292.87	1640	
.726	292.87	1870	
.8	292.87	2100	
.863	292.87	2330	
.928	292.87	2590	
.166	302.9	460	
.27	302.9	740	
.351	302.9	990	
.435	302.9	1260	
.517	302.9	1530	
.598	302.9	1800	
.674	302.9	2070	
.759	302.9	2380	
.853	302.9	2780	
.92	302.9	3110	
.135	312.92	450	
.204	312.92	670	
.261	312.92	860	
.314	312.92	1040	
.391	312.92	1330	
.473	312.92	1640	
.547	312.92	1930	
.621	312.92	2230	
.696	312.92	2540	
.76	312.92	2830	
.827	312.92	3150	

System: hexafluoroethane + perfluorohexane; phases: Gas, Liquid
Property: Mole fraction of hexafluoroethane (Gas); method: Chromatography
Mole fraction of hexafluoroethane	Temperature, K	Mole fraction of hexafluoroethane	uncertainty
.304	272.8	.9825	
.393	272.8	.9862	
.48	272.8	.9891	
.566	272.8	.9915	
.648	272.8	.9929	
.724	272.8	.994	
.798	272.8	.995	
.868	272.8	.9964	
.953	272.8	.9985	
.237	282.85	.9669	
.35	282.85	.9775	
.455	282.85	.9832	
.542	282.85	.9867	
.627	282.85	.9888	
.709	282.85	.9908	
.788	282.85	.9924	
.865	282.85	.9944	
.933	282.85	.9956	
.951	282.85	.9969	
.194	292.87	.945	
.296	292.87	.963	
.397	292.87	.9728	
.482	292.87	.9784	
.565	292.87	.9815	
.648	292.87	.9844	
.726	292.87	.9872	
.8	292.87	.9888	
.863	292.87	.9905	
.928	292.87	.9925	
.166	302.9	.918	
.27	302.9	.946	
.351	302.9	.959	
.435	302.9	.9677	
.517	302.9	.9719	
.598	302.9	.9761	
.674	302.9	.9791	
.759	302.9	.9812	
.853	302.9	.9819	
.92	302.9	.9831	
.135	312.92	.874	
.204	312.92	.914	
.261	312.92	.93	
.314	312.92	.94	
.391	312.92	.951	
.473	312.92	.959	
.547	312.92	.964	
.621	312.92	.9678	
.696	312.92	.968	
.76	312.92	.969	
.827	312.92	.969	

System: hexafluoroethane + perfluorooctane; phases: Liquid, Gas
Property: Vapor or sublimation pressure, kPa (Liquid); method: Closed cell (Static) method
Mole fraction of hexafluoroethane	Temperature, K	Vapor or sublimation pressure, kPa	uncertainty
.253	282.89	470	
.336	282.89	650	
.422	282.89	830	
.5	282.89	1010	
.577	282.89	1190	
.655	282.89	1380	
.733	282.89	1580	
.803	282.89	1750	
.853	282.89	1880	
.885	282.89	1970	
.927	282.89	2080	
.957	282.89	2190	
.205	292.92	460	
.299	292.92	690	
.377	292.92	890	
.452	292.92	1090	
.52	292.92	1290	
.591	292.92	1500	
.671	292.92	1750	
.744	292.92	1980	
.838	292.92	2280	
.881	292.92	2430	
.916	292.92	2560	
.953	292.92	2720	
.175	302.95	460	
.26	302.95	700	
.342	302.95	950	
.421	302.95	1200	
.497	302.95	1470	
.574	302.95	1740	
.648	302.95	2020	
.723	302.95	2310	
.801	302.95	2620	
.875	302.95	2940	
.901	302.95	3050	
.948	302.95	3300	
.154	312.95	470	
.236	312.95	740	
.318	312.95	1030	
.391	312.95	1290	
.465	312.95	1590	
.542	312.95	1910	
.612	312.95	2220	
.678	312.95	2520	
.742	312.95	2820	
.809	312.95	3150	
.87	312.95	3470	
.946	312.95	3870	

System: hexafluoroethane + perfluorooctane; phases: Gas, Liquid
Property: Mole fraction of hexafluoroethane (Gas); method: Chromatography
Mole fraction of hexafluoroethane	Temperature, K	Mole fraction of hexafluoroethane	uncertainty
.253	282.89	.9959	
.336	282.89	.9965	
.422	282.89	.997	
.5	282.89	.9975	
.577	282.89	.9978	
.655	282.89	.9979	
.733	282.89	.998	
.803	282.89	.9982	
.853	282.89	.9983	
.885	282.89	.9985	
.927	282.89	.9988	
.957	282.89	.9992	
.205	292.92	.9919	
.299	292.92	.9942	
.377	292.92	.995	
.452	292.92	.9953	
.52	292.92	.9959	
.591	292.92	.9962	
.671	292.92	.9967	
.744	292.92	.997	
.838	292.92	.9971	
.881	292.92	.997	
.916	292.92	.9974	
.953	292.92	.9976	
.175	302.95	.985	
.26	302.95	.9889	
.342	302.95	.9915	
.421	302.95	.9926	
.497	302.95	.9934	
.574	302.95	.994	
.648	302.95	.9943	
.723	302.95	.9945	
.801	302.95	.9943	
.875	302.95	.9939	
.901	302.95	.9934	
.948	302.95	.9923	
.154	312.95	.9777	
.236	312.95	.9839	
.318	312.95	.9872	
.391	312.95	.9885	
.465	312.95	.9898	
.542	312.95	.9906	
.612	312.95	.9909	
.678	312.95	.9907	
.742	312.95	.9904	
.809	312.95	.9892	
.87	312.95	.988	
.946	312.95	.9791	
