Measured thermophysical data. Solubility of Carbon Dioxide in Aqueous Solutions of Three Secondary Amines: 2-(Butylamino)ethanol, 2-(Isopropylamino)ethanol, and 2-(Ethylamino)ethanol Secondary Alkanolamine Solutions
Source: J. Chem. Eng. Data, 2017, 10.1021/acs.jced.7b00364
Compound 1: 2-(butylamino)ethanol, C6H15NO, purity 98%
Compound 2: 2-isopropylaminoethanol, C5H13NO, purity 99%
Compound 3: 2-(ethylamino)ethanol, C4H11NO, purity 99%
Compound 4: monoethanolamine, C2H7NO, purity 99%
Compound 5: water, H2O, purity 99.9%
Compound 6: carbon dioxide, CO2, purity 99.999%

System: 2-(butylamino)ethanol + water + carbon dioxide; phases: Liquid, Gas
Property: Mole fraction of carbon dioxide (Liquid); method: Phase equilibration
Mole fraction of 2-(butylamino)ethanol	Partial pressure, kPa of carbon dioxide	Temperature, K	Mole fraction of carbon dioxide	uncertainty
.0263	.04	313.15	.0052	
.0261	.32	313.15	.0103	
.026	3.09	313.15	.0167	
.0259	11.09	313.15	.0205	
.0258	32.12	313.15	.0236	
.0257	63.42	313.15	.0256	
.0263	1.32	353.15	.004	
.0262	3.57	353.15	.0074	
.0261	9.63	353.15	.011	
.026	23.93	353.15	.0144	
.0259	52.61	353.15	.0175	
.0259	96.41	353.15	.0197	
.0258	152.81	353.15	.0214	
.0263	11.79	393.15	.0038	
.0262	43.71	393.15	.0074	
.0262	76.28	393.15	.0097	
.0261	103.76	393.15	.011	
.0261	167.58	393.15	.0133	
.026	222.89	393.15	.0147	
.026	313.14	393.15	.0164	
.026	348.24	393.15	.0171	
.0612	.07	313.15	.0106	
.0611	.08	313.15	.0118	
.0605	.51	313.15	.0216	
.06	2.8	313.15	.0301	
.0596	7.82	313.15	.0355	
.0594	16.05	313.15	.0395	
.059	43.6	313.15	.0457	
.0587	97.35	313.15	.0504	
.0614	1.06	353.15	.0074	
.061	3.08	353.15	.0125	
.0609	4.63	353.15	.0152	
.0606	10.22	353.15	.0203	
.0602	23.67	353.15	.0262	
.06	36.78	353.15	.0294	
.0596	80.8	353.15	.0351	
.0595	109.8	353.15	.0375	
.0594	133.36	353.15	.0392	
.0615	10.81	393.15	.0047	
.0613	24.41	393.15	.0079	
.0611	46.66	393.15	.0114	
.0609	76.14	393.15	.0147	
.0608	102.46	393.15	.0167	
.0606	124.55	393.15	.0188	
.0605	161.61	393.15	.0212	
.0604	192.22	393.15	.0231	

System: 2-isopropylaminoethanol + water + carbon dioxide; phases: Liquid, Gas
Property: Mole fraction of carbon dioxide (Liquid); method: Phase equilibration
Mole fraction of 2-isopropylaminoethanol	Partial pressure, kPa of carbon dioxide	Temperature, K	Mole fraction of carbon dioxide	uncertainty
.0298	.02	313.15	.0038	
.0296	.23	313.15	.01	
.0293	2.7	313.15	.0184	
.0292	12.5	313.15	.0241	
.0291	79.95	313.15	.028	
.029	156.1	313.15	.0287	
.0297	3.69	353.15	.0079	
.0295	9.56	353.15	.0123	
.0294	17.19	353.15	.0155	
.0293	34.28	353.15	.0191	
.0292	61.38	353.15	.022	
.0292	96.93	353.15	.024	
.0291	154.08	353.15	.0257	
.0298	15.34	393.15	.0046	
.0297	44	393.15	.008	
.0296	77.45	393.15	.0108	
.0295	108.08	393.15	.0127	
.0295	154.33	393.15	.0149	
.0294	209.07	393.15	.0168	
.0293	327.76	393.15	.0196	
.0292	394.96	393.15	.0209	
.0691	.05	313.15	.0079	
.0684	.29	313.15	.0181	
.0672	2.58	313.15	.0348	
.0669	4.35	313.15	.0393	
.0665	8.73	313.15	.0453	
.0658	29.31	313.15	.0544	
.0655	62.84	313.15	.0588	
.0692	1.27	353.15	.0062	
.0688	3.31	353.15	.0114	
.0687	4.97	353.15	.014	
.0684	7.54	353.15	.017	
.0682	10.62	353.15	.0205	
.0679	15.27	353.15	.0256	
.0674	25.57	353.15	.0316	
.0671	36.36	353.15	.0359	
.0667	63.01	353.15	.0423	
.0692	17.11	393.15	.0062	
.0688	47.58	393.15	.0113	
.0686	79.42	393.15	.015	
.0683	114.78	393.15	.0185	
.0681	156.42	393.15	.0221	
.0678	224.69	393.15	.0267	
.0676	272.87	393.15	.0298	

System: 2-(ethylamino)ethanol + water + carbon dioxide; phases: Liquid, Gas
Property: Mole fraction of carbon dioxide (Liquid); method: Phase equilibration
Mole fraction of 2-(ethylamino)ethanol	Partial pressure, kPa of carbon dioxide	Temperature, K	Mole fraction of carbon dioxide	uncertainty
.0341	.06	313.15	.0088	
.034	.19	313.15	.0121	
.0337	2.94	313.15	.0213	
.0336	6.42	313.15	.0245	
.0335	12.37	313.15	.0272	
.0334	26.12	313.15	.0299	
.0333	51.66	313.15	.0321	
.0332	146.24	313.15	.0347	
.0332	197.95	313.15	.0353	
.0342	1.64	353.15	.0072	
.0341	3.49	353.15	.0105	
.034	6.45	353.15	.0135	
.0338	15.04	353.15	.0174	
.0337	27.19	353.15	.02	
.0337	46.96	353.15	.0225	
.0336	90.81	353.15	.0254	
.0335	153.16	353.15	.0275	
.0343	4.84	393.15	.0042	
.0342	13.69	393.15	.0072	
.0341	31.71	393.15	.0103	
.0339	72.98	393.15	.0142	
.0339	103.2	393.15	.0162	
.0338	141.48	393.15	.0181	
.0337	200.6	393.15	.0201	
.0337	251.63	393.15	.0215	
.0786	.04	313.15	.0145	
.0778	.17	313.15	.0237	
.0761	4.74	313.15	.0448	
.0759	7.21	313.15	.0482	
.0755	13.42	313.15	.0531	
.0752	19.98	313.15	.0561	
.0749	34.36	313.15	.0604	
.0746	52.85	313.15	.0636	
.0743	92.57	313.15	.0675	
.0787	1.51	353.15	.0129	
.0783	2.64	353.15	.0178	
.0779	4.2	353.15	.0226	
.0776	6.28	353.15	.0266	
.0772	11.58	353.15	.0317	
.0769	17.9	353.15	.0354	
.0765	32.7	353.15	.0402	
.0762	54.7	353.15	.0443	
.0757	120.5	353.15	.0507	
.0793	3.37	393.15	.0049	
.079	10.15	393.15	.0089	
.0787	18.75	393.15	.0131	
.0784	27.32	393.15	.0165	
.078	45.03	393.15	.0214	
.0778	61.53	393.15	.0246	
.0776	80.48	393.15	.0269	
.0774	105.39	393.15	.0295	
.077	152.6	393.15	.0338	
.0768	194.55	393.15	.036	
