Measured thermophysical data. Intermolecular Interactions of L-glutamine and L-histidine in Aqueous Solutions of Metformin hydrochloride: Volumetric, Compressibility and Viscometric Studies
Source: J. Chem. Eng. Data, 2016, 10.1021/acs.jced.5b00549
Compound 1: glutamine, L-, C5H10N2O3, purity 99%
Compound 2: L-histidine, C6H9N3O2, purity 99%
Compound 3: N,N-dimethylimidodicarbonimidic diamide hydrochloride, C4H12ClN5, purity 99%
Compound 4: water, H2O, purity 99.8%

System: glutamine, L- + N,N-dimethylimidodicarbonimidic diamide hydrochloride + water; phases: Liquid
Fixed: Pressure, kPa = 100
Property: Mass density, kg/m3 (Liquid); method: Vibrating tube method
Solvent: Molality, mol/kg of N,N-dimethylimidodicarbonimidic diamide hydrochloride	Temperature, K	Molality, mol/kg of glutamine, L-	Mass density, kg/m3	uncertainty
0	293.15	.02	999.262	.08
0	293.15	.04	1000.319	.08
0	293.15	.06	1001.379	.08
0	293.15	.08	1002.44	.08
0	293.15	.1	1003.504	.08
0	293.15	.12	1004.568	.08
0	293.15	.14	1005.633	.08
0	293.15	.16	1006.693	.08
0	293.15	.18	1007.765	.08
0	293.15	.2	1008.823	.08
0	298.15	.02	998.094	.08
0	298.15	.04	999.147	.08
0	298.15	.06	1000.201	.08
0	298.15	.08	1001.256	.08
0	298.15	.1	1002.315	.08
0	298.15	.12	1003.371	.08
0	298.15	.14	1004.431	.08
0	298.15	.16	1005.494	.08
0	298.15	.18	1006.559	.08
0	298.15	.2	1007.625	.08
0	303.15	.02	996.679	.08
0	303.15	.04	997.722	.08
0	303.15	.06	998.771	.08
0	303.15	.08	999.819	.08
0	303.15	.1	1000.868	.08
0	303.15	.12	1001.916	.08
0	303.15	.14	1002.971	.08
0	303.15	.16	1004.023	.08
0	303.15	.18	1005.091	.08
0	303.15	.2	1006.144	.08
0	308.15	.02	995.051	.08
0	308.15	.04	996.088	.08
0	308.15	.06	997.129	.08
0	308.15	.08	998.171	.08
0	308.15	.1	999.218	.08
0	308.15	.12	1000.265	.08
0	308.15	.14	1001.309	.08
0	308.15	.16	1002.359	.08
0	308.15	.18	1003.412	.08
0	308.15	.2	1004.482	.08
0	313.15	.02	993.226	.08
0	313.15	.04	994.257	.08
0	313.15	.06	995.294	.08
0	313.15	.08	996.332	.08
0	313.15	.1	997.372	.08
0	313.15	.12	998.413	.08
0	313.15	.14	999.457	.08
0	313.15	.16	1000.499	.08
0	313.15	.18	1001.561	.08
0	313.15	.2	1002.601	.08
.01	293.15	0	998.57	.08
.01	293.15	.02	999.553	.08
.01	293.15	.04	1000.553	.08
.01	293.15	.06	1001.568	.08
.01	293.15	.08	1002.599	.08
.01	293.15	.1	1003.649	.08
.01	293.15	.12	1004.719	.08
.01	293.15	.14	1005.813	.08
.01	293.15	.16	1006.922	.08
.01	293.15	.18	1008.025	.08
.01	293.15	.2	1009.157	.08
.01	298.15	0	997.402	.08
.01	298.15	.02	998.374	.08
.01	298.15	.04	999.361	.08
.01	298.15	.06	1000.369	.08
.01	298.15	.08	1001.388	.08
.01	298.15	.1	1002.429	.08
.01	298.15	.12	1003.489	.08
.01	298.15	.14	1004.578	.08
.01	298.15	.16	1005.668	.08
.01	298.15	.18	1006.791	.08
.01	298.15	.2	1007.943	.08
.01	303.15	0	995.993	.08
.01	303.15	.02	996.948	.08
.01	303.15	.04	997.929	.08
.01	303.15	.06	998.915	.08
.01	303.15	.08	999.922	.08
.01	303.15	.1	1000.954	.08
.01	303.15	.12	1002.006	.08
.01	303.15	.14	1003.084	.08
.01	303.15	.16	1004.157	.08
.01	303.15	.18	1005.269	.08
.01	303.15	.2	1006.428	.08
.01	308.15	0	994.369	.08
.01	308.15	.02	995.309	.08
.01	308.15	.04	996.278	.08
.01	308.15	.06	997.255	.08
.01	308.15	.08	998.261	.08
.01	308.15	.1	999.284	.08
.01	308.15	.12	1000.307	.08
.01	308.15	.14	1001.361	.08
.01	308.15	.16	1002.436	.08
.01	308.15	.18	1003.548	.08
.01	308.15	.2	1004.698	.08
.01	313.15	0	992.542	.08
.01	313.15	.02	993.475	.08
.01	313.15	.04	994.421	.08
.01	313.15	.06	995.391	.08
.01	313.15	.08	996.387	.08
.01	313.15	.1	997.379	.08
.01	313.15	.12	998.405	.08
.01	313.15	.14	999.458	.08
.01	313.15	.16	1000.503	.08
.01	313.15	.18	1001.648	.08
.01	313.15	.2	1002.787	.08
.07	293.15	0	1000.829	.08
.07	293.15	.02	1001.78	.08
.07	293.15	.04	1002.747	.08
.07	293.15	.06	1003.731	.08
.07	293.15	.08	1004.739	.08
.07	293.15	.1	1005.761	.08
.07	293.15	.12	1006.796	.08
.07	293.15	.14	1007.859	.08
.07	293.15	.16	1008.928	.08
.07	293.15	.18	1010.027	.08
.07	293.15	.2	1011.123	.08
.07	298.15	0	999.633	.08
.07	298.15	.02	1000.577	.08
.07	298.15	.04	1001.539	.08
.07	298.15	.06	1002.518	.08
.07	298.15	.08	1003.516	.08
.07	298.15	.1	1004.524	.08
.07	298.15	.12	1005.558	.08
.07	298.15	.14	1006.616	.08
.07	298.15	.16	1007.692	.08
.07	298.15	.18	1008.776	.08
.07	298.15	.2	1009.888	.08
.07	303.15	0	998.2	.08
.07	303.15	.02	999.128	.08
.07	303.15	.04	1000.08	.08
.07	303.15	.06	1001.056	.08
.07	303.15	.08	1002.046	.08
.07	303.15	.1	1003.056	.08
.07	303.15	.12	1004.088	.08
.07	303.15	.14	1005.138	.08
.07	303.15	.16	1006.2	.08
.07	303.15	.18	1007.276	.08
.07	303.15	.2	1008.378	.08
.07	308.15	0	996.524	.08
.07	308.15	.02	997.441	.08
.07	308.15	.04	998.392	.08
.07	308.15	.06	999.354	.08
.07	308.15	.08	1000.34	.08
.07	308.15	.1	1001.359	.08
.07	308.15	.12	1002.384	.08
.07	308.15	.14	1003.423	.08
.07	308.15	.16	1004.489	.08
.07	308.15	.18	1005.569	.08
.07	308.15	.2	1006.692	.08
.07	313.15	0	994.71	.08
.07	313.15	.02	995.624	.08
.07	313.15	.04	996.566	.08
.07	313.15	.06	997.531	.08
.07	313.15	.08	998.526	.08
.07	313.15	.1	999.527	.08
.07	313.15	.12	1000.548	.08
.07	313.15	.14	1001.587	.08
.07	313.15	.16	1002.655	.08
.07	313.15	.18	1003.738	.08
.07	313.15	.2	1004.859	.08
.13	293.15	0	1003.134	.08
.13	293.15	.02	1003.82	.08
.13	293.15	.04	1005.033	.08
.13	293.15	.06	1005.999	.08
.13	293.15	.08	1007	.08
.13	293.15	.1	1008.019	.08
.13	293.15	.12	1009.055	.08
.13	293.15	.14	1010.164	.08
.13	293.15	.16	1011.316	.08
.13	293.15	.18	1012.468	.08
.13	293.15	.2	1013.675	.08
.13	298.15	0	1001.905	.08
.13	298.15	.02	1002.831	.08
.13	298.15	.04	1003.771	.08
.13	298.15	.06	1004.721	.08
.13	298.15	.08	1005.688	.08
.13	298.15	.1	1006.688	.08
.13	298.15	.12	1007.697	.08
.13	298.15	.14	1008.768	.08
.13	298.15	.16	1009.821	.08
.13	298.15	.18	1010.936	.08
.13	298.15	.2	1012.098	.08
.13	303.15	0	1000.448	.08
.13	303.15	.02	1001.35	.08
.13	303.15	.04	1002.28	.08
.13	303.15	.06	1003.218	.08
.13	303.15	.08	1004.178	.08
.13	303.15	.1	1005.169	.08
.13	303.15	.12	1006.146	.08
.13	303.15	.14	1007.156	.08
.13	303.15	.16	1008.231	.08
.13	303.15	.18	1009.255	.08
.13	303.15	.2	1010.341	.08
.13	308.15	0	998.785	.08
.13	308.15	.02	999.678	.08
.13	308.15	.04	1000.589	.08
.13	308.15	.06	1001.518	.08
.13	308.15	.08	1002.462	.08
.13	308.15	.1	1003.416	.08
.13	308.15	.12	1004.404	.08
.13	308.15	.14	1005.404	.08
.13	308.15	.16	1006.412	.08
.13	308.15	.18	1007.436	.08
.13	308.15	.2	1008.507	.08
.13	313.15	0	996.926	.08
.13	313.15	.02	997.812	.08
.13	313.15	.04	998.715	.08
.13	313.15	.06	999.629	.08
.13	313.15	.08	1000.581	.08
.13	313.15	.1	1001.512	.08
.13	313.15	.12	1002.478	.08
.13	313.15	.14	1003.489	.08
.13	313.15	.16	1004.532	.08
.13	313.15	.18	1005.566	.08
.13	313.15	.2	1006.601	.08

System: glutamine, L- + N,N-dimethylimidodicarbonimidic diamide hydrochloride + water; phases: Liquid
Fixed: Pressure, kPa = 100
Fixed: Frequency, MHz = 3
Property: Speed of sound, m/s (Liquid); method: Sing-around technique in a fixed-path interferometer
Solvent: Molality, mol/kg of N,N-dimethylimidodicarbonimidic diamide hydrochloride	Temperature, K	Molality, mol/kg of glutamine, L-	Speed of sound, m/s	uncertainty
0	293.15	.02	1483.95	.2
0	293.15	.04	1485.35	.2
0	293.15	.06	1486.86	.2
0	293.15	.08	1488.42	.2
0	293.15	.1	1490.07	.2
0	293.15	.12	1491.77	.2
0	293.15	.14	1493.53	.2
0	293.15	.16	1495.28	.2
0	293.15	.18	1497.18	.2
0	293.15	.2	1498.97	.2
.01	293.15	0	1483.3	.2
.01	293.15	.02	1484.62	.2
.01	293.15	.04	1486.03	.2
.01	293.15	.06	1487.55	.2
.01	293.15	.08	1489.18	.2
.01	293.15	.1	1491	.2
.01	293.15	.12	1492.91	.2
.01	293.15	.14	1494.84	.2
.01	293.15	.16	1496.95	.2
.01	293.15	.18	1498.99	.2
.01	293.15	.2	1501.25	.2
.07	293.15	0	1490.25	.2
.07	293.15	.02	1491.58	.2
.07	293.15	.04	1493.01	.2
.07	293.15	.06	1494.51	.2
.07	293.15	.08	1496.08	.2
.07	293.15	.1	1497.81	.2
.07	293.15	.12	1499.57	.2
.07	293.15	.14	1501.35	.2
.07	293.15	.16	1503.21	.2
.07	293.15	.18	1505.19	.2
.07	293.15	.2	1507.35	.2
.13	293.15	0	1496.33	.2
.13	293.15	.02	1497.67	.2
.13	293.15	.04	1499.07	.2
.13	293.15	.06	1500.54	.2
.13	293.15	.08	1502.05	.2
.13	293.15	.1	1503.64	.2
.13	293.15	.12	1505.44	.2
.13	293.15	.14	1507.23	.2
.13	293.15	.16	1508.95	.2
.13	293.15	.18	1510.74	.2
.13	293.15	.2	1512.59	.2
0	298.15	.02	1497.98	.2
0	298.15	.04	1499.32	.2
0	298.15	.06	1500.78	.2
0	298.15	.08	1502.29	.2
0	298.15	.1	1503.91	.2
0	298.15	.12	1505.59	.2
0	298.15	.14	1507.28	.2
0	298.15	.16	1508.98	.2
0	298.15	.18	1510.73	.2
0	298.15	.2	1512.64	.2
.01	298.15	0	1497.34	.2
.01	298.15	.02	1498.6	.2
.01	298.15	.04	1500.01	.2
.01	298.15	.06	1501.52	.2
.01	298.15	.08	1503.18	.2
.01	298.15	.1	1504.87	.2
.01	298.15	.12	1506.74	.2
.01	298.15	.14	1508.58	.2
.01	298.15	.16	1510.76	.2
.01	298.15	.18	1512.82	.2
.01	298.15	.2	1515.14	.2
.07	298.15	0	1503.88	.2
.07	298.15	.02	1505.15	.2
.07	298.15	.04	1506.51	.2
.07	298.15	.06	1508.06	.2
.07	298.15	.08	1509.65	.2
.07	298.15	.1	1511.35	.2
.07	298.15	.12	1513.11	.2
.07	298.15	.14	1514.88	.2
.07	298.15	.16	1516.78	.2
.07	298.15	.18	1518.78	.2
.07	298.15	.2	1520.98	.2
.13	298.15	0	1509.67	.2
.13	298.15	.02	1510.94	.2
.13	298.15	.04	1512.3	.2
.13	298.15	.06	1513.76	.2
.13	298.15	.08	1515.35	.2
.13	298.15	.1	1517.03	.2
.13	298.15	.12	1518.78	.2
.13	298.15	.14	1520.5	.2
.13	298.15	.16	1522.33	.2
.13	298.15	.18	1523.99	.2
.13	298.15	.2	1525.99	.2
0	303.15	.04	1511.58	.2
0	303.15	.06	1513	.2
0	303.15	.08	1514.47	.2
0	303.15	.1	1516.05	.2
0	303.15	.12	1517.65	.2
0	303.15	.14	1519.36	.2
0	303.15	.16	1521	.2
0	303.15	.18	1522.68	.2
0	303.15	.2	1524.48	.2
0	303.15	.02	1510.29	.2
.01	303.15	0	1509.68	.2
.01	303.15	.02	1510.89	.2
.01	303.15	.04	1512.25	.2
.07	303.15	0	1515.76	.2
.07	303.15	.02	1517	.2
.07	303.15	.04	1518.34	.2
.07	303.15	.06	1519.8	.2
.07	303.15	.08	1521.33	.2
.07	303.15	.1	1522.92	.2
.07	303.15	.12	1524.66	.2
.07	303.15	.14	1526.44	.2
.07	303.15	.16	1528.35	.2
.07	303.15	.18	1530.28	.2
.07	303.15	.2	1532.39	.2
.01	303.15	.06	1513.75	.2
.01	303.15	.08	1515.4	.2
.01	303.15	.1	1517	.2
.01	303.15	.12	1518.78	.2
.01	303.15	.14	1520.57	.2
.01	303.15	.16	1522.62	.2
.01	303.15	.18	1524.59	.2
.01	303.15	.2	1526.73	.2
.13	303.15	0	1521.33	.2
.13	303.15	.02	1522.58	.2
.13	303.15	.04	1523.87	.2
.13	303.15	.06	1525.31	.2
.13	303.15	.08	1526.8	.2
.13	303.15	.1	1528.35	.2
.13	303.15	.12	1529.94	.2
.13	303.15	.14	1531.72	.2
.13	303.15	.16	1533.39	.2
.13	303.15	.18	1535.38	.2
.13	303.15	.2	1537.35	.2
.01	308.15	.06	1524.3	.2
.01	308.15	.08	1525.74	.2
.01	308.15	.1	1527.39	.2
.01	308.15	.12	1529.33	.2
.01	308.15	.14	1531.17	.2
.07	308.15	0	1526.05	.2
.07	308.15	.02	1527.2	.2
.07	308.15	.04	1528.53	.2
.07	308.15	.06	1530.01	.2
.07	308.15	.08	1531.55	.2
.07	308.15	.1	1533.18	.2
.07	308.15	.12	1534.85	.2
.07	308.15	.14	1536.62	.2
.07	308.15	.16	1538.36	.2
.07	308.15	.18	1540.43	.2
.07	308.15	.2	1542.42	.2
0	308.15	.06	1523.6	.2
0	308.15	.08	1524.98	.2
0	308.15	.1	1526.51	.2
0	308.15	.12	1528.13	.2
0	308.15	.14	1529.76	.2
0	308.15	.16	1531.38	.2
0	308.15	.18	1533.14	.2
0	308.15	.2	1534.83	.2
.01	308.15	.16	1533.22	.2
.01	308.15	.18	1535.25	.2
.01	308.15	.2	1537.29	.2
0	308.15	.02	1520.93	.2
0	308.15	.04	1522.19	.2
.01	308.15	0	1520.3	.2
.01	308.15	.02	1521.52	.2
.01	308.15	.04	1522.83	.2
.13	308.15	0	1531.34	.2
.13	308.15	.02	1532.56	.2
.13	308.15	.04	1533.85	.2
.13	308.15	.06	1535.18	.2
.13	308.15	.08	1536.62	.2
.13	308.15	.1	1538.12	.2
.13	308.15	.12	1539.74	.2
.13	308.15	.14	1541.37	.2
.13	308.15	.16	1543.28	.2
.13	308.15	.18	1545.09	.2
.13	308.15	.2	1546.99	.2
.07	313.15	.1	1541.69	.2
.07	313.15	.12	1543.26	.2
.01	313.15	0	1529.37	.2
.07	313.15	.14	1544.89	.2
.07	313.15	.16	1546.69	.2
0	313.15	.2	1543.65	.2
0	313.15	.08	1533.99	.2
.07	313.15	.18	1548.68	.2
.07	313.15	.2	1550.59	.2
.01	313.15	.14	1539.97	.2
0	313.15	.1	1535.49	.2
0	313.15	.12	1537.06	.2
.01	313.15	.02	1530.54	.2
0	313.15	.14	1538.63	.2
0	313.15	.16	1540.29	.2
0	313.15	.18	1541.99	.2
.01	313.15	.04	1531.87	.2
.01	313.15	.06	1533.3	.2
.01	313.15	.08	1534.91	.2
.01	313.15	.1	1536.61	.2
.01	313.15	.12	1538.31	.2
.01	313.15	.16	1542.05	.2
.01	313.15	.18	1543.82	.2
.01	313.15	.2	1545.91	.2
.07	313.15	0	1534.81	.2
.07	313.15	.02	1535.98	.2
.07	313.15	.04	1537.25	.2
.07	313.15	.06	1538.67	.2
0	313.15	.02	1530	.2
0	313.15	.04	1531.28	.2
0	313.15	.06	1532.64	.2
.07	313.15	.08	1540.12	.2
.13	313.15	0	1539.84	.2
.13	313.15	.02	1541.02	.2
.13	313.15	.04	1542.25	.2
.13	313.15	.06	1543.62	.2
.13	313.15	.08	1545	.2
.13	313.15	.1	1546.49	.2
.13	313.15	.12	1547.99	.2
.13	313.15	.14	1549.49	.2
.13	313.15	.16	1551.09	.2
.13	313.15	.18	1552.79	.2
.13	313.15	.2	1554.87	.2

System: glutamine, L- + N,N-dimethylimidodicarbonimidic diamide hydrochloride + water; phases: Liquid
Fixed: Pressure, kPa = 100
Property: Viscosity, Pa*s (Liquid); method: Capillary tube (Ostwald; Ubbelohde) method
Solvent: Molality, mol/kg of N,N-dimethylimidodicarbonimidic diamide hydrochloride	Temperature, K	Molality, mol/kg of glutamine, L-	Viscosity, Pa*s	uncertainty
0	293.15	.02	.0010116	.00001
0	293.15	.04	.0010175	.00001
0	293.15	.06	.0010221	.00001
0	293.15	.08	.0010267	.00001
0	293.15	.1	.001031	.00001
0	293.15	.12	.0010349	.00001
0	293.15	.14	.0010389	.00001
0	293.15	.16	.0010432	.00001
0	293.15	.18	.0010472	.00001
0	293.15	.2	.0010512	.00001
0	298.15	.02	.0008984	.00001
0	298.15	.04	.0009028	.00001
0	298.15	.06	.0009067	.00001
0	298.15	.08	.0009104	.00001
0	298.15	.1	.0009143	.00001
0	298.15	.12	.0009175	.00001
0	298.15	.14	.0009212	.00001
0	298.15	.16	.0009246	.00001
0	298.15	.18	.0009277	.00001
0	298.15	.2	.0009308	.00001
0	303.15	.02	.0008039	.00001
0	303.15	.04	.0008076	.00001
0	303.15	.06	.0008109	.00001
0	303.15	.08	.0008141	.00001
0	303.15	.1	.000817	.00001
0	303.15	.12	.00082	.00001
0	303.15	.14	.0008224	.00001
0	303.15	.16	.0008254	.00001
0	303.15	.18	.0008283	.00001
0	303.15	.2	.0008316	.00001
0	308.15	.02	.0007243	.00001
0	308.15	.04	.0007275	.00001
0	308.15	.06	.0007302	.00001
0	308.15	.08	.0007329	.00001
0	308.15	.1	.0007352	.00001
0	308.15	.12	.0007379	.00001
0	308.15	.14	.0007405	.00001
0	308.15	.16	.0007425	.00001
0	308.15	.18	.0007448	.00001
0	308.15	.2	.0007469	.00001
0	313.15	.02	.0006569	.00001
0	313.15	.04	.0006595	.00001
0	313.15	.06	.0006621	.00001
0	313.15	.08	.0006638	.00001
0	313.15	.1	.000666	.00001
0	313.15	.12	.0006682	.00001
0	313.15	.14	.0006702	.00001
0	313.15	.16	.0006716	.00001
0	313.15	.18	.000674	.00001
0	313.15	.2	.0006759	.00001
.01	293.15	0	.0010099	.00001
.01	293.15	.02	.0010174	.00001
.01	293.15	.04	.001022	.00001
.01	293.15	.06	.001026	.00001
.01	293.15	.08	.0010301	.00001
.01	293.15	.1	.001034	.00001
.01	293.15	.12	.0010379	.00001
.01	293.15	.14	.0010415	.00001
.01	293.15	.16	.0010455	.00001
.01	293.15	.18	.0010487	.00001
.01	293.15	.2	.0010519	.00001
.01	298.15	0	.0008925	.00001
.01	298.15	.02	.0008983	.00001
.01	298.15	.04	.0009021	.00001
.01	298.15	.06	.0009057	.00001
.01	298.15	.08	.0009088	.00001
.01	298.15	.1	.0009121	.00001
.01	298.15	.12	.0009149	.00001
.01	298.15	.14	.0009179	.00001
.01	298.15	.16	.000921	.00001
.01	298.15	.18	.0009242	.00001
.01	298.15	.2	.0009273	.00001
.01	303.15	0	.0008013	.00001
.01	303.15	.02	.0008062	.00001
.01	303.15	.04	.0008093	.00001
.01	303.15	.06	.0008121	.00001
.01	303.15	.08	.0008149	.00001
.01	303.15	.1	.0008178	.00001
.01	303.15	.12	.0008202	.00001
.01	303.15	.14	.0008229	.00001
.01	303.15	.16	.0008257	.00001
.01	303.15	.18	.000828	.00001
.01	303.15	.2	.0008305	.00001
.01	308.15	0	.0007245	.00001
.01	308.15	.02	.0007286	.00001
.01	308.15	.04	.0007312	.00001
.01	308.15	.06	.0007337	.00001
.01	308.15	.08	.0007361	.00001
.01	308.15	.1	.0007387	.00001
.01	308.15	.12	.0007409	.00001
.01	308.15	.14	.000743	.00001
.01	308.15	.16	.0007447	.00001
.01	308.15	.18	.0007471	.00001
.01	308.15	.2	.0007497	.00001
.01	313.15	0	.0006566	.00001
.01	313.15	.02	.00066	.00001
.01	313.15	.04	.0006624	.00001
.01	313.15	.06	.0006645	.00001
.01	313.15	.08	.0006665	.00001
.01	313.15	.1	.0006685	.00001
.01	313.15	.12	.0006707	.00001
.01	313.15	.14	.0006726	.00001
.01	313.15	.16	.0006744	.00001
.01	313.15	.18	.0006762	.00001
.01	313.15	.2	.0006778	.00001
.07	293.15	0	.0010152	.00001
.07	293.15	.02	.0010234	.00001
.07	293.15	.04	.0010281	.00001
.07	293.15	.06	.0010327	.00001
.07	293.15	.08	.0010371	.00001
.07	293.15	.1	.0010409	.00001
.07	293.15	.12	.001045	.00001
.07	293.15	.14	.0010491	.00001
.07	293.15	.16	.0010533	.00001
.07	293.15	.18	.0010566	.00001
.07	293.15	.2	.0010605	.00001
.07	298.15	0	.000899	.00001
.07	298.15	.02	.0009055	.00001
.07	298.15	.04	.0009094	.00001
.07	298.15	.06	.0009131	.00001
.07	298.15	.08	.0009167	.00001
.07	298.15	.1	.0009203	.00001
.07	298.15	.12	.0009231	.00001
.07	298.15	.14	.000926	.00001
.07	298.15	.16	.0009298	.00001
.07	298.15	.18	.0009334	.00001
.07	298.15	.2	.0009368	.00001
.07	303.15	0	.0008074	.00001
.07	303.15	.02	.0008124	.00001
.07	303.15	.04	.0008157	.00001
.07	303.15	.06	.0008191	.00001
.07	303.15	.08	.0008219	.00001
.07	303.15	.1	.0008251	.00001
.07	303.15	.12	.0008278	.00001
.07	303.15	.14	.0008302	.00001
.07	303.15	.16	.0008326	.00001
.07	303.15	.18	.0008352	.00001
.07	303.15	.2	.0008382	.00001
.07	308.15	0	.0007285	.00001
.07	308.15	.02	.0007324	.00001
.07	308.15	.04	.0007352	.00001
.07	308.15	.06	.0007378	.00001
.07	308.15	.08	.0007402	.00001
.07	308.15	.1	.0007427	.00001
.07	308.15	.12	.000745	.00001
.07	308.15	.14	.0007472	.00001
.07	308.15	.16	.0007493	.00001
.07	308.15	.18	.0007518	.00001
.07	308.15	.2	.0007537	.00001
.07	313.15	0	.0006606	.00001
.07	313.15	.02	.0006637	.00001
.07	313.15	.04	.0006658	.00001
.07	313.15	.06	.0006682	.00001
.07	313.15	.08	.0006699	.00001
.07	313.15	.1	.000672	.00001
.07	313.15	.12	.0006739	.00001
.07	313.15	.14	.0006756	.00001
.07	313.15	.16	.0006777	.00001
.07	313.15	.18	.0006796	.00001
.07	313.15	.2	.0006819	.00001
.13	293.15	0	.0010185	.00001
.13	293.15	.02	.0010269	.00001
.13	293.15	.04	.0010317	.00001
.13	293.15	.06	.0010361	.00001
.13	293.15	.08	.0010406	.00001
.13	293.15	.1	.0010443	.00001
.13	293.15	.12	.0010488	.00001
.13	293.15	.14	.0010528	.00001
.13	293.15	.16	.0010568	.00001
.13	293.15	.18	.0010607	.00001
.13	293.15	.2	.0010654	.00001
.13	298.15	0	.0009052	.00001
.13	298.15	.02	.0009119	.00001
.13	298.15	.04	.0009159	.00001
.13	298.15	.06	.0009197	.00001
.13	298.15	.08	.0009237	.00001
.13	298.15	.1	.0009269	.00001
.13	298.15	.12	.0009307	.00001
.13	298.15	.14	.0009337	.00001
.13	298.15	.16	.0009372	.00001
.13	298.15	.18	.0009405	.00001
.13	298.15	.2	.0009441	.00001
.13	303.15	0	.0008126	.00001
.13	303.15	.02	.000818	.00001
.13	303.15	.04	.0008213	.00001
.13	303.15	.06	.0008244	.00001
.13	303.15	.08	.0008276	.00001
.13	303.15	.1	.0008305	.00001
.13	303.15	.12	.0008336	.00001
.13	303.15	.14	.000836	.00001
.13	303.15	.16	.0008387	.00001
.13	303.15	.18	.0008419	.00001
.13	303.15	.2	.000845	.00001
.13	308.15	0	.0007333	.00001
.13	308.15	.02	.0007375	.00001
.13	308.15	.04	.0007405	.00001
.13	308.15	.06	.0007431	.00001
.13	308.15	.08	.0007457	.00001
.13	308.15	.1	.0007484	.00001
.13	308.15	.12	.0007509	.00001
.13	308.15	.14	.0007533	.00001
.13	308.15	.16	.0007554	.00001
.13	308.15	.18	.0007576	.00001
.13	308.15	.2	.0007598	.00001
.13	313.15	0	.0006662	.00001
.13	313.15	.02	.0006696	.00001
.13	313.15	.04	.0006721	.00001
.13	313.15	.06	.0006743	.00001
.13	313.15	.08	.0006767	.00001
.13	313.15	.1	.0006786	.00001
.13	313.15	.12	.0006808	.00001
.13	313.15	.14	.0006829	.00001
.13	313.15	.16	.0006844	.00001
.13	313.15	.18	.0006867	.00001
.13	313.15	.2	.0006889	.00001

System: L-histidine + N,N-dimethylimidodicarbonimidic diamide hydrochloride + water; phases: Liquid
Fixed: Pressure, kPa = 100
Property: Mass density, kg/m3 (Liquid); method: Vibrating tube method
Solvent: Molality, mol/kg of N,N-dimethylimidodicarbonimidic diamide hydrochloride	Temperature, K	Molality, mol/kg of L-histidine	Mass density, kg/m3	uncertainty
0	293.15	.02	999.369	.08
0	293.15	.04	1000.533	.08
0	293.15	.06	1001.696	.08
0	293.15	.08	1002.859	.08
0	293.15	.1	1004.028	.08
0	293.15	.12	1005.193	.08
0	293.15	.14	1006.363	.08
0	293.15	.16	1007.531	.08
0	293.15	.18	1008.709	.08
0	293.15	.2	1009.89	.08
0	298.15	.02	998.178	.08
0	298.15	.04	999.317	.08
0	298.15	.06	1000.46	.08
0	298.15	.08	1001.587	.08
0	298.15	.1	1002.73	.08
0	298.15	.12	1003.87	.08
0	298.15	.14	1005.017	.08
0	298.15	.16	1006.164	.08
0	298.15	.18	1007.319	.08
0	298.15	.2	1008.469	.08
0	303.15	.02	996.746	.08
0	303.15	.04	997.854	.08
0	303.15	.06	998.962	.08
0	303.15	.08	1000.07	.08
0	303.15	.1	1001.18	.08
0	303.15	.12	1002.286	.08
0	303.15	.14	1003.395	.08
0	303.15	.16	1004.503	.08
0	303.15	.18	1005.61	.08
0	303.15	.2	1006.715	.08
0	308.15	.02	995.102	.08
0	308.15	.04	996.183	.08
0	308.15	.06	997.262	.08
0	308.15	.08	998.34	.08
0	308.15	.1	999.416	.08
0	308.15	.12	1000.492	.08
0	308.15	.14	1001.57	.08
0	308.15	.16	1002.644	.08
0	308.15	.18	1003.719	.08
0	308.15	.2	1004.781	.08
0	313.15	.02	993.257	.08
0	313.15	.04	994.314	.08
0	313.15	.06	995.368	.08
0	313.15	.08	996.42	.08
0	313.15	.1	997.47	.08
0	313.15	.12	998.515	.08
0	313.15	.14	999.558	.08
0	313.15	.16	1000.598	.08
0	313.15	.18	1001.632	.08
0	313.15	.2	1002.666	.08
.01	293.15	.02	999.64	.08
.01	293.15	.04	1000.721	.08
.01	293.15	.06	1001.817	.08
.01	293.15	.08	1002.921	.08
.01	293.15	.1	1004.055	.08
.01	293.15	.12	1005.184	.08
.01	293.15	.14	1006.328	.08
.01	293.15	.16	1007.505	.08
.01	293.15	.18	1008.682	.08
.01	293.15	.2	1009.887	.08
.01	298.15	.02	998.446	.08
.01	298.15	.04	999.5	.08
.01	298.15	.06	1000.563	.08
.01	298.15	.08	1001.658	.08
.01	298.15	.1	1002.778	.08
.01	298.15	.12	1003.901	.08
.01	298.15	.14	1005.055	.08
.01	298.15	.16	1006.205	.08
.01	298.15	.18	1007.402	.08
.01	298.15	.2	1008.578	.08
.01	303.15	.02	997.004	.08
.01	303.15	.04	998.027	.08
.01	303.15	.06	999.068	.08
.01	303.15	.08	1000.118	.08
.01	303.15	.1	1001.196	.08
.01	303.15	.12	1002.269	.08
.01	303.15	.14	1003.371	.08
.01	303.15	.16	1004.488	.08
.01	303.15	.18	1005.648	.08
.01	303.15	.2	1006.817	.08
.01	308.15	.02	995.347	.08
.01	308.15	.04	996.35	.08
.01	308.15	.06	997.37	.08
.01	308.15	.08	998.409	.08
.01	308.15	.1	999.459	.08
.01	308.15	.12	1000.538	.08
.01	308.15	.14	1001.613	.08
.01	308.15	.16	1002.735	.08
.01	308.15	.18	1003.838	.08
.01	308.15	.2	1005.009	.08
.01	313.15	.02	993.498	.08
.01	313.15	.04	994.478	.08
.01	313.15	.06	995.478	.08
.01	313.15	.08	996.482	.08
.01	313.15	.1	997.517	.08
.01	313.15	.12	998.583	.08
.01	313.15	.14	999.651	.08
.01	313.15	.16	1000.789	.08
.01	313.15	.18	1001.937	.08
.01	313.15	.2	1003.104	.08
.07	293.15	.02	1001.886	.08
.07	293.15	.04	1003.013	.08
.07	293.15	.06	1004.182	.08
.07	293.15	.08	1005.392	.08
.07	293.15	.1	1006.664	.08
.07	293.15	.12	1007.998	.08
.07	293.15	.14	1009.445	.08
.07	293.15	.16	1010.876	.08
.07	293.15	.18	1012.402	.08
.07	293.15	.2	1013.895	.08
.07	298.15	.02	1000.653	.08
.07	298.15	.04	1001.706	.08
.07	298.15	.06	1002.844	.08
.07	298.15	.08	1003.966	.08
.07	298.15	.1	1005.138	.08
.07	298.15	.12	1006.391	.08
.07	298.15	.14	1007.621	.08
.07	298.15	.16	1008.896	.08
.07	298.15	.18	1010.266	.08
.07	298.15	.2	1011.708	.08
.07	303.15	.02	999.188	.08
.07	303.15	.04	1000.206	.08
.07	303.15	.06	1001.257	.08
.07	303.15	.08	1002.326	.08
.07	303.15	.1	1003.455	.08
.07	303.15	.12	1004.604	.08
.07	303.15	.14	1005.779	.08
.07	303.15	.16	1006.987	.08
.07	303.15	.18	1008.216	.08
.07	303.15	.2	1009.532	.08
.07	308.15	.02	997.472	.08
.07	308.15	.04	998.457	.08
.07	308.15	.06	999.472	.08
.07	308.15	.08	1000.518	.08
.07	308.15	.1	1001.569	.08
.07	308.15	.12	1002.657	.08
.07	308.15	.14	1003.796	.08
.07	308.15	.16	1004.959	.08
.07	308.15	.18	1006.104	.08
.07	308.15	.2	1007.257	.08
.07	313.15	.02	995.622	.08
.07	313.15	.04	996.562	.08
.07	313.15	.06	997.53	.08
.07	313.15	.08	998.496	.08
.07	313.15	.1	999.491	.08
.07	313.15	.12	1000.485	.08
.07	313.15	.14	1001.466	.08
.07	313.15	.16	1002.498	.08
.07	313.15	.18	1003.525	.08
.07	313.15	.2	1004.605	.08
.13	293.15	.02	1004	.08
.13	293.15	.04	1004.92	.08
.13	293.15	.06	1005.897	.08
.13	293.15	.08	1006.965	.08
.13	293.15	.1	1008.038	.08
.13	293.15	.12	1009.202	.08
.13	293.15	.14	1010.457	.08
.13	293.15	.16	1011.738	.08
.13	293.15	.18	1013.093	.08
.13	293.15	.2	1014.526	.08
.13	298.15	.02	1002.74	.08
.13	298.15	.04	1003.626	.08
.13	298.15	.06	1004.55	.08
.13	298.15	.08	1005.518	.08
.13	298.15	.1	1006.557	.08
.13	298.15	.12	1007.628	.08
.13	298.15	.14	1008.794	.08
.13	298.15	.16	1009.988	.08
.13	298.15	.18	1011.309	.08
.13	298.15	.2	1012.703	.08
.13	303.15	.02	1001.238	.08
.13	303.15	.04	1002.058	.08
.13	303.15	.06	1002.922	.08
.13	303.15	.08	1003.797	.08
.13	303.15	.1	1004.729	.08
.13	303.15	.12	1005.669	.08
.13	303.15	.14	1006.656	.08
.13	303.15	.16	1007.717	.08
.13	303.15	.18	1008.821	.08
.13	303.15	.2	1009.883	.08
.13	308.15	.02	999.54	.08
.13	308.15	.04	1000.321	.08
.13	308.15	.06	1001.138	.08
.13	308.15	.08	1001.988	.08
.13	308.15	.1	1002.843	.08
.13	308.15	.12	1003.757	.08
.13	308.15	.14	1004.689	.08
.13	308.15	.16	1005.624	.08
.13	308.15	.18	1006.588	.08
.13	308.15	.2	1007.582	.08
.13	313.15	.02	997.659	.08
.13	313.15	.04	998.418	.08
.13	313.15	.06	999.199	.08
.13	313.15	.08	1000.008	.08
.13	313.15	.1	1000.849	.08
.13	313.15	.12	1001.698	.08
.13	313.15	.14	1002.608	.08
.13	313.15	.16	1003.543	.08
.13	313.15	.18	1004.477	.08
.13	313.15	.2	1005.437	.08

System: L-histidine + N,N-dimethylimidodicarbonimidic diamide hydrochloride + water; phases: Liquid
Fixed: Pressure, kPa = 100
Fixed: Frequency, MHz = 3
Property: Speed of sound, m/s (Liquid); method: Sing-around technique in a fixed-path interferometer
Solvent: Molality, mol/kg of N,N-dimethylimidodicarbonimidic diamide hydrochloride	Temperature, K	Molality, mol/kg of L-histidine	Speed of sound, m/s	uncertainty
0	293.15	.02	1484.44	.2
0	293.15	.04	1486.22	.2
0	293.15	.06	1487.98	.2
0	293.15	.08	1489.73	.2
0	293.15	.1	1491.46	.2
0	293.15	.12	1493.18	.2
0	293.15	.14	1494.89	.2
0	293.15	.16	1496.56	.2
0	293.15	.18	1498.23	.2
0	293.15	.2	1499.86	.2
0	298.15	.02	1498.47	.2
0	298.15	.04	1500.21	.2
0	298.15	.06	1501.94	.2
0	298.15	.08	1503.65	.2
0	298.15	.1	1505.35	.2
0	298.15	.12	1507.03	.2
0	298.15	.14	1508.7	.2
0	298.15	.16	1510.34	.2
0	298.15	.18	1511.96	.2
0	298.15	.2	1513.58	.2
0	303.15	.02	1510.74	.2
0	303.15	.04	1512.41	.2
0	303.15	.06	1514.07	.2
0	303.15	.08	1515.72	.2
0	303.15	.1	1517.35	.2
0	303.15	.12	1518.97	.2
0	303.15	.14	1520.54	.2
0	303.15	.16	1522.15	.2
0	303.15	.18	1523.73	.2
0	303.15	.2	1525.32	.2
0	308.15	.02	1521.35	.2
0	308.15	.04	1522.98	.2
0	308.15	.06	1524.6	.2
0	308.15	.08	1526.21	.2
0	308.15	.1	1527.81	.2
0	308.15	.12	1529.39	.2
0	308.15	.14	1530.98	.2
0	308.15	.16	1532.51	.2
0	308.15	.18	1534.08	.2
0	308.15	.2	1535.6	.2
0	313.15	.02	1530.4	.2
0	313.15	.04	1531.98	.2
0	313.15	.06	1533.55	.2
0	313.15	.08	1535.11	.2
0	313.15	.1	1536.66	.2
0	313.15	.12	1538.19	.2
0	313.15	.14	1539.72	.2
0	313.15	.16	1541.23	.2
0	313.15	.18	1542.74	.2
0	313.15	.2	1544.25	.2
.01	293.15	.02	1485.09	.2
.01	293.15	.04	1486.87	.2
.01	293.15	.06	1488.65	.2
.01	293.15	.08	1490.42	.2
.01	293.15	.1	1492.18	.2
.01	293.15	.12	1493.94	.2
.01	293.15	.14	1495.7	.2
.01	293.15	.16	1497.45	.2
.01	293.15	.18	1499.21	.2
.01	293.15	.2	1500.91	.2
.01	298.15	.02	1499.09	.2
.01	298.15	.04	1500.83	.2
.01	298.15	.06	1502.56	.2
.01	298.15	.08	1504.28	.2
.01	298.15	.1	1505.98	.2
.01	298.15	.12	1507.7	.2
.01	298.15	.14	1509.37	.2
.01	298.15	.16	1511.08	.2
.01	298.15	.18	1512.75	.2
.01	298.15	.2	1514.47	.2
.01	303.15	.02	1511.32	.2
.01	303.15	.04	1512.96	.2
.01	303.15	.06	1514.6	.2
.01	303.15	.08	1516.25	.2
.01	303.15	.1	1517.88	.2
.01	303.15	.12	1519.54	.2
.01	303.15	.14	1521.17	.2
.01	303.15	.16	1522.8	.2
.01	303.15	.18	1524.38	.2
.01	303.15	.2	1525.98	.2
.01	308.15	.02	1521.87	.2
.01	308.15	.04	1523.44	.2
.01	308.15	.06	1525.02	.2
.01	308.15	.08	1526.62	.2
.01	308.15	.1	1528.22	.2
.01	308.15	.12	1529.78	.2
.01	308.15	.14	1531.36	.2
.01	308.15	.16	1532.91	.2
.01	308.15	.18	1534.59	.2
.01	308.15	.2	1536.12	.2
.01	313.15	.02	1530.87	.2
.01	313.15	.04	1532.38	.2
.01	313.15	.06	1533.9	.2
.01	313.15	.08	1535.4	.2
.01	313.15	.1	1536.97	.2
.01	313.15	.12	1538.47	.2
.01	313.15	.14	1539.96	.2
.01	313.15	.16	1541.48	.2
.01	313.15	.18	1542.96	.2
.01	313.15	.2	1544.48	.2
.07	293.15	.02	1491.95	.2
.07	293.15	.04	1493.62	.2
.07	293.15	.06	1495.32	.2
.07	293.15	.08	1496.99	.2
.07	293.15	.1	1498.65	.2
.07	293.15	.12	1500.37	.2
.07	293.15	.14	1502.01	.2
.07	293.15	.16	1503.83	.2
.07	293.15	.18	1505.6	.2
.07	293.15	.2	1507.46	.2
.07	298.15	.02	1505.49	.2
.07	298.15	.04	1507.13	.2
.07	298.15	.06	1508.71	.2
.07	298.15	.08	1510.22	.2
.07	298.15	.1	1511.81	.2
.07	298.15	.12	1513.42	.2
.07	298.15	.14	1515.13	.2
.07	298.15	.16	1517.03	.2
.07	298.15	.18	1518.59	.2
.07	298.15	.2	1520.13	.2
.07	303.15	.02	1517.25	.2
.07	303.15	.04	1518.78	.2
.07	303.15	.06	1520.3	.2
.07	303.15	.08	1521.81	.2
.07	303.15	.1	1523.37	.2
.07	303.15	.12	1524.9	.2
.07	303.15	.14	1526.55	.2
.07	303.15	.16	1528.3	.2
.07	303.15	.18	1529.96	.2
.07	303.15	.2	1531.53	.2
.07	308.15	.02	1527.47	.2
.07	308.15	.04	1528.92	.2
.07	308.15	.06	1530.4	.2
.07	308.15	.08	1531.78	.2
.07	308.15	.1	1533.38	.2
.07	308.15	.12	1534.84	.2
.07	308.15	.14	1536.41	.2
.07	308.15	.16	1538.07	.2
.07	308.15	.18	1539.58	.2
.07	308.15	.2	1541.32	.2
.07	313.15	.02	1536.16	.2
.07	313.15	.04	1537.53	.2
.07	313.15	.06	1538.92	.2
.07	313.15	.08	1540.37	.2
.07	313.15	.1	1541.83	.2
.07	313.15	.12	1543.24	.2
.07	313.15	.14	1544.76	.2
.07	313.15	.16	1546.32	.2
.07	313.15	.18	1547.84	.2
.07	313.15	.2	1549.62	.2
.13	293.15	.02	1497.97	.2
.13	293.15	.04	1499.61	.2
.13	293.15	.06	1501.24	.2
.13	293.15	.08	1502.83	.2
.13	293.15	.1	1504.58	.2
.13	293.15	.12	1506.38	.2
.13	293.15	.14	1507.87	.2
.13	293.15	.16	1509.62	.2
.13	293.15	.18	1511.37	.2
.13	293.15	.2	1513.07	.2
.13	298.15	.02	1511.21	.2
.13	298.15	.04	1512.8	.2
.13	298.15	.06	1514.43	.2
.13	298.15	.08	1516.1	.2
.13	298.15	.1	1517.79	.2
.13	298.15	.12	1519.49	.2
.13	298.15	.14	1521.09	.2
.13	298.15	.16	1522.94	.2
.13	298.15	.18	1524.58	.2
.13	298.15	.2	1526.39	.2
.13	303.15	.02	1522.75	.2
.13	303.15	.04	1524.21	.2
.13	303.15	.06	1525.69	.2
.13	303.15	.08	1527.21	.2
.13	303.15	.1	1528.66	.2
.13	303.15	.12	1530.32	.2
.13	303.15	.14	1531.91	.2
.13	303.15	.16	1533.45	.2
.13	303.15	.18	1535.12	.2
.13	303.15	.2	1536.78	.2
.13	308.15	.02	1532.69	.2
.13	308.15	.04	1534.1	.2
.13	308.15	.06	1535.49	.2
.13	308.15	.08	1536.93	.2
.13	308.15	.1	1538.48	.2
.13	308.15	.12	1539.79	.2
.13	308.15	.14	1541.47	.2
.13	308.15	.16	1542.95	.2
.13	308.15	.18	1544.98	.2
.13	308.15	.2	1546.79	.2
.13	313.15	.02	1541.11	.2
.13	313.15	.04	1542.42	.2
.13	313.15	.06	1543.75	.2
.13	313.15	.08	1545.02	.2
.13	313.15	.1	1546.41	.2
.13	313.15	.12	1547.87	.2
.13	313.15	.14	1549.32	.2
.13	313.15	.16	1550.79	.2
.13	313.15	.18	1552.3	.2
.13	313.15	.2	1554	.2

System: L-histidine + N,N-dimethylimidodicarbonimidic diamide hydrochloride + water; phases: Liquid
Fixed: Pressure, kPa = 100
Property: Viscosity, Pa*s (Liquid); method: Capillary tube (Ostwald; Ubbelohde) method
Solvent: Molality, mol/kg of N,N-dimethylimidodicarbonimidic diamide hydrochloride	Temperature, K	Molality, mol/kg of L-histidine	Viscosity, Pa*s	uncertainty
0	293.15	.02	.0010132	.00001
0	293.15	.04	.0010194	.00001
0	293.15	.06	.001025	.00001
0	293.15	.08	.0010301	.00001
0	293.15	.1	.0010349	.00001
0	293.15	.12	.0010403	.00001
0	293.15	.14	.0010446	.00001
0	293.15	.16	.0010491	.00001
0	293.15	.18	.001054	.00001
0	293.15	.2	.0010581	.00001
0	298.15	.02	.0008996	.00001
0	298.15	.04	.0009048	.00001
0	298.15	.06	.0009091	.00001
0	298.15	.08	.0009138	.00001
0	298.15	.1	.0009175	.00001
0	298.15	.12	.0009222	.00001
0	298.15	.14	.0009259	.00001
0	298.15	.16	.0009293	.00001
0	298.15	.18	.0009336	.00001
0	298.15	.2	.0009374	.00001
0	303.15	.02	.0008051	.00001
0	303.15	.04	.0008093	.00001
0	303.15	.06	.000813	.00001
0	303.15	.08	.0008165	.00001
0	303.15	.1	.0008198	.00001
0	303.15	.12	.0008233	.00001
0	303.15	.14	.0008265	.00001
0	303.15	.16	.0008301	.00001
0	303.15	.18	.0008339	.00001
0	303.15	.2	.0008372	.00001
0	308.15	.02	.0007253	.00001
0	308.15	.04	.0007289	.00001
0	308.15	.06	.000732	.00001
0	308.15	.08	.0007348	.00001
0	308.15	.1	.0007378	.00001
0	308.15	.12	.0007407	.00001
0	308.15	.14	.0007435	.00001
0	308.15	.16	.0007466	.00001
0	308.15	.18	.0007492	.00001
0	308.15	.2	.0007524	.00001
0	313.15	.02	.0006578	.00001
0	313.15	.04	.0006608	.00001
0	313.15	.06	.0006633	.00001
0	313.15	.08	.000666	.00001
0	313.15	.1	.0006682	.00001
0	313.15	.12	.0006709	.00001
0	313.15	.14	.0006734	.00001
0	313.15	.16	.0006756	.00001
0	313.15	.18	.0006783	.00001
0	313.15	.2	.000681	.00001
.01	293.15	0	.0010099	.00001
.01	293.15	.02	.0010184	.00001
.01	293.15	.04	.0010235	.00001
.01	293.15	.06	.0010284	.00001
.01	293.15	.08	.0010327	.00001
.01	293.15	.1	.0010369	.00001
.01	293.15	.12	.0010405	.00001
.01	293.15	.14	.0010459	.00001
.01	293.15	.16	.00105	.00001
.01	293.15	.18	.0010546	.00001
.01	293.15	.2	.0010588	.00001
.01	298.15	0	.0008925	.00001
.01	298.15	.02	.0009001	.00001
.01	298.15	.04	.0009047	.00001
.01	298.15	.06	.0009087	.00001
.01	298.15	.08	.0009126	.00001
.01	298.15	.1	.0009166	.00001
.01	298.15	.12	.00092	.00001
.01	298.15	.14	.0009238	.00001
.01	298.15	.16	.0009276	.00001
.01	298.15	.18	.0009321	.00001
.01	298.15	.2	.0009357	.00001
.01	303.15	0	.0008013	.00001
.01	303.15	.02	.0008063	.00001
.01	303.15	.04	.0008095	.00001
.01	303.15	.06	.0008128	.00001
.01	303.15	.08	.0008159	.00001
.01	303.15	.1	.0008188	.00001
.01	303.15	.12	.0008219	.00001
.01	303.15	.14	.0008252	.00001
.01	303.15	.16	.0008279	.00001
.01	303.15	.18	.0008303	.00001
.01	303.15	.2	.0008335	.00001
.01	308.15	0	.0007245	.00001
.01	308.15	.02	.0007278	.00001
.01	308.15	.04	.0007304	.00001
.01	308.15	.06	.0007332	.00001
.01	308.15	.08	.0007356	.00001
.01	308.15	.1	.0007383	.00001
.01	308.15	.12	.0007405	.00001
.01	308.15	.14	.0007429	.00001
.01	308.15	.16	.0007449	.00001
.01	308.15	.18	.000747	.00001
.01	308.15	.2	.0007497	.00001
.01	313.15	0	.0006566	.00001
.01	313.15	.02	.0006608	.00001
.01	313.15	.04	.0006633	.00001
.01	313.15	.06	.0006657	.00001
.01	313.15	.08	.000668	.00001
.01	313.15	.1	.0006707	.00001
.01	313.15	.12	.0006729	.00001
.01	313.15	.14	.0006752	.00001
.01	313.15	.16	.0006775	.00001
.01	313.15	.18	.0006801	.00001
.01	313.15	.2	.0006827	.00001
.07	293.15	0	.0010152	.00001
.07	293.15	.02	.0010242	.00001
.07	293.15	.04	.0010298	.00001
.07	293.15	.06	.001035	.00001
.07	293.15	.08	.00104	.00001
.07	293.15	.1	.0010446	.00001
.07	293.15	.12	.0010494	.00001
.07	293.15	.14	.0010537	.00001
.07	293.15	.16	.0010578	.00001
.07	293.15	.18	.0010622	.00001
.07	293.15	.2	.0010668	.00001
.07	298.15	0	.000899	.00001
.07	298.15	.02	.000906	.00001
.07	298.15	.04	.0009104	.00001
.07	298.15	.06	.0009146	.00001
.07	298.15	.08	.0009188	.00001
.07	298.15	.1	.0009223	.00001
.07	298.15	.12	.000926	.00001
.07	298.15	.14	.0009299	.00001
.07	298.15	.16	.0009338	.00001
.07	298.15	.18	.0009368	.00001
.07	298.15	.2	.0009408	.00001
.07	303.15	0	.0008074	.00001
.07	303.15	.02	.0008133	.00001
.07	303.15	.04	.0008166	.00001
.07	303.15	.06	.00082	.00001
.07	303.15	.08	.0008233	.00001
.07	303.15	.1	.000827	.00001
.07	303.15	.12	.0008299	.00001
.07	303.15	.14	.000833	.00001
.07	303.15	.16	.0008357	.00001
.07	303.15	.18	.0008394	.00001
.07	303.15	.2	.0008428	.00001
.07	308.15	0	.0007285	.00001
.07	308.15	.02	.0007334	.00001
.07	308.15	.04	.0007363	.00001
.07	308.15	.06	.0007391	.00001
.07	308.15	.08	.000742	.00001
.07	308.15	.1	.0007447	.00001
.07	308.15	.12	.0007478	.00001
.07	308.15	.14	.00075	.00001
.07	308.15	.16	.000753	.00001
.07	308.15	.18	.000756	.00001
.07	308.15	.2	.0007587	.00001
.07	313.15	0	.0006606	.00001
.07	313.15	.02	.000665	.00001
.07	313.15	.04	.0006674	.00001
.07	313.15	.06	.00067	.00001
.07	313.15	.08	.0006725	.00001
.07	313.15	.1	.0006751	.00001
.07	313.15	.12	.0006772	.00001
.07	313.15	.14	.0006795	.00001
.07	313.15	.16	.0006823	.00001
.07	313.15	.18	.0006847	.00001
.07	313.15	.2	.0006873	.00001
.13	293.15	0	.0010185	.00001
.13	293.15	.02	.001028	.00001
.13	293.15	.04	.0010331	.00001
.13	293.15	.06	.0010377	.00001
.13	293.15	.08	.0010425	.00001
.13	293.15	.1	.001047	.00001
.13	293.15	.12	.0010518	.00001
.13	293.15	.14	.0010572	.00001
.13	293.15	.16	.0010617	.00001
.13	293.15	.18	.0010664	.00001
.13	293.15	.2	.0010714	.00001
.13	298.15	0	.0009052	.00001
.13	298.15	.02	.0009129	.00001
.13	298.15	.04	.0009172	.00001
.13	298.15	.06	.0009209	.00001
.13	298.15	.08	.0009248	.00001
.13	298.15	.1	.0009287	.00001
.13	298.15	.12	.0009327	.00001
.13	298.15	.14	.0009368	.00001
.13	298.15	.16	.0009415	.00001
.13	298.15	.18	.0009453	.00001
.13	298.15	.2	.0009493	.00001
.13	303.15	0	.0008126	.00001
.13	303.15	.02	.0008192	.00001
.13	303.15	.04	.0008232	.00001
.13	303.15	.06	.0008269	.00001
.13	303.15	.08	.0008302	.00001
.13	303.15	.1	.0008335	.00001
.13	303.15	.12	.0008366	.00001
.13	303.15	.14	.0008403	.00001
.13	303.15	.16	.000844	.00001
.13	303.15	.18	.0008477	.00001
.13	303.15	.2	.0008512	.00001
.13	308.15	0	.0007333	.00001
.13	308.15	.02	.0007384	.00001
.13	308.15	.04	.0007417	.00001
.13	308.15	.06	.0007445	.00001
.13	308.15	.08	.0007473	.00001
.13	308.15	.1	.0007499	.00001
.13	308.15	.12	.0007527	.00001
.13	308.15	.14	.0007558	.00001
.13	308.15	.16	.0007594	.00001
.13	308.15	.18	.0007621	.00001
.13	308.15	.2	.0007647	.00001
.13	313.15	0	.0006662	.00001
.13	313.15	.02	.0006701	.00001
.13	313.15	.04	.0006729	.00001
.13	313.15	.06	.0006753	.00001
.13	313.15	.08	.0006775	.00001
.13	313.15	.1	.0006798	.00001
.13	313.15	.12	.0006825	.00001
.13	313.15	.14	.0006849	.00001
.13	313.15	.16	.0006873	.00001
.13	313.15	.18	.0006897	.00001
.13	313.15	.2	.0006921	.00001

System: glutamine, L- + water; phases: Liquid
Property: Mass density, kg/m3 (Liquid); method: Vibrating tube method
Temperature, K	Molality, mol/kg of glutamine, L-	Pressure, kPa	Mass density, kg/m3	uncertainty
293.15	.02	100	999.262	.08
293.15	.04	100	1000.319	.08
293.15	.06	100	1001.379	.08
293.15	.08	100	1002.44	.08
293.15	.1	100	1003.504	.08
293.15	.12	100	1004.568	.08
293.15	.14	100	1005.633	.08
293.15	.16	100	1006.693	.08
293.15	.18	100	1007.765	.08
293.15	.2	100	1008.823	.08
298.15	.02	100	998.094	.08
298.15	.04	100	999.147	.08
298.15	.06	100	1000.201	.08
298.15	.08	100	1001.256	.08
298.15	.1	100	1002.315	.08
298.15	.12	100	1003.371	.08
298.15	.14	100	1004.431	.08
298.15	.16	100	1005.494	.08
298.15	.18	100	1006.559	.08
298.15	.2	100	1007.625	.08
303.15	.02	100	996.679	.08
303.15	.04	100	997.722	.08
303.15	.06	100	998.771	.08
303.15	.08	100	999.819	.08
303.15	.1	100	1000.868	.08
303.15	.12	100	1001.916	.08
303.15	.14	100	1002.971	.08
303.15	.16	100	1004.023	.08
303.15	.18	100	1005.091	.08
303.15	.2	100	1006.144	.08
308.15	.02	100	995.051	.08
308.15	.04	100	996.088	.08
308.15	.06	100	997.129	.08
308.15	.08	100	998.171	.08
308.15	.1	100	999.218	.08
308.15	.12	100	1000.265	.08
308.15	.14	100	1001.309	.08
308.15	.16	100	1002.359	.08
308.15	.18	100	1003.412	.08
308.15	.2	100	1004.482	.08
313.15	.02	100	993.226	.08
313.15	.04	100	994.257	.08
313.15	.06	100	995.294	.08
313.15	.08	100	996.332	.08
313.15	.1	100	997.372	.08
313.15	.12	100	998.413	.08
313.15	.14	100	999.457	.08
313.15	.16	100	1000.499	.08
313.15	.18	100	1001.561	.08
313.15	.2	100	1002.601	.08

System: glutamine, L- + water; phases: Liquid
Fixed: Frequency, MHz = 3
Property: Speed of sound, m/s (Liquid); method: Sing-around technique in a fixed-path interferometer
Temperature, K	Molality, mol/kg of glutamine, L-	Pressure, kPa	Speed of sound, m/s	uncertainty
293.15	.02	100	1483.95	.2
293.15	.04	100	1485.35	.2
293.15	.06	100	1486.86	.2
293.15	.08	100	1488.42	.2
293.15	.1	100	1490.07	.2
293.15	.12	100	1491.77	.2
293.15	.14	100	1493.53	.2
293.15	.16	100	1495.28	.2
293.15	.18	100	1497.18	.2
293.15	.2	100	1498.97	.2
298.15	.02	100	1497.98	.2
298.15	.04	100	1499.32	.2
298.15	.06	100	1500.78	.2
298.15	.08	100	1502.29	.2
298.15	.1	100	1503.91	.2
298.15	.12	100	1505.59	.2
298.15	.14	100	1507.28	.2
298.15	.16	100	1508.98	.2
298.15	.18	100	1510.73	.2
298.15	.2	100	1512.64	.2
303.15	.04	100	1511.58	.2
303.15	.06	100	1513	.2
303.15	.08	100	1514.47	.2
303.15	.1	100	1516.05	.2
303.15	.12	100	1517.65	.2
303.15	.14	100	1519.36	.2
303.15	.16	100	1521	.2
303.15	.18	100	1522.68	.2
303.15	.2	100	1524.48	.2
303.15	.02	100	1510.29	.2
308.15	.06	100	1523.6	.2
308.15	.08	100	1524.98	.2
308.15	.1	100	1526.51	.2
308.15	.12	100	1528.13	.2
308.15	.14	100	1529.76	.2
308.15	.16	100	1531.38	.2
308.15	.18	100	1533.14	.2
308.15	.2	100	1534.83	.2
308.15	.02	100	1520.93	.2
308.15	.04	100	1522.19	.2
313.15	.2	100	1543.65	.2
313.15	.08	100	1533.99	.2
313.15	.1	100	1535.49	.2
313.15	.12	100	1537.06	.2
313.15	.14	100	1538.63	.2
313.15	.16	100	1540.29	.2
313.15	.18	100	1541.99	.2
313.15	.02	100	1530	.2
313.15	.04	100	1531.28	.2
313.15	.06	100	1532.64	.2

System: glutamine, L- + water; phases: Liquid
Property: Viscosity, Pa*s (Liquid); method: Capillary tube (Ostwald; Ubbelohde) method
Temperature, K	Molality, mol/kg of glutamine, L-	Pressure, kPa	Viscosity, Pa*s	uncertainty
293.15	.02	100	.0010116	.00001
293.15	.04	100	.0010175	.00001
293.15	.06	100	.0010221	.00001
293.15	.08	100	.0010267	.00001
293.15	.1	100	.001031	.00001
293.15	.12	100	.0010349	.00001
293.15	.14	100	.0010389	.00001
293.15	.16	100	.0010432	.00001
293.15	.18	100	.0010472	.00001
293.15	.2	100	.0010512	.00001
298.15	.02	100	.0008984	.00001
298.15	.04	100	.0009028	.00001
298.15	.06	100	.0009067	.00001
298.15	.08	100	.0009104	.00001
298.15	.1	100	.0009143	.00001
298.15	.12	100	.0009175	.00001
298.15	.14	100	.0009212	.00001
298.15	.16	100	.0009246	.00001
298.15	.18	100	.0009277	.00001
298.15	.2	100	.0009308	.00001
303.15	.02	100	.0008039	.00001
303.15	.04	100	.0008076	.00001
303.15	.06	100	.0008109	.00001
303.15	.08	100	.0008141	.00001
303.15	.1	100	.000817	.00001
303.15	.12	100	.00082	.00001
303.15	.14	100	.0008224	.00001
303.15	.16	100	.0008254	.00001
303.15	.18	100	.0008283	.00001
303.15	.2	100	.0008316	.00001
308.15	.02	100	.0007243	.00001
308.15	.04	100	.0007275	.00001
308.15	.06	100	.0007302	.00001
308.15	.08	100	.0007329	.00001
308.15	.1	100	.0007352	.00001
308.15	.12	100	.0007379	.00001
308.15	.14	100	.0007405	.00001
308.15	.16	100	.0007425	.00001
308.15	.18	100	.0007448	.00001
308.15	.2	100	.0007469	.00001
313.15	.02	100	.0006569	.00001
313.15	.04	100	.0006595	.00001
313.15	.06	100	.0006621	.00001
313.15	.08	100	.0006638	.00001
313.15	.1	100	.000666	.00001
313.15	.12	100	.0006682	.00001
313.15	.14	100	.0006702	.00001
313.15	.16	100	.0006716	.00001
313.15	.18	100	.000674	.00001
313.15	.2	100	.0006759	.00001

System: N,N-dimethylimidodicarbonimidic diamide hydrochloride + water; phases: Liquid
Property: Mass density, kg/m3 (Liquid); method: Vibrating tube method
Molality, mol/kg of N,N-dimethylimidodicarbonimidic diamide hydrochloride	Temperature, K	Pressure, kPa	Mass density, kg/m3	uncertainty
.01	293.15	100	998.57	.08
.01	298.15	100	997.402	.08
.01	303.15	100	995.993	.08
.01	308.15	100	994.369	.08
.01	313.15	100	992.542	.08
.07	293.15	100	1000.829	.08
.07	298.15	100	999.633	.08
.07	303.15	100	998.2	.08
.07	308.15	100	996.524	.08
.07	313.15	100	994.71	.08
.13	293.15	100	1003.134	.08
.13	298.15	100	1001.905	.08
.13	303.15	100	1000.448	.08
.13	308.15	100	998.785	.08
.13	313.15	100	996.926	.08

System: N,N-dimethylimidodicarbonimidic diamide hydrochloride + water; phases: Liquid
Fixed: Frequency, MHz = 3
Property: Speed of sound, m/s (Liquid); method: Sing-around technique in a fixed-path interferometer
Molality, mol/kg of N,N-dimethylimidodicarbonimidic diamide hydrochloride	Temperature, K	Pressure, kPa	Speed of sound, m/s	uncertainty
.01	293.15	100	1483.3	.2
.07	293.15	100	1490.25	.2
.13	293.15	100	1496.33	.2
.01	298.15	100	1497.34	.2
.07	298.15	100	1503.88	.2
.13	298.15	100	1509.67	.2
.01	303.15	100	1509.68	.2
.07	303.15	100	1515.76	.2
.13	303.15	100	1521.33	.2
.07	308.15	100	1526.05	.2
.01	308.15	100	1520.3	.2
.13	308.15	100	1531.34	.2
.01	313.15	100	1529.37	.2
.07	313.15	100	1534.81	.2
.13	313.15	100	1539.84	.2

System: N,N-dimethylimidodicarbonimidic diamide hydrochloride + water; phases: Liquid
Property: Viscosity, Pa*s (Liquid); method: Capillary tube (Ostwald; Ubbelohde) method
Molality, mol/kg of N,N-dimethylimidodicarbonimidic diamide hydrochloride	Temperature, K	Pressure, kPa	Viscosity, Pa*s	uncertainty
.01	293.15	100	.0010099	.00001
.01	298.15	100	.0008925	.00001
.01	303.15	100	.0008013	.00001
.01	308.15	100	.0007245	.00001
.01	313.15	100	.0006566	.00001
.07	293.15	100	.0010152	.00001
.07	298.15	100	.000899	.00001
.07	303.15	100	.0008074	.00001
.07	308.15	100	.0007285	.00001
.07	313.15	100	.0006606	.00001
.13	293.15	100	.0010185	.00001
.13	298.15	100	.0009052	.00001
.13	303.15	100	.0008126	.00001
.13	308.15	100	.0007333	.00001
.13	313.15	100	.0006662	.00001

System: L-histidine + water; phases: Liquid
Property: Mass density, kg/m3 (Liquid); method: Vibrating tube method
Temperature, K	Molality, mol/kg of L-histidine	Pressure, kPa	Mass density, kg/m3	uncertainty
293.15	.02	100	999.369	.08
293.15	.04	100	1000.533	.08
293.15	.06	100	1001.696	.08
293.15	.08	100	1002.859	.08
293.15	.1	100	1004.028	.08
293.15	.12	100	1005.193	.08
293.15	.14	100	1006.363	.08
293.15	.16	100	1007.531	.08
293.15	.18	100	1008.709	.08
293.15	.2	100	1009.89	.08
298.15	.02	100	998.178	.08
298.15	.04	100	999.317	.08
298.15	.06	100	1000.46	.08
298.15	.08	100	1001.587	.08
298.15	.1	100	1002.73	.08
298.15	.12	100	1003.87	.08
298.15	.14	100	1005.017	.08
298.15	.16	100	1006.164	.08
298.15	.18	100	1007.319	.08
298.15	.2	100	1008.469	.08
303.15	.02	100	996.746	.08
303.15	.04	100	997.854	.08
303.15	.06	100	998.962	.08
303.15	.08	100	1000.07	.08
303.15	.1	100	1001.18	.08
303.15	.12	100	1002.286	.08
303.15	.14	100	1003.395	.08
303.15	.16	100	1004.503	.08
303.15	.18	100	1005.61	.08
303.15	.2	100	1006.715	.08
308.15	.02	100	995.102	.08
308.15	.04	100	996.183	.08
308.15	.06	100	997.262	.08
308.15	.08	100	998.34	.08
308.15	.1	100	999.416	.08
308.15	.12	100	1000.492	.08
308.15	.14	100	1001.57	.08
308.15	.16	100	1002.644	.08
308.15	.18	100	1003.719	.08
308.15	.2	100	1004.781	.08
313.15	.02	100	993.257	.08
313.15	.04	100	994.314	.08
313.15	.06	100	995.368	.08
313.15	.08	100	996.42	.08
313.15	.1	100	997.47	.08
313.15	.12	100	998.515	.08
313.15	.14	100	999.558	.08
313.15	.16	100	1000.598	.08
313.15	.18	100	1001.632	.08
313.15	.2	100	1002.666	.08

System: L-histidine + water; phases: Liquid
Fixed: Frequency, MHz = 3
Property: Speed of sound, m/s (Liquid); method: Sing-around technique in a fixed-path interferometer
Temperature, K	Molality, mol/kg of L-histidine	Pressure, kPa	Speed of sound, m/s	uncertainty
293.15	.02	100	1484.44	.2
293.15	.04	100	1486.22	.2
293.15	.06	100	1487.98	.2
293.15	.08	100	1489.73	.2
293.15	.1	100	1491.46	.2
293.15	.12	100	1493.18	.2
293.15	.14	100	1494.89	.2
293.15	.16	100	1496.56	.2
293.15	.18	100	1498.23	.2
293.15	.2	100	1499.86	.2
298.15	.02	100	1498.47	.2
298.15	.04	100	1500.21	.2
298.15	.06	100	1501.94	.2
298.15	.08	100	1503.65	.2
298.15	.1	100	1505.35	.2
298.15	.12	100	1507.03	.2
298.15	.14	100	1508.7	.2
298.15	.16	100	1510.34	.2
298.15	.18	100	1511.96	.2
298.15	.2	100	1513.58	.2
303.15	.02	100	1510.74	.2
303.15	.04	100	1512.41	.2
303.15	.06	100	1514.07	.2
303.15	.08	100	1515.72	.2
303.15	.1	100	1517.35	.2
303.15	.12	100	1518.97	.2
303.15	.14	100	1520.54	.2
303.15	.16	100	1522.15	.2
303.15	.18	100	1523.73	.2
303.15	.2	100	1525.32	.2
308.15	.02	100	1521.35	.2
308.15	.04	100	1522.98	.2
308.15	.06	100	1524.6	.2
308.15	.08	100	1526.21	.2
308.15	.1	100	1527.81	.2
308.15	.12	100	1529.39	.2
308.15	.14	100	1530.98	.2
308.15	.16	100	1532.51	.2
308.15	.18	100	1534.08	.2
308.15	.2	100	1535.6	.2
313.15	.02	100	1530.4	.2
313.15	.04	100	1531.98	.2
313.15	.06	100	1533.55	.2
313.15	.08	100	1535.11	.2
313.15	.1	100	1536.66	.2
313.15	.12	100	1538.19	.2
313.15	.14	100	1539.72	.2
313.15	.16	100	1541.23	.2
313.15	.18	100	1542.74	.2
313.15	.2	100	1544.25	.2

System: L-histidine + water; phases: Liquid
Property: Viscosity, Pa*s (Liquid); method: Capillary tube (Ostwald; Ubbelohde) method
Temperature, K	Molality, mol/kg of L-histidine	Pressure, kPa	Viscosity, Pa*s	uncertainty
293.15	.02	100	.0010132	.00001
293.15	.04	100	.0010194	.00001
293.15	.06	100	.001025	.00001
293.15	.08	100	.0010301	.00001
293.15	.1	100	.0010349	.00001
293.15	.12	100	.0010403	.00001
293.15	.14	100	.0010446	.00001
293.15	.16	100	.0010491	.00001
293.15	.18	100	.001054	.00001
293.15	.2	100	.0010581	.00001
298.15	.02	100	.0008996	.00001
298.15	.04	100	.0009048	.00001
298.15	.06	100	.0009091	.00001
298.15	.08	100	.0009138	.00001
298.15	.1	100	.0009175	.00001
298.15	.12	100	.0009222	.00001
298.15	.14	100	.0009259	.00001
298.15	.16	100	.0009293	.00001
298.15	.18	100	.0009336	.00001
298.15	.2	100	.0009374	.00001
303.15	.02	100	.0008051	.00001
303.15	.04	100	.0008093	.00001
303.15	.06	100	.000813	.00001
303.15	.08	100	.0008165	.00001
303.15	.1	100	.0008198	.00001
303.15	.12	100	.0008233	.00001
303.15	.14	100	.0008265	.00001
303.15	.16	100	.0008301	.00001
303.15	.18	100	.0008339	.00001
303.15	.2	100	.0008372	.00001
308.15	.02	100	.0007253	.00001
308.15	.04	100	.0007289	.00001
308.15	.06	100	.000732	.00001
308.15	.08	100	.0007348	.00001
308.15	.1	100	.0007378	.00001
308.15	.12	100	.0007407	.00001
308.15	.14	100	.0007435	.00001
308.15	.16	100	.0007466	.00001
308.15	.18	100	.0007492	.00001
308.15	.2	100	.0007524	.00001
313.15	.02	100	.0006578	.00001
313.15	.04	100	.0006608	.00001
313.15	.06	100	.0006633	.00001
313.15	.08	100	.000666	.00001
313.15	.1	100	.0006682	.00001
313.15	.12	100	.0006709	.00001
313.15	.14	100	.0006734	.00001
313.15	.16	100	.0006756	.00001
313.15	.18	100	.0006783	.00001
313.15	.2	100	.000681	.00001
