Measured thermophysical data. Phase Equilibrium for the Ternary Systems (KCl + K2SO4 + H2O) and (KH2PO4 + K2SO4 + H2O) at 288.15 K and Atmospheric Pressure
Source: J. Chem. Eng. Data, 2016, 10.1021/acs.jced.5b01111
Compound 1: potassium dihydrogen phosphate, H2KO4P, purity 99.5%
Compound 2: potassium sulfate, K2O4S, purity 99.5%
Compound 3: potassium chloride, ClK, purity 99.5%
Compound 4: water, H2O

System: potassium chloride + water + potassium sulfate; phases: Liquid, Crystal
Fixed: Pressure, kPa = 100
Fixed: Temperature, K = 288.15
Property: Mass fraction of potassium sulfate (Liquid); method: Titration method
Mass fraction of potassium chloride	Mass fraction of potassium sulfate	uncertainty
0	.0912	
.0229	.0744	
.0445	.0598	
.0658	.0463	
.0898	.0383	
.1064	.0319	
.1293	.027	
.163	.0198	
.1943	.0151	
.2284	.0116	
.2421	.0101	
.2421	.0101	

System: potassium chloride + water + potassium sulfate; phases: Liquid, Crystal
Fixed: Pressure, kPa = 100
Fixed: Temperature, K = 288.15
Property: Mass fraction of potassium sulfate (Liquid); method: Titration method
Mass fraction of potassium chloride	Mass fraction of potassium sulfate	uncertainty
.2421	.0101	
.2421	.0101	
.2445	.0051	
.2472	0	

System: potassium chloride + water + potassium sulfate; phases: Liquid
Fixed: Pressure, kPa = 100
Fixed: Temperature, K = 288.15
Property: Mass density, kg/m3 (Liquid); method: Pycnometric method
Mass fraction of potassium chloride	Mass fraction of potassium sulfate	Mass density, kg/m3	uncertainty
0	.0912	1075.6	
.0229	.0744	1076.5	
.0445	.0598	1078.3	
.0658	.0463	1081.4	
.0898	.0383	1089.7	
.1064	.0319	1096.9	
.1293	.027	1108	
.163	.0198	1125.8	
.1943	.0151	1143.7	
.2284	.0116	1165.1	
.2421	.0101	1174.6	
.2421	.0101	1174.2	
.2445	.0051	1171.1	
.2472	0	1168.2	

System: water + potassium dihydrogen phosphate + potassium sulfate; phases: Liquid, Crystal
Fixed: Pressure, kPa = 100
Fixed: Temperature, K = 288.15
Property: Mass fraction of potassium dihydrogen phosphate (Liquid); method: Titration method
Mass fraction of potassium sulfate	Mass fraction of potassium dihydrogen phosphate	uncertainty
.05	.1433	
.05	.1433	
.0353	.1482	
.0194	.1555	
0	.1653	

System: water + potassium dihydrogen phosphate + potassium sulfate; phases: Liquid, Crystal
Fixed: Pressure, kPa = 100
Fixed: Temperature, K = 288.15
Property: Mass fraction of potassium dihydrogen phosphate (Liquid); method: Titration method
Mass fraction of potassium sulfate	Mass fraction of potassium dihydrogen phosphate	uncertainty
.0912	0	
.0833	.0207	
.0762	.0439	
.0673	.0648	
.0608	.0851	
.0564	.1036	
.053	.1214	
.05	.1433	
.05	.1433	

System: water + potassium dihydrogen phosphate + potassium sulfate; phases: Liquid
Fixed: Pressure, kPa = 100
Fixed: Temperature, K = 288.15
Property: Mass density, kg/m3 (Liquid); method: Pycnometric method
Mass fraction of potassium sulfate	Mass fraction of potassium dihydrogen phosphate	Mass density, kg/m3	uncertainty
.0912	0	1075.6	
.0833	.0207	1084.3	
.0762	.0439	1095.2	
.0673	.0648	1104.9	
.0608	.0851	1115.1	
.0564	.1036	1125.5	
.053	.1214	1136.5	
.05	.1433	1150.2	
.05	.1433	1150.4	
.0353	.1482	1142.5	
.0194	.1555	1133.2	
0	.1653	1122.9	

System: water + potassium sulfate; phases: Liquid, Crystal
Property: Mass fraction of potassium sulfate (Liquid); method: Titration method
Pressure, kPa	Temperature, K	Mass fraction of potassium sulfate	uncertainty
100	288.15	.0912	

System: water + potassium sulfate; phases: Liquid
Property: Mass density, kg/m3 (Liquid); method: Pycnometric method
Mass fraction of potassium sulfate	Pressure, kPa	Temperature, K	Mass density, kg/m3	uncertainty
.0912	100	288.15	1075.6	

System: potassium chloride + water; phases: Liquid, Crystal
Property: Mass fraction of potassium chloride (Liquid); method: Titration method
Pressure, kPa	Temperature, K	Mass fraction of potassium chloride	uncertainty
100	288.15	.2472	

System: potassium chloride + water; phases: Liquid
Property: Mass density, kg/m3 (Liquid); method: Pycnometric method
Mass fraction of potassium chloride	Pressure, kPa	Temperature, K	Mass density, kg/m3	uncertainty
.2472	100	288.15	1168.2	

System: water + potassium dihydrogen phosphate; phases: Liquid, Crystal
Property: Mass fraction of potassium dihydrogen phosphate (Liquid); method: Titration method
Pressure, kPa	Temperature, K	Mass fraction of potassium dihydrogen phosphate	uncertainty
100	288.15	.1653	

System: water + potassium dihydrogen phosphate; phases: Liquid
Property: Mass density, kg/m3 (Liquid); method: Pycnometric method
Mass fraction of potassium dihydrogen phosphate	Pressure, kPa	Temperature, K	Mass density, kg/m3	uncertainty
.1653	100	288.15	1122.9	
