Measured thermophysical data. Thermodynamic Study of the NaNO3 Cd(NO3)2 H2O Ternary System at 298.15 K by the Potential Difference Method
Source: J. Chem. Eng. Data, 2017, 10.1021/acs.jced.6b00790
Compound 1: water, H2O, purity 99.8%
Compound 2: cadmium nitrate, CdN2O6
Compound 3: sodium nitrate, NNaO3

System: sodium nitrate + water + cadmium nitrate; phases: Liquid
Fixed: Temperature, K = 298.15
Fixed: Pressure, kPa = 100
Property: Activity coefficient of sodium nitrate (Liquid); method: potentiometry
Molality, mol/kg of sodium nitrate	Molality, mol/kg of cadmium nitrate	Activity coefficient of sodium nitrate	uncertainty
.01	0	.8932	
.0081	.0007	.915	
.006	.0013	.9451	
.004	.002	.983	
.0022	.0026	1.034	
.05	0	.8108	
.0399	.0033	.8513	
.03	.0067	.8883	
.02	.01	.9353	
.01	.0134	.9975	
.1	0	.7657	
.08	.0067	.8085	
.06	.0133	.8415	
.0399	.02	.8813	
.02	.0267	.9118	
.2001	0	.6971	
.1601	.0133	.7348	
.1199	.0267	.7691	
.0801	.04	.8012	
.0401	.0533	.8398	
.2999	0	.6632	
.2401	.02	.7053	
.18	.04	.7377	
.12	.06	.7678	
.06	.08	.7989	
.4	0	.6378	
.32	.0267	.6711	
.24	.0534	.7003	
.16	.08	.7305	
.0801	.1067	.7592	
.5001	0	.6163	
.4	.0333	.6397	
.3001	.0667	.6608	
.2	.1	.6802	
.1	.1333	.7035	
.5999	0	.5763	
.48	.04	.5991	
.36	.08	.6156	
.2401	.12	.6319	
.1199	.16	.6452	
.7001	0	.5648	
.5601	.0467	.5782	
.4201	.0933	.5941	
.2799	.1399	.6116	
.1399	.1867	.6374	
.7998	0	.545	
.6399	.0534	.5556	
.4799	.1054	.5731	
.32	.16	.5966	
.1601	.2133	.6264	
.9	0	.5185	
.72	.06	.5339	
.5401	.12	.5505	
.36	.18	.5655	
.18	.24	.5815	
.9999	0	.5025	
.8	.0667	.5084	
.6001	.1333	.5203	
.4001	.2	.5322	
.1999	.2667	.5411	

System: sodium nitrate + water; phases: Liquid
Property: Activity coefficient of sodium nitrate (Liquid); method: potentiometry
Molality, mol/kg of sodium nitrate	Temperature, K	Pressure, kPa	Activity coefficient of sodium nitrate	uncertainty
.01	298.15	100	.8932	
.05	298.15	100	.8108	
.1	298.15	100	.7657	
.2001	298.15	100	.6971	
.2999	298.15	100	.6632	
.4	298.15	100	.6378	
.5001	298.15	100	.6163	
.5999	298.15	100	.5763	
.7001	298.15	100	.5648	
.7998	298.15	100	.545	
.9	298.15	100	.5185	
.9999	298.15	100	.5025	
