Measured thermophysical data. Mean Activity Coefficients of NaCl in NaCl CdCl2 H2O Ternary System at 298.15 K by Potential Difference Method
Source: J. Chem. Eng. Data, 2016, 10.1021/acs.jced.6b00075
Compound 1: water, H2O, purity 99.9%
Compound 2: cadmium chloride, CdCl2, purity 99.99%
Compound 3: sodium chloride, ClNa, purity 99.9%

System: sodium chloride + water + cadmium chloride; phases: Liquid
Fixed: Pressure, kPa = 100
Fixed: Temperature, K = 298.15
Property: Activity coefficient of sodium chloride (Liquid); method: Other
Molality, mol/kg of sodium chloride	Molality, mol/kg of cadmium chloride	Activity coefficient of sodium chloride	uncertainty
.0101	0	.8709	
.05	0	.8077	
.0999	0	.7552	
.2001	0	.7241	
.3001	0	.6973	
.3995	0	.68	
.4993	0	.6711	
.6001	0	.6606	
.7	0	.6646	
.7997	0	.6616	
.8998	0	.6581	
.9998	0	.6565	
.0081	.0007	.8414	
.0062	.0013	.8248	
.004	.002	.8073	
.0021	.0027	.7964	
.04	.0033	.7737	
.03	.0067	.7431	
.08	.0067	.7236	
.0202	.0101	.7152	
.16	.0132	.6995	
.06	.0133	.6977	
.0102	.0134	.6772	
.24	.02	.6676	
.04	.02	.6738	
.3202	.0267	.6549	
.1201	.0267	.6705	
.02	.0268	.6451	
.4002	.0334	.6436	
.4798	.04	.6313	
.1802	.04	.6407	
.0802	.04	.6411	
.56	.0467	.6325	
.2398	.0533	.6261	
.6396	.0533	.6309	
.0402	.0534	.5953	
.1197	.0599	.6101	
.7197	.06	.6338	
.3	.0667	.6086	
.8	.0667	.622	
.06	.08	.5742	
.3602	.08	.6022	
.16	.08	.5973	
.4201	.0934	.5999	
.1998	.1	.5796	
.0799	.1066	.5541	
.4799	.1067	.6031	
.2399	.12	.5722	
.5398	.12	.5978	
.1001	.1333	.5412	
.6002	.1333	.5797	
.28	.1399	.5609	
.32	.1601	.5669	
.12	.1601	.5296	
.3602	.18	.5538	
.1399	.1867	.5186	
.4002	.2	.5417	
.1601	.2133	.5249	
.1801	.24	.5101	
.2001	.2668	.4988	
