Measured thermophysical data. Measurements and New Vapor Pressure Correlation for HFO-1234ze(E)
Source: J. Chem. Eng. Data, 2017, 10.1021/acs.jced.6b00673
Compound 1: trans-1,3,3,3-tetrafluoropropene, C3H2F4

System: trans-1,3,3,3-tetrafluoropropene; phases: Liquid, Gas
Property: Vapor or sublimation pressure, kPa (Liquid); method: Closed cell (Static) method
Temperature, K	Vapor or sublimation pressure, kPa	uncertainty
235.009	40.19	
235.167	40.58	
239.053	49.6	
239.07	49.6	
239.072	49.61	
242.03	57.54	
242.044	57.54	
245.149	66.85	
245.155	66.94	
245.157	66.9	
247.986	76.45	
248.019	76.52	
249.38	81.49	
250.682	86.48	
250.716	86.57	
252.236	92.69	
252.241	92.75	
252.577	94.2	
256.245	110.47	
258.722	122.66	
258.738	122.75	
262.014	140.52	
264.782	157.04	
268.271	179.98	
271.723	205.14	
274.514	227.45	
277.433	252.66	
280.734	283.77	
284.073	318.06	
287.254	353.65	
290.507	393.03	
293.333	429.86	
296.669	476.7	
299.734	523.05	
302.709	571.25	
303.976	592.72	
306.419	635.82	
306.419	635.84	
308.504	674.57	
308.505	674.57	
311.906	741.32	
311.91	741.51	
314.303	791.29	
314.305	791.42	
316.037	829.03	
316.04	829.14	
318.53	885.61	
319.378	905.41	
319.379	905.49	
320.956	943.34	
323.476	1006.12	
325.227	1051.7	
327.747	1119.92	
329.784	1177.48	
332.091	1245.23	
334.299	1312.84	
336.515	1383.24	
338.428	1446.61	
340.435	1515.02	
342.646	1593.48	
344.942	1677.98	
347.249	1766.38	
349.477	1855	
351.211	1926.37	
353.308	2015.3	
355.521	2112.53	
358.516	2249.96	
360.609	2349.94	
362.529	2444.79	
364.709	2556.19	
366.862	2669.59	
367.853	2724.3	
368.951	2784.17	
369.854	2835.52	
371.009	2900.56	
371.913	2953.8	
372.813	3005.54	
374.071	3082.36	
374.899	3131.69	
376.036	3203.11	
377.04	3265.41	
374.071	3082.36	
377.936	3323.47	
378.574	3364.95	
379.161	3402.34	
379.511	3425.95	
379.868	3450.34	
380.023	3459.67	
380.514	3493.46	
