Measured thermophysical data. Isobaric Vapor Liquid Liquid Phase Equilibria Measurements of Three Ternary Water + 2-Butanone + Aliphatic Alcohol (Ethanol, 1-Propanol, 2-Propanol) Systems at 101.3 kPa
Source: J. Chem. Eng. Data, 2017, 10.1021/acs.jced.6b00725
Compound 1: acetonitrile, C2H3N, purity 99.8%
Compound 2: ethanol, C2H6O, purity 99.8%
Compound 3: 1-propanol, C3H8O, purity 99.5%
Compound 4: 2-propanol, C3H8O, purity 99.5%
Compound 5: 1-butanol, C4H10O, purity 99.9%
Compound 6: 2-pentanol, C5H12O, purity 98.0%
Compound 7: 2-butanone, C4H8O, purity 99.7%
Compound 8: water, H2O, purity 99.9%

System: ethanol + 1-butanol + water; phases: Liquid mixture 2, Liquid mixture 1, Gas
Fixed: Pressure, kPa = 101.3
Property: Mole fraction of 1-butanol (Liquid mixture 2); method: Chromatography
Property: Mole fraction of ethanol (Liquid mixture 2); method: Chromatography
Property: Mole fraction of 1-butanol (Liquid mixture 1); method: Chromatography
Property: Mole fraction of ethanol (Liquid mixture 1); method: Chromatography
Property: Mole fraction of ethanol (Gas); method: Chromatography
Property: Mole fraction of 1-butanol (Gas); method: Chromatography
Temperature, K	Mole fraction of 1-butanol	uncertainty	Mole fraction of ethanol	uncertainty	Mole fraction of 1-butanol	uncertainty	Mole fraction of ethanol	uncertainty	Mole fraction of ethanol	uncertainty	Mole fraction of 1-butanol	uncertainty
366.1	.0175	.01	0	.01	.3726	.01	0	.01	0	.01	.253	.01
366.36	.022	.01	0	.01	.3606	.01	0	.01	0	.01	.246	.01
366.2	.0175	.01	.0091	.01	.3508	.01	.0127	.01	.0248	.01	.2205	.01
365.81	.02	.01	.0162	.01	.3321	.01	.023	.01	.0547	.01	.2132	.01
365.6	.021	.01	.018	.01	.3267	.01	.0234	.01	.061	.01	.2107	.01
365.11	.0303	.01	.0251	.01	.3013	.01	.0341	.01	.0905	.01	.1983	.01
365.38	.0567	.01	.0419	.01	.2778	.01	.0371	.01	.0808	.01	.203	.01

System: ethanol + 2-butanone + water; phases: Liquid mixture 2, Gas, Liquid mixture 1
Fixed: Pressure, kPa = 101.3
Property: Mole fraction of 2-butanone (Liquid mixture 2); method: Chromatography
Property: Mole fraction of ethanol (Liquid mixture 2); method: Chromatography
Property: Mole fraction of 2-butanone (Liquid mixture 1); method: Chromatography
Property: Mole fraction of ethanol (Liquid mixture 1); method: Chromatography
Property: Mole fraction of 2-butanone (Gas); method: Chromatography
Property: Mole fraction of ethanol (Gas); method: Chromatography
Temperature, K	Mole fraction of 2-butanone	uncertainty	Mole fraction of ethanol	uncertainty	Mole fraction of 2-butanone	uncertainty	Mole fraction of ethanol	uncertainty	Mole fraction of 2-butanone	uncertainty	Mole fraction of ethanol	uncertainty
346.65	.048	.01	0	.01	.5864	.01	0	.01	.6473	.01	0	.01
346.56	.0537	.01	.0119	.01	.539	.01	.0183	.01	.6371	.01	.0175	.01
346.54	.0562	.01	.0134	.01	.5348	.01	.0191	.01	.6358	.01	.0185	.01
346.51	.0594	.01	.0151	.01	.533	.01	.0195	.01	.6324	.01	.0213	.01
346.48	.0608	.01	.0158	.01	.5315	.01	.0206	.01	.63	.01	.0235	.01
346.45	.0632	.01	.0168	.01	.5281	.01	.0207	.01	.6271	.01	.0261	.01
346.42	.0666	.01	.0191	.01	.5108	.01	.0241	.01	.6165	.01	.0414	.01
346.38	.068	.01	.0201	.01	.4994	.01	.0263	.01	.6128	.01	.043	.01
346.35	.0695	.01	.0206	.01	.4883	.01	.0296	.01	.6	.01	.0567	.01
346.31	.0728	.01	.0239	.01	.4733	.01	.0315	.01	.5973	.01	.0596	.01
346.26	.0761	.01	.0247	.01	.4478	.01	.0357	.01	.5892	.01	.0685	.01
346.79	.045	.01	0	.01	.585	.01	0	.01	.649	.01	0	.01
346.19	.0838	.01	.028	.01	.4226	.01	.0389	.01	.583	.01	.0761	.01
346.12	.0872	.01	.0297	.01	.4033	.01	.0401	.01	.5723	.01	.0892	.01
345.65	.0908	.01	.0305	.01	.3669	.01	.0421	.01	.5551	.01	.1082	.01
346.7	.0443	.01	0	.01	.5837	.01	0	.01	.6513	.01	0	.01
346.68	.0462	.01	.0041	.01	.579	.01	.006	.01	.6463	.01	.0045	.01
346.67	.0472	.01	.0053	.01	.5692	.01	.01	.01	.6449	.01	.006	.01
346.65	.048	.01	.0071	.01	.5689	.01	.0114	.01	.6434	.01	.008	.01
346.63	.048	.01	.0092	.01	.5612	.01	.0124	.01	.6395	.01	.0128	.01
346.61	.0492	.01	.0097	.01	.5583	.01	.0136	.01	.6381	.01	.0141	.01
346.59	.051	.01	.0101	.01	.5481	.01	.0155	.01	.6375	.01	.0156	.01

System: 1-propanol + 2-butanone + water; phases: Liquid mixture 2, Gas, Liquid mixture 1
Fixed: Pressure, kPa = 101.3
Property: Mole fraction of 1-propanol (Liquid mixture 2); method: Chromatography
Property: Mole fraction of 2-butanone (Liquid mixture 2); method: Chromatography
Property: Mole fraction of 2-butanone (Liquid mixture 1); method: Chromatography
Property: Mole fraction of 1-propanol (Liquid mixture 1); method: Chromatography
Property: Mole fraction of 2-butanone (Gas); method: Chromatography
Property: Mole fraction of 1-propanol (Gas); method: Chromatography
Temperature, K	Mole fraction of 1-propanol	uncertainty	Mole fraction of 2-butanone	uncertainty	Mole fraction of 2-butanone	uncertainty	Mole fraction of 1-propanol	uncertainty	Mole fraction of 2-butanone	uncertainty	Mole fraction of 1-propanol	uncertainty
346.75	0	.01	.0492	.01	.5891	.01	0	.01	.6482	.01	0	.01
349.76	.0084	.01	.0486	.01	.5229	.01	.0285	.01	.6218	.01	.0251	.01
350.19	.0096	.01	.0496	.01	.5155	.01	.0329	.01	.6183	.01	.0268	.01
350.43	.0122	.01	.0496	.01	.5032	.01	.0365	.01	.6115	.01	.0325	.01
350.61	.0148	.01	.0503	.01	.4995	.01	.0373	.01	.6092	.01	.0334	.01
350.88	.0166	.01	.0516	.01	.4884	.01	.0409	.01	.6035	.01	.0379	.01
351.7	.0177	.01	.0524	.01	.4725	.01	.0491	.01	.6014	.01	.0397	.01
352.65	.0228	.01	.0544	.01	.4547	.01	.0513	.01	.5985	.01	.0419	.01
352.65	.0241	.01	.0538	.01	.4334	.01	.0601	.01	.5967	.01	.0441	.01
352.7	.0248	.01	.0575	.01	.4256	.01	.0596	.01	.5908	.01	.0473	.01
346.77	0	.01	.0475	.01	.585	.01	0	.01	.649	.01	0	.01
346.74	0	.01	.0445	.01	.5803	.01	0	.01	.6463	.01	0	.01
346.84	.0005	.01	.0454	.01	.5778	.01	.005	.01	.6438	.01	.0057	.01
347.39	.0011	.01	.0454	.01	.5736	.01	.0117	.01	.6399	.01	.0099	.01
347.69	.0023	.01	.0464	.01	.5647	.01	.0117	.01	.6369	.01	.0111	.01
348.63	.0039	.01	.0469	.01	.5549	.01	.018	.01	.6345	.01	.0143	.01
348.99	.0058	.01	.0473	.01	.5458	.01	.0219	.01	.6307	.01	.0182	.01
349.21	.0078	.01	.0476	.01	.5414	.01	.0241	.01	.6247	.01	.022	.01

System: 2-propanol + 2-butanone + water; phases: Liquid mixture 2, Gas, Liquid mixture 1
Fixed: Pressure, kPa = 101.3
Property: Mole fraction of 2-propanol (Liquid mixture 2); method: Chromatography
Property: Mole fraction of 2-butanone (Liquid mixture 2); method: Chromatography
Property: Mole fraction of 2-butanone (Liquid mixture 1); method: Chromatography
Property: Mole fraction of 2-propanol (Liquid mixture 1); method: Chromatography
Property: Mole fraction of 2-butanone (Gas); method: Chromatography
Property: Mole fraction of 2-propanol (Gas); method: Chromatography
Temperature, K	Mole fraction of 2-propanol	uncertainty	Mole fraction of 2-butanone	uncertainty	Mole fraction of 2-butanone	uncertainty	Mole fraction of 2-propanol	uncertainty	Mole fraction of 2-butanone	uncertainty	Mole fraction of 2-propanol	uncertainty
346.68	0	.01	.0466	.01	.5828	.01	0	.01	.6476	.01	0	.01
346.67	.0144	.01	.0495	.01	.5481	.01	.0264	.01	.6214	.01	.02	.01
346.66	.0167	.01	.0502	.01	.5454	.01	.028	.01	.6158	.01	.0234	.01
346.65	.0211	.01	.0511	.01	.541	.01	.0305	.01	.6107	.01	.0279	.01
346.64	.024	.01	.0514	.01	.5349	.01	.0375	.01	.6041	.01	.0307	.01
346.64	.0284	.01	.0505	.01	.5221	.01	.0437	.01	.5959	.01	.0376	.01
346.63	.0319	.01	.0507	.01	.5103	.01	.0513	.01	.5873	.01	.0456	.01
346.63	.0336	.01	.0515	.01	.5041	.01	.0545	.01	.5804	.01	.0498	.01
346.62	.0348	.01	.0519	.01	.4928	.01	.0602	.01	.568	.01	.0586	.01
346.61	.0368	.01	.0527	.01	.4903	.01	.0626	.01	.5617	.01	.0621	.01
346.6	.0388	.01	.0551	.01	.472	.01	.0697	.01	.5331	.01	.0833	.01
346.75	0	.01	.0468	.01	.5821	.01	0	.01	.6461	.01	0	.01
346.6	.0417	.01	.059	.01	.4492	.01	.0769	.01	.5243	.01	.0919	.01
346.6	.0443	.01	.0612	.01	.4233	.01	.0812	.01	.5107	.01	.1018	.01
346.59	.046	.01	.0645	.01	.3925	.01	.0927	.01	.4993	.01	.1084	.01
346.58	.0497	.01	.0704	.01	.3576	.01	.0959	.01	.4875	.01	.115	.01
346.52	.0566	.01	.0823	.01	.3491	.01	.0983	.01	.4758	.01	.1216	.01
346.7	0	.01	.0454	.01	.5811	.01	0	.01	.6468	.01	0	.01
346.7	.0023	.01	.0469	.01	.576	.01	.0054	.01	.6385	.01	.0077	.01
346.69	.0033	.01	.0468	.01	.572	.01	.0094	.01	.6369	.01	.0088	.01
346.69	.0054	.01	.0466	.01	.5702	.01	.0108	.01	.6341	.01	.0108	.01
346.68	.0067	.01	.0468	.01	.5643	.01	.0146	.01	.6291	.01	.015	.01
346.67	.0111	.01	.0477	.01	.5585	.01	.0186	.01	.625	.01	.0171	.01
346.67	.0119	.01	.0491	.01	.5523	.01	.023	.01	.623	.01	.0195	.01

System: 1-butanol + water; phases: Liquid mixture 2, Liquid mixture 1, Gas
Property: Mole fraction of 1-butanol (Liquid mixture 2); method: Chromatography
Temperature, K	Mole fraction of 1-butanol	uncertainty
366.23	.0198	

System: 1-butanol + water; phases: Gas, Liquid mixture 1, Liquid mixture 2
Property: Vapor or sublimation pressure, kPa (Gas); method: Ebulliometric method (Recirculating still)
Temperature, K	Vapor or sublimation pressure, kPa	uncertainty
366.23	101.3	

System: 1-butanol + water; phases: Liquid mixture 1, Liquid mixture 2, Gas
Property: Mole fraction of 1-butanol (Liquid mixture 1); method: Chromatography
Temperature, K	Mole fraction of 1-butanol	uncertainty
366.23	.3666	

System: 1-butanol + water; phases: Gas, Liquid mixture 2, Liquid mixture 1
Property: Mole fraction of 1-butanol (Gas); method: Chromatography
Temperature, K	Mole fraction of 1-butanol	uncertainty
366.23	.2495	

System: 2-butanone + water; phases: Liquid mixture 2, Liquid mixture 1, Gas
Property: Mole fraction of 2-butanone (Liquid mixture 2); method: Chromatography
Temperature, K	Mole fraction of 2-butanone	uncertainty
346.73	.0464	

System: 2-butanone + water; phases: Gas, Liquid mixture 1, Liquid mixture 2
Property: Vapor or sublimation pressure, kPa (Gas); method: Ebulliometric method (Recirculating still)
Temperature, K	Vapor or sublimation pressure, kPa	uncertainty
346.73	101.3	

System: 2-butanone + water; phases: Liquid mixture 1, Liquid mixture 2, Gas
Property: Mole fraction of 2-butanone (Liquid mixture 1); method: Chromatography
Temperature, K	Mole fraction of 2-butanone	uncertainty
346.73	.5839	

System: 2-butanone + water; phases: Gas, Liquid mixture 2, Liquid mixture 1
Property: Mole fraction of 2-butanone (Gas); method: Chromatography
Temperature, K	Mole fraction of 2-butanone	uncertainty
346.73	.648	

System: 2-butanone + water; phases: Liquid, Gas
Property: Azeotropic temperature, K (Liquid); method: By X=Y
Mole fraction of 2-butanone	Azeotropic temperature, K	uncertainty
.647	346.65	

System: 2-butanone + water; phases: Liquid, Gas
Property: Azeotropic pressure, kPa (Liquid); method: By X=Y
Mole fraction of 2-butanone	Azeotropic pressure, kPa	uncertainty
.647	101.3	

System: ethanol + water; phases: Liquid, Gas
Property: Azeotropic temperature, K (Liquid); method: By X=Y
Mole fraction of ethanol	Azeotropic temperature, K	uncertainty
.895	351.3	

System: ethanol + water; phases: Liquid, Gas
Property: Azeotropic pressure, kPa (Liquid); method: By X=Y
Mole fraction of ethanol	Azeotropic pressure, kPa	uncertainty
.895	101.3	
