Measured thermophysical data. Thermodynamic Properties of 1,4-Benzoquinones in Gaseous and Condensed Phases: Experimental and Theoretical Studies
Source: J. Chem. Eng. Data, 2017, 10.1021/acs.jced.7b00354
Compound 1: 1,4-benzoquinone, C6H4O2, purity 99.5%
Compound 2: 2-methyl-1,4-benzoquinone, C7H6O2, purity 99%
Compound 3: benzene, C6H6, purity 99.8%
Compound 4: water, H2O, purity 99.9%
Compound 5: carbon dioxide, CO2
Compound 6: oxygen, O2

System: 1,4-benzoquinone; phases: Crystal, Gas
Property: Vapor or sublimation pressure, kPa (Crystal); method: Transpiration method
Temperature, K	Vapor or sublimation pressure, kPa	uncertainty
290.2	.01002	
293.4	.01343	
297.5	.02081	
298.5	.02319	
301.4	.03014	
303.1	.03408	
307.3	.05078	
308.3	.0527	
310.2	.06526	
313.3	.07951	
314.1	.08416	
317.3	.10981	
320.1	.13643	
323	.17826	
323.3	.18413	
324.2	.18608	
327.2	.25019	
327.2	.24172	
328.1	.26589	
330.3	.30654	
333.2	.38459	
333.2	.38324	
334.2	.41162	
338.1	.55041	
338.2	.5497	
338.2	.55253	

System: 2-methyl-1,4-benzoquinone; phases: Crystal, Gas
Property: Vapor or sublimation pressure, kPa (Crystal); method: Transpiration method
Temperature, K	Vapor or sublimation pressure, kPa	uncertainty
282.2	.00318	
285.6	.00523	
285.6	.0051	
286.8	.00566	
288.5	.00664	
288.5	.00678	
290.8	.0091	
295.2	.01426	
300.4	.02498	
305.3	.04235	
310.2	.06335	
312.9	.08525	
315.2	.1054	
317.9	.1305	
320.1	.1774	
322	.2004	
325.1	.2769	
327.8	.3444	
330.1	.4336	
331.6	.4466	
332.1	.5012	
335.2	.6342	
336.7	.7271	

System: 2-methyl-1,4-benzoquinone; phases: Liquid, Gas
Property: Vapor or sublimation pressure, kPa (Liquid); method: Transpiration method
Temperature, K	Vapor or sublimation pressure, kPa	uncertainty
343.2	1.019	
347.2	1.2637	
351.2	1.5522	
355.1	1.9474	
356.8	2.1041	
359.1	2.3732	
363.1	2.9404	

System: 2-methyl-1,4-benzoquinone + benzene; phases: Liquid
Fixed: Temperature, K = 298.15
Fixed: Pressure, kPa = 100
Property: Molar enthalpy of solution, kJ/mol (Liquid); method: Isoperibol calorimetry
Mole fraction of 2-methyl-1,4-benzoquinone	Molar enthalpy of solution, kJ/mol	uncertainty
0	20.87	

Reaction: -1 2-methyl-1,4-benzoquinone + 7 carbon dioxide + 3 water + -7.5 oxygen
Property: Specific internal energy of reaction at constant volume, J/g
-27609.6
