Measured thermophysical data. Measurement and Correlation of the Solubility of Vanillic Acid in Eight Pure and Water + Ethanol Mixed Solvents at Temperatures from (293.15 to 323.15) K
Source: J. Chem. Eng. Data, 2016, 10.1021/acs.jced.5b00619
Compound 1: vanillic acid, C8H8O4, purity 99.0%
Compound 2: ethanol, C2H6O, purity 99.7%
Compound 3: 1-propanol, C3H8O, purity 99.8%
Compound 4: 2-propanol, C3H8O, purity 99.7%
Compound 5: n-butanol, C4H10O, purity 99.5%
Compound 6: isobutanol, C4H10O, purity 99.5%
Compound 7: acetone, C3H6O, purity 99.5%
Compound 8: methyl acetate, C3H6O2, purity 99.5%
Compound 9: water, H2O, purity 99.8%

System: vanillic acid; phases: Crystal, Liquid, Air at 1 atmosphere
Property: Normal melting temperature, K (Crystal); method: DSC/DTA
Normal melting temperature, K	uncertainty
484.9	.2

System: vanillic acid; phases: Crystal, Liquid, Air at 1 atmosphere
Property: Molar enthalpy of transition or fusion, kJ/mol (Crystal); method: DSC
Molar enthalpy of transition or fusion, kJ/mol	uncertainty
32.8	.656

System: ethanol + vanillic acid; phases: Liquid, Crystal
Fixed: Pressure, kPa = 100
Property: Mole fraction of vanillic acid (Liquid); method: gravimetric
Temperature, K	Mole fraction of vanillic acid	uncertainty
293.15	.0298	.0003
298.15	.0345	.0002
303.15	.0384	.0001
308.15	.0434	.0003
313.15	.0493	.0005
318.15	.0544	.0006
323.15	.0615	.0004

System: 1-propanol + vanillic acid; phases: Liquid, Crystal
Fixed: Pressure, kPa = 100
Property: Mole fraction of vanillic acid (Liquid); method: gravimetric
Temperature, K	Mole fraction of vanillic acid	uncertainty
293.15	.02	.0002
298.15	.0241	.0002
303.15	.0282	.0003
308.15	.0335	.0001
313.15	.0398	.0005
318.15	.0472	.0004
323.15	.0548	.0006

System: 2-propanol + vanillic acid; phases: Liquid, Crystal
Fixed: Pressure, kPa = 100
Property: Mole fraction of vanillic acid (Liquid); method: gravimetric
Temperature, K	Mole fraction of vanillic acid	uncertainty
293.15	.0256	.0003
298.15	.0292	.0001
303.15	.0334	.0005
308.15	.038	.0001
313.15	.0426	.0003
318.15	.0475	.0006
323.15	.0532	.0002

System: n-butanol + vanillic acid; phases: Liquid, Crystal
Fixed: Pressure, kPa = 100
Property: Mole fraction of vanillic acid (Liquid); method: gravimetric
Temperature, K	Mole fraction of vanillic acid	uncertainty
293.15	.0229	.0001
298.15	.0263	.0003
303.15	.0309	.0006
308.15	.0357	.0002
313.15	.0408	.0003
318.15	.0468	.0005
323.15	.0536	.0001

System: isobutanol + vanillic acid; phases: Liquid, Crystal
Fixed: Pressure, kPa = 100
Property: Mole fraction of vanillic acid (Liquid); method: gravimetric
Temperature, K	Mole fraction of vanillic acid	uncertainty
293.15	.0113	.0006
298.15	.0142	.0003
303.15	.0175	.0002
308.15	.0217	.0004
313.15	.0268	.0007
318.15	.0334	.0003
323.15	.0408	.0001

System: acetone + vanillic acid; phases: Liquid, Crystal
Fixed: Pressure, kPa = 100
Property: Mole fraction of vanillic acid (Liquid); method: gravimetric
Temperature, K	Mole fraction of vanillic acid	uncertainty
293.15	.0586	.0005
298.15	.0661	.0001
303.15	.0743	.0003
308.15	.0825	.0002
313.15	.0916	.0006
318.15	.1014	.0004
323.15	.1107	.0007

System: methyl acetate + vanillic acid; phases: Liquid, Crystal
Fixed: Pressure, kPa = 100
Property: Mole fraction of vanillic acid (Liquid); method: gravimetric
Temperature, K	Mole fraction of vanillic acid	uncertainty
293.15	.0207	.0003
298.15	.0257	.0002
303.15	.0316	.0004
308.15	.0379	.0001
313.15	.0462	.0007
318.15	.0552	.0004
323.15	.0663	.0003

System: vanillic acid + water; phases: Liquid, Crystal
Fixed: Pressure, kPa = 100
Property: Mole fraction of vanillic acid (Liquid); method: gravimetric
Temperature, K	Mole fraction of vanillic acid	uncertainty
293.15	.000126	.000001
298.15	.00016	.000004
303.15	.000205	.000007
308.15	.000253	.000003
313.15	.000315	.000002
318.15	.000385	.000005
323.15	.000466	.000001

System: ethanol + vanillic acid + water; phases: Liquid, Crystal
Fixed: Pressure, kPa = 100
Property: Mole fraction of vanillic acid (Liquid); method: gravimetric
Solvent: Mass fraction of water	Temperature, K	Mole fraction of vanillic acid	uncertainty
.1	293.15	.0283	.0002
.1	298.15	.0311	.0001
.1	303.15	.0344	.0004
.1	308.15	.0382	.0003
.1	313.15	.0425	.0006
.1	318.15	.0468	.0004
.1	323.15	.0539	.0005
.2	293.15	.0248	.0003
.2	298.15	.0277	.0001
.2	303.15	.0308	.0004
.2	308.15	.0344	.0002
.2	313.15	.0381	.0006
.2	318.15	.0423	.0004
.2	323.15	.047	.0003
.3	293.15	.0197	.0004
.3	298.15	.0218	.0002
.3	303.15	.0247	.0002
.3	308.15	.0277	.0001
.3	313.15	.0308	.0003
.3	318.15	.0335	.0007
.3	323.15	.0384	.0006
.4	293.15	.0142	.0002
.4	298.15	.016	.0004
.4	303.15	.0184	.0003
.4	308.15	.0207	.0003
.4	313.15	.0231	.0001
.4	318.15	.0253	.0002
.4	323.15	.0288	.0005
.5	293.15	.00907	.00004
.5	298.15	.0105	.0002
.5	303.15	.0122	.0005
.5	308.15	.014	.0002
.5	313.15	.0157	.0004
.5	318.15	.0174	.0006
.5	323.15	.0189	.0001
.6	293.15	.00509	.00003
.6	298.15	.00584	.00001
.6	303.15	.00691	.00002
.6	308.15	.00786	.00005
.6	313.15	.00891	.00004
.6	318.15	.00969	.00007
.6	323.15	.011	.0002
.7	293.15	.00235	.00003
.7	298.15	.00278	.00001
.7	303.15	.00312	.00004
.7	308.15	.00368	.00002
.7	313.15	.00421	.00002
.7	318.15	.00473	.00005
.7	323.15	.00537	.00007
.8	293.15	.000905	.000006
.8	298.15	.00103	.00002
.8	303.15	.00125	.00005
.8	308.15	.00144	.00002
.8	313.15	.00174	.00004
.8	318.15	.00192	.00005
.8	323.15	.00224	.00003
.9	293.15	.000283	.000002
.9	298.15	.000343	.000004
.9	303.15	.000401	.000003
.9	308.15	.000483	.000001
.9	313.15	.000566	.000002
.9	318.15	.000673	.000005
.9	323.15	.000772	.000003
