Measured thermophysical data. Enthalpy of Vaporization Measurements of Liquid Methane, Ethane, and Methane + Ethane by Differential Scanning Calorimetry at Low Temperatures and High Pressures
Source: J. Chem. Eng. Data, 2017, 10.1021/acs.jced.6b00984
Compound 1: ethane, C2H6, purity 99.99%
Compound 2: methane, CH4, purity 99.995%

System: ethane; phases: Liquid, Gas
Property: Molar enthalpy of vaporization or sublimation, kJ/mol (Liquid); method: DSC
Temperature, K	Molar enthalpy of vaporization or sublimation, kJ/mol	uncertainty
208.94	13891.89648	
213.47	13260.44664	
191.67	14493.27728	

System: methane; phases: Liquid, Gas
Property: Molar enthalpy of vaporization or sublimation, kJ/mol (Liquid); method: DSC
Temperature, K	Molar enthalpy of vaporization or sublimation, kJ/mol	uncertainty
127.96	7716.42326	
118.04	8053.31492	
133.15	7620.1685	
123.15	7908.93278	
108.15	7652.25342	

System: methane; phases: Liquid, Gas
Property: Molar enthalpy of vaporization or sublimation, kJ/mol (Liquid); method: DSC
Temperature, K	Molar enthalpy of vaporization or sublimation, kJ/mol	uncertainty
108.15	7652.25342	
