Measured thermophysical data. Solubility of Fenofibrate in Different Binary Solvents: Experimental Data and Results of Thermodynamic Modeling
Source: J. Chem. Eng. Data, 2016, 10.1021/acs.jced.6b00268
Compound 1: fenofibrate, C20H21ClO4, purity 99.8%
Compound 2: ethanol, C2H6O, purity 99.7%
Compound 3: acetone, C3H6O, purity 99.5%
Compound 4: water, H2O, purity 99.8%

System: fenofibrate; phases: Crystal, Liquid, Air at 1 atmosphere
Property: Normal melting temperature, K (Crystal); method: DSC/DTA
Normal melting temperature, K	uncertainty
353.62	.5

System: fenofibrate; phases: Crystal, Liquid, Air at 1 atmosphere
Property: Molar enthalpy of transition or fusion, kJ/mol (Crystal); method: DSC
Molar enthalpy of transition or fusion, kJ/mol	uncertainty
31.175801856	.15587900928

System: ethanol + water + fenofibrate; phases: Liquid, Crystal
Fixed: Pressure, kPa = 100
Property: Mole fraction of fenofibrate (Liquid); method: Titration method
Temperature, K	Solvent: Mole fraction of ethanol	Mole fraction of fenofibrate	uncertainty
278.15	.1992	.00002013	
278.15	.382	.00007868	
278.15	.6013	.00046114	
278.15	.7883	.00152961	
278.15	1	.00274596	
283.15	.1992	.00003122	
283.15	.382	.00013494	
283.15	.6013	.00076133	
283.15	.7883	.00210211	
283.15	1	.00383741	
288.15	.1992	.00004264	
288.15	.382	.00020344	
288.15	.6013	.00117567	
288.15	.7883	.00279653	
288.15	1	.00516506	
293.15	.1992	.00005679	
293.15	.382	.00029295	
293.15	.6013	.00159809	
293.15	.7883	.00389721	
293.15	1	.0068076	
298.15	.1992	.00007234	
298.15	.382	.0004086	
298.15	.6013	.00220104	
298.15	.7883	.00541592	
298.15	1	.00933989	
303.15	.1992	.00008811	
303.15	.382	.00058155	
303.15	.6013	.00302964	
303.15	.7883	.00742803	
303.15	1	.01310742	
308.15	.1992	.00010584	
308.15	.382	.00083466	
308.15	.6013	.00446021	
308.15	.7883	.0108892	
308.15	1	.02014386	

System: acetone + water + fenofibrate; phases: Liquid, Crystal
Fixed: Pressure, kPa = 100
Property: Mole fraction of fenofibrate (Liquid); method: Titration method
Temperature, K	Solvent: Mole fraction of acetone	Mole fraction of fenofibrate	uncertainty
278.15	.1981	.0000674	
278.15	.4211	.0013217	
278.15	.6124	.0094582	
278.15	.8057	.0291766	
278.15	1	.0627294	
283.15	.1981	.0000874	
283.15	.4211	.0020673	
283.15	.6124	.0121784	
283.15	.8057	.0379691	
283.15	1	.0770991	
288.15	.1981	.0001142	
288.15	.4211	.0028497	
288.15	.6124	.0173381	
288.15	.8057	.0499791	
288.15	1	.0971571	
293.15	.1981	.0001376	
293.15	.4211	.0040183	
293.15	.6124	.0239186	
293.15	.8057	.0678086	
293.15	1	.120461	
298.15	.1981	.0001668	
298.15	.4211	.0057038	
298.15	.6124	.036528	
298.15	.8057	.0873905	
298.15	1	.1474556	
303.15	.1981	.0002053	
303.15	.4211	.0084598	
303.15	.6124	.0523658	
303.15	.8057	.1137514	
303.15	1	.1802957	

System: ethanol + fenofibrate; phases: Liquid, Crystal
Property: Mole fraction of fenofibrate (Liquid); method: Titration method
Temperature, K	Pressure, kPa	Mole fraction of fenofibrate	uncertainty
278.15	100	.00274596	
283.15	100	.00383741	
288.15	100	.00516506	
293.15	100	.0068076	
298.15	100	.00933989	
303.15	100	.01310742	
308.15	100	.02014386	

System: acetone + fenofibrate; phases: Liquid, Crystal
Property: Mole fraction of fenofibrate (Liquid); method: Titration method
Temperature, K	Pressure, kPa	Mole fraction of fenofibrate	uncertainty
278.15	100	.0627294	
283.15	100	.0770991	
288.15	100	.0971571	
293.15	100	.120461	
298.15	100	.1474556	
303.15	100	.1802957	
