Measured thermophysical data. Phase Equilibria in the Quaternary Systems KCl PbCl2 ZnCl2 H2O and MgCl2 PbCl2 ZnCl2 H2O at 373 K
Source: J. Chem. Eng. Data, 2017, 10.1021/acs.jced.7b00218
Compound 1: potassium chloride, ClK, purity 99.5%
Compound 2: magnesium chloride, Cl2Mg, purity 98%
Compound 3: zinc chloride, Cl2Zn, purity 98%
Compound 4: lead chloride, Cl2Pb, purity 99.5%
Compound 5: water, H2O, purity 99.9%

System: potassium chloride + water + lead chloride; phases: Liquid, Crystal of intercomponent compound 1
Fixed: Temperature, K = 373
Fixed: Pressure, kPa = 94.77
Property: Mass fraction of lead chloride (Liquid); method: Titration method
Mass fraction of potassium chloride	Mass fraction of lead chloride	uncertainty
.1002	.0214	

System: potassium chloride + water + lead chloride; phases: Liquid, Crystal
Fixed: Temperature, K = 373
Fixed: Pressure, kPa = 94.77
Property: Mass fraction of lead chloride (Liquid); method: Titration method
Mass fraction of potassium chloride	Mass fraction of lead chloride	uncertainty
.1002	.0214	

System: potassium chloride + water + lead chloride; phases: Liquid, Crystal of intercomponent compound 1
Fixed: Temperature, K = 373
Fixed: Pressure, kPa = 94.77
Property: Mass fraction of lead chloride (Liquid); method: Titration method
Mass fraction of potassium chloride	Mass fraction of lead chloride	uncertainty
.3484	.0689	

System: potassium chloride + water + lead chloride; phases: Liquid, Crystal
Fixed: Temperature, K = 373
Fixed: Pressure, kPa = 94.77
Property: Mass fraction of lead chloride (Liquid); method: Titration method
Mass fraction of potassium chloride	Mass fraction of lead chloride	uncertainty
.3484	.0689	

System: potassium chloride + zinc chloride + water; phases: Liquid, Crystal of intercomponent compound 2
Fixed: Temperature, K = 373
Fixed: Pressure, kPa = 94.77
Property: Mass fraction of zinc chloride (Liquid); method: Titration method
Mass fraction of potassium chloride	Mass fraction of zinc chloride	uncertainty
.4314	.3774	

System: potassium chloride + zinc chloride + water; phases: Liquid, Crystal
Fixed: Temperature, K = 373
Fixed: Pressure, kPa = 94.77
Property: Mass fraction of zinc chloride (Liquid); method: Titration method
Mass fraction of potassium chloride	Mass fraction of zinc chloride	uncertainty
.4314	.3774	

System: potassium chloride + zinc chloride + water; phases: Liquid, Crystal of intercomponent compound 2
Fixed: Temperature, K = 373
Fixed: Pressure, kPa = 94.77
Property: Mass fraction of zinc chloride (Liquid); method: Titration method
Mass fraction of potassium chloride	Mass fraction of zinc chloride	uncertainty
.2933	.6185	

System: potassium chloride + zinc chloride + water; phases: Liquid, Crystal
Fixed: Temperature, K = 373
Fixed: Pressure, kPa = 94.77
Property: Mass fraction of zinc chloride (Liquid); method: Titration method
Mass fraction of potassium chloride	Mass fraction of zinc chloride	uncertainty
.2933	.6185	

System: zinc chloride + water + lead chloride; phases: Liquid, Crystal
Fixed: Temperature, K = 373
Fixed: Pressure, kPa = 94.77
Property: Mass fraction of zinc chloride (Liquid); method: Titration method
Mass fraction of lead chloride	Mass fraction of zinc chloride	uncertainty
.0335	.7693	

System: zinc chloride + water + lead chloride; phases: Liquid, Crystal
Fixed: Temperature, K = 373
Fixed: Pressure, kPa = 94.77
Property: Mass fraction of zinc chloride (Liquid); method: Titration method
Mass fraction of lead chloride	Mass fraction of zinc chloride	uncertainty
.0335	.7693	

System: water + lead chloride + magnesium chloride; phases: Liquid, Crystal of intercomponent compound 1
Fixed: Temperature, K = 373
Fixed: Pressure, kPa = 94.77
Property: Mass fraction of lead chloride (Liquid); method: Titration method
Mass fraction of magnesium chloride	Mass fraction of lead chloride	uncertainty
.3807	.0723	

System: water + lead chloride + magnesium chloride; phases: Liquid, Crystal
Fixed: Temperature, K = 373
Fixed: Pressure, kPa = 94.77
Property: Mass fraction of lead chloride (Liquid); method: Titration method
Mass fraction of magnesium chloride	Mass fraction of lead chloride	uncertainty
.3807	.0723	

System: zinc chloride + water + magnesium chloride; phases: Liquid, Crystal of intercomponent compound 1
Fixed: Temperature, K = 373
Fixed: Pressure, kPa = 94.77
Property: Mass fraction of zinc chloride (Liquid); method: Titration method
Mass fraction of magnesium chloride	Mass fraction of zinc chloride	uncertainty
.3954	.1134	

System: zinc chloride + water + magnesium chloride; phases: Liquid, Crystal of intercomponent compound 2
Fixed: Temperature, K = 373
Fixed: Pressure, kPa = 94.77
Property: Mass fraction of zinc chloride (Liquid); method: Titration method
Mass fraction of magnesium chloride	Mass fraction of zinc chloride	uncertainty
.3954	.1134	

System: zinc chloride + water + magnesium chloride; phases: Liquid, Crystal of intercomponent compound 2
Fixed: Temperature, K = 373
Fixed: Pressure, kPa = 94.77
Property: Mass fraction of zinc chloride (Liquid); method: Titration method
Mass fraction of magnesium chloride	Mass fraction of zinc chloride	uncertainty
.1514	.6251	

System: zinc chloride + water + magnesium chloride; phases: Liquid, Crystal
Fixed: Temperature, K = 373
Fixed: Pressure, kPa = 94.77
Property: Mass fraction of zinc chloride (Liquid); method: Titration method
Mass fraction of magnesium chloride	Mass fraction of zinc chloride	uncertainty
.1514	.6251	
