Measured thermophysical data. Apparatus to measure the vapor pressure of slowly decomposing compounds from 1 Pa to 105 Pa
Source: J. Chem. Eng. Data, 2015, 10.1021/acs.jced.5b00752
Compound 1: naphthalene, C10H8, purity 99.7%
Compound 2: bis(cyclopentadienyl)iron, C10H10Fe, purity 99.8%
Compound 3: 1,2-benzenedicarboxylic acid, diethyl ester, C12H14O4, purity 99.5%
Compound 4: tetrakis(ethylmethylamino)hafnium, C12H32HfN4, purity 99.0%

System: naphthalene; phases: Crystal, Gas
Property: Vapor or sublimation pressure, kPa (Crystal); method: Closed cell (Static) method
Temperature, K	Vapor or sublimation pressure, kPa	uncertainty
312.203	.04084	.00089
312.205	.04083	.00089
317.21	.06326	.00072
322.21	.09622	.00061
327.211	.14465	.00054
332.21	.21532	.00049
337.206	.31504	.00046
337.207	.31543	.00046
342.185	.45565	.00044
347.186	.65104	.00043
347.187	.65096	.00043
352.194	.92131	.00042

System: naphthalene; phases: Liquid, Gas
Property: Vapor or sublimation pressure, kPa (Liquid); method: Closed cell (Static) method
Temperature, K	Vapor or sublimation pressure, kPa	uncertainty
357.19	1.2003	.00042
357.191	1.1997	.00042
362.196	1.5207	.00041
367.209	1.9152	.00041
367.209	1.9138	.00041
372.218	2.3935	.00041
377.219	2.9662	.00041
377.221	2.9669	.00041
377.223	2.9662	.00041
382.22	3.6566	.00041
387.227	4.4747	.0004
387.232	4.4749	.0004
387.233	4.4758	.0004
392.242	5.4504	.0004
397.269	6.5926	.0004
397.269	6.5931	.0004
397.271	6.5956	.0004
402.368	7.9615	.0004
407.325	9.5024	.0004
412.397	11.329	.0004
422.548	15.876	.0004
432.579	21.747	.0004
442.461	29.184	.0004
452.367	38.569	.0004

System: bis(cyclopentadienyl)iron; phases: Liquid, Gas
Property: Vapor or sublimation pressure, kPa (Liquid); method: Closed cell (Static) method
Temperature, K	Vapor or sublimation pressure, kPa	uncertainty
452.085	19.481	.0008

System: bis(cyclopentadienyl)iron; phases: Crystal, Gas
Property: Vapor or sublimation pressure, kPa (Crystal); method: Closed cell (Static) method
Temperature, K	Vapor or sublimation pressure, kPa	uncertainty
312.204	.00369	.00893
312.208	.00359	.00916
322.209	.009	.00413
322.212	.00911	.00409
332.202	.02078	.00224
332.208	.02086	.00224
332.211	.02071	.00225
342.178	.04497	.00147
342.179	.04517	.00146
352.169	.09323	.00112
352.169	.09272	.00112
352.171	.09373	.00112
352.172	.0934	.00112
352.176	.09249	.00112
352.176	.09264	.00112
352.182	.09328	.00112
352.192	.0936	.00112
362.17	.18507	.00096
362.171	.18504	.00096
362.184	.18543	.00096
372.197	.35427	.00088
382.193	.65079	.00085
392.198	1.1582	.00083
402.264	2.0005	.00081
402.311	2.0081	.00081
412.238	3.3459	.00081
412.318	3.3606	.00081
422.287	5.4701	.00081
422.403	5.5017	.00081
432.418	8.7562	.0008
442.265	13.532	.0008

System: 1,2-benzenedicarboxylic acid, diethyl ester; phases: Liquid, Gas
Property: Vapor or sublimation pressure, kPa (Liquid); method: Closed cell (Static) method
Temperature, K	Vapor or sublimation pressure, kPa	uncertainty
312.211	.00032	.027
312.211	.00035	.0249
322.213	.00105	.0096
322.213	.00103	.0098
332.211	.00269	.005
342.187	.00623	.0033
352.183	.01358	.0026
352.197	.01352	.0026
362.198	.02775	.0023
372.193	.05429	.0021
372.2	.05407	.0021
372.219	.05424	.0021
382.225	.10085	.0021
392.241	.18206	.002
402.368	.31685	.002
412.38	.53031	.002
422.489	.86213	.002
442.276	2.0823	.002
452.116	3.0989	.002

System: tetrakis(ethylmethylamino)hafnium; phases: Crystal, Gas
Property: Vapor or sublimation pressure, kPa (Crystal); method: Closed cell (Static) method
Temperature, K	Vapor or sublimation pressure, kPa	uncertainty
312.194	.00296	.00007
322.2	.00715	.00005
332.202	.01587	.00005
342.179	.03287	.00013
352.192	.0644	.0003
362.195	.121	.0008
372.213	.216	.002
382.212	.37	.005
392.238	.591	.014
