Measured thermophysical data. Experimental determination and correlation of liquid-liquid equilibria data for a system of water + ethanol +1-butyl-3- methylimidazolium hexafluorophosphate at different temperatures
Source: J. Chem. Eng. Data, 2017, 10.1021/acs.jced.6b00829
Compound 1: 1-butyl-3-methylimidazolium hexafluorophosphate, C8H15F6N2P, purity 99.0%
Compound 2: water, H2O, purity 99.8%
Compound 3: ethanol, C2H6O, purity 99.8%

System: 1-butyl-3-methylimidazolium hexafluorophosphate; phases: Liquid
Fixed: Pressure, kPa = 101.325
Property: Mass density, kg/m3 (Liquid); method: Vibrating tube method
Temperature, K	Mass density, kg/m3	uncertainty
298.15	1367.4	1

System: 1-butyl-3-methylimidazolium hexafluorophosphate; phases: Liquid
Fixed: Pressure, kPa = 101.325
Property: Refractive index (Na D-line) (Liquid); method: Standard Abbe refractometry
Temperature, K	Refractive index (Na D-line)	uncertainty
298.15	1.4095	.0002

System: water; phases: Liquid
Fixed: Pressure, kPa = 101.325
Property: Mass density, kg/m3 (Liquid); method: Vibrating tube method
Temperature, K	Mass density, kg/m3	uncertainty
298.15	997.06	1

System: water; phases: Liquid
Fixed: Pressure, kPa = 101.325
Property: Refractive index (Na D-line) (Liquid); method: Standard Abbe refractometry
Temperature, K	Refractive index (Na D-line)	uncertainty
298.15	1.3325	.0002

System: ethanol; phases: Liquid
Fixed: Pressure, kPa = 101.325
Property: Mass density, kg/m3 (Liquid); method: Vibrating tube method
Temperature, K	Mass density, kg/m3	uncertainty
298.15	786.47	1

System: ethanol; phases: Liquid
Fixed: Pressure, kPa = 101.325
Property: Refractive index (Na D-line) (Liquid); method: Standard Abbe refractometry
Temperature, K	Refractive index (Na D-line)	uncertainty
298.15	1.3594	.0002

System: ethanol + water + 1-butyl-3-methylimidazolium hexafluorophosphate; phases: Liquid mixture 1, Liquid mixture 2
Property: Mole fraction of ethanol (Liquid mixture 1); method: Other
Property: Mole fraction of water (Liquid mixture 2); method: Other
Property: Mole fraction of ethanol (Liquid mixture 2); method: Other
Temperature, K	Pressure, kPa	Mole fraction of water	Mole fraction of ethanol	uncertainty	Mole fraction of water	uncertainty	Mole fraction of ethanol	uncertainty
283.2	101.3	.205	0	.005	.999	.005	0	.005
323.2	101.3	.417	.044	.005	.974	.005	.023	.005
323.2	101.3	.447	.092	.005	.951	.005	.046	.005
303.2	101.3	.356	.162	.005	.877	.005	.119	.005
323.2	101.3	.477	.151	.005	.913	.005	.082	.005
283.2	101.3	.278	.26	.005	.651	.005	.336	.005
323.2	101.3	.499	.178	.005	.884	.005	.108	.005
283.2	101.3	0	.434	.005	0	.005	.996	.005
323.2	101.3	.534	.191	.005	.832	.005	.153	.005
323.2	101.3	.561	.205	.005	.803	.005	.172	.005
323.2	101.3	0	.765	.005	0	.005	.958	.005
303.2	101.3	.076	.581	.005	.078	.005	.903	.005
283.2	101.3	.229	.122	.005	.871	.005	.127	.005
283.2	101.3	.221	.019	.005	.974	.005	.025	.005
283.2	101.3	.237	.156	.005	.838	.005	.159	.005
303.2	101.3	.386	.199	.005	.845	.005	.15	.005
283.2	101.3	.248	.18	.005	.807	.005	.19	.005
283.2	101.3	.258	.197	.005	.774	.005	.222	.005
283.2	101.3	.269	.22	.005	.732	.005	.261	.005
283.2	101.3	.286	.268	.005	.625	.005	.36	.005
283.2	101.3	.273	.234	.005	.707	.005	.285	.005
283.2	101.3	.288	.282	.005	.603	.005	.381	.005
303.2	101.3	.102	.605	.005	.105	.005	.871	.005
283.2	101.3	.295	.298	.005	.561	.005	.419	.005
283.2	101.3	.288	.326	.005	.519	.005	.458	.005
283.2	101.3	.28	.349	.005	.488	.005	.485	.005
283.2	101.3	.233	.413	.005	.352	.005	.621	.005
283.2	101.3	.274	.364	.005	.454	.005	.517	.005
283.2	101.3	.193	.426	.005	.279	.005	.7	.005
283.2	101.3	.164	.432	.005	.241	.005	.743	.005
283.2	101.3	.133	.433	.005	.193	.005	.795	.005
283.2	101.3	.078	.434	.005	.111	.005	.881	.005
303.2	101.3	.297	0	.005	.999	.005	0	.005
283.2	101.3	.059	.43	.005	.081	.005	.912	.005
303.2	101.3	.315	.03	.005	.977	.005	.022	.005
303.2	101.3	.318	.073	.005	.946	.005	.052	.005
283.2	101.3	.221	.043	.005	.943	.005	.056	.005
303.2	101.3	.347	.125	.005	.907	.005	.091	.005
303.2	101.3	.417	.215	.005	.81	.005	.181	.005
303.2	101.3	.428	.249	.005	.78	.005	.207	.005
303.2	101.3	.442	.283	.005	.725	.005	.254	.005
283.2	101.3	.278	.253	.005	.674	.005	.315	.005
303.2	101.3	.491	.298	.005	.689	.005	.276	.005
303.2	101.3	.127	.599	.005	.133	.005	.834	.005
283.2	101.3	.218	.087	.005	.905	.005	.094	.005
303.2	101.3	0	.582	.005	0	.005	.99	.005
283.2	101.3	.254	.397	.005	.395	.005	.575	.005
323.2	101.3	.403	0	.005	.998	.005	0	.005

System: water + 1-butyl-3-methylimidazolium hexafluorophosphate; phases: Liquid mixture 2, Liquid mixture 1
Property: Mole fraction of water (Liquid mixture 2); method: Other
Pressure, kPa	Temperature, K	Mole fraction of water	uncertainty
101.3	283.2	.999	
101.3	303.2	.999	
101.3	323.2	.998	

System: water + 1-butyl-3-methylimidazolium hexafluorophosphate; phases: Liquid mixture 1, Liquid mixture 2
Property: Mole fraction of water (Liquid mixture 1); method: Chromatography + gravimetric
Pressure, kPa	Temperature, K	Mole fraction of water	uncertainty
101.3	283.2	.205	
101.3	303.2	.297	
101.3	323.2	.403	

System: ethanol + 1-butyl-3-methylimidazolium hexafluorophosphate; phases: Liquid mixture 2, Liquid mixture 1
Property: Mole fraction of ethanol (Liquid mixture 2); method: Other
Temperature, K	Pressure, kPa	Mole fraction of ethanol	uncertainty
283.2	101.3	.996	
303.2	101.3	.99	
323.2	101.3	.958	

System: ethanol + 1-butyl-3-methylimidazolium hexafluorophosphate; phases: Liquid mixture 1, Liquid mixture 2
Property: Mole fraction of ethanol (Liquid mixture 1); method: Chromatography + gravimetric
Temperature, K	Pressure, kPa	Mole fraction of ethanol	uncertainty
283.2	101.3	.434	
303.2	101.3	.582	
323.2	101.3	.765	
