Measured thermophysical data. Density and Surface Tension of Binary Mixtures of 2,2,4-Trimethylpentane + n-Heptane, 2,2,4-Trimethylpentane + n-Octane, Ethyl Acetate + Benzene, and Butanenitrile + Benzene from (293.15 to 323.15) K
Source: J. Chem. Eng. Data, 2015, 10.1021/acs.jced.5b00009
Compound 1: 2,2,4-trimethylpentane, C8H18, purity 99.9%
Compound 2: n-heptane, C7H16, purity 99.9%
Compound 3: n-octane, C8H18, purity 99.7%
Compound 4: ethyl acetate, C4H8O2, purity 99.9%
Compound 5: butanenitrile, C4H7N, purity 99.8%
Compound 6: benzene, C6H6, purity 99.9%
Compound 7: water, H2O, purity 99.99%

System: 2,2,4-trimethylpentane; phases: Liquid
Property: Mass density, kg/m3 (Liquid); method: Vibrating tube method
Temperature, K	Pressure, kPa	Mass density, kg/m3	uncertainty
293.15	101	691.833	.03
298.15	101	687.735	.03
303.15	101	683.614	.03
308.15	101	679.47	.03
313.15	101	675.295	.03
318.15	101	671.091	.03
323.15	101	666.856	.03

System: 2,2,4-trimethylpentane; phases: Liquid, Gas
Property: Surface tension liquid-gas, N/m (Liquid); method: Drop volume
Temperature, K	Surface tension liquid-gas, N/m	uncertainty
293.15	.01913	.00003
298.15	.01862	.00003
303.15	.01816	.00003
308.15	.01769	.00003
313.15	.01723	.00003

System: n-heptane; phases: Liquid
Property: Mass density, kg/m3 (Liquid); method: Vibrating tube method
Temperature, K	Pressure, kPa	Mass density, kg/m3	uncertainty
293.15	101	683.892	.03
298.15	101	679.645	.03
303.15	101	675.371	.03
308.15	101	671.073	.03
313.15	101	666.741	.03
318.15	101	662.375	.03
323.15	101	657.975	.03

System: n-heptane; phases: Liquid, Gas
Property: Surface tension liquid-gas, N/m (Liquid); method: Drop volume
Temperature, K	Surface tension liquid-gas, N/m	uncertainty
293.15	.02017	.00003
298.15	.01964	.00003
303.15	.01913	.00003
308.15	.01865	.00003
313.15	.01815	.00003

System: n-octane; phases: Liquid
Property: Mass density, kg/m3 (Liquid); method: Vibrating tube method
Temperature, K	Pressure, kPa	Mass density, kg/m3	uncertainty
293.15	101	702.547	.03
298.15	101	698.528	.03
303.15	101	694.493	.03
308.15	101	690.438	.03
313.15	101	686.36	.03
318.15	101	682.258	.03
323.15	101	678.13	.03

System: n-octane; phases: Liquid, Gas
Property: Surface tension liquid-gas, N/m (Liquid); method: Drop volume
Temperature, K	Surface tension liquid-gas, N/m	uncertainty
293.15	.02189	.00003
298.15	.02135	.00003
303.15	.02084	.00003
308.15	.02032	.00003
313.15	.01982	.00003

System: ethyl acetate; phases: Liquid
Property: Mass density, kg/m3 (Liquid); method: Vibrating tube method
Temperature, K	Pressure, kPa	Mass density, kg/m3	uncertainty
293.15	101	900.443	.03
298.15	101	894.374	.03
303.15	101	888.256	.03
308.15	101	882.093	.03
313.15	101	875.884	.03
318.15	101	869.621	.03
323.15	101	863.303	.03

System: ethyl acetate; phases: Liquid, Gas
Property: Surface tension liquid-gas, N/m (Liquid); method: Drop volume
Temperature, K	Surface tension liquid-gas, N/m	uncertainty
293.15	.02411	.00003
298.15	.0235	.00003
303.15	.0229	.00003
308.15	.02235	.00003
313.15	.02173	.00003

System: butanenitrile; phases: Liquid
Property: Mass density, kg/m3 (Liquid); method: Vibrating tube method
Temperature, K	Pressure, kPa	Mass density, kg/m3	uncertainty
293.15	101	790.859	.03
298.15	101	786.254	.03
303.15	101	781.629	.03
308.15	101	776.987	.03
313.15	101	772.321	.03
318.15	101	767.637	.03
323.15	101	762.929	.03

System: butanenitrile; phases: Liquid, Gas
Property: Surface tension liquid-gas, N/m (Liquid); method: Drop volume
Temperature, K	Surface tension liquid-gas, N/m	uncertainty
293.15	.02735	.00003
298.15	.0268	.00003
303.15	.02623	.00003
308.15	.02565	.00003
313.15	.02515	.00003

System: benzene; phases: Liquid
Property: Mass density, kg/m3 (Liquid); method: Vibrating tube method
Temperature, K	Pressure, kPa	Mass density, kg/m3	uncertainty
293.15	101	878.93	.03
298.15	101	873.621	.03
303.15	101	868.287	.03
308.15	101	862.942	.03
313.15	101	857.576	.03
318.15	101	852.187	.03
323.15	101	846.775	.03

System: benzene; phases: Liquid, Gas
Property: Surface tension liquid-gas, N/m (Liquid); method: Drop volume
Temperature, K	Surface tension liquid-gas, N/m	uncertainty
293.15	.02922	.00003
298.15	.02852	.00003
303.15	.02781	.00003
308.15	.02714	.00003
313.15	.02645	.00003

System: n-heptane + 2,2,4-trimethylpentane; phases: Liquid
Fixed: Pressure, kPa = 101
Property: Mass density, kg/m3 (Liquid); method: Vibrating tube method
Temperature, K	Mole fraction of 2,2,4-trimethylpentane	Mass density, kg/m3	uncertainty
293.15	0	683.892	.03
293.15	.1	684.809	.03
293.15	.2	685.708	.03
293.15	.3	686.573	.03
293.15	.4	687.405	.03
293.15	.5	688.202	.03
293.15	.6	688.968	.03
293.15	.7	689.709	.03
293.15	.8	690.43	.03
293.15	.9	691.135	.03
293.15	1	691.833	.03
298.15	0	679.645	.03
298.15	.1	680.58	.03
298.15	.2	681.497	.03
298.15	.3	682.381	.03
298.15	.4	683.227	.03
298.15	.5	684.039	.03
298.15	.6	684.819	.03
298.15	.7	685.573	.03
298.15	.8	686.306	.03
298.15	.9	687.025	.03
298.15	1	687.735	.03
303.15	0	675.371	.03
303.15	.1	676.326	.03
303.15	.2	677.261	.03
303.15	.3	678.162	.03
303.15	.4	679.025	.03
303.15	.5	679.852	.03
303.15	.6	680.646	.03
303.15	.7	681.413	.03
303.15	.8	682.16	.03
303.15	.9	682.892	.03
303.15	1	683.614	.03
308.15	0	671.073	.03
308.15	.1	672.049	.03
308.15	.2	673.001	.03
308.15	.3	673.921	.03
308.15	.4	674.8	.03
308.15	.5	675.642	.03
308.15	.6	676.451	.03
308.15	.7	677.231	.03
308.15	.8	677.991	.03
308.15	.9	678.736	.03
308.15	1	679.47	.03
313.15	0	666.741	.03
313.15	.1	667.738	.03
313.15	.2	668.707	.03
313.15	.3	669.647	.03
313.15	.4	670.543	.03
313.15	.5	671.401	.03
313.15	.6	672.224	.03
313.15	.7	673.017	.03
313.15	.8	673.792	.03
313.15	.9	674.55	.03
313.15	1	675.295	.03
318.15	0	662.375	.03
318.15	.1	663.392	.03
318.15	.2	664.382	.03
318.15	.3	665.341	.03
318.15	.4	666.254	.03
318.15	.5	667.129	.03
318.15	.6	667.967	.03
318.15	.7	668.774	.03
318.15	.8	669.562	.03
318.15	.9	670.334	.03
318.15	1	671.091	.03
323.15	0	657.975	.03
323.15	.1	659.014	.03
323.15	.2	660.023	.03
323.15	.3	661.003	.03
323.15	.4	661.931	.03
323.15	.5	662.821	.03
323.15	.6	663.679	.03
323.15	.7	664.501	.03
323.15	.8	665.302	.03
323.15	.9	666.088	.03
323.15	1	666.856	.03

System: n-heptane + 2,2,4-trimethylpentane; phases: Liquid, Gas
Property: Surface tension liquid-gas, N/m (Liquid); method: Drop volume
Temperature, K	Mole fraction of 2,2,4-trimethylpentane	Surface tension liquid-gas, N/m	uncertainty
293.15	0	.02017	.00003
293.15	.1	.02004	.00003
293.15	.2	.01992	.00003
293.15	.3	.0198	.00003
293.15	.4	.01969	.00003
293.15	.5	.01958	.00003
293.15	.6	.01948	.00003
293.15	.7	.01938	.00003
293.15	.8	.01928	.00003
293.15	.9	.01919	.00003
293.15	1	.01913	.00003
298.15	0	.01964	.00003
298.15	.1	.01952	.00003
298.15	.2	.0194	.00003
298.15	.3	.01928	.00003
298.15	.4	.01917	.00003
298.15	.5	.01907	.00003
298.15	.6	.01897	.00003
298.15	.7	.01887	.00003
298.15	.8	.01877	.00003
298.15	.9	.01869	.00003
298.15	1	.01862	.00003
303.15	0	.01913	.00003
303.15	.1	.01902	.00003
303.15	.2	.0189	.00003
303.15	.3	.0188	.00003
303.15	.4	.01869	.00003
303.15	.5	.01859	.00003
303.15	.6	.0185	.00003
303.15	.7	.0184	.00003
303.15	.8	.01831	.00003
303.15	.9	.01823	.00003
303.15	1	.01816	.00003
308.15	0	.01865	.00003
308.15	.1	.01854	.00003
308.15	.2	.01843	.00003
308.15	.3	.01833	.00003
308.15	.4	.01822	.00003
308.15	.5	.01812	.00003
308.15	.6	.01803	.00003
308.15	.7	.01793	.00003
308.15	.8	.01785	.00003
308.15	.9	.01776	.00003
308.15	1	.01769	.00003
313.15	0	.01815	.00003
313.15	.1	.01805	.00003
313.15	.2	.01795	.00003
313.15	.3	.01785	.00003
313.15	.4	.01775	.00003
313.15	.5	.01765	.00003
313.15	.6	.01756	.00003
313.15	.7	.01747	.00003
313.15	.8	.01739	.00003
313.15	.9	.0173	.00003
313.15	1	.01723	.00003

System: n-octane + 2,2,4-trimethylpentane; phases: Liquid
Fixed: Pressure, kPa = 101
Property: Mass density, kg/m3 (Liquid); method: Vibrating tube method
Temperature, K	Mole fraction of 2,2,4-trimethylpentane	Mass density, kg/m3	uncertainty
293.15	0	702.547	.03
293.15	.1	701.577	.03
293.15	.2	700.604	.03
293.15	.3	699.614	.03
293.15	.4	698.58	.03
293.15	.5	697.518	.03
293.15	.6	696.433	.03
293.15	.7	695.32	.03
293.15	.8	694.188	.03
293.15	.9	693.02	.03
293.15	1	691.833	.03
298.15	0	698.528	.03
298.15	.1	697.563	.03
298.15	.2	696.587	.03
298.15	.3	695.588	.03
298.15	.4	694.551	.03
298.15	.5	693.482	.03
298.15	.6	692.387	.03
298.15	.7	691.266	.03
298.15	.8	690.119	.03
298.15	.9	688.938	.03
298.15	1	687.735	.03
303.15	0	694.493	.03
303.15	.1	693.524	.03
303.15	.2	692.545	.03
303.15	.3	691.541	.03
303.15	.4	690.5	.03
303.15	.5	689.421	.03
303.15	.6	688.318	.03
303.15	.7	687.184	.03
303.15	.8	686.026	.03
303.15	.9	684.832	.03
303.15	1	683.614	.03
308.15	0	690.438	.03
308.15	.1	689.466	.03
308.15	.2	688.481	.03
308.15	.3	687.474	.03
308.15	.4	686.422	.03
308.15	.5	685.338	.03
308.15	.6	684.226	.03
308.15	.7	683.083	.03
308.15	.8	681.91	.03
308.15	.9	680.703	.03
308.15	1	679.47	.03
313.15	0	686.36	.03
313.15	.1	685.383	.03
313.15	.2	684.393	.03
313.15	.3	683.379	.03
313.15	.4	682.322	.03
313.15	.5	681.229	.03
313.15	.6	680.103	.03
313.15	.7	678.952	.03
313.15	.8	677.766	.03
313.15	.9	676.545	.03
313.15	1	675.295	.03
318.15	0	682.258	.03
318.15	.1	681.275	.03
318.15	.2	680.28	.03
318.15	.3	679.258	.03
318.15	.4	678.194	.03
318.15	.5	677.092	.03
318.15	.6	675.957	.03
318.15	.7	674.792	.03
318.15	.8	673.594	.03
318.15	.9	672.357	.03
318.15	1	671.091	.03
323.15	0	678.13	.03
323.15	.1	677.144	.03
323.15	.2	676.141	.03
323.15	.3	675.113	.03
323.15	.4	674.037	.03
323.15	.5	672.926	.03
323.15	.6	671.78	.03
323.15	.7	670.602	.03
323.15	.8	669.391	.03
323.15	.9	668.14	.03
323.15	1	666.856	.03

System: n-octane + 2,2,4-trimethylpentane; phases: Liquid, Gas
Property: Surface tension liquid-gas, N/m (Liquid); method: Drop volume
Temperature, K	Mole fraction of 2,2,4-trimethylpentane	Surface tension liquid-gas, N/m	uncertainty
293.15	0	.02189	.00003
293.15	.1	.02157	.00003
293.15	.2	.02128	.00003
293.15	.3	.02099	.00003
293.15	.4	.02071	.00003
293.15	.5	.02044	.00003
293.15	.6	.02016	.00003
293.15	.7	.01989	.00003
293.15	.8	.01963	.00003
293.15	.9	.01937	.00003
293.15	1	.01913	.00003
298.15	0	.02135	.00003
298.15	.1	.02104	.00003
298.15	.2	.02076	.00003
298.15	.3	.02047	.00003
298.15	.4	.02019	.00003
298.15	.5	.01992	.00003
298.15	.6	.01965	.00003
298.15	.7	.01938	.00003
298.15	.8	.01912	.00003
298.15	.9	.01886	.00003
298.15	1	.01862	.00003
303.15	0	.02084	.00003
303.15	.1	.02055	.00003
303.15	.2	.02026	.00003
303.15	.3	.01998	.00003
303.15	.4	.01971	.00003
303.15	.5	.01944	.00003
303.15	.6	.01917	.00003
303.15	.7	.01891	.00003
303.15	.8	.01865	.00003
303.15	.9	.0184	.00003
303.15	1	.01816	.00003
308.15	0	.02032	.00003
308.15	.1	.02004	.00003
308.15	.2	.01976	.00003
308.15	.3	.01949	.00003
308.15	.4	.01922	.00003
308.15	.5	.01895	.00003
308.15	.6	.01869	.00003
308.15	.7	.01843	.00003
308.15	.8	.01818	.00003
308.15	.9	.01793	.00003
308.15	1	.01769	.00003
313.15	0	.01982	.00003
313.15	.1	.01955	.00003
313.15	.2	.01928	.00003
313.15	.3	.01901	.00003
313.15	.4	.01874	.00003
313.15	.5	.01848	.00003
313.15	.6	.01822	.00003
313.15	.7	.01797	.00003
313.15	.8	.01772	.00003
313.15	.9	.01747	.00003
313.15	1	.01723	.00003

System: benzene + ethyl acetate; phases: Liquid
Fixed: Pressure, kPa = 101
Property: Mass density, kg/m3 (Liquid); method: Vibrating tube method
Temperature, K	Mole fraction of ethyl acetate	Mass density, kg/m3	uncertainty
293.15	0	878.93	.03
293.15	.1	880.728	.03
293.15	.2	882.584	.03
293.15	.3	884.626	.03
293.15	.4	886.734	.03
293.15	.5	888.922	.03
293.15	.6	891.143	.03
293.15	.7	893.406	.03
293.15	.8	895.707	.03
293.15	.9	898.055	.03
293.15	1	900.443	.03
298.15	0	873.621	.03
298.15	.1	875.393	.03
298.15	.2	877.202	.03
298.15	.3	879.187	.03
298.15	.4	881.226	.03
298.15	.5	883.333	.03
298.15	.6	885.462	.03
298.15	.7	887.642	.03
298.15	.8	889.85	.03
298.15	.9	892.095	.03
298.15	1	894.374	.03
303.15	0	868.287	.03
303.15	.1	870.029	.03
303.15	.2	871.792	.03
303.15	.3	873.715	.03
303.15	.4	875.682	.03
303.15	.5	877.708	.03
303.15	.6	879.751	.03
303.15	.7	881.837	.03
303.15	.8	883.948	.03
303.15	.9	886.087	.03
303.15	1	888.256	.03
308.15	0	862.942	.03
308.15	.1	864.648	.03
308.15	.2	866.36	.03
308.15	.3	868.218	.03
308.15	.4	870.107	.03
308.15	.5	872.049	.03
308.15	.6	874.002	.03
308.15	.7	876.003	.03
308.15	.8	877.996	.03
308.15	.9	880.04	.03
308.15	1	882.093	.03
313.15	0	857.576	.03
313.15	.1	859.238	.03
313.15	.2	860.892	.03
313.15	.3	862.681	.03
313.15	.4	864.497	.03
313.15	.5	866.349	.03
313.15	.6	868.21	.03
313.15	.7	870.109	.03
313.15	.8	872.004	.03
313.15	.9	873.939	.03
313.15	1	875.884	.03
318.15	0	852.187	.03
318.15	.1	853.804	.03
318.15	.2	855.399	.03
318.15	.3	857.112	.03
318.15	.4	858.845	.03
318.15	.5	860.609	.03
318.15	.6	862.378	.03
318.15	.7	864.168	.03
318.15	.8	865.965	.03
318.15	.9	867.793	.03
318.15	1	869.621	.03
323.15	0	846.775	.03
323.15	.1	848.34	.03
323.15	.2	849.873	.03
323.15	.3	851.508	.03
323.15	.4	853.155	.03
323.15	.5	854.825	.03
323.15	.6	856.499	.03
323.15	.7	858.186	.03
323.15	.8	859.878	.03
323.15	.9	861.594	.03
323.15	1	863.303	.03

System: benzene + ethyl acetate; phases: Liquid, Gas
Property: Surface tension liquid-gas, N/m (Liquid); method: Drop volume
Temperature, K	Mole fraction of ethyl acetate	Surface tension liquid-gas, N/m	uncertainty
293.15	0	.02922	.00003
293.15	.1	.02848	.00003
293.15	.2	.02787	.00003
293.15	.3	.0273	.00003
293.15	.4	.02676	.00003
293.15	.5	.02624	.00003
293.15	.6	.02573	.00003
293.15	.7	.02526	.00003
293.15	.8	.02482	.00003
293.15	.9	.02444	.00003
293.15	1	.02411	.00003
298.15	0	.02852	.00003
298.15	.1	.02781	.00003
298.15	.2	.02721	.00003
298.15	.3	.02665	.00003
298.15	.4	.02612	.00003
298.15	.5	.0256	.00003
298.15	.6	.0251	.00003
298.15	.7	.02464	.00003
298.15	.8	.02422	.00003
298.15	.9	.02384	.00003
298.15	1	.0235	.00003
303.15	0	.02781	.00003
303.15	.1	.02713	.00003
303.15	.2	.02655	.00003
303.15	.3	.026	.00003
303.15	.4	.02547	.00003
303.15	.5	.02496	.00003
303.15	.6	.02448	.00003
303.15	.7	.02403	.00003
303.15	.8	.02362	.00003
303.15	.9	.02324	.00003
303.15	1	.0229	.00003
308.15	0	.02714	.00003
308.15	.1	.02649	.00003
308.15	.2	.02592	.00003
308.15	.3	.02538	.00003
308.15	.4	.02487	.00003
308.15	.5	.02437	.00003
308.15	.6	.02391	.00003
308.15	.7	.02347	.00003
308.15	.8	.02306	.00003
308.15	.9	.0227	.00003
308.15	1	.02235	.00003
313.15	0	.02645	.00003
313.15	.1	.02582	.00003
313.15	.2	.02527	.00003
313.15	.3	.02474	.00003
313.15	.4	.02423	.00003
313.15	.5	.02374	.00003
313.15	.6	.02328	.00003
313.15	.7	.02285	.00003
313.15	.8	.02245	.00003
313.15	.9	.02209	.00003
313.15	1	.02173	.00003

System: benzene + butanenitrile; phases: Liquid
Fixed: Pressure, kPa = 101
Property: Mass density, kg/m3 (Liquid); method: Vibrating tube method
Temperature, K	Mole fraction of butanenitrile	Mass density, kg/m3	uncertainty
293.15	0	878.93	.03
293.15	.05	875.009	.03
293.15	.1	871.003	.03
293.15	.15	866.924	.03
293.15	.2	862.779	.03
293.15	.3	854.249	.03
293.15	.4	845.528	.03
293.15	.5	836.701	.03
293.15	.6	827.703	.03
293.15	.7	818.583	.03
293.15	.8	809.399	.03
293.15	.9	800.152	.03
293.15	1	790.859	.03
298.15	0	873.621	.03
298.15	.05	869.759	.03
298.15	.1	865.809	.03
298.15	.15	861.784	.03
298.15	.2	857.694	.03
298.15	.3	849.254	.03
298.15	.4	840.62	.03
298.15	.5	831.855	.03
298.15	.6	822.92	.03
298.15	.7	813.854	.03
298.15	.8	804.716	.03
298.15	.9	795.509	.03
298.15	1	786.254	.03
303.15	0	868.287	.03
303.15	.05	864.486	.03
303.15	.1	860.593	.03
303.15	.15	856.625	.03
303.15	.2	852.585	.03
303.15	.3	844.236	.03
303.15	.4	835.684	.03
303.15	.5	826.989	.03
303.15	.6	818.113	.03
303.15	.7	809.101	.03
303.15	.8	800.012	.03
303.15	.9	790.845	.03
303.15	1	781.629	.03
308.15	0	862.942	.03
308.15	.05	859.199	.03
308.15	.1	855.364	.03
308.15	.15	851.447	.03
308.15	.2	847.456	.03
308.15	.3	839.2	.03
308.15	.4	830.726	.03
308.15	.5	822.102	.03
308.15	.6	813.287	.03
308.15	.7	804.33	.03
308.15	.8	795.287	.03
308.15	.9	786.163	.03
308.15	1	776.987	.03
313.15	0	857.576	.03
313.15	.05	853.894	.03
313.15	.1	850.11	.03
313.15	.15	846.246	.03
313.15	.2	842.297	.03
313.15	.3	834.141	.03
313.15	.4	825.744	.03
313.15	.5	817.19	.03
313.15	.6	808.433	.03
313.15	.7	799.532	.03
313.15	.8	790.539	.03
313.15	.9	781.462	.03
313.15	1	772.321	.03
318.15	0	852.187	.03
318.15	.05	848.562	.03
318.15	.1	844.834	.03
318.15	.15	841.02	.03
318.15	.2	837.122	.03
318.15	.3	829.052	.03
318.15	.4	820.739	.03
318.15	.5	812.25	.03
318.15	.6	803.56	.03
318.15	.7	794.713	.03
318.15	.8	785.769	.03
318.15	.9	776.736	.03
318.15	1	767.637	.03
323.15	0	846.775	.03
323.15	.05	843.206	.03
323.15	.1	839.531	.03
323.15	.15	835.769	.03
323.15	.2	831.921	.03
323.15	.3	823.94	.03
323.15	.4	815.705	.03
323.15	.5	807.289	.03
323.15	.6	798.661	.03
323.15	.7	789.869	.03
323.15	.8	780.977	.03
323.15	.9	771.989	.03
323.15	1	762.929	.03

System: benzene + butanenitrile; phases: Liquid, Gas
Property: Surface tension liquid-gas, N/m (Liquid); method: Drop volume
Temperature, K	Mole fraction of butanenitrile	Surface tension liquid-gas, N/m	uncertainty
293.15	0	.02922	.00003
293.15	.05	.02923	.00003
293.15	.1	.0292	.00003
293.15	.15	.02918	.00003
293.15	.2	.02914	.00003
293.15	.3	.02904	.00003
293.15	.4	.02887	.00003
293.15	.5	.02865	.00003
293.15	.6	.02841	.00003
293.15	.7	.02814	.00003
293.15	.8	.02787	.00003
293.15	.9	.02761	.00003
293.15	1	.02735	.00003
298.15	0	.02852	.00003
298.15	.05	.02854	.00003
298.15	.1	.02855	.00003
298.15	.15	.02853	.00003
298.15	.2	.02851	.00003
298.15	.3	.02842	.00003
298.15	.4	.02826	.00003
298.15	.5	.02806	.00003
298.15	.6	.02783	.00003
298.15	.7	.02758	.00003
298.15	.8	.02731	.00003
298.15	.9	.02705	.00003
298.15	1	.0268	.00003
303.15	0	.02781	.00003
303.15	.05	.02787	.00003
303.15	.1	.02789	.00003
303.15	.15	.02791	.00003
303.15	.2	.02788	.00003
303.15	.3	.02778	.00003
303.15	.4	.02764	.00003
303.15	.5	.02745	.00003
303.15	.6	.02723	.00003
303.15	.7	.027	.00003
303.15	.8	.02674	.00003
303.15	.9	.02649	.00003
303.15	1	.02623	.00003
308.15	0	.02714	.00003
308.15	.05	.02724	.00003
308.15	.1	.02727	.00003
308.15	.15	.02728	.00003
308.15	.2	.02727	.00003
308.15	.3	.02718	.00003
308.15	.4	.02704	.00003
308.15	.5	.02688	.00003
308.15	.6	.02668	.00003
308.15	.7	.02645	.00003
308.15	.8	.02618	.00003
308.15	.9	.02592	.00003
308.15	1	.02565	.00003
313.15	0	.02645	.00003
313.15	.05	.02659	.00003
313.15	.1	.02667	.00003
313.15	.15	.02668	.00003
313.15	.2	.02668	.00003
313.15	.3	.0266	.00003
313.15	.4	.02648	.00003
313.15	.5	.02634	.00003
313.15	.6	.02616	.00003
313.15	.7	.02594	.00003
313.15	.8	.02569	.00003
313.15	.9	.02542	.00003
313.15	1	.02515	.00003
