Measured thermophysical data. Liquid Liquid Equilibria of the Water + 1-Propanol + 1-Butyl-1-methylpyrrolidinium Bis(trifluoromethylsulfonyl)imide Ternary System: Study of the Ability of Ionic Liquid as a Solvent
Source: J. Chem. Eng. Data, 2016, 10.1021/acs.jced.6b00524
Compound 1: water, H2O, purity 99.90%
Compound 2: 1-propanol, C3H8O, purity 99.50%
Compound 3: 1-butyl-1-methylpyrrolidinium bis(trifluoromethylsulfonyl)imide, C11H20F6N2O4S2, purity 99.00%

System: 1-propanol + water + 1-butyl-1-methylpyrrolidinium bis(trifluoromethylsulfonyl)imide; phases: Liquid mixture 2, Liquid mixture 1
Fixed: Pressure, kPa = 101.3
Property: Mole fraction of 1-propanol (Liquid mixture 2); method: Chromatography
Property: Mole fraction of water (Liquid mixture 1); method: Chromatography
Property: Mole fraction of 1-propanol (Liquid mixture 1); method: Chromatography
Temperature, K	Mole fraction of water	Mole fraction of 1-propanol	uncertainty	Mole fraction of water	uncertainty	Mole fraction of 1-propanol	uncertainty
283.2	.162	0	.002	1	.002	0	.002
303.2	.231	0	.002	1	.002	0	.002
303.2	.288	.162	.002	.972	.002	.028	.002
303.2	.325	.293	.002	.945	.002	.054	.002
303.2	.376	.368	.002	.921	.002	.078	.002
303.2	.429	.402	.002	.896	.002	.102	.002
303.2	.495	.391	.002	.863	.002	.134	.002
303.2	.538	.377	.002	.843	.002	.152	.002
303.2	.591	.348	.002	.806	.002	.185	.002
323.2	.309	0	.002	1	.002	0	.002
323.2	.36	.19	.002	.974	.002	.026	.002
283.2	.217	.12	.002	.966	.002	.034	.002
323.2	.406	.294	.002	.956	.002	.044	.002
323.2	.442	.357	.002	.936	.002	.063	.002
323.2	.503	.366	.002	.918	.002	.08	.002
323.2	.554	.357	.002	.899	.002	.098	.002
283.2	.256	.249	.002	.932	.002	.067	.002
283.2	.3	.354	.002	.91	.002	.089	.002
283.2	.354	.397	.002	.879	.002	.12	.002
283.2	.388	.424	.002	.831	.002	.165	.002
283.2	.426	.423	.002	.781	.002	.212	.002
283.2	.471	.421	.002	.701	.002	.282	.002
283.2	.505	.408	.002	.661	.002	.314	.002

System: water + 1-butyl-1-methylpyrrolidinium bis(trifluoromethylsulfonyl)imide; phases: Liquid mixture 2, Liquid mixture 1
Property: Mole fraction of water (Liquid mixture 2); method: Chromatography
Temperature, K	Pressure, kPa	Mole fraction of water	uncertainty
283.2	101.3	.162	
303.2	101.3	.231	
323.2	101.3	.309	
