Measured thermophysical data. Solubility Measurement and Correlation of Two Erlotinib Hydrochloride Polymorphs in Alcohols and Ketones from 273.15 to 323.15 K
Source: J. Chem. Eng. Data, 2017, 10.1021/acs.jced.6b00796
Compound 1: erlotinib hydrochloride, C22H24ClN3O4, purity 99.5%
Compound 2: methanol, CH4O, purity 99.5%
Compound 3: ethanol, C2H6O, purity 99.5%
Compound 4: isopropanol, C3H8O, purity 99.5%
Compound 5: acetone, C3H6O, purity 99.5%
Compound 6: methyl ethyl ketone, C4H8O, purity 99.5%
Compound 7: methyl isobutyl ketone, C6H12O, purity 99.5%
Compound 8: (S)-(+)-Clopidogrel hydrogen sulfate, C16H18ClNO6S2, purity 99.5%
Compound 9: 1-butanol, C4H10O, purity 99.5%

System: erlotinib hydrochloride; phases: Crystal, Liquid, Air at 1 atmosphere
Property: Triple point temperature, K (Crystal); method: DSC
Triple point temperature, K	uncertainty
502.1	.5

System: erlotinib hydrochloride; phases: Metastable crystal, Liquid, Air at 1 atmosphere
Property: Triple point temperature, K (Metastable crystal); method: DSC
Triple point temperature, K	uncertainty
479.6	.5

System: erlotinib hydrochloride; phases: Crystal, Liquid, Air at 1 atmosphere
Property: Molar enthalpy of transition or fusion, kJ/mol (Crystal); method: DSC
Molar enthalpy of transition or fusion, kJ/mol	uncertainty
61.8	.6

System: erlotinib hydrochloride; phases: Metastable crystal, Liquid, Air at 1 atmosphere
Property: Molar enthalpy of transition or fusion, kJ/mol (Metastable crystal); method: DSC
Molar enthalpy of transition or fusion, kJ/mol	uncertainty
52.8	.6

System: methanol + erlotinib hydrochloride; phases: Liquid, Metastable crystal
Fixed: Pressure, kPa = 101.3
Property: Mole fraction of erlotinib hydrochloride (Liquid); method: Chromatography
Temperature, K	Mole fraction of erlotinib hydrochloride	uncertainty
273.15	.00001678	
278.15	.00002151	
283.15	.00002733	
288.15	.00003443	
293.15	.00004304	
298.15	.00005339	
303.15	.00006578	
308.15	.00008048	
313.15	.00009784	
318.15	.0001182	
323.15	.000142	

System: methanol + erlotinib hydrochloride; phases: Liquid, Crystal
Fixed: Pressure, kPa = 101.3
Property: Mole fraction of erlotinib hydrochloride (Liquid); method: Chromatography
Temperature, K	Mole fraction of erlotinib hydrochloride	uncertainty
273.15	.000007348	
278.15	.00000944	
283.15	.00001202	
288.15	.00001518	
293.15	.00001901	
298.15	.00002364	
303.15	.00002918	
308.15	.00003578	
313.15	.00004391	
318.15	.00005265	
323.15	.00006347	

System: ethanol + erlotinib hydrochloride; phases: Liquid, Metastable crystal
Fixed: Pressure, kPa = 101.3
Property: Mole fraction of erlotinib hydrochloride (Liquid); method: Chromatography
Temperature, K	Mole fraction of erlotinib hydrochloride	uncertainty
273.15	.000008363	
278.15	.00001016	
283.15	.00001226	
288.15	.0000147	
293.15	.00001751	
298.15	.00002074	
303.15	.00002442	
308.15	.00002861	
313.15	.00003335	
318.15	.00003869	
323.15	.00004468	

System: ethanol + erlotinib hydrochloride; phases: Liquid, Crystal
Fixed: Pressure, kPa = 101.3
Property: Mole fraction of erlotinib hydrochloride (Liquid); method: Chromatography
Temperature, K	Mole fraction of erlotinib hydrochloride	uncertainty
273.15	.000005174	
278.15	.000006246	
283.15	.000007491	
288.15	.000008927	
293.15	.00001058	
298.15	.00001246	
303.15	.00001459	
308.15	.00001701	
313.15	.00001973	
318.15	.00002278	
323.15	.00002618	

System: isopropanol + erlotinib hydrochloride; phases: Liquid, Metastable crystal
Fixed: Pressure, kPa = 101.3
Property: Mole fraction of erlotinib hydrochloride (Liquid); method: Chromatography
Temperature, K	Mole fraction of erlotinib hydrochloride	uncertainty
273.15	.000007562	
278.15	.000009179	
283.15	.00001111	
288.15	.00001331	
293.15	.00001573	
298.15	.00001864	
303.15	.00002187	
308.15	.00002574	
313.15	.00002995	
318.15	.00003499	
323.15	.00004045	

System: isopropanol + erlotinib hydrochloride; phases: Liquid, Crystal
Fixed: Pressure, kPa = 101.3
Property: Mole fraction of erlotinib hydrochloride (Liquid); method: Chromatography
Temperature, K	Mole fraction of erlotinib hydrochloride	uncertainty
273.15	.000005104	
278.15	.000006017	
283.15	.000007112	
288.15	.000008294	
293.15	.000009647	
298.15	.00001115	
303.15	.0000128	
308.15	.00001474	
313.15	.00001689	
318.15	.00001919	
323.15	.00002159	

System: acetone + erlotinib hydrochloride; phases: Liquid, Metastable crystal
Fixed: Pressure, kPa = 101.3
Property: Mole fraction of erlotinib hydrochloride (Liquid); method: Chromatography
Temperature, K	Mole fraction of erlotinib hydrochloride	uncertainty
273.15	.000002439	
278.15	.000002739	
283.15	.000003022	
288.15	.000003314	
293.15	.000003635	
298.15	.000003973	
303.15	.000004331	
308.15	.000004707	
313.15	.000005103	
318.15	.000005518	
323.15	.000005952	

System: acetone + erlotinib hydrochloride; phases: Liquid, Crystal
Fixed: Pressure, kPa = 101.3
Property: Mole fraction of erlotinib hydrochloride (Liquid); method: Chromatography
Temperature, K	Mole fraction of erlotinib hydrochloride	uncertainty
273.15	.00000145	
278.15	.000001613	
283.15	.000001775	
288.15	.00000195	
293.15	.000002126	
298.15	.000002322	
303.15	.000002535	
308.15	.00000276	
313.15	.000003005	
318.15	.000003255	
323.15	.000003507	

System: methyl ethyl ketone + erlotinib hydrochloride; phases: Liquid, Metastable crystal
Fixed: Pressure, kPa = 101.3
Property: Mole fraction of erlotinib hydrochloride (Liquid); method: Chromatography
Temperature, K	Mole fraction of erlotinib hydrochloride	uncertainty
273.15	.000001386	
278.15	.000001625	
283.15	.000001895	
288.15	.000002199	
293.15	.000002538	
298.15	.000002915	
303.15	.000003333	
308.15	.000003795	
313.15	.000004302	
318.15	.000004859	
323.15	.000005466	

System: methyl ethyl ketone + erlotinib hydrochloride; phases: Liquid, Crystal
Fixed: Pressure, kPa = 101.3
Property: Mole fraction of erlotinib hydrochloride (Liquid); method: Chromatography
Temperature, K	Mole fraction of erlotinib hydrochloride	uncertainty
273.15	.000000922	
278.15	.000001069	
283.15	.000001232	
288.15	.000001414	
293.15	.000001614	
298.15	.000001835	
303.15	.000002078	
308.15	.000002343	
313.15	.000002632	
318.15	.000002945	
323.15	.000003285	

System: methyl isobutyl ketone + erlotinib hydrochloride; phases: Liquid, Metastable crystal
Fixed: Pressure, kPa = 101.3
Property: Mole fraction of erlotinib hydrochloride (Liquid); method: Chromatography
Temperature, K	Mole fraction of erlotinib hydrochloride	uncertainty
273.15	.00000266	
278.15	.000003071	
283.15	.000003528	
288.15	.000004032	
293.15	.000004588	
298.15	.000005198	
303.15	.000005865	
308.15	.000006592	
313.15	.000007381	
318.15	.000008235	
323.15	.000009157	

System: methyl isobutyl ketone + erlotinib hydrochloride; phases: Liquid, Crystal
Fixed: Pressure, kPa = 101.3
Property: Mole fraction of erlotinib hydrochloride (Liquid); method: Chromatography
Temperature, K	Mole fraction of erlotinib hydrochloride	uncertainty
273.15	.000001915	
278.15	.000002168	
283.15	.000002445	
288.15	.000002745	
293.15	.000003069	
298.15	.00000342	
303.15	.000003796	
308.15	.0000042	
313.15	.000004632	
318.15	.000005093	
323.15	.000005583	

System: 1-butanol + (S)-(+)-Clopidogrel hydrogen sulfate; phases: Liquid, Crystal
Fixed: Pressure, kPa = 101.3
Property: Mole fraction of (S)-(+)-Clopidogrel hydrogen sulfate (Liquid); method: Chromatography
Temperature, K	Mole fraction of (S)-(+)-Clopidogrel hydrogen sulfate	uncertainty
293.15	.00125	
295.65	.001424	
298.15	.001632	
300.65	.001842	
303.15	.002087	
305.65	.00236	
308.15	.002664	
310.65	.003	
313.15	.003323	
315.65	.003785	
318.15	.00424	

System: 1-butanol + (S)-(+)-Clopidogrel hydrogen sulfate; phases: Liquid, Metastable crystal
Fixed: Pressure, kPa = 101.3
Property: Mole fraction of (S)-(+)-Clopidogrel hydrogen sulfate (Liquid); method: Chromatography
Temperature, K	Mole fraction of (S)-(+)-Clopidogrel hydrogen sulfate	uncertainty
273.15	.001759	
278.15	.001921	
283.15	.002239	
288.15	.002576	
292.85	.00297	
298.35	.003458	
303.35	.003952	
308.5	.004513	
313.25	.005182	
318.15	.005993	
