Measured thermophysical data. Determination of Ternary Liquid Liquid Equilibria for Dimethyl Carbonate + 2-Methyl-1-propanol or 2-Methyl-2-propanol + Water Systems at T = 303.15 and 313.15 K
Source: J. Chem. Eng. Data, 2017, 10.1021/acs.jced.6b00763
Compound 1: dimethyl carbonate, C3H6O3
Compound 2: diethyl carbonate, C5H10O3
Compound 3: 1-propanol, C3H8O
Compound 4: 2-methyl-1-propanol, C4H10O
Compound 5: 2-methyl-2-propanol, C4H10O
Compound 6: water, H2O, purity 99.8%

System: 2-methyl-1-propanol + dimethyl carbonate + water; phases: Liquid mixture 2, Liquid mixture 1
Property: Mole fraction of dimethyl carbonate (Liquid mixture 2); method: Chromatography
Property: Mole fraction of dimethyl carbonate (Liquid mixture 1); method: Chromatography
Property: Mole fraction of 2-methyl-1-propanol (Liquid mixture 1); method: Chromatography
Temperature, K	Pressure, kPa	Mole fraction of 2-methyl-1-propanol	Mole fraction of dimethyl carbonate	uncertainty	Mole fraction of dimethyl carbonate	uncertainty	Mole fraction of 2-methyl-1-propanol	uncertainty
303.15	100	.0211	0	.002	0	.002	.541	.002
313.15	100	.0242	0	.002	0	.002	.528	.002
313.15	100	.0139	.0046	.002	.0842	.002	.3496	.002
313.15	100	.0112	.008	.002	.1814	.002	.2879	.002
313.15	100	.0099	.0095	.002	.233	.002	.2634	.002
313.15	100	.0083	.011	.002	.303	.002	.231	.002
313.15	100	.0057	.0132	.002	.4393	.002	.1669	.002
313.15	100	.0036	.0146	.002	.5587	.002	.1064	.002
313.15	100	.0014	.0158	.002	.6848	.002	.047	.002
313.15	100	0	.0142	.002	.8242	.002	0	.002
303.15	100	.0121	.0035	.002	.0781	.002	.3736	.002
303.15	100	.0097	.0065	.002	.1699	.002	.3048	.002
303.15	100	.0086	.0078	.002	.2225	.002	.2798	.002
303.15	100	.0072	.0093	.002	.2979	.002	.2453	.002
303.15	100	.0054	.0109	.002	.4062	.002	.1952	.002
303.15	100	.0037	.0121	.002	.5252	.002	.1367	.002
303.15	100	.0019	.0132	.002	.6497	.002	.0702	.002
303.15	100	0	.014	.002	.851	.002	0	.002

System: 2-methyl-2-propanol + dimethyl carbonate + water; phases: Liquid mixture 2, Liquid mixture 1
Property: Mole fraction of 2-methyl-2-propanol (Liquid mixture 2); method: Chromatography
Property: Mole fraction of dimethyl carbonate (Liquid mixture 1); method: Chromatography
Property: Mole fraction of 2-methyl-2-propanol (Liquid mixture 1); method: Chromatography
Temperature, K	Pressure, kPa	Mole fraction of dimethyl carbonate	Mole fraction of 2-methyl-2-propanol	uncertainty	Mole fraction of dimethyl carbonate	uncertainty	Mole fraction of 2-methyl-2-propanol	uncertainty
303.15	100	.0967	.0786	.002	.3313	.002	.1296	.002
313.15	100	.0577	.0393	.002	.5588	.002	.1002	.002
313.15	100	.0492	.0292	.002	.6278	.002	.0841	.002
313.15	100	.0427	.0203	.002	.6935	.002	.0655	.002
313.15	100	.0365	.0106	.002	.7707	.002	.0395	.002
313.15	100	.014	0	.002	.824	.002	0	.002
303.15	100	.0557	.0442	.002	.5185	.002	.1113	.002
303.15	100	.0477	.0347	.002	.5823	.002	.0985	.002
303.15	100	.0401	.0242	.002	.6591	.002	.0791	.002
303.15	100	.0349	.0159	.002	.7258	.002	.0589	.002
303.15	100	.0292	.0089	.002	.8154	.002	.0262	.002
303.15	100	.012	0	.002	.851	.002	0	.002
313.15	100	.1171	.0845	.002	.3131	.002	.1301	.002
313.15	100	.0652	.0472	.002	.5089	.002	.1096	.002

System: 1-propanol + diethyl carbonate + water; phases: Liquid mixture 2, Liquid mixture 1
Property: Mole fraction of diethyl carbonate (Liquid mixture 2); method: Chromatography
Property: Mole fraction of diethyl carbonate (Liquid mixture 1); method: Chromatography
Property: Mole fraction of 1-propanol (Liquid mixture 1); method: Chromatography
Temperature, K	Pressure, kPa	Mole fraction of 1-propanol	Mole fraction of diethyl carbonate	uncertainty	Mole fraction of diethyl carbonate	uncertainty	Mole fraction of 1-propanol	uncertainty
303.15	100	.0463	.0041	.0005	.2286	.0005	.3104	.0005
303.15	100	.0418	.004	.0005	.3078	.0005	.2917	.0005
303.15	100	.0381	.0039	.0005	.3827	.0005	.2677	.0005
303.15	100	.0315	.0037	.0005	.5214	.0005	.2178	.0005
303.15	100	.0235	.0033	.0005	.6682	.0005	.1501	.0005
303.15	100	.0116	.00265	.0005	.8077	.0005	.0752	.0005
303.15	100	0	.0025	.0005	.9216	.0005	0	.0005

System: 2-methyl-1-propanol + water; phases: Liquid mixture 2, Liquid mixture 1
Property: Mole fraction of 2-methyl-1-propanol (Liquid mixture 2); method: Chromatography
Pressure, kPa	Temperature, K	Mole fraction of 2-methyl-1-propanol	uncertainty
100	303.15	.0211	
100	313.15	.0242	

System: 2-methyl-1-propanol + water; phases: Liquid mixture 1, Liquid mixture 2
Property: Mole fraction of 2-methyl-1-propanol (Liquid mixture 1); method: Chromatography
Temperature, K	Pressure, kPa	Mole fraction of 2-methyl-1-propanol	uncertainty
303.15	100	.541	
313.15	100	.528	

System: dimethyl carbonate + water; phases: Liquid mixture 2, Liquid mixture 1
Property: Mole fraction of dimethyl carbonate (Liquid mixture 2); method: Chromatography
Temperature, K	Pressure, kPa	Mole fraction of dimethyl carbonate	uncertainty
313.15	100	.0142	
303.15	100	.014	
313.15	100	.014	
303.15	100	.012	

System: dimethyl carbonate + water; phases: Liquid mixture 1, Liquid mixture 2
Property: Mole fraction of dimethyl carbonate (Liquid mixture 1); method: Chromatography
Pressure, kPa	Temperature, K	Mole fraction of dimethyl carbonate	uncertainty
100	313.15	.8242	
100	303.15	.851	
100	313.15	.824	

System: diethyl carbonate + water; phases: Liquid mixture 2, Liquid mixture 1
Property: Mole fraction of diethyl carbonate (Liquid mixture 2); method: Chromatography
Temperature, K	Pressure, kPa	Mole fraction of diethyl carbonate	uncertainty
303.15	100	.0025	

System: diethyl carbonate + water; phases: Liquid mixture 1, Liquid mixture 2
Property: Mole fraction of diethyl carbonate (Liquid mixture 1); method: Chromatography
Pressure, kPa	Temperature, K	Mole fraction of diethyl carbonate	uncertainty
100	303.15	.9216	
