Measured thermophysical data. Thermochemical Properties of Xanthine and Hypoxanthine Revisited
Source: J. Chem. Eng. Data, 2017, 10.1021/acs.jced.7b00085
Compound 1: xanthine, C5H4N4O2
Compound 2: hypoxanthine, C5H4N4O
Compound 3: carbon dioxide, CO2
Compound 4: nitrogen, N2
Compound 5: water, H2O
Compound 6: oxygen, O2

System: xanthine; phases: Crystal, Gas
Property: Molar enthalpy of vaporization or sublimation, kJ/mol (Crystal); method: Derived by Second law
Temperature, K	Molar enthalpy of vaporization or sublimation, kJ/mol	uncertainty
421	172.4	

System: hypoxanthine; phases: Crystal, Gas
Property: Molar enthalpy of vaporization or sublimation, kJ/mol (Crystal); method: Derived by Second law
Temperature, K	Molar enthalpy of vaporization or sublimation, kJ/mol	uncertainty
411	160.3	

Reaction: -1 xanthine + 5 carbon dioxide + 2 nitrogen + 2 water + -5 oxygen
Property: Specific internal energy of reaction at constant volume, J/g
-14183.4

Reaction: -1 hypoxanthine + 5 carbon dioxide + 2 nitrogen + 2 water + -5.5 oxygen
Property: Specific internal energy of reaction at constant volume, J/g
-17864.9
