Measured thermophysical data. Isothermal Vapor Pressures of Three Binary Systems: n-Tetradecane + Methyl Dodecanoate, Methyl Tetradecanoate, or Methyl Hexadecanoate between 353.15 and 453.15 K
Source: J. Chem. Eng. Data, 2017, 10.1021/acs.jced.7b00099
Compound 1: methyl dodecanoate, C13H26O2, purity 98%
Compound 2: methyl tetradecanoate, C15H30O2, purity 98%
Compound 3: methyl hexadecanoate, C17H34O2, purity 97%
Compound 4: n-tetradecane, C14H30, purity 99%

System: methyl dodecanoate; phases: Liquid, Gas
Property: Vapor or sublimation pressure, kPa (Liquid); method: Closed cell (Static) method
Temperature, K	Vapor or sublimation pressure, kPa	uncertainty
353.15	.0644	
363.15	.1217	
373.15	.2212	
383.15	.388	
393.15	.657	
403.15	1.08	
413.15	1.728	
423.15	2.694	
433.15	4.104	

System: methyl tetradecanoate; phases: Liquid, Gas
Property: Vapor or sublimation pressure, kPa (Liquid); method: Closed cell (Static) method
Temperature, K	Vapor or sublimation pressure, kPa	uncertainty
353.15	.0133	
363.15	.0267	
373.15	.0516	
383.15	.0959	
393.15	.1723	
403.15	.3003	
413.15	.509	
423.15	.839	
433.15	1.35	
443.15	2.123	
453.15	3.27	

System: methyl hexadecanoate; phases: Liquid, Gas
Property: Vapor or sublimation pressure, kPa (Liquid); method: Closed cell (Static) method
Temperature, K	Vapor or sublimation pressure, kPa	uncertainty
373.15	.0158	
383.15	.0294	
393.15	.0535	
403.15	.095	
413.15	.1644	
423.15	.2789	
433.15	.4635	
443.15	.756	
453.15	1.21	

System: n-tetradecane; phases: Liquid, Gas
Property: Vapor or sublimation pressure, kPa (Liquid); method: Closed cell (Static) method
Temperature, K	Vapor or sublimation pressure, kPa	uncertainty
351.75	.124	
361.8	.232	
361.89	.232	
371.91	.422	
381.93	.717	
382.07	.716	
391.95	1.186	
392	1.186	
402.74	1.947	
412.69	3.029	
422.55	4.545	
432.39	6.661	
442.49	9.461	
452.49	13.46	
353.15	.1355	
363.15	.2517	
373.15	.4469	
383.15	.762	
393.15	1.254	
403.15	1.998	
413.15	3.09	
423.15	4.652	
433.15	6.836	
353.15	.1354	
373.15	.4472	
383.15	.763	
393.15	1.255	
413.15	3.086	
423.15	4.642	
433.15	6.812	
443.15	9.776	
453.15	13.746	

System: methyl dodecanoate + n-tetradecane; phases: Liquid, Gas
Property: Vapor or sublimation pressure, kPa (Liquid); method: Closed cell (Static) method
Mole fraction of methyl dodecanoate	Temperature, K	Vapor or sublimation pressure, kPa	uncertainty
0	353.15	.1355	
.1331	353.15	.1376	
.2567	353.15	.1347	
.3888	353.15	.1285	
.5172	353.15	.1195	
.6987	353.15	.103	
.8519	353.15	.0841	
1	353.15	.0644	
0	363.15	.2517	
.1331	363.15	.2502	
.2567	363.15	.2512	
.3888	363.15	.2349	
.5172	363.15	.2196	
.6987	363.15	.1916	
.8519	363.15	.1575	
1	363.15	.1217	
0	373.15	.4469	
.1331	373.15	.4488	
.2567	373.15	.4391	
.3888	373.15	.4168	
.5172	373.15	.3874	
.6987	373.15	.3406	
.8519	373.15	.2827	
1	373.15	.2212	
0	383.15	.762	
.1331	383.15	.756	
.2567	383.15	.751	
.3888	383.15	.71	
.5172	383.15	.659	
.6987	383.15	.581	
.8519	383.15	.488	
1	383.15	.388	
0	393.15	1.254	
.1331	393.15	1.257	
.2567	393.15	1.222	
.3888	393.15	1.168	
.5172	393.15	1.084	
.6987	393.15	.957	
.8519	393.15	.813	
1	393.15	.657	
0	403.15	1.998	
.1331	403.15	1.995	
.2567	403.15	1.959	
.3888	403.15	1.858	
.5172	403.15	1.731	
.6987	403.15	1.525	
.8519	403.15	1.313	
1	403.15	1.08	
0	413.15	3.09	
.1331	413.15	3.105	
.2567	413.15	3.028	
.3888	413.15	2.869	
.5172	413.15	2.689	
.6987	413.15	2.358	
.8519	413.15	2.058	
1	413.15	1.728	
0	423.15	4.652	
.1331	423.15	4.71	
.2567	423.15	4.563	
.3888	423.15	4.315	
.5172	423.15	4.072	
.6987	423.15	3.55	
.8519	423.15	3.143	
1	423.15	2.694	
0	433.15	6.836	
.1331	433.15	6.951	
.2567	433.15	6.716	
.3888	433.15	6.389	
.5172	433.15	6.007	
.6987	433.15	5.256	
.8519	433.15	4.685	
1	433.15	4.104	

System: methyl tetradecanoate + n-tetradecane; phases: Liquid, Gas
Property: Vapor or sublimation pressure, kPa (Liquid); method: Closed cell (Static) method
Mole fraction of methyl tetradecanoate	Temperature, K	Vapor or sublimation pressure, kPa	uncertainty
0	353.15	.1354	
.126	353.15	.1164	
.252	353.15	.1034	
.3834	353.15	.0924	
.5099	353.15	.0784	
.6834	353.15	.059	
.8615	353.15	.0364	
1	353.15	.0133	
0	363.15	.2517	
.126	363.15	.216	
.252	363.15	.1918	
.3834	363.15	.1719	
.5099	363.15	.1456	
.6834	363.15	.1099	
.8615	363.15	.0697	
1	363.15	.0267	
0	373.15	.4472	
.126	373.15	.384	
.252	373.15	.3415	
.3834	373.15	.3066	
.5099	373.15	.2598	
.6834	373.15	.1968	
.8615	373.15	.1278	
1	373.15	.0516	
0	383.15	.763	
.126	383.15	.658	
.252	383.15	.585	
.3834	383.15	.526	
.5099	383.15	.447	
.6834	383.15	.3401	
.8615	383.15	.2256	
1	383.15	.0959	
0	393.15	1.255	
.126	393.15	1.088	
.252	393.15	.97	
.3834	393.15	.873	
.5099	393.15	.744	
.6834	393.15	.569	
.8615	393.15	.3847	
1	393.15	.1723	
0	403.15	1.998	
.126	403.15	1.744	
.252	403.15	1.558	
.3834	403.15	1.403	
.5099	403.15	1.201	
.6834	403.15	.924	
.8615	403.15	.636	
1	403.15	.3003	
0	413.15	3.086	
.126	413.15	2.717	
.252	413.15	2.434	
.3834	413.15	2.193	
.5099	413.15	1.887	
.6834	413.15	1.46	
.8615	413.15	1.02	
1	413.15	.509	
0	423.15	4.642	
.126	423.15	4.127	
.252	423.15	3.706	
.3834	423.15	3.34	
.5099	423.15	2.89	
.6834	423.15	2.25	
.8615	423.15	1.596	
1	423.15	.839	
0	433.15	6.812	
.126	433.15	6.12	
.252	433.15	5.511	
.3834	433.15	4.966	
.5099	433.15	4.325	
.6834	433.15	3.388	
.8615	433.15	2.435	
1	433.15	1.35	
0	443.15	9.776	
.126	443.15	8.881	
.252	443.15	8.019	
.3834	443.15	7.225	
.5099	443.15	6.335	
.6834	443.15	4.997	
.8615	443.15	3.634	
1	443.15	2.123	
0	453.15	13.746	
.126	453.15	12.633	
.252	453.15	11.439	
.3834	453.15	10.304	
.5099	453.15	9.1	
.6834	453.15	7.226	
.8615	453.15	5.312	
1	453.15	3.27	

System: methyl hexadecanoate + n-tetradecane; phases: Liquid, Gas
Property: Vapor or sublimation pressure, kPa (Liquid); method: Closed cell (Static) method
Mole fraction of methyl hexadecanoate	Temperature, K	Vapor or sublimation pressure, kPa	uncertainty
0	353.15	.1354	
.1374	353.15	.1151	
.263	353.15	.1006	
.4045	353.15	.0874	
.5283	353.15	.0755	
.7023	353.15	.0516	
.8526	353.15	.0282	
0	363.15	.2517	
.1374	363.15	.2136	
.263	363.15	.1859	
.4045	363.15	.1616	
.5283	363.15	.1375	
.7023	363.15	.0934	
.8526	363.15	.0511	
0	373.15	.4472	
.1374	373.15	.3799	
.263	373.15	.3298	
.4045	373.15	.2866	
.5283	373.15	.2412	
.7023	373.15	.1635	
.8526	373.15	.09	
1	373.15	.0158	
0	383.15	.763	
.1374	383.15	.651	
.263	383.15	.564	
.4045	383.15	.4896	
.5283	383.15	.4091	
.7023	383.15	.2776	
.8526	383.15	.1542	
1	383.15	.0294	
0	393.15	1.255	
.1374	393.15	1.076	
.263	393.15	.931	
.4045	393.15	.809	
.5283	393.15	.673	
.7023	393.15	.4584	
.8526	393.15	.258	
1	393.15	.0535	
0	403.15	1.998	
.1374	403.15	1.725	
.263	403.15	1.492	
.4045	403.15	1.296	
.5283	403.15	1.075	
.7023	403.15	.738	
.8526	403.15	.422	
1	403.15	.095	
0	413.15	3.086	
.1374	413.15	2.687	
.263	413.15	2.325	
.4045	413.15	2.019	
.5283	413.15	1.674	
.7023	413.15	1.16	
.8526	413.15	.675	
1	413.15	.1644	
0	423.15	4.642	
.1374	423.15	4.079	
.263	423.15	3.531	
.4045	423.15	3.067	
.5283	423.15	2.545	
.7023	423.15	1.783	
.8526	423.15	1.058	
1	423.15	.2789	
0	433.15	6.812	
.1374	433.15	6.046	
.263	433.15	5.239	
.4045	433.15	4.552	
.5283	433.15	3.786	
.7023	433.15	2.685	
.8526	433.15	1.628	
1	433.15	.4635	
0	443.15	9.776	
.1374	443.15	8.769	
.263	443.15	7.609	
.4045	443.15	6.611	
.5283	443.15	5.518	
.7023	443.15	3.967	
.8526	443.15	2.461	
1	443.15	.756	
0	453.15	13.746	
.1374	453.15	12.467	
.263	453.15	10.834	
.4045	453.15	9.414	
.5283	453.15	7.894	
.7023	453.15	5.759	
.8526	453.15	3.659	
1	453.15	1.21	
