Measured thermophysical data. Measurement and Correlation of Solubility of -Aminobutyric Acid in Different Binary Solvents
Source: J. Chem. Eng. Data, 2016, 10.1021/acs.jced.5b00829
Compound 1: .gamma.-aminobutyric acid, C4H9NO2, purity 99.0%
Compound 2: methanol, CH4O, purity 99.5%
Compound 3: ethanol, C2H6O, purity 99.5%
Compound 4: 1-propanol, C3H8O, purity 99.5%
Compound 5: 2-propanol, C3H8O, purity 99.5%

System: .gamma.-aminobutyric acid + ethanol + methanol; phases: Liquid, Crystal
Fixed: Pressure, kPa = 100
Property: Mole fraction of .gamma.-aminobutyric acid (Liquid); method: gravimetric
Temperature, K	Solvent: Mole fraction of ethanol	Mole fraction of .gamma.-aminobutyric acid	uncertainty
283.15	.1	.0017221	
283.15	.15	.0015323	
283.15	.2	.0013511	
283.15	.25	.0011927	
283.15	.3	.0010853	
283.15	.4	.0008316	
283.15	.5	.000602	
283.15	.6	.0004455	
283.15	.7	.0003834	
288.15	.1	.0019406	
288.15	.15	.0017176	
288.15	.2	.0014821	
288.15	.25	.001297	
288.15	.3	.0011755	
288.15	.4	.0008795	
288.15	.5	.0006746	
288.15	.6	.0004912	
288.15	.7	.00042	
293.15	.1	.0021534	
293.15	.15	.0018905	
293.15	.2	.0016513	
293.15	.25	.0014463	
293.15	.3	.0013183	
293.15	.4	.0009913	
293.15	.5	.0007723	
293.15	.6	.0005769	
293.15	.7	.0004972	
298.15	.1	.0022855	
298.15	.15	.0019957	
298.15	.2	.0017416	
298.15	.25	.0015301	
298.15	.3	.0014014	
298.15	.4	.0010828	
298.15	.5	.0008068	
298.15	.6	.0006511	
298.15	.7	.0005254	
303.15	.1	.0025294	
303.15	.15	.0022125	
303.15	.2	.0019726	
303.15	.25	.0017409	
303.15	.3	.0015176	
303.15	.4	.0012078	
303.15	.5	.0008963	
303.15	.6	.0007435	
303.15	.7	.0006046	
308.15	.1	.0026792	
308.15	.15	.0023766	
308.15	.2	.0020958	
308.15	.25	.0018951	
308.15	.3	.0016577	
308.15	.4	.0012727	
308.15	.5	.0009988	
308.15	.6	.0008295	
308.15	.7	.0006954	
313.15	.1	.0028289	
313.15	.15	.0025031	
313.15	.2	.002223	
313.15	.25	.0019768	
313.15	.3	.0017545	
313.15	.4	.0014068	
313.15	.5	.001112	
313.15	.6	.0008916	
313.15	.7	.0007734	
318.15	.1	.0030964	
318.15	.15	.0027163	
318.15	.2	.0023775	
318.15	.25	.0021506	
318.15	.3	.0018911	
318.15	.4	.0015255	
318.15	.5	.0012035	
318.15	.6	.0009717	
318.15	.7	.0008588	
323.15	.1	.0034385	
323.15	.15	.0028484	
323.15	.2	.0026547	
323.15	.25	.0022545	
323.15	.3	.0020993	
323.15	.4	.001691	
323.15	.5	.0013526	
323.15	.6	.0011243	
323.15	.7	.0009709	

System: .gamma.-aminobutyric acid + methanol + 1-propanol; phases: Liquid, Crystal
Fixed: Pressure, kPa = 100
Property: Mole fraction of .gamma.-aminobutyric acid (Liquid); method: gravimetric
Temperature, K	Solvent: Mole fraction of 1-propanol	Mole fraction of .gamma.-aminobutyric acid	uncertainty
283.15	.1	.0017266	
283.15	.15	.0014251	
283.15	.2	.001144	
283.15	.25	.0009644	
283.15	.3	.0008515	
283.15	.4	.0006311	
283.15	.5	.0005072	
288.15	.1	.0018461	
288.15	.15	.001533	
288.15	.2	.0013069	
288.15	.25	.0010681	
288.15	.3	.0009554	
288.15	.4	.0006962	
288.15	.5	.0005768	
293.15	.1	.0020108	
293.15	.15	.0017026	
293.15	.2	.0014453	
293.15	.25	.0011926	
293.15	.3	.001056	
293.15	.4	.0007406	
293.15	.5	.0006244	
298.15	.1	.0021754	
298.15	.15	.0018264	
298.15	.2	.0015014	
298.15	.25	.0012774	
298.15	.3	.0011465	
298.15	.4	.0008109	
298.15	.5	.0006553	
303.15	.1	.0023492	
303.15	.15	.0019578	
303.15	.2	.0016327	
303.15	.25	.0013893	
303.15	.3	.0012314	
303.15	.4	.0008987	
303.15	.5	.0007009	
308.15	.1	.0025764	
308.15	.15	.0021484	
308.15	.2	.0018093	
308.15	.25	.0015025	
308.15	.3	.0013297	
308.15	.4	.000964	
308.15	.5	.0007637	
313.15	.1	.002741	
313.15	.15	.002355	
313.15	.2	.0019881	
313.15	.25	.0016658	
313.15	.3	.0014309	
313.15	.4	.0010789	
313.15	.5	.0008239	
318.15	.1	.0031018	
318.15	.15	.0026093	
318.15	.2	.002202	
318.15	.25	.0018986	
318.15	.3	.001645	
318.15	.4	.0011988	
318.15	.5	.0008807	
323.15	.1	.0033601	
323.15	.15	.0028876	
323.15	.2	.0024045	
323.15	.25	.0020176	
323.15	.3	.0017756	
323.15	.4	.0013121	
323.15	.5	.0009701	

System: .gamma.-aminobutyric acid + methanol + 2-propanol; phases: Liquid, Crystal
Fixed: Pressure, kPa = 100
Property: Mole fraction of .gamma.-aminobutyric acid (Liquid); method: gravimetric
Temperature, K	Solvent: Mole fraction of 2-propanol	Mole fraction of .gamma.-aminobutyric acid	uncertainty
283.15	.1	.0014699	
283.15	.15	.0010989	
283.15	.2	.000854	
283.15	.25	.0007013	
283.15	.3	.0005133	
283.15	.4	.0003599	
283.15	.5	.0002636	
288.15	.1	.0015051	
288.15	.15	.0011729	
288.15	.2	.0009297	
288.15	.25	.0007428	
288.15	.3	.0005624	
288.15	.4	.0004131	
288.15	.5	.0002915	
293.15	.1	.0016615	
293.15	.15	.0012462	
293.15	.2	.0009925	
293.15	.25	.0008071	
293.15	.3	.0006039	
293.15	.4	.0004508	
293.15	.5	.0003254	
298.15	.1	.0018077	
298.15	.15	.0013654	
298.15	.2	.0010957	
298.15	.25	.000868	
298.15	.3	.0006789	
298.15	.4	.0004736	
298.15	.5	.0003594	
303.15	.1	.001976	
303.15	.15	.0015004	
303.15	.2	.0011894	
303.15	.25	.00095	
303.15	.3	.0007673	
303.15	.4	.0005339	
303.15	.5	.0004026	
308.15	.1	.002062	
308.15	.15	.0016195	
308.15	.2	.0012804	
308.15	.25	.0010269	
308.15	.3	.0008154	
308.15	.4	.0005882	
308.15	.5	.00045	
313.15	.1	.0022166	
313.15	.15	.001751	
313.15	.2	.0014504	
313.15	.25	.0011585	
313.15	.3	.0009466	
313.15	.4	.0006626	
313.15	.5	.0004958	
318.15	.1	.0024477	
318.15	.15	.00196	
318.15	.2	.0015504	
318.15	.25	.0012274	
318.15	.3	.00104	
318.15	.4	.0007324	
318.15	.5	.0005302	
323.15	.1	.0026182	
323.15	.15	.0020539	
323.15	.2	.0017473	
323.15	.25	.0013389	
323.15	.3	.0011444	
323.15	.4	.0008129	
323.15	.5	.0005929	
