Measured thermophysical data. Investigation on Thermodynamics in Separation for Ethylene Glycol + Neopentyl Glycol System by Azeotropic Distillation
Source: J. Chem. Eng. Data, 2016, 10.1021/acs.jced.5b01044
Compound 1: ethylene glycol, C2H6O2, purity 99.95%
Compound 2: neopentyl glycol, C5H12O2, purity 99.97%
Compound 3: para-xylene, C8H10, purity 99%

System: ethylene glycol; phases: Liquid, Gas
Property: Vapor or sublimation pressure, kPa (Liquid); method: Ebulliometric method (Recirculating still)
Temperature, K	Vapor or sublimation pressure, kPa	uncertainty
470.22	101.3	

System: neopentyl glycol; phases: Liquid, Gas
Property: Vapor or sublimation pressure, kPa (Liquid); method: Ebulliometric method (Recirculating still)
Temperature, K	Vapor or sublimation pressure, kPa	uncertainty
478.95	101.3	

System: para-xylene; phases: Liquid, Gas
Property: Vapor or sublimation pressure, kPa (Liquid); method: Ebulliometric method (Recirculating still)
Temperature, K	Vapor or sublimation pressure, kPa	uncertainty
411.21	101.3	

System: ethylene glycol + neopentyl glycol; phases: Liquid, Gas
Fixed: Pressure, kPa = 101.3
Property: Boiling temperature at pressure P, K (Liquid); method: Ebulliometric method (Recirculating still)
Mole fraction of ethylene glycol	Boiling temperature at pressure P, K	uncertainty
1	470.22	
.9242	470.8	
.8524	471.28	
.7727	471.77	
.6841	472.29	
.6115	472.71	
.4966	473.31	
.4165	473.76	
.2439	474.79	
.1333	475.76	
.0587	476.63	
0	478.95	

System: ethylene glycol + neopentyl glycol; phases: Gas, Liquid
Property: Mole fraction of ethylene glycol (Gas); method: Chromatography
Temperature, K	Mole fraction of ethylene glycol	Mole fraction of ethylene glycol	uncertainty
470.22	1	1	
470.8	.9242	.9382	
471.28	.8524	.8763	
471.77	.7727	.8047	
472.29	.6841	.7216	
472.71	.6115	.6518	
473.31	.4966	.5394	
473.76	.4165	.4601	
474.79	.2439	.287	
475.76	.1333	.1696	
476.63	.0587	.0813	
478.95	0	0	

System: para-xylene + neopentyl glycol; phases: Liquid, Gas
Fixed: Pressure, kPa = 101.3
Property: Boiling temperature at pressure P, K (Liquid); method: Ebulliometric method (Recirculating still)
Mole fraction of neopentyl glycol	Boiling temperature at pressure P, K	uncertainty
0	411.21	
.0751	414.7	
.2237	419.62	
.3512	427.69	
.431	432.33	
.5764	442.49	
.6626	449.35	
.7508	456.64	
.8711	466.21	
.9468	472.57	
.9752	475.19	
1	478.95	

System: para-xylene + neopentyl glycol; phases: Gas, Liquid
Property: Mole fraction of neopentyl glycol (Gas); method: Chromatography
Temperature, K	Mole fraction of neopentyl glycol	Mole fraction of neopentyl glycol	uncertainty
411.21	0	0	
414.7	.0751	.0097	
419.62	.2237	.0218	
427.69	.3512	.0497	
432.33	.431	.0776	
442.49	.5764	.1631	
449.35	.6626	.2465	
456.64	.7508	.3634	
466.21	.8711	.5824	
472.57	.9468	.7754	
475.19	.9752	.8775	
478.95	1	1	
