Measured thermophysical data. Vaporization, Sublimation Enthalpy, and Crystal Structures of Imidazo[1,2-a]pyrazine and Phthalazine
Source: J. Chem. Eng. Data, 2016, 10.1021/acs.jced.5b00606
Compound 1: imidazo[1,2-a]pyrazine, C6H5N3, purity 97.0%
Compound 2: 3-methylpyridazine, C5H6N2, purity 99%

System: imidazo[1,2-a]pyrazine; phases: Liquid, Gas
Property: Molar enthalpy of vaporization or sublimation, kJ/mol (Liquid); method: Correlation gas chromatography
Temperature, K	Molar enthalpy of vaporization or sublimation, kJ/mol	uncertainty
298.15	62	2.6

System: imidazo[1,2-a]pyrazine; phases: Crystal, Liquid, Air at 1 atmosphere
Property: Molar enthalpy of transition or fusion, kJ/mol (Crystal); method: Drop ice or diphenyl ether calorimetry
Molar enthalpy of transition or fusion, kJ/mol	uncertainty
15.3	1.3

System: imidazo[1,2-a]pyrazine; phases: Crystal, Liquid, Air at 1 atmosphere
Property: Triple point temperature, K (Crystal); method: DSC/DTA
Triple point temperature, K	uncertainty
359.2	.6

System: imidazo[1,2-a]pyrazine; phases: Liquid, Gas
Property: Vapor or sublimation pressure, kPa (Liquid); method: Transpiration method
Temperature, K	Vapor or sublimation pressure, kPa	uncertainty
369.6	.16412	.004103
373.8	.20384	.005096
379	.2643	.0066075
383	.34004	.008501
385.2	.37302	.0093255
388.2	.43815	.01095375
390.2	.4952	.01238
393.4	.58315	.01457875

System: imidazo[1,2-a]pyrazine; phases: Liquid, Gas
Property: Molar enthalpy of vaporization or sublimation, kJ/mol (Liquid); method: Correlation gas chromatography
Temperature, K	Molar enthalpy of vaporization or sublimation, kJ/mol	uncertainty
298.15	67.9	1.4

System: 3-methylpyridazine; phases: Liquid, Gas
Property: Molar enthalpy of vaporization or sublimation, kJ/mol (Liquid); method: Correlation gas chromatography
Temperature, K	Molar enthalpy of vaporization or sublimation, kJ/mol	uncertainty
298.15	58	1.3
