Measured thermophysical data. Measurement and Correlation of Solubility of Cefathiamidine in Water + (Acetone, Ethanol, or 2-Propanol) from (278.15 to 308.15) K
Source: J. Chem. Eng. Data, 2016, 10.1021/acs.jced.5b00617
Compound 1: Cefathiamidine, C19H28N4O6S2, purity 99.1%
Compound 2: acetone, C3H6O, purity 99.5%
Compound 3: ethanol, C2H6O, purity 99.5%
Compound 4: 2-propanol, C3H8O, purity 99.5%
Compound 5: water, H2O, purity 99.9%

System: acetone + water + Cefathiamidine; phases: Liquid, Crystal
Fixed: Pressure, kPa = 100
Property: Mole fraction of Cefathiamidine (Liquid); method: Gravimetric
Temperature, K	Solvent: Mole fraction of acetone	Mole fraction of Cefathiamidine	uncertainty
278.15	.3	.0130454	.001043632
278.15	.4	.0042114	.000336912
278.15	.5	.0026437	.000211496
278.15	.6	.0011338	.000090704
278.15	.7	.0003156	.000025248
278.15	.8	.0000621	.000004968
278.15	.9	.0000104	.000000832
283.15	.3	.0148148	.001185184
283.15	.4	.0059907	.000479256
283.15	.5	.0034699	.000277592
283.15	.6	.0013503	.000108024
283.15	.7	.0003556	.000028448
283.15	.8	.000071	.00000568
283.15	.9	.0000117	.000000936
288.15	.3	.0171665	.00137332
288.15	.4	.00903	.0007224
288.15	.5	.0042582	.000340656
288.15	.6	.001539	.00012312
288.15	.7	.0004153	.000033224
288.15	.8	.0000831	.000006648
288.15	.9	.0000133	.000001064
293.15	.3	.0233266	.001866128
293.15	.4	.0125893	.001007144
293.15	.5	.0056711	.000453688
293.15	.6	.001958	.00015664
293.15	.7	.0005993	.000047944
293.15	.8	.0001099	.000008792
293.15	.9	.0000173	.000001384
298.15	.3	.0336033	.002688264
298.15	.4	.0183471	.001467768
298.15	.5	.0079224	.000633792
298.15	.6	.0025893	.000207144
298.15	.7	.00078	.0000624
298.15	.8	.0001591	.000012728
298.15	.9	.0000258	.000002064
303.15	.3	.0467503	.003740024
303.15	.4	.0264535	.00211628
303.15	.5	.011843	.00094744
303.15	.6	.0035919	.000287352
303.15	.7	.0009807	.000078456
303.15	.8	.0002161	.000017288
303.15	.9	.0000343	.000002744
308.15	.3	.063223	.00505784
308.15	.4	.0411463	.003291704
308.15	.5	.0171254	.001370032
308.15	.6	.0045827	.000366616
308.15	.7	.0014444	.000115552
308.15	.8	.0002889	.000023112
308.15	.9	.0000433	.000003464

System: ethanol + water + Cefathiamidine; phases: Liquid, Crystal
Fixed: Pressure, kPa = 100
Property: Mole fraction of Cefathiamidine (Liquid); method: Gravimetric
Temperature, K	Solvent: Mole fraction of ethanol	Mole fraction of Cefathiamidine	uncertainty
278.15	.3	.0461607	.003692856
278.15	.4	.0469607	.003756856
278.15	.5	.0424571	.003396568
278.15	.6	.0254427	.002035416
278.15	.7	.0111374	.000890992
278.15	.8	.0036404	.000291232
278.15	.9	.0012787	.000102296
283.15	.3	.0524525	.0041962
283.15	.4	.0575756	.004606048
283.15	.5	.052866	.00422928
283.15	.6	.0342019	.002736152
283.15	.7	.0145808	.001166464
283.15	.8	.005252	.00042016
283.15	.9	.0018319	.000146552
288.15	.3	.0699137	.005593096
288.15	.4	.0745814	.005966512
288.15	.5	.0647185	.00517748
288.15	.6	.0416484	.003331872
288.15	.7	.0215872	.001726976
288.15	.8	.0071387	.000571096
288.15	.9	.0024088	.000192704
293.15	.3	.0917908	.007343264
293.15	.4	.0956396	.007651168
293.15	.5	.0776947	.006215576
293.15	.6	.0551791	.004414328
293.15	.7	.0305348	.002442784
293.15	.8	.0125352	.001002816
293.15	.9	.0035759	.000286072
298.15	.3	.1091586	.008732688
298.15	.4	.1211807	.009694456
298.15	.5	.1022104	.008176832
298.15	.6	.0808706	.006469648
298.15	.7	.0429087	.003432696
298.15	.8	.0215578	.001724624
298.15	.9	.0071318	.000570544
303.15	.3	.1453043	.011624344
303.15	.4	.1537678	.012301424
303.15	.5	.1373251	.010986008
303.15	.6	.1068191	.008545528
303.15	.7	.0699208	.005593664
303.15	.8	.0457108	.003656864
303.15	.9	.0095842	.000766736
308.15	.3	.1996853	.015974824
308.15	.4	.2166853	.017334824
308.15	.5	.1780034	.014240272
308.15	.6	.1504257	.012034056
308.15	.7	.101576	.00812608
308.15	.8	.0517286	.004138288
308.15	.9	.0129414	.001035312

System: 2-propanol + water + Cefathiamidine; phases: Liquid, Crystal
Fixed: Pressure, kPa = 100
Property: Mole fraction of Cefathiamidine (Liquid); method: Gravimetric
Temperature, K	Solvent: Mole fraction of 2-propanol	Mole fraction of Cefathiamidine	uncertainty
278.15	.3	.0268082	.002144656
278.15	.4	.0136341	.001090728
278.15	.5	.0043406	.000347248
278.15	.6	.0021483	.000171864
278.15	.7	.000669	.00005352
278.15	.8	.0002206	.000017648
278.15	.9	.000094	.00000752
283.15	.3	.0331818	.002654544
283.15	.4	.0215504	.001724032
283.15	.5	.0080834	.000646672
283.15	.6	.003051	.00024408
283.15	.7	.0009473	.000075784
283.15	.8	.0002707	.000021656
283.15	.9	.0001202	.000009616
288.15	.3	.0400454	.003203632
288.15	.4	.0256076	.002048608
288.15	.5	.0112656	.000901248
288.15	.6	.0039971	.000319768
288.15	.7	.0011336	.000090688
288.15	.8	.000355	.0000284
288.15	.9	.0001612	.000012896
293.15	.3	.0530454	.004243632
293.15	.4	.0349199	.002793592
293.15	.5	.0175443	.001403544
293.15	.6	.0054568	.000436544
293.15	.7	.0015923	.000127384
293.15	.8	.0005442	.000043536
293.15	.9	.0002128	.000017024
298.15	.3	.0731197	.005849576
298.15	.4	.0474479	.003795832
298.15	.5	.0269273	.002154184
298.15	.6	.0074358	.000594864
298.15	.7	.0029114	.000232912
298.15	.8	.0008063	.000064504
298.15	.9	.0002789	.000022312
303.15	.3	.0921327	.007370616
303.15	.4	.0642429	.005139432
303.15	.5	.0386288	.003090304
303.15	.6	.0107906	.000863248
303.15	.7	.0037033	.000296264
303.15	.8	.0011783	.000094264
303.15	.9	.0003539	.000028312
308.15	.3	.1193042	.009544336
308.15	.4	.0900937	.007207496
308.15	.5	.0615656	.004925248
308.15	.6	.0158857	.001270856
308.15	.7	.0052316	.000418528
308.15	.8	.0015055	.00012044
308.15	.9	.0005478	.000043824
