Measured thermophysical data. Measurement and Modeling of the Solubility of NH4VO3 in the Na2HPO4 H2O and (NH4)2HPO4 H2O Systems
Source: J. Chem. Eng. Data, 2016, 10.1021/acs.jced.5b00780
Compound 1: ammonium vanadate, H4NO3V, purity 99%
Compound 2: diammonium hydrogen phosphate, H9N2O4P, purity 99%
Compound 3: disodium hydrogen phosphate, HNa2O4P, purity 99%
Compound 4: water, H2O, purity 99.8%

System: disodium hydrogen phosphate + water + ammonium vanadate; phases: Liquid, Crystal
Fixed: Pressure, kPa = 100
Property: Molality, mol/kg of ammonium vanadate (Liquid); method: spectrometer
Temperature, K	Molality, mol/kg of disodium hydrogen phosphate	Molality, mol/kg of ammonium vanadate	uncertainty
298.15	0	.0585	.0016029
298.15	.0831	.0985	.0026989
298.15	.1747	.1351	.00370174
298.15	.2839	.1768	.00484432
298.15	.3839	.2099	.00575126
298.15	.4808	.2441	.00668834
298.15	.5695	.264	.0072336
298.15	.6229	.2737	.00749938
298.15	.6961	.2954	.00809396
298.15	.7891	.3234	.00886116
298.15	.8208	.3345	.0091653
298.15	.8647	.3434	.00940916
298.15	.8857	.3492	.00956808
308.15	0	.0933	.00255642
308.15	.0874	.1375	.0037675
308.15	.1954	.2002	.00548548
308.15	.2848	.2421	.00663354
308.15	.3838	.2774	.00760076
308.15	.4769	.3109	.00851866
308.15	.5428	.3338	.00914612
308.15	.632	.3655	.0100147
308.15	.6875	.3776	.01034624
308.15	.7486	.406	.0111244
308.15	.8519	.4373	.01198202
308.15	.9222	.4654	.01275196
318.15	0	.1322	.00362228
318.15	.0931	.1974	.00540876
318.15	.1914	.2488	.00681712
318.15	.2801	.2977	.00815698
318.15	.3559	.3469	.00950506
318.15	.466	.3906	.01070244
318.15	.5284	.4128	.01131072
318.15	.6211	.469	.0128506
318.15	.6705	.4896	.01341504
318.15	.7732	.5494	.01505356
318.15	.8299	.5669	.01553306
318.15	.8896	.592	.0162208
328.15	0	.1774	.00486076
328.15	.0821	.258	.0070692
328.15	.1781	.3291	.00901734
328.15	.282	.4016	.01100384
328.15	.4024	.4747	.01300678
328.15	.5165	.5377	.01473298
328.15	.5694	.5653	.01548922
328.15	.6503	.599	.0164126
328.15	.6903	.6357	.01741818
328.15	.796	.6953	.01905122
328.15	.9121	.7698	.02109252
338.15	0	.2354	.00644996
338.15	.0838	.344	.0094256
338.15	.1895	.4397	.01204778
338.15	.31	.5491	.01504534
338.15	.3899	.6129	.01679346
338.15	.4667	.6771	.01855254
338.15	.5875	.7895	.0216323
338.15	.6804	.8492	.02326808
338.15	.7442	.9025	.0247285
338.15	.8495	.962	.0263588

System: water + diammonium hydrogen phosphate + ammonium vanadate; phases: Liquid, Crystal
Fixed: Pressure, kPa = 100
Property: Molality, mol/kg of ammonium vanadate (Liquid); method: spectrometer
Temperature, K	Molality, mol/kg of diammonium hydrogen phosphate	Molality, mol/kg of ammonium vanadate	uncertainty
298.15	0	.0585	.0016029
298.15	.0136	.0306	.00083844
298.15	.0885	.0062	.00016988
298.15	.1914	.0045	.0001233
298.15	.5371	.0056	.00015344
298.15	.7949	.008	.0002192
298.15	.8936	.0089	.00024386
298.15	1.1769	.0119	.00032606
308.15	0	.0933	.00255642
308.15	.0466	.0557	.00152618
308.15	.1025	.0159	.00043566
308.15	.1674	.0076	.00020824
308.15	.3639	.0083	.00022742
308.15	.5658	.0095	.0002603
308.15	.9014	.0135	.0003699
308.15	1.1927	.0181	.00049594
318.15	0	.1322	.00362228
318.15	.0151	.0975	.0026715
318.15	.0662	.0551	.00150974
318.15	.1009	.034	.0009316
318.15	.1905	.0178	.00048772
318.15	.3642	.0116	.00031784
318.15	.5739	.0134	.00036716
318.15	.9307	.0206	.00056444
318.15	1.2814	.0297	.00081378
328.15	0	.1774	.00486076
328.15	.0254	.1488	.00407712
328.15	.0254	.1364	.00373736
328.15	.1067	.0732	.00200568
328.15	.1888	.0411	.00112614
328.15	.37	.0292	.00080008
328.15	.541	.0284	.00077816
328.15	.5507	.0288	.00078912
328.15	1.1307	.0401	.00109874
328.15	1.2162	.0438	.00120012
338.15	0	.2354	.00644996
338.15	.0237	.2036	.00557864
338.15	.0972	.1337	.00366338
338.15	.1928	.0845	.0023153
338.15	.3887	.0566	.00155084
338.15	.5555	.0486	.00133164
338.15	.8662	.052	.0014248
338.15	1.2152	.0665	.0018221

System: water + ammonium vanadate; phases: Liquid, Crystal
Property: Molality, mol/kg of ammonium vanadate (Liquid); method: spectrometer
Temperature, K	Pressure, kPa	Molality, mol/kg of ammonium vanadate	uncertainty
298.15	100	.0585	.0016029
308.15	100	.0933	.00255642
318.15	100	.1322	.00362228
328.15	100	.1774	.00486076
338.15	100	.2354	.00644996
