Measured thermophysical data. Electrical Conductivity of LiCl-KCl-CsCl Melts
Source: J. Chem. Eng. Data, 2016, 10.1021/acs.jced.5b00682
Compound 1: lithium chloride, ClLi, purity 99.9%
Compound 2: potassium chloride, ClK, purity 99.997%
Compound 3: cesium chloride, ClCs, purity 99%
Compound 4: sodium nitrate, NNaO3, purity 99%
Compound 5: potassium nitrate, KNO3, purity 99%

System: sodium nitrate; phases: Liquid
Fixed: Pressure, kPa = 101.325
Property: Electrical conductivity, S/m (Liquid); method: Alternating current cell with electrodes
Temperature, K	Electrical conductivity, S/m	uncertainty
643	125.1	
633	120.9	
623	116.5	
613	112	
603	107.6	
593	103.2	
583	98.7	

System: potassium nitrate; phases: Liquid
Fixed: Pressure, kPa = 101.325
Property: Electrical conductivity, S/m (Liquid); method: Alternating current cell with electrodes
Temperature, K	Electrical conductivity, S/m	uncertainty
665	78.2	
663.5	77.7	
659.6	76.6	
658.5	76.3	
653.5	74.9	
649.6	73.7	
648.5	73.4	
638.5	70.6	
636.7	70.1	
633.8	69.2	
633.6	69.1	
633.5	69.1	
631.5	68.5	
630.5	68.3	
628.5	67.7	
628.4	67.7	
627.9	67.5	
626.5	67.1	
624.6	66.5	
623.5	66.2	
618.5	64.7	

System: potassium chloride + lithium chloride + cesium chloride; phases: Liquid
Fixed: Pressure, kPa = 101
Property: Electrical conductivity, S/m (Liquid); method: Alternating current cell with electrodes
Mole fraction of potassium chloride	Mole fraction of cesium chloride	Temperature, K	Electrical conductivity, S/m	uncertainty
0	.425	723	88.4	
0	.425	718	86.3	
0	.425	713	84	
0	.425	708	81.7	
0	.425	703	79.6	
0	.425	698	77.1	
0	.425	693	74.9	
0	.425	688	72.5	
0	.425	683	70.1	
0	.425	678	67.8	
0	.425	673	65.4	
0	.425	668	63	
0	.425	663	60.6	
0	.425	658	58.2	
0	.425	653	55.9	
0	.425	648	53.4	
0	.425	643	51.2	
0	.425	638	48.8	
0	.425	633	46.5	
0	.425	628	44.2	
0	.425	623	42	
0	.425	618	39.8	
0	.425	613	37.5	
0	.425	608	35.5	
0	.425	603	33.3	
.082	.343	723	95.7	
.082	.343	718	93.1	
.082	.343	713	90.8	
.082	.343	708	88.1	
.082	.343	703	85.9	
.082	.343	698	83.5	
.082	.343	693	81	
.082	.343	688	78.5	
.082	.343	683	76.1	
.082	.343	678	73.4	
.082	.343	673	71	
.082	.343	668	68.3	
.082	.343	663	65.8	
.082	.343	658	63.2	
.082	.343	653	60.6	
.082	.343	648	58.1	
.082	.343	643	55.5	
.082	.343	638	53	
.082	.343	633	50.5	
.082	.343	628	48.1	
.082	.343	623	45.6	
.082	.343	618	43.2	
.082	.343	613	40.8	
.082	.343	608	38.4	
.082	.343	603	36.2	
.082	.343	598	33.9	
.082	.343	593	31.7	
.082	.343	588	29.5	
.082	.343	583	27.3	
.082	.343	578	25.3	
.133	.292	723	98.8	
.133	.292	718	96.6	
.133	.292	713	94.3	
.133	.292	708	91.9	
.133	.292	703	89.5	
.133	.292	698	86.9	
.133	.292	693	84.4	
.133	.292	688	82	
.133	.292	683	79.3	
.133	.292	678	76.8	
.133	.292	673	74.1	
.133	.292	668	71.6	
.133	.292	663	69	
.133	.292	658	66.3	
.133	.292	653	63.8	
.133	.292	648	61.2	
.133	.292	643	58.5	
.133	.292	638	55.9	
.133	.292	633	53.3	
.133	.292	628	50.8	
.133	.292	623	48.3	
.133	.292	618	45.7	
.133	.292	613	43.4	
.133	.292	608	41	
.133	.292	603	38.6	
.133	.292	598	36.4	
.133	.292	593	34	
.133	.292	588	31.7	
.133	.292	583	29.6	
.133	.292	578	27.5	
.133	.292	573	25.4	
.133	.292	568	23.4	
.133	.292	563	21.4	
.164	.261	723	100.3	
.164	.261	718	98.1	
.164	.261	713	96	
.164	.261	708	93.5	
.164	.261	703	90.9	
.164	.261	698	88.4	
.164	.261	693	85.8	
.164	.261	688	83.3	
.164	.261	683	80.6	
.164	.261	678	78	
.164	.261	673	75.3	
.164	.261	668	72.6	
.164	.261	663	70.1	
.164	.261	658	67.4	
.164	.261	653	64.9	
.164	.261	648	62.2	
.164	.261	643	59.8	
.164	.261	638	57.2	
.164	.261	633	54.6	
.164	.261	628	52.1	
.164	.261	623	49.7	
.164	.261	618	47.1	
.164	.261	613	44.7	
.164	.261	608	42.3	
.164	.261	603	40	
.164	.261	598	37.5	
.164	.261	593	35.3	
.164	.261	588	33	
.164	.261	583	30.8	
.164	.261	578	28.6	
.164	.261	573	26.5	
.164	.261	568	24.5	
.164	.261	563	22.5	
.246	.179	723	114.3	
.246	.179	718	112	
.246	.179	713	109.5	
.246	.179	708	106.8	
.246	.179	703	104.2	
.246	.179	698	101.3	
.246	.179	693	98.7	
.246	.179	688	96.1	
.246	.179	683	93.2	
.246	.179	678	90.6	
.246	.179	673	87	
.246	.179	668	84.9	
.246	.179	663	82.3	
.246	.179	658	79.5	
.246	.179	653	76.7	
.246	.179	648	73.9	
.246	.179	643	71	
.246	.179	638	68.3	
.246	.179	633	65.6	
.246	.179	628	62.7	
.246	.179	623	60	
.246	.179	618	57.1	
.246	.179	613	54.3	
.246	.179	608	51.8	
.246	.179	603	49	
.246	.179	598	46.4	
.246	.179	593	43.8	
.246	.179	588	41.1	
.246	.179	583	38.6	
.246	.179	578	35.9	
.246	.179	573	33.4	
.246	.179	568	31	
.246	.179	563	28.3	
.328	.097	723	138.5	
.328	.097	718	136.1	
.328	.097	713	133.4	
.328	.097	708	131	
.328	.097	703	128.1	
.328	.097	698	125.5	
.328	.097	693	122.4	
.328	.097	688	119.1	
.328	.097	683	115.7	
.328	.097	678	112.4	
.328	.097	673	109.5	
.328	.097	668	106.1	
.328	.097	663	102.5	
.328	.097	658	99.6	
.328	.097	653	96.9	
.328	.097	648	93.6	
.328	.097	643	90.6	
.328	.097	638	87.2	
.328	.097	633	84.3	
.328	.097	628	80.9	
.328	.097	623	77.6	
.328	.097	618	74.7	
.328	.097	613	71.9	
.328	.097	608	68.5	
.328	.097	603	65.6	
.328	.097	598	62.2	
.41	.015	723	162.1	
.41	.015	718	160.1	
.41	.015	713	156.1	
.41	.015	708	153.2	
.41	.015	703	150.7	
.41	.015	698	147.7	
.41	.015	693	145.3	
.41	.015	688	142.5	
.41	.015	683	140.9	
.41	.015	678	136.1	
.41	.015	673	132.2	
.41	.015	668	128.9	
.41	.015	663	125.4	
.41	.015	658	123.2	
.41	.015	653	120.2	
.41	.015	648	117	
.41	.015	643	112.8	
.41	.015	638	108.6	
.41	.015	633	104.7	
.41	.015	628	102.6	
.41	.015	623	99	

System: lithium chloride + cesium chloride; phases: Liquid
Property: Electrical conductivity, S/m (Liquid); method: Alternating current cell with electrodes
Mole fraction of cesium chloride	Temperature, K	Pressure, kPa	Electrical conductivity, S/m	uncertainty
.425	723	101	88.4	
.425	718	101	86.3	
.425	713	101	84	
.425	708	101	81.7	
.425	703	101	79.6	
.425	698	101	77.1	
.425	693	101	74.9	
.425	688	101	72.5	
.425	683	101	70.1	
.425	678	101	67.8	
.425	673	101	65.4	
.425	668	101	63	
.425	663	101	60.6	
.425	658	101	58.2	
.425	653	101	55.9	
.425	648	101	53.4	
.425	643	101	51.2	
.425	638	101	48.8	
.425	633	101	46.5	
.425	628	101	44.2	
.425	623	101	42	
.425	618	101	39.8	
.425	613	101	37.5	
.425	608	101	35.5	
.425	603	101	33.3	
.42	710.5	101	90.2	
.42	703.5	101	87	
.42	693.5	101	82.2	
.42	690.5	101	80.6	
.42	683.5	101	77.2	
.42	673.5	101	72.1	
.42	670.5	101	70.6	
.42	663.5	101	67.1	
.42	653.5	101	62	
.42	650.5	101	60.5	
.42	643.5	101	57	
.42	633.5	101	52	
.42	628.5	101	49.5	
.42	623.5	101	47.1	
.42	613.5	101	42.4	
.42	610.5	101	41.1	
.42	603.5	101	37.9	
.42	598.5	101	35.5	
.42	593.5	101	33.3	
.42	718	101	97.1	
.42	710	101	91.8	
.42	698	101	86.9	
.42	690	101	82.2	
.42	678	101	76.6	
.42	670	101	72.1	
.42	658	101	66.5	
.42	650	101	62.1	
.42	638	101	57.1	
.42	629	101	52.4	
