Measured thermophysical data. Isothermal Vapor Liquid Equilibrium Data for the Toluene + Methanol + N-Butylpyridinium Bromide System
Source: J. Chem. Eng. Data, 2017, 10.1021/acs.jced.6b00279
Compound 1: methanol, CH4O, purity 99.8%
Compound 2: toluene, C7H8, purity 99.5%
Compound 3: 1-butylpyridinium bromide, C9H14BrN, purity 99.0%

System: 1-butylpyridinium bromide; phases: Crystal, Liquid, Air at 1 atmosphere
Property: Normal melting temperature, K (Crystal); method: Visual observation
Normal melting temperature, K	uncertainty
378.15	1

System: methanol + toluene + 1-butylpyridinium bromide; phases: Gas, Liquid
Fixed: Temperature, K = 318.15
Property: Mole fraction of methanol (Gas); method: Chromatography
Molality, mol/kg of 1-butylpyridinium bromide	Solvent: Mole fraction of methanol	Mole fraction of methanol	uncertainty
0	.025	.58	
0	.082	.728	
0	.101	.743	
0	.183	.771	
0	.202	.78	
0	.251	.79	
0	.303	.792	
0	.394	.795	
0	.45	.801	
0	.498	.807	
0	.558	.809	
0	.601	.81	
0	.625	.811	
0	.702	.822	
0	.764	.833	
0	.867	.867	
0	.903	.9	
0	.96	.935	
.3	.025	.582	
.3	.082	.733	
.3	.101	.749	
.3	.183	.78	
.3	.202	.79	
.3	.251	.802	
.3	.303	.806	
.3	.394	.813	
.3	.45	.821	
.3	.498	.829	
.3	.558	.833	
.3	.601	.836	
.3	.625	.838	
.3	.702	.85	
.3	.764	.862	
.3	.867	.893	
.3	.903	.92	
.3	.96	.949	
.7	.025	.583	
.7	.082	.735	
.7	.101	.751	
.7	.183	.785	
.7	.202	.794	
.7	.251	.807	
.7	.303	.812	
.7	.394	.821	
.7	.45	.83	
.7	.498	.838	
.7	.558	.844	
.7	.601	.847	
.7	.625	.849	
.7	.702	.862	
.7	.764	.874	
.7	.867	.904	
.7	.903	.929	
.7	.96	.955	
1	.025	.584	
1	.082	.737	
1	.101	.753	
1	.183	.788	
1	.202	.798	
1	.251	.811	
1	.303	.817	
1	.394	.827	
1	.45	.837	
1	.498	.845	
1	.558	.852	
1	.601	.856	
1	.625	.858	
1	.702	.872	
1	.764	.884	
1	.867	.913	
1	.903	.936	
1	.96	.96	
1.2	.025	.585	
1.2	.082	.738	
1.2	.101	.755	
1.2	.183	.79	
1.2	.202	.8	
1.2	.251	.814	
1.2	.303	.82	
1.2	.394	.831	
1.2	.45	.841	
1.2	.498	.85	
1.2	.558	.857	
1.2	.601	.861	
1.2	.625	.864	
1.2	.702	.878	
1.2	.764	.89	
1.2	.867	.919	
1.2	.903	.94	
1.2	.96	.963	
1.5	.025	.586	
1.5	.082	.74	
1.5	.101	.756	
1.5	.183	.793	
1.5	.202	.803	
1.5	.251	.818	
1.5	.303	.825	
1.5	.394	.837	
1.5	.45	.848	
1.5	.498	.857	
1.5	.558	.865	
1.5	.601	.87	
1.5	.625	.873	
1.5	.702	.887	
1.5	.764	.9	
1.5	.867	.928	
1.5	.903	.947	
1.5	.96	.968	

System: methanol + toluene + 1-butylpyridinium bromide; phases: Gas, Liquid
Fixed: Temperature, K = 318.15
Property: Mole fraction of 1-butylpyridinium bromide (Gas); method: Chromatography
Molality, mol/kg of 1-butylpyridinium bromide	Solvent: Mole fraction of methanol	Mole fraction of 1-butylpyridinium bromide	uncertainty
0	.025	0	
0	.082	0	
0	.101	0	
0	.183	0	
0	.202	0	
0	.251	0	
0	.303	0	
0	.394	0	
0	.45	0	
0	.498	0	
0	.558	0	
0	.601	0	
0	.625	0	
0	.702	0	
0	.764	0	
0	.867	0	
0	.903	0	
0	.96	0	
.3	.025	0	
.3	.082	0	
.3	.101	0	
.3	.183	0	
.3	.202	0	
.3	.251	0	
.3	.303	0	
.3	.394	0	
.3	.45	0	
.3	.498	0	
.3	.558	0	
.3	.601	0	
.3	.625	0	
.3	.702	0	
.3	.764	0	
.3	.867	0	
.3	.903	0	
.3	.96	0	
.7	.025	0	
.7	.082	0	
.7	.101	0	
.7	.183	0	
.7	.202	0	
.7	.251	0	
.7	.303	0	
.7	.394	0	
.7	.45	0	
.7	.498	0	
.7	.558	0	
.7	.601	0	
.7	.625	0	
.7	.702	0	
.7	.764	0	
.7	.867	0	
.7	.903	0	
.7	.96	0	
1	.025	0	
1	.082	0	
1	.101	0	
1	.183	0	
1	.202	0	
1	.251	0	
1	.303	0	
1	.394	0	
1	.45	0	
1	.498	0	
1	.558	0	
1	.601	0	
1	.625	0	
1	.702	0	
1	.764	0	
1	.867	0	
1	.903	0	
1	.96	0	
1.2	.025	0	
1.2	.082	0	
1.2	.101	0	
1.2	.183	0	
1.2	.202	0	
1.2	.251	0	
1.2	.303	0	
1.2	.394	0	
1.2	.45	0	
1.2	.498	0	
1.2	.558	0	
1.2	.601	0	
1.2	.625	0	
1.2	.702	0	
1.2	.764	0	
1.2	.867	0	
1.2	.903	0	
1.2	.96	0	
1.5	.025	0	
1.5	.082	0	
1.5	.101	0	
1.5	.183	0	
1.5	.202	0	
1.5	.251	0	
1.5	.303	0	
1.5	.394	0	
1.5	.45	0	
1.5	.498	0	
1.5	.558	0	
1.5	.601	0	
1.5	.625	0	
1.5	.702	0	
1.5	.764	0	
1.5	.867	0	
1.5	.903	0	
1.5	.96	0	

System: methanol + toluene; phases: Gas, Liquid
Property: Mole fraction of methanol (Gas); method: Chromatography
Mole fraction of methanol	Temperature, K	Mole fraction of methanol	uncertainty
.025	318.15	.58	
.082	318.15	.728	
.101	318.15	.743	
.183	318.15	.771	
.202	318.15	.78	
.251	318.15	.79	
.303	318.15	.792	
.394	318.15	.795	
.45	318.15	.801	
.498	318.15	.807	
.558	318.15	.809	
.601	318.15	.81	
.625	318.15	.811	
.702	318.15	.822	
.764	318.15	.833	
.867	318.15	.867	
.903	318.15	.9	
.96	318.15	.935	
