Measured thermophysical data. Isobaric Vapor Liquid Equilibrium for Two Binary Systems (Methanol + Dibutyl Carbonate) and (n-Butanol + Dibutyl Carbonate) at p = 40.0, 70.0, and 100.0 kPa
Source: J. Chem. Eng. Data, 2017, 10.1021/acs.jced.6b00517
Compound 1: methanol, CH4O, purity 99.9%
Compound 2: n-butanol, C4H10O, purity 99.5%
Compound 3: dibutyl carbonate, C9H18O3, purity 99.5%

System: methanol; phases: Liquid
Property: Mass density, kg/m3 (Liquid); method: Vibrating tube method
Temperature, K	Pressure, kPa	Mass density, kg/m3	uncertainty
298.15	101.3	786.61	

System: methanol; phases: Liquid
Property: Refractive index (Na D-line) (Liquid); method: Standard Abbe refractometry
Temperature, K	Pressure, kPa	Refractive index (Na D-line)	uncertainty
298.15	101.3	1.3266	

System: methanol; phases: Liquid, Gas
Property: Boiling temperature at pressure P, K (Liquid); method: Ebulliometric method (Recirculating still)
Pressure, kPa	Boiling temperature at pressure P, K	uncertainty
101.3	337.83	

System: methanol; phases: Liquid, Gas
Property: Vapor or sublimation pressure, kPa (Liquid); method: Ebulliometric method (Recirculating still)
Temperature, K	Vapor or sublimation pressure, kPa	uncertainty
315.78	40	
328.56	70	
337.33	100	

System: n-butanol; phases: Liquid
Property: Mass density, kg/m3 (Liquid); method: Vibrating tube method
Pressure, kPa	Temperature, K	Mass density, kg/m3	uncertainty
101.3	298.15	805.94	

System: n-butanol; phases: Liquid
Property: Refractive index (Na D-line) (Liquid); method: Standard Abbe refractometry
Pressure, kPa	Temperature, K	Refractive index (Na D-line)	uncertainty
101.3	298.15	1.3971	

System: n-butanol; phases: Liquid, Gas
Property: Boiling temperature at pressure P, K (Liquid); method: Ebulliometric method (Recirculating still)
Pressure, kPa	Boiling temperature at pressure P, K	uncertainty
101.3	390.82	

System: n-butanol; phases: Liquid, Gas
Property: Vapor or sublimation pressure, kPa (Liquid); method: Ebulliometric method (Recirculating still)
Temperature, K	Vapor or sublimation pressure, kPa	uncertainty
367.03	40	
381.07	70	
390.78	100	

System: dibutyl carbonate; phases: Liquid
Property: Mass density, kg/m3 (Liquid); method: Vibrating tube method
Pressure, kPa	Temperature, K	Mass density, kg/m3	uncertainty
101.3	298.15	925.17	

System: dibutyl carbonate; phases: Liquid
Property: Refractive index (Na D-line) (Liquid); method: Standard Abbe refractometry
Pressure, kPa	Temperature, K	Refractive index (Na D-line)	uncertainty
101.3	298.15	1.4115	

System: dibutyl carbonate; phases: Liquid, Gas
Property: Boiling temperature at pressure P, K (Liquid); method: Ebulliometric method (Recirculating still)
Pressure, kPa	Boiling temperature at pressure P, K	uncertainty
101.3	477.65	

System: dibutyl carbonate; phases: Liquid, Gas
Property: Vapor or sublimation pressure, kPa (Liquid); method: Ebulliometric method (Recirculating still)
Temperature, K	Vapor or sublimation pressure, kPa	uncertainty
383.16	5	
403.77	10	
410.07	15	
420.73	20	
427.86	25	
434.15	30	
439.03	35	
443.67	40	
449.33	45	
453.17	50	
456.63	55	
459.47	60	
461.31	65	
463.87	70	
465.41	75	
468.56	80	
470.27	85	
472.83	90	
475.91	95	
478.18	100	
443.78	40	
464.01	70	
478.02	100	

System: methanol + dibutyl carbonate; phases: Liquid, Gas
Property: Boiling temperature at pressure P, K (Liquid); method: Ebulliometric method (Recirculating still)
Mole fraction of methanol	Pressure, kPa	Boiling temperature at pressure P, K	uncertainty
0	40	443.78	
.007	40	430.58	
.02	40	413.45	
.041	40	395.92	
.102	40	370.68	
.255	40	346.48	
.358	40	338.23	
.449	40	332.98	
.526	40	329.55	
.607	40	326.37	
.669	40	324.29	
.778	40	321.08	
.927	40	317.33	
1	40	315.78	
0	70	464.01	
.008	70	450.43	
.019	70	436.46	
.038	70	419.72	
.062	70	405.56	
.107	70	389.07	
.182	70	373.06	
.268	70	362.08	
.417	70	350.07	
.578	70	341.75	
.685	70	337.63	
.772	70	334.75	
.942	70	329.98	
1	70	328.56	
0	100	478.02	
.005	100	469.04	
.012	100	458.52	
.03	100	438.78	
.059	100	419.12	
.102	100	401.66	
.156	100	388.23	
.288	100	369.88	
.413	100	359.82	
.556	100	352.01	
.722	100	345.46	
.816	100	342.44	
.934	100	339.08	
1	100	337.33	

System: methanol + dibutyl carbonate; phases: Gas, Liquid
Property: Mole fraction of methanol (Gas); method: Chromatography
Mole fraction of methanol	Pressure, kPa	Mole fraction of methanol	uncertainty
0	40	0	
.007	40	.332	
.02	40	.626	
.041	40	.812	
.102	40	.943	
.255	40	.992	
.358	40	.993	
.449	40	.994	
.526	40	.995	
.607	40	.996	
.669	40	.997	
.778	40	.998	
.927	40	.999	
1	40	1	
0	70	0	
.008	70	.312	
.019	70	.552	
.038	70	.745	
.062	70	.851	
.107	70	.927	
.182	70	.969	
.268	70	.987	
.417	70	.994	
.578	70	.996	
.685	70	.997	
.772	70	.998	
.942	70	.999	
1	70	1	
0	100	0	
.005	100	.203	
.012	100	.395	
.03	100	.656	
.059	100	.827	
.102	100	.914	
.156	100	.956	
.288	100	.984	
.413	100	.992	
.556	100	.996	
.722	100	.997	
.816	100	.998	
.934	100	.999	
1	100	1	

System: n-butanol + dibutyl carbonate; phases: Liquid, Gas
Property: Boiling temperature at pressure P, K (Liquid); method: Ebulliometric method (Recirculating still)
Mole fraction of n-butanol	Pressure, kPa	Boiling temperature at pressure P, K	uncertainty
0	40	443.78	
.034	40	434.24	
.086	40	423.24	
.113	40	418.54	
.202	40	406.73	
.334	40	394.82	
.413	40	389.47	
.489	40	385.2	
.576	40	380.89	
.655	40	377.62	
.743	40	374.26	
.806	40	372.17	
.926	40	368.79	
1	40	367.03	
0	70	464.01	
.028	70	455.48	
.089	70	440.98	
.126	70	434.52	
.203	70	423.65	
.282	70	415.56	
.364	70	408.62	
.408	70	405.48	
.546	70	397.48	
.654	70	392.45	
.702	70	390.72	
.773	70	387.82	
.913	70	383.48	
1	70	381.07	
0	100	478.02	
.042	100	465.66	
.125	100	448.22	
.169	100	441.31	
.244	100	431.96	
.322	100	424.38	
.402	100	417.84	
.445	100	414.82	
.572	100	407.17	
.665	100	402.65	
.726	100	399.95	
.793	100	397.35	
.896	100	393.77	
1	100	390.78	

System: n-butanol + dibutyl carbonate; phases: Gas, Liquid
Property: Mole fraction of n-butanol (Gas); method: Chromatography
Mole fraction of n-butanol	Pressure, kPa	Mole fraction of n-butanol	uncertainty
0	40	0	
.034	40	.278	
.086	40	.523	
.113	40	.602	
.202	40	.765	
.334	40	.878	
.413	40	.913	
.489	40	.942	
.576	40	.961	
.655	40	.978	
.743	40	.985	
.806	40	.991	
.926	40	.997	
1	40	1	
0	70	0	
.028	70	.234	
.089	70	.525	
.126	70	.628	
.203	70	.761	
.282	70	.841	
.364	70	.889	
.408	70	.91	
.546	70	.953	
.654	70	.972	
.702	70	.981	
.773	70	.987	
.913	70	.995	
1	70	1	
0	100	0	
.042	100	.292	
.125	100	.594	
.169	100	.685	
.244	100	.784	
.322	100	.858	
.402	100	.902	
.445	100	.918	
.572	100	.955	
.665	100	.97	
.726	100	.978	
.793	100	.985	
.896	100	.993	
1	100	1	
