Measured thermophysical data. Phase Equilibrium in the Aqueous Ternary System KH2PO4 NaH2PO4 H2O at 288.15 and 318.15 K
Source: J. Chem. Eng. Data, 2017, 10.1021/acs.jced.7b00020
Compound 1: potassium dihydrogen phosphate, H2KO4P, purity 99.5%
Compound 2: water, H2O, purity 99.9%
Compound 3: sodium dihydrogen phosphate, H2NaO4P, purity 99.5%

System: potassium dihydrogen phosphate + water + sodium dihydrogen phosphate; phases: Liquid, Crystal of intercomponent compound 1
Fixed: Pressure, kPa = 100
Property: Mass fraction of sodium dihydrogen phosphate (Liquid); method: gravimetric + titration
Mass fraction of potassium dihydrogen phosphate	Temperature, K	Mass fraction of sodium dihydrogen phosphate	uncertainty
0	288.15	.436	
.0311	288.15	.4324	
.0559	288.15	.4187	
.0819	288.15	.4103	
.0867	288.15	.4068	

System: potassium dihydrogen phosphate + water + sodium dihydrogen phosphate; phases: Liquid, Crystal
Fixed: Pressure, kPa = 100
Property: Mass fraction of sodium dihydrogen phosphate (Liquid); method: gravimetric + titration
Mass fraction of potassium dihydrogen phosphate	Temperature, K	Mass fraction of sodium dihydrogen phosphate	uncertainty
.0867	288.15	.4068	
.0873	288.15	.4001	
.0877	288.15	.3867	
.0926	288.15	.3507	
.0995	288.15	.3189	
.1033	288.15	.2929	
.1125	288.15	.2563	
.1193	288.15	.2085	
.1306	288.15	.1634	
.1397	288.15	.1191	
.1523	288.15	.0626	
.1686	288.15	0	
.1	318.15	.5613	
.1136	318.15	.5053	
.1211	318.15	.4857	
.1269	318.15	.4556	
.1352	318.15	.4286	
.1471	318.15	.3867	
.1517	318.15	.3764	
.1563	318.15	.3607	
.164	318.15	.3385	
.1786	318.15	.2842	
.1929	318.15	.2419	
.2075	318.15	.202	
.2206	318.15	.1568	
.2312	318.15	.1069	
.2424	318.15	.0651	
.2685	318.15	0	

System: potassium dihydrogen phosphate + water + sodium dihydrogen phosphate; phases: Liquid, Crystal of intercomponent compound 2
Fixed: Pressure, kPa = 100
Property: Mass fraction of sodium dihydrogen phosphate (Liquid); method: gravimetric + titration
Mass fraction of potassium dihydrogen phosphate	Temperature, K	Mass fraction of sodium dihydrogen phosphate	uncertainty
0	318.15	.5992	
.0204	318.15	.5943	
.0442	318.15	.5901	
.0606	318.15	.5875	
.0737	318.15	.5743	
.0806	318.15	.5671	
.098	318.15	.5606	
.1	318.15	.5613	
.1081	318.15	.5204	

System: potassium dihydrogen phosphate + water + sodium dihydrogen phosphate; phases: Liquid
Fixed: Pressure, kPa = 100
Property: Mass density, kg/m3 (Liquid); method: Pycnometric method
Mass fraction of potassium dihydrogen phosphate	Mass fraction of sodium dihydrogen phosphate	Temperature, K	Mass density, kg/m3	uncertainty
0	.436	288.15	1388.4	
.0311	.4324	288.15	1422.2	
.0559	.4187	288.15	1428.2	
.0819	.4103	288.15	1440.5	
.0867	.4068	288.15	1453	
.0873	.4001	288.15	1434.5	
.0877	.3867	288.15	1428.7	
.0926	.3507	288.15	1394	
.0995	.3189	288.15	1367.8	
.1033	.2929	288.15	1343.9	
.1125	.2563	288.15	1314.1	
.1193	.2085	288.15	1273.2	
.1306	.1634	288.15	1237.5	
.1397	.1191	288.15	1203.4	
.1523	.0626	288.15	1164.7	
.1686	0	288.15	1126.4	
0	.5992	318.15	1573.3	
.0204	.5943	318.15	1605.6	
.0442	.5901	318.15	1620.4	
.0606	.5875	318.15	1627.6	
.0737	.5743	318.15	1635.5	
.0806	.5671	318.15	1627.1	
.098	.5606	318.15	1637.7	
.1	.5613	318.15	1642.6	
.1081	.5204	318.15	1600.5	
.1136	.5053	318.15	1593.2	
.1211	.4857	318.15	1574.7	
.1269	.4556	318.15	1548.1	
.1352	.4286	318.15	1527.3	
.1471	.3867	318.15	1485	
.1517	.3764	318.15	1477.2	
.1563	.3607	318.15	1466.8	
.164	.3385	318.15	1449.3	
.1786	.2842	318.15	1411.8	
.1929	.2419	318.15	1372.4	
.2075	.202	318.15	1345.5	
.2206	.1568	318.15	1317.7	
.2312	.1069	318.15	1272.5	
.2424	.0651	318.15	1245	
.2685	0	318.15	1204.6	

System: water + sodium dihydrogen phosphate; phases: Liquid, Crystal of intercomponent compound 1
Property: Mass fraction of sodium dihydrogen phosphate (Liquid); method: gravimetric + titration
Temperature, K	Pressure, kPa	Mass fraction of sodium dihydrogen phosphate	uncertainty
288.15	100	.436	

System: water + sodium dihydrogen phosphate; phases: Liquid, Crystal of intercomponent compound 2
Property: Mass fraction of sodium dihydrogen phosphate (Liquid); method: gravimetric + titration
Temperature, K	Pressure, kPa	Mass fraction of sodium dihydrogen phosphate	uncertainty
318.15	100	.5992	

System: water + sodium dihydrogen phosphate; phases: Liquid
Property: Mass density, kg/m3 (Liquid); method: Pycnometric method
Mass fraction of sodium dihydrogen phosphate	Temperature, K	Pressure, kPa	Mass density, kg/m3	uncertainty
.436	288.15	100	1388.4	
.5992	318.15	100	1573.3	

System: potassium dihydrogen phosphate + water; phases: Liquid, Crystal
Property: Mass fraction of potassium dihydrogen phosphate (Liquid); method: gravimetric + titration
Temperature, K	Pressure, kPa	Mass fraction of potassium dihydrogen phosphate	uncertainty
288.15	100	.1686	
318.15	100	.2685	

System: potassium dihydrogen phosphate + water; phases: Liquid
Property: Mass density, kg/m3 (Liquid); method: Pycnometric method
Mass fraction of potassium dihydrogen phosphate	Temperature, K	Pressure, kPa	Mass density, kg/m3	uncertainty
.1686	288.15	100	1126.4	
.2685	318.15	100	1204.6	
