Measured thermophysical data. Solubilities of Phthalic Acid and o-Toluic Acid in Binary Acetic Acid + Water and Acetic Acid + o-Xylene Solvent Mixtures
Source: J. Chem. Eng. Data, 2016, 10.1021/acs.jced.6b00324
Compound 1: phthalic acid, C8H6O4, purity 99.0%
Compound 2: o-toluic acid, C8H8O2, purity 98.0%
Compound 3: acetic acid, C2H4O2, purity 99.0%
Compound 4: o-xylene, C8H10, purity 98.0%
Compound 5: water, H2O, purity 99.9%

System: acetic acid + phthalic acid + water; phases: Liquid, Crystal
Fixed: Pressure, kPa = 101.3
Property: Mole fraction of phthalic acid (Liquid); method: Visual
Temperature, K	Solvent: Mole fraction of acetic acid	Mole fraction of phthalic acid	uncertainty
306.95	0	.001089	
311.05	0	.001311	
314.15	0	.001455	
316.65	0	.001601	
319.35	0	.001781	
322.15	0	.002019	
325.55	0	.002252	
328.45	0	.002487	
331.25	0	.002726	
333.75	0	.003002	
335.85	0	.003323	
339.45	0	.003765	
307.75	.0701	.002709	
313.65	.0701	.003377	
317.35	.0701	.003897	
320.95	.0701	.004404	
323.55	.0701	.004994	
327.05	.0701	.005884	
331.35	.0701	.006898	
334.75	.0701	.007894	
337.65	.0701	.008945	
341.85	.0701	.01032	
306.65	.1665	.004847	
311.05	.1665	.005754	
315.75	.1665	.00664	
320.35	.1665	.007536	
323.85	.1665	.009072	
327.55	.1665	.01062	
331.65	.1665	.01215	
334.75	.1665	.01366	
338.45	.1665	.01551	
341.55	.1665	.01734	
306.55	.3109	.007048	
311.35	.3109	.008609	
315.95	.3109	.01004	
319.95	.3109	.01134	
323.45	.3109	.01271	
328.25	.3109	.0143	
331.65	.3109	.01619	
335.35	.3109	.01803	
338.45	.3109	.01986	
342.05	.3109	.02172	
310.35	.5467	.00928	
318.25	.5467	.01125	
322.45	.5467	.01269	
325.55	.5467	.01411	
329.65	.5467	.01567	
333.05	.5467	.01743	
336.95	.5467	.01934	
339.45	.5467	.02112	
343.05	.5467	.02299	
345.95	.5467	.0251	

System: acetic acid + phthalic acid + o-xylene; phases: Liquid, Crystal
Fixed: Pressure, kPa = 101.3
Property: Mole fraction of phthalic acid (Liquid); method: Visual
Temperature, K	Solvent: Mole fraction of acetic acid	Mole fraction of phthalic acid	uncertainty
308.75	.3133	.001885	
318.05	.3133	.002441	
321.45	.3133	.002717	
326.95	.3133	.00307	
330.55	.3133	.003417	
335.15	.3133	.003808	
338.75	.3133	.004303	
343.15	.3133	.004847	
347.35	.3133	.005405	
350.85	.3133	.005966	
315.15	.5398	.004091	
323.45	.5398	.005159	
330.35	.5398	.006105	
333.45	.5398	.006826	
337.25	.5398	.007583	
340.55	.5398	.008347	
344.35	.5398	.009193	
347.05	.5398	.01005	
351.55	.5398	.01126	
354.85	.5398	.01245	
312.15	.7263	.005355	
317.25	.7263	.00624	
321.95	.7263	.007185	
326.55	.7263	.008123	
330.65	.7263	.009182	
334.05	.7263	.01014	
337.35	.7263	.01123	
340.35	.7263	.01241	
343.55	.7263	.01374	
349.35	.7263	.01584	
311.75	.8763	.006524	
315.35	.8763	.007317	
318.85	.8763	.008153	
322.45	.8763	.008974	
325.45	.8763	.009815	
328.05	.8763	.01076	
331.65	.8763	.01183	
334.95	.8763	.01291	
337.85	.8763	.01457	
342.55	.8763	.01658	
294.45	1	.004013	
300.55	1	.004867	
305.95	1	.005722	
310.45	1	.00658	
315.85	1	.007712	
320.45	1	.008845	
324.45	1	.009977	
329.75	1	.01156	
334.55	1	.01313	
338.35	1	.0147	
341.55	1	.01627	
344.75	1	.01803	

System: acetic acid + o-toluic acid + water; phases: Liquid, Crystal
Fixed: Pressure, kPa = 101.3
Property: Mole fraction of o-toluic acid (Liquid); method: Visual
Temperature, K	Solvent: Mole fraction of acetic acid	Mole fraction of o-toluic acid	uncertainty
306.55	0	.000217	
312.35	0	.000273	
316.45	0	.000323	
319.45	0	.000378	
321.85	0	.000448	
324.45	0	.000531	
326.65	0	.00062	
329.55	0	.000724	
331.85	0	.00084	
334.75	0	.00096	
339.15	0	.001186	
343.65	0	.001427	
306.75	.0698	.000831	
313.35	.0698	.001152	
318.45	.0698	.001444	
322.65	.0698	.001736	
325.95	.0698	.002027	
329.45	.0698	.002399	
332.35	.0698	.002866	
336.35	.0698	.003493	
340.45	.0698	.004181	
343.85	.0698	.004919	
303.55	.1668	.003116	
309.85	.1668	.004221	
314.25	.1668	.005325	
318.95	.1668	.006643	
322.15	.1668	.00796	
326.65	.1668	.01016	
332.05	.1668	.01451	
336.35	.1668	.01883	
340.25	.1668	.0242	
343.85	.1668	.03116	
303.55	.3104	.01172	
310.15	.3104	.01536	
314.35	.3104	.01878	
318.95	.3104	.02457	
323.35	.3104	.03122	
327.45	.3104	.03858	
331.25	.3104	.05057	
335.85	.3104	.06772	
340.95	.3104	.08977	
346.75	.3104	.1266	
302.05	.5454	.03583	
308.75	.5454	.04764	
312.45	.5454	.05761	
316.55	.5454	.06776	
320.75	.5454	.07851	
324.15	.5454	.09131	
328.45	.5454	.1097	
333.55	.5454	.139	
338.45	.5454	.1746	
344.55	.5454	.2402	

System: acetic acid + o-xylene + o-toluic acid; phases: Liquid, Crystal
Fixed: Pressure, kPa = 101.3
Property: Mole fraction of o-toluic acid (Liquid); method: Visual
Temperature, K	Solvent: Mole fraction of acetic acid	Mole fraction of o-toluic acid	uncertainty
300.75	0	.1103	
305.45	0	.1344	
309.75	0	.1572	
313.35	0	.1788	
317.65	0	.2094	
321.45	0	.2379	
325.25	0	.2726	
329.55	0	.3238	
333.45	0	.3633	
337.55	0	.4105	
340.85	0	.4513	
303.85	.3071	.2079	
308.75	.3071	.2356	
312.85	.3071	.2614	
316.75	.3071	.2855	
321.95	.3071	.3238	
326.45	.3071	.3582	
330.25	.3071	.3893	
335.15	.3071	.4375	
339.65	.3071	.4787	
343.45	.3071	.5142	
302.65	.5408	.2213	
308.15	.5408	.2448	
312.25	.5408	.267	
315.75	.5408	.2879	
320.35	.5408	.3217	
325.45	.5408	.3606	
329.45	.5408	.3952	
333.35	.5408	.4263	
336.85	.5408	.4602	
339.95	.5408	.4904	
300.65	.7263	.2004	
306.15	.7263	.2258	
310.05	.7263	.2497	
314.95	.7263	.279	
320.45	.7263	.3154	
324.45	.7263	.3482	
328.75	.7263	.3816	
331.65	.7263	.4117	
335.85	.7263	.4445	
338.55	.7263	.4739	
300.35	.8761	.1755	
305.55	.8761	.2	
309.55	.8761	.223	
313.65	.8761	.2484	
317.75	.8761	.2722	
322.85	.8761	.3151	
327.35	.8761	.3532	
331.05	.8761	.3874	
335.45	.8761	.4239	
338.35	.8761	.4543	
300.25	1	.1453	
307.35	1	.1794	
311.35	1	.2026	
314.95	1	.2199	
320.05	1	.2628	
324.15	1	.2936	
328.45	1	.3227	
332.15	1	.3504	
334.45	1	.3782	
338.75	1	.4295	
342.35	1	.4819	
348.55	1	.5512	

System: phthalic acid + water; phases: Liquid, Crystal
Property: Mole fraction of phthalic acid (Liquid); method: Visual
Temperature, K	Pressure, kPa	Mole fraction of phthalic acid	uncertainty
306.95	101.3	.001089	
311.05	101.3	.001311	
314.15	101.3	.001455	
316.65	101.3	.001601	
319.35	101.3	.001781	
322.15	101.3	.002019	
325.55	101.3	.002252	
328.45	101.3	.002487	
331.25	101.3	.002726	
333.75	101.3	.003002	
335.85	101.3	.003323	
339.45	101.3	.003765	

System: acetic acid + phthalic acid; phases: Liquid, Crystal
Property: Mole fraction of phthalic acid (Liquid); method: Visual
Temperature, K	Pressure, kPa	Mole fraction of phthalic acid	uncertainty
294.45	101.3	.004013	
300.55	101.3	.004867	
305.95	101.3	.005722	
310.45	101.3	.00658	
315.85	101.3	.007712	
320.45	101.3	.008845	
324.45	101.3	.009977	
329.75	101.3	.01156	
334.55	101.3	.01313	
338.35	101.3	.0147	
341.55	101.3	.01627	
344.75	101.3	.01803	

System: o-toluic acid + water; phases: Liquid, Crystal
Property: Mole fraction of o-toluic acid (Liquid); method: Visual
Temperature, K	Pressure, kPa	Mole fraction of o-toluic acid	uncertainty
306.55	101.3	.000217	
312.35	101.3	.000273	
316.45	101.3	.000323	
319.45	101.3	.000378	
321.85	101.3	.000448	
324.45	101.3	.000531	
326.65	101.3	.00062	
329.55	101.3	.000724	
331.85	101.3	.00084	
334.75	101.3	.00096	
339.15	101.3	.001186	
343.65	101.3	.001427	

System: o-xylene + o-toluic acid; phases: Liquid, Crystal
Property: Mole fraction of o-toluic acid (Liquid); method: Visual
Temperature, K	Pressure, kPa	Mole fraction of o-toluic acid	uncertainty
300.75	101.3	.1103	
305.45	101.3	.1344	
309.75	101.3	.1572	
313.35	101.3	.1788	
317.65	101.3	.2094	
321.45	101.3	.2379	
325.25	101.3	.2726	
329.55	101.3	.3238	
333.45	101.3	.3633	
337.55	101.3	.4105	
340.85	101.3	.4513	

System: acetic acid + o-toluic acid; phases: Liquid, Crystal
Property: Mole fraction of o-toluic acid (Liquid); method: Visual
Temperature, K	Pressure, kPa	Mole fraction of o-toluic acid	uncertainty
300.25	101.3	.1453	
307.35	101.3	.1794	
311.35	101.3	.2026	
314.95	101.3	.2199	
320.05	101.3	.2628	
324.15	101.3	.2936	
328.45	101.3	.3227	
332.15	101.3	.3504	
334.45	101.3	.3782	
338.75	101.3	.4295	
342.35	101.3	.4819	
348.55	101.3	.5512	
