Measured thermophysical data. (Solid + Liquid) Phase Equilibrium in the Aqueous Ternary System NaH2PO4 + CO(NH2)2 + H2O at (308.15, 328.15, and 348.15) K
Source: J. Chem. Eng. Data, 2015, 10.1021/acs.jced.5b00293
Compound 1: sodium dihydrogen phosphate anhydrous, H2NaO4P, purity 99.0%
Compound 2: urea, CH4N2O, purity 99.0%
Compound 3: water, H2O, purity 99.9%

System: urea + sodium dihydrogen phosphate anhydrous + water; phases: Liquid, Crystal
Fixed: Pressure, kPa = 100
Property: Mass fraction of urea (Liquid); method: Titration method
Temperature, K	Mass fraction of sodium dihydrogen phosphate anhydrous	Mass fraction of urea	uncertainty
308.15	0	.5913	.011826
308.15	.0543	.5476	.010952
308.15	.099	.521	.01042
308.15	.1532	.4879	.009758
308.15	.1782	.4735	.00947
308.15	.232	.4461	.008922
308.15	.2675	.4193	.008386
308.15	.2972	.3965	.00793
328.15	0	.6914	.013828
328.15	.0886	.6221	.012442
328.15	.1357	.6015	.01203
328.15	.1775	.5593	.011186
328.15	.2336	.5143	.010286
328.15	.2822	.462	.00924
348.15	0	.776	.01552
348.15	.0524	.7157	.014314
348.15	.0802	.6816	.013632
348.15	.1204	.6495	.01299
348.15	.1782	.6171	.012342
348.15	.2285	.5731	.011462
348.15	.2738	.531	.01062
348.15	.3064	.4929	.009858

System: urea + sodium dihydrogen phosphate anhydrous + water; phases: Liquid, Crystal of intercomponent compound 1
Fixed: Temperature, K = 308.15
Fixed: Pressure, kPa = 100
Property: Mass fraction of urea (Liquid); method: Titration method
Mass fraction of sodium dihydrogen phosphate anhydrous	Mass fraction of urea	uncertainty
.3283	.3721	.007442
.3486	.3361	.006722
.3706	.2955	.00591
.3931	.2494	.004988
.4163	.2013	.004026
.4395	.1634	.003268
.4644	.1226	.002452
.4947	.0733	.001466
.5436	0	0

System: urea + sodium dihydrogen phosphate anhydrous + water; phases: Liquid, Crystal of intercomponent compound 2
Fixed: Temperature, K = 328.15
Fixed: Pressure, kPa = 100
Property: Mass fraction of urea (Liquid); method: Titration method
Mass fraction of sodium dihydrogen phosphate anhydrous	Mass fraction of urea	uncertainty
.3748	.3373	.006746
.4063	.3071	.006142
.4412	.2586	.005172
.4961	.1793	.003586
.5482	.1141	.002282
.5969	.0641	.001282
.6299	0	0

System: urea + sodium dihydrogen phosphate anhydrous + water; phases: Liquid, Crystal
Fixed: Temperature, K = 348.15
Fixed: Pressure, kPa = 100
Property: Mass fraction of urea (Liquid); method: Titration method
Mass fraction of sodium dihydrogen phosphate anhydrous	Mass fraction of urea	uncertainty
.3644	.4065	.00813
.3994	.3521	.007042
.4483	.2974	.005948
.4925	.2199	.004398
.5251	.1705	.00341
.5689	.126	.00252
.6151	.0806	.001612
.672	0	0

System: urea + sodium dihydrogen phosphate anhydrous + water; phases: Liquid, Crystal, Crystal of intercomponent compound 1
Fixed: Pressure, kPa = 100
Property: Mass fraction of sodium dihydrogen phosphate anhydrous (Liquid); method: Gravimetric
Temperature, K	Mass fraction of sodium dihydrogen phosphate anhydrous	uncertainty
308.15	.3174	.003174
308.15	.3174	.003174

System: urea + sodium dihydrogen phosphate anhydrous + water; phases: Liquid, Crystal, Crystal of intercomponent compound 2
Fixed: Pressure, kPa = 100
Property: Mass fraction of sodium dihydrogen phosphate anhydrous (Liquid); method: Gravimetric
Temperature, K	Mass fraction of sodium dihydrogen phosphate anhydrous	uncertainty
328.15	.3229	.003229
328.15	.3229	.003229

System: urea + sodium dihydrogen phosphate anhydrous + water; phases: Liquid, Crystal, Crystal
Fixed: Pressure, kPa = 100
Property: Mass fraction of sodium dihydrogen phosphate anhydrous (Liquid); method: Gravimetric
Temperature, K	Mass fraction of sodium dihydrogen phosphate anhydrous	uncertainty
348.15	.3319	.003319
348.15	.3319	.003319

System: urea + sodium dihydrogen phosphate anhydrous + water; phases: Liquid, Crystal, Crystal of intercomponent compound 1
Fixed: Pressure, kPa = 100
Property: Mass fraction of urea (Liquid); method: Titration method
Temperature, K	Mass fraction of urea	uncertainty
308.15	.3875	.00775
308.15	.3875	.00775

System: urea + sodium dihydrogen phosphate anhydrous + water; phases: Liquid, Crystal, Crystal of intercomponent compound 2
Fixed: Pressure, kPa = 100
Property: Mass fraction of urea (Liquid); method: Titration method
Temperature, K	Mass fraction of urea	uncertainty
328.15	.4056	.008112
328.15	.4056	.008112

System: urea + sodium dihydrogen phosphate anhydrous + water; phases: Liquid, Crystal, Crystal
Fixed: Pressure, kPa = 100
Property: Mass fraction of urea (Liquid); method: Titration method
Temperature, K	Mass fraction of urea	uncertainty
348.15	.4556	.009112
348.15	.4556	.009112

System: urea + water; phases: Liquid, Crystal
Property: Mass fraction of urea (Liquid); method: Titration method
Temperature, K	Pressure, kPa	Mass fraction of urea	uncertainty
308.15	100	.5913	.011826
328.15	100	.6914	.013828
348.15	100	.776	.01552

System: sodium dihydrogen phosphate anhydrous + water; phases: Liquid, Crystal of intercomponent compound 1
Property: Mass fraction of sodium dihydrogen phosphate anhydrous (Liquid); method: Titration method
Temperature, K	Pressure, kPa	Mass fraction of sodium dihydrogen phosphate anhydrous	uncertainty
308.15	100	.5436	.005436

System: sodium dihydrogen phosphate anhydrous + water; phases: Liquid, Crystal of intercomponent compound 2
Property: Mass fraction of sodium dihydrogen phosphate anhydrous (Liquid); method: Titration method
Temperature, K	Pressure, kPa	Mass fraction of sodium dihydrogen phosphate anhydrous	uncertainty
328.15	100	.6299	.006299

System: sodium dihydrogen phosphate anhydrous + water; phases: Liquid, Crystal
Property: Mass fraction of sodium dihydrogen phosphate anhydrous (Liquid); method: Titration method
Temperature, K	Pressure, kPa	Mass fraction of sodium dihydrogen phosphate anhydrous	uncertainty
348.15	100	.672	.00672
