Measured thermophysical data. Vapor-Liquid Equilibrium of Binary Mixtures Containing Isopropyl Acetate and Alkanols at 101.32 kPa
Source: J. Chem. Eng. Data, 2015, 10.1021/acs.jced.5b00360
Compound 1: isopropyl acetate, C5H10O2, purity 99.5%
Compound 2: 2-butanol, C4H10O, purity 99.5%
Compound 3: 1-propanol, C3H8O, purity 99.97%
Compound 4: 2-propanol, C3H8O, purity 99.97%
Compound 5: 1-butanol, C4H10O, purity 99.92%

System: isopropyl acetate; phases: Liquid, Gas
Property: Vapor or sublimation pressure, kPa (Liquid); method: Ebulliometric method (Recirculating still)
Temperature, K	Vapor or sublimation pressure, kPa	uncertainty
361.41	100.54	1.4
368.8	125.86	1.4
375	151.03	1.4
380.4	176.2	1.4
385.39	201.37	1.4
389.89	226.54	1.4
393.99	251.71	1.4

System: 2-butanol; phases: Liquid, Gas
Property: Vapor or sublimation pressure, kPa (Liquid); method: Ebulliometric method (Recirculating still)
Temperature, K	Vapor or sublimation pressure, kPa	uncertainty
372.3	100.57	1.4
378.6	125.86	1.4
383.89	151.03	1.4
388.59	176.2	1.4
392.79	201.37	1.4
396.69	226.54	1.4
400.09	251.71	1.4

System: 1-propanol; phases: Liquid, Gas
Property: Vapor or sublimation pressure, kPa (Liquid); method: Ebulliometric method (Recirculating still)
Temperature, K	Vapor or sublimation pressure, kPa	uncertainty
370.1	100.51	1.4
376.3	125.86	1.4
381.5	151.03	1.4
385.89	176.2	1.4
389.89	201.37	1.4
393.59	226.54	1.4
396.19	251.71	1.4

System: 2-propanol; phases: Liquid, Gas
Property: Vapor or sublimation pressure, kPa (Liquid); method: Ebulliometric method (Recirculating still)
Temperature, K	Vapor or sublimation pressure, kPa	uncertainty
355.41	101.54	1.4
361.21	127.12	1.4
366.1	152.55	1.4
370.4	177.97	1.4
374.2	203.4	1.4
377.6	228.82	1.4
380.8	254.25	1.4

System: 1-butanol; phases: Liquid, Gas
Property: Vapor or sublimation pressure, kPa (Liquid); method: Ebulliometric method (Recirculating still)
Temperature, K	Vapor or sublimation pressure, kPa	uncertainty
390.69	101.47	1.4
397.19	127.02	1.4
402.79	152.42	1.4
407.58	177.83	1.4
411.88	203.23	1.4
415.88	228.64	1.4

System: 2-propanol + isopropyl acetate; phases: Liquid, Gas
Fixed: Pressure, kPa = 101.32
Property: Boiling temperature at pressure P, K (Liquid); method: Ebulliometric method (Recirculating still)
Mole fraction of isopropyl acetate	Boiling temperature at pressure P, K	uncertainty
.0009	355.21	.15
.1031	354.01	.15
.1654	353.81	.15
.2278	353.61	.15
.2673	353.61	.15
.3117	353.51	.15
.389	353.61	.15
.4315	353.81	.15
.4876	353.91	.15
.5453	354.11	.15
.5945	354.41	.15
.6412	354.81	.15
.6925	355.11	.15
.7314	355.61	.15
.7708	356.11	.15
.819	356.91	.15
.8442	357.41	.15
.8789	357.91	.15
.8969	358.41	.15
.9278	359.11	.15
.9503	359.81	.15
.9599	360.01	.15
.9679	360.41	.15
.9749	360.61	.15
.9792	360.81	.15
.9841	360.91	.15
.9884	361.01	.15
.9907	361.21	.15
.9932	361.31	.15

System: 2-propanol + isopropyl acetate; phases: Gas, Liquid
Fixed: Pressure, kPa = 101.32
Property: Mole fraction of isopropyl acetate (Gas); method: Chromatography
Mole fraction of isopropyl acetate	Mole fraction of isopropyl acetate	uncertainty
.0009	.0012	.005
.1031	.1131	.005
.1654	.2108	.005
.2278	.258	.005
.2673	.2913	.005
.3117	.3316	.005
.389	.3888	.005
.4315	.413	.005
.4876	.4532	.005
.5453	.4949	.005
.5945	.5299	.005
.6412	.5625	.005
.6925	.6048	.005
.7314	.636	.005
.7708	.6732	.005
.819	.7175	.005
.8442	.7446	.005
.8789	.7748	.005
.8969	.7956	.005
.9278	.8596	.005
.9503	.8891	.005
.9599	.9086	.005
.9679	.924	.005
.9749	.9448	.005
.9792	.955	.005
.9841	.9645	.005
.9884	.9712	.005
.9907	.9775	.005
.9932	.9832	.005

System: 1-propanol + isopropyl acetate; phases: Liquid, Gas
Fixed: Pressure, kPa = 101.32
Property: Boiling temperature at pressure P, K (Liquid); method: Ebulliometric method (Recirculating still)
Mole fraction of isopropyl acetate	Boiling temperature at pressure P, K	uncertainty
.0133	369.9	.15
.0219	369.6	.15
.0304	369.4	.15
.0428	369	.15
.0562	368.6	.15
.0717	368.2	.15
.0891	367.6	.15
.0972	367.4	.15
.1458	366.6	.15
.1745	366.1	.15
.2052	365.5	.15
.2314	364.9	.15
.2865	364.3	.15
.3052	363.8	.15
.3392	363.3	.15
.3832	362.81	.15
.4355	362.41	.15
.5128	361.71	.15
.5798	361.31	.15
.6688	360.91	.15
.7354	360.91	.15
.7554	360.81	.15
.8222	360.81	.15
.8653	360.91	.15
.9248	361.11	.15
.938	361.21	.15
.9764	361.31	.15

System: 1-propanol + isopropyl acetate; phases: Gas, Liquid
Fixed: Pressure, kPa = 101.32
Property: Mole fraction of isopropyl acetate (Gas); method: Chromatography
Mole fraction of isopropyl acetate	Mole fraction of isopropyl acetate	uncertainty
.0133	.0333	.005
.0219	.0512	.005
.0304	.0696	.005
.0428	.0944	.005
.0562	.1173	.005
.0717	.1463	.005
.0891	.1709	.005
.0972	.2033	.005
.1458	.251	.005
.1745	.2867	.005
.2052	.3199	.005
.2314	.3466	.005
.2865	.4011	.005
.3052	.4202	.005
.3392	.4587	.005
.3832	.4969	.005
.4355	.5395	.005
.5128	.5901	.005
.5798	.6468	.005
.6688	.7004	.005
.7354	.7469	.005
.7554	.7634	.005
.8222	.8181	.005
.8653	.8501	.005
.9248	.911	.005
.938	.9279	.005
.9764	.9688	.005

System: 1-butanol + isopropyl acetate; phases: Liquid, Gas
Fixed: Pressure, kPa = 101.32
Property: Boiling temperature at pressure P, K (Liquid); method: Ebulliometric method (Recirculating still)
Mole fraction of isopropyl acetate	Boiling temperature at pressure P, K	uncertainty
.006	390.49	.15
.0082	390.39	.15
.0114	390.09	.15
.0155	389.89	.15
.0208	389.49	.15
.0292	389.09	.15
.039	388.59	.15
.0504	388.09	.15
.0533	387.19	.15
.1051	385.09	.15
.1479	383.19	.15
.1813	381.9	.15
.2183	380.3	.15
.2802	378.1	.15
.3235	376.3	.15
.3542	375.5	.15
.4542	373.5	.15
.624	369.2	.15
.6791	367.4	.15
.7577	365.9	.15
.8353	364.5	.15
.9239	362.81	.15
.9766	361.91	.15

System: 1-butanol + isopropyl acetate; phases: Gas, Liquid
Fixed: Pressure, kPa = 101.32
Property: Mole fraction of isopropyl acetate (Gas); method: Chromatography
Mole fraction of isopropyl acetate	Mole fraction of isopropyl acetate	uncertainty
.006	.0207	.005
.0082	.0281	.005
.0114	.0393	.005
.0155	.0552	.005
.0208	.0786	.005
.0292	.1025	.005
.039	.1292	.005
.0504	.1584	.005
.0533	.2	.005
.1051	.3149	.005
.1479	.3783	.005
.1813	.4224	.005
.2183	.4764	.005
.2802	.5488	.005
.3235	.6016	.005
.3542	.6218	.005
.4542	.7026	.005
.624	.8128	.005
.6791	.8545	.005
.7577	.9005	.005
.8353	.9254	.005
.9239	.97	.005
.9766	.9889	.005

System: 2-butanol + isopropyl acetate; phases: Liquid, Gas
Fixed: Pressure, kPa = 101.32
Property: Boiling temperature at pressure P, K (Liquid); method: Ebulliometric method (Recirculating still)
Mole fraction of isopropyl acetate	Boiling temperature at pressure P, K	uncertainty
.0203	372.4	.15
.0258	372.2	.15
.034	372.1	.15
.0473	371.8	.15
.0582	371.4	.15
.0744	371.2	.15
.0885	370.9	.15
.1071	370.6	.15
.1278	370.1	.15
.1563	369.6	.15
.1733	369.3	.15
.1996	368.8	.15
.2319	368.4	.15
.2764	367.6	.15
.3028	367.3	.15
.3534	366.8	.15
.4168	365.8	.15
.4415	365.5	.15
.4808	365	.15
.5158	364.8	.15
.5555	364.4	.15
.6195	363.9	.15
.6898	363.4	.15
.7668	362.81	.15
.8195	362.41	.15
.8867	362.11	.15
.9336	361.91	.15
.9663	361.81	.15
.9901	361.81	.15

System: 2-butanol + isopropyl acetate; phases: Gas, Liquid
Fixed: Pressure, kPa = 101.32
Property: Mole fraction of isopropyl acetate (Gas); method: Chromatography
Mole fraction of isopropyl acetate	Mole fraction of isopropyl acetate	uncertainty
.0203	.0367	.005
.0258	.0485	.005
.034	.064	.005
.0473	.0885	.005
.0582	.1108	.005
.0744	.1362	.005
.0885	.1577	.005
.1071	.1857	.005
.1278	.2178	.005
.1563	.2571	.005
.1733	.2799	.005
.1996	.3153	.005
.2319	.3503	.005
.2764	.4021	.005
.3028	.4321	.005
.3534	.478	.005
.4168	.5379	.005
.4415	.5619	.005
.4808	.5973	.005
.5158	.616	.005
.5555	.6583	.005
.6195	.7057	.005
.6898	.7543	.005
.7668	.8119	.005
.8195	.8556	.005
.8867	.9047	.005
.9336	.9445	.005
.9663	.9725	.005
.9901	.9906	.005
