Measured thermophysical data. Solubility Correlation and Thermodynamic Analysis of Sorafenib Free Base and Sorafenib Tosylate in Monosolvents and Binary Solvent Mixtures
Source: J. Chem. Eng. Data, 2017, 10.1021/acs.jced.6b00630
Compound 1: sorafenib, C21H16ClF3N4O3, purity 99%
Compound 2: sorafenib tosylate, C28H24ClF3N4O6S, purity 99.8%
Compound 3: 1-propanol, C3H8O, purity 99.5%
Compound 4: 2-propanol, C3H8O, purity 99.5%
Compound 5: 1-butanol, C4H10O, purity 99.5%
Compound 6: 2-methyl-1-propanol, C4H10O, purity 99.5%
Compound 7: 1-pentanol, C5H12O, purity 99.5%
Compound 8: 1,4-dioxane, C4H8O2, purity 99.5%

System: sorafenib; phases: Crystal, Liquid, Air at 1 atmosphere
Property: Normal melting temperature, K (Crystal); method: DSC/DTA
Normal melting temperature, K	uncertainty
479.97	.5

System: sorafenib; phases: Crystal, Liquid, Air at 1 atmosphere
Property: Molar enthalpy of transition or fusion, kJ/mol (Crystal); method: DSC
Molar enthalpy of transition or fusion, kJ/mol	uncertainty
35.73	1.15

System: sorafenib tosylate; phases: Crystal, Liquid, Air at 1 atmosphere
Property: Normal melting temperature, K (Crystal); method: DSC/DTA
Normal melting temperature, K	uncertainty
507.3	.5

System: sorafenib tosylate; phases: Crystal, Liquid, Air at 1 atmosphere
Property: Molar enthalpy of transition or fusion, kJ/mol (Crystal); method: DSC
Molar enthalpy of transition or fusion, kJ/mol	uncertainty
43.54	1.21

System: 1-propanol + sorafenib; phases: Liquid, Crystal
Fixed: Pressure, kPa = 100
Property: Mole fraction of sorafenib (Liquid); method: UV spectroscopy
Temperature, K	Mole fraction of sorafenib	uncertainty
283.15	.0006778	
293.15	.0008879	
303.15	.001369	
313.15	.002045	
323.15	.003134	
333.15	.004565	

System: 2-propanol + sorafenib; phases: Liquid, Crystal
Fixed: Pressure, kPa = 100
Property: Mole fraction of sorafenib (Liquid); method: UV spectroscopy
Temperature, K	Mole fraction of sorafenib	uncertainty
283.15	.0005092	
293.15	.000638	
303.15	.001039	
313.15	.00152	
323.15	.002261	
333.15	.003251	

System: 1-butanol + sorafenib; phases: Liquid, Crystal
Fixed: Pressure, kPa = 100
Property: Mole fraction of sorafenib (Liquid); method: UV spectroscopy
Temperature, K	Mole fraction of sorafenib	uncertainty
283.15	.0006453	
293.15	.0008159	
303.15	.001298	
313.15	.001933	
323.15	.002881	
333.15	.004165	

System: 2-methyl-1-propanol + sorafenib; phases: Liquid, Crystal
Fixed: Pressure, kPa = 100
Property: Mole fraction of sorafenib (Liquid); method: UV spectroscopy
Temperature, K	Mole fraction of sorafenib	uncertainty
283.15	.0002525	
293.15	.0003792	
303.15	.0007154	
313.15	.001044	
323.15	.001553	
333.15	.002164	

System: 1-pentanol + sorafenib; phases: Liquid, Crystal
Fixed: Pressure, kPa = 100
Property: Mole fraction of sorafenib (Liquid); method: UV spectroscopy
Temperature, K	Mole fraction of sorafenib	uncertainty
283.15	.0005994	
293.15	.0008188	
303.15	.001222	
313.15	.001731	
323.15	.00256	
333.15	.003774	

System: 1-propanol + sorafenib tosylate; phases: Liquid, Crystal
Fixed: Pressure, kPa = 100
Property: Mole fraction of sorafenib tosylate (Liquid); method: UV spectroscopy
Temperature, K	Mole fraction of sorafenib tosylate	uncertainty
283.15	.0001392	
293.15	.0001752	
303.15	.0002584	
313.15	.0003444	
323.15	.0004557	
333.15	.0006217	

System: 2-propanol + sorafenib tosylate; phases: Liquid, Crystal
Fixed: Pressure, kPa = 100
Property: Mole fraction of sorafenib tosylate (Liquid); method: UV spectroscopy
Temperature, K	Mole fraction of sorafenib tosylate	uncertainty
283.15	.0000781	
293.15	.0001087	
303.15	.0001604	
313.15	.0002293	
323.15	.0003105	
333.15	.0004417	

System: 1-butanol + sorafenib tosylate; phases: Liquid, Crystal
Fixed: Pressure, kPa = 100
Property: Mole fraction of sorafenib tosylate (Liquid); method: UV spectroscopy
Temperature, K	Mole fraction of sorafenib tosylate	uncertainty
283.15	.0001317	
293.15	.0001626	
303.15	.0002379	
313.15	.0003162	
323.15	.0004192	
333.15	.000541	

System: 2-methyl-1-propanol + sorafenib tosylate; phases: Liquid, Crystal
Fixed: Pressure, kPa = 100
Property: Mole fraction of sorafenib tosylate (Liquid); method: UV spectroscopy
Temperature, K	Mole fraction of sorafenib tosylate	uncertainty
283.15	.0000618	
293.15	.0000967	
303.15	.0001489	
313.15	.0002155	
323.15	.000284	
333.15	.0004225	

System: 1-pentanol + sorafenib tosylate; phases: Liquid, Crystal
Fixed: Pressure, kPa = 100
Property: Mole fraction of sorafenib tosylate (Liquid); method: UV spectroscopy
Temperature, K	Mole fraction of sorafenib tosylate	uncertainty
283.15	.0000578	
293.15	.0000876	
303.15	.0001482	
313.15	.0002089	
323.15	.0002717	
333.15	.0003942	

System: 2-propanol + 1,4-dioxane + sorafenib; phases: Liquid, Crystal
Fixed: Pressure, kPa = 100
Property: Mole fraction of sorafenib (Liquid); method: UV spectroscopy
Temperature, K	Solvent: Mole fraction of 2-propanol	Mole fraction of sorafenib	uncertainty
283.14	.14	.0013682	
283.14	.27	.002498	
283.14	.39	.0032913	
283.14	.49	.0035809	
283.14	.59	.0034665	
283.14	.69	.0030837	
283.14	.77	.0022916	
283.14	.85	.0015212	
283.14	.93	.0009325	
283.14	1	.0005092	
293.14	.14	.0017426	
293.14	.27	.0029082	
293.14	.39	.0038089	
293.14	.49	.0043388	
293.14	.59	.0042025	
293.14	.69	.0037383	
293.14	.77	.0028645	
293.14	.85	.0019438	
293.14	.93	.0012769	
293.14	1	.000638	
303.14	.14	.0022383	
303.14	.27	.0036701	
303.14	.39	.0047247	
303.14	.49	.0052774	
303.14	.59	.0050424	
303.14	.69	.0043942	
303.14	.77	.0034343	
303.14	.85	.0025743	
303.14	.93	.0017598	
303.14	1	.0010386	
313.14	.14	.0028374	
313.14	.27	.0048369	
313.14	.39	.0059569	
313.14	.49	.0063216	
313.14	.59	.0060515	
313.14	.69	.0054088	
313.14	.77	.0043595	
313.14	.85	.003269	
313.14	.93	.0022585	
313.14	1	.00152	
323.14	.14	.0037129	
323.14	.27	.0063593	
323.14	.39	.0076028	
323.14	.49	.0080674	
323.14	.59	.0075684	
323.14	.69	.0068104	
323.14	.77	.0056445	
323.14	.85	.0041329	
323.14	.93	.0031139	
323.14	1	.002261	
333.14	.14	.0052359	
333.14	.27	.0082097	
333.14	.39	.0098713	
333.14	.49	.0104686	
333.14	.59	.0099959	
333.14	.69	.0088965	
333.14	.77	.0077063	
333.14	.85	.0060927	
333.14	.93	.004756	
333.14	1	.0032512	

System: 2-propanol + 1,4-dioxane + sorafenib tosylate; phases: Liquid, Crystal
Fixed: Pressure, kPa = 100
Property: Mole fraction of sorafenib tosylate (Liquid); method: UV spectroscopy
Temperature, K	Solvent: Mole fraction of 2-propanol	Mole fraction of sorafenib tosylate	uncertainty
283.14	.14	.000024	
283.14	.27	.0000495	
283.14	.39	.0000779	
283.14	.49	.0001031	
283.14	.59	.0001165	
283.14	.69	.0001344	
283.14	.77	.0001319	
283.14	.85	.0001222	
283.14	.93	.0001032	
283.14	1	.0000781	
293.14	.14	.0000305	
293.14	.27	.000063	
293.14	.39	.000099	
293.14	.49	.0001202	
293.14	.59	.0001407	
293.14	.69	.0001611	
293.14	.77	.0001672	
293.14	.85	.0001514	
293.14	.93	.0001321	
293.14	1	.0001087	
303.14	.14	.0000404	
303.14	.27	.0000854	
303.14	.39	.0001215	
303.14	.49	.0001574	
303.14	.59	.000187	
303.14	.69	.0002019	
303.14	.77	.000208	
303.14	.85	.0001942	
303.14	.93	.0001733	
303.14	1	.0001604	
313.14	.14	.0000555	
313.14	.27	.0001122	
313.14	.39	.0001562	
313.14	.49	.0002092	
313.14	.59	.0002499	
313.14	.69	.0002774	
313.14	.77	.0002827	
313.14	.85	.0002712	
313.14	.93	.0002457	
313.14	1	.0002293	
323.14	.14	.0000785	
323.14	.27	.0001445	
323.14	.39	.0002009	
323.14	.49	.0002746	
323.14	.59	.0003252	
323.14	.69	.0003659	
323.14	.77	.0003733	
323.14	.85	.0003681	
323.14	.93	.0003421	
323.14	1	.0003105	
333.14	.14	.0001262	
333.14	.27	.0002093	
333.14	.39	.0002907	
333.14	.49	.0003933	
333.14	.59	.0004487	
333.14	.69	.0004954	
333.14	.77	.0005073	
333.14	.85	.0004857	
333.14	.93	.0004659	
333.14	1	.0004417	
