Measured thermophysical data. Solubilities of 5,10,15,20-Tetraphenylporphyrin and 5,10,15,20-Tetra(p-chlorophenyl)porphyrin in Binary N,N-Dimethylformamide + Water Solvent Mixtures
Source: J. Chem. Eng. Data, 2015, 10.1021/acs.jced.5b00092
Compound 1: 5,10,15,20-tetraphenylporphyrin, C44H30N4, purity 98.0%
Compound 2: 21H,23H-Porphine, 5,10,15,20-tetrakis(4-chlorophenyl)-, C44H26Cl4N4, purity 96.0%
Compound 3: N,N-dimethylformamide, C3H7NO, purity 99.9%
Compound 4: water, H2O, purity 99.9%

System: N,N-dimethylformamide + 5,10,15,20-tetraphenylporphyrin + water; phases: Liquid, Crystal
Fixed: Pressure, kPa = 101
Property: Mole fraction of 5,10,15,20-tetraphenylporphyrin (Liquid); method: UV-Spectroscopy
Temperature, K	Solvent: Mole fraction of N,N-dimethylformamide	Mole fraction of 5,10,15,20-tetraphenylporphyrin	uncertainty
303.2	1	.0000976	.000002928
313.2	1	.000107	.00000321
323.2	1	.00012	.0000036
333.2	1	.000136	.00000408
343.2	1	.000166	.00000498
303.2	.9236	.0000576	.000001728
313.2	.9236	.0000627	.000001881
323.2	.9236	.000073	.00000219
333.2	.9236	.0000866	.000002598
343.2	.9236	.000107	.00000321
303.2	.8554	.0000334	.000001002
313.2	.8554	.0000385	.000001155
323.2	.8554	.0000455	.000001365
333.2	.8554	.0000553	.000001659
343.2	.8554	.0000682	.000002046
303.2	.7942	.0000196	.000000588
313.2	.7942	.0000225	.000000675
323.2	.7942	.000027	.00000081
333.2	.7942	.0000337	.000001011
343.2	.7942	.0000442	.000001326
303.2	.7391	.0000119	.000000357
313.2	.7391	.000014	.00000042
323.2	.7391	.0000173	.000000519
333.2	.7391	.0000226	.000000678
343.2	.7391	.0000277	.000000831
303.2	.6894	.0000071	.000000213
313.2	.6894	.00000858	.0000002574
323.2	.6894	.0000108	.000000324
333.2	.6894	.0000144	.000000432
343.2	.6894	.0000181	.000000543
303.2	.6437	.00000469	.0000001407
313.2	.6437	.00000555	.0000001665
323.2	.6437	.00000699	.0000002097
333.2	.6437	.00000899	.0000002697
343.2	.6437	.0000119	.000000357
303.2	.6023	.00000302	.0000000906
313.2	.6023	.00000362	.0000001086
323.2	.6023	.00000447	.0000001341
333.2	.6023	.00000589	.0000001767
343.2	.6023	.00000767	.0000002301
303.2	.5641	.00000207	.0000000621
313.2	.5641	.00000242	.0000000726
323.2	.5641	.00000297	.0000000891
333.2	.5641	.00000389	.0000001167
343.2	.5641	.00000506	.0000001518
303.2	.5289	.00000135	.0000000405
313.2	.5289	.00000165	.0000000495
323.2	.5289	.00000201	.0000000603
333.2	.5289	.00000252	.0000000756
343.2	.5289	.00000315	.0000000945
303.2	.4965	.000000995	.00000002985
313.2	.4965	.0000012	.000000036
323.2	.4965	.00000149	.0000000447
333.2	.4965	.00000178	.0000000534
343.2	.4965	.0000022	.000000066

System: N,N-dimethylformamide + water + 21H,23H-Porphine, 5,10,15,20-tetrakis(4-chlorophenyl)-; phases: Liquid, Crystal
Fixed: Pressure, kPa = 101
Property: Mole fraction of 21H,23H-Porphine, 5,10,15,20-tetrakis(4-chlorophenyl)- (Liquid); method: UV-Spectroscopy
Temperature, K	Solvent: Mole fraction of N,N-dimethylformamide	Mole fraction of 21H,23H-Porphine, 5,10,15,20-tetrakis(4-chlorophenyl)-	uncertainty
303.2	1	.0000264	.000000792
313.2	1	.0000351	.000001053
323.2	1	.0000456	.000001368
333.2	1	.0000616	.000001848
343.2	1	.0000867	.000002601
353.2	1	.000122	.00000366
303.2	.9236	.0000142	.000000426
313.2	.9236	.0000195	.000000585
323.2	.9236	.0000259	.000000777
333.2	.9236	.0000354	.000001062
343.2	.9236	.0000496	.000001488
353.2	.9236	.0000741	.000002223
303.2	.8554	.00000776	.0000002328
313.2	.8554	.0000106	.000000318
323.2	.8554	.0000147	.000000441
333.2	.8554	.0000204	.000000612
343.2	.8554	.0000286	.000000858
353.2	.8554	.0000444	.000001332
303.2	.7942	.00000438	.0000001314
313.2	.7942	.00000626	.0000001878
323.2	.7942	.00000865	.0000002595
333.2	.7942	.000012	.00000036
343.2	.7942	.0000178	.000000534
353.2	.7942	.0000266	.000000798
303.2	.7391	.00000262	.0000000786
313.2	.7391	.00000372	.0000001116
323.2	.7391	.00000526	.0000001578
333.2	.7391	.00000734	.0000002202
343.2	.7391	.0000105	.000000315
353.2	.7391	.0000156	.000000468
303.2	.6894	.00000161	.0000000483
313.2	.6894	.00000226	.0000000678
323.2	.6894	.00000321	.0000000963
333.2	.6894	.00000444	.0000001332
343.2	.6894	.00000638	.0000001914
353.2	.6894	.00000931	.0000002793
303.2	.6437	.00000102	.0000000306
313.2	.6437	.00000136	.0000000408
323.2	.6437	.00000192	.0000000576
333.2	.6437	.00000267	.0000000801
343.2	.6437	.0000039	.000000117
353.2	.6437	.00000573	.0000001719
303.2	.6023	.000000661	.00000001983
313.2	.6023	.000000918	.00000002754
323.2	.6023	.00000128	.0000000384
333.2	.6023	.00000176	.0000000528
343.2	.6023	.00000242	.0000000726
353.2	.6023	.00000351	.0000001053
303.2	.5641	.000000447	.00000001341
313.2	.5641	.000000613	.00000001839
323.2	.5641	.000000844	.00000002532
333.2	.5641	.00000115	.0000000345
343.2	.5641	.00000158	.0000000474
353.2	.5641	.00000225	.0000000675
303.2	.5289	.00000031	.0000000093
313.2	.5289	.000000421	.00000001263
323.2	.5289	.000000572	.00000001716
333.2	.5289	.000000778	.00000002334
343.2	.5289	.00000106	.0000000318
353.2	.5289	.00000142	.0000000426
303.2	.4965	.000000217	.00000000651
313.2	.4965	.000000294	.00000000882
323.2	.4965	.000000397	.00000001191
333.2	.4965	.000000534	.00000001602
343.2	.4965	.000000718	.00000002154
353.2	.4965	.000000962	.00000002886

System: N,N-dimethylformamide + 5,10,15,20-tetraphenylporphyrin; phases: Liquid, Crystal
Property: Mole fraction of 5,10,15,20-tetraphenylporphyrin (Liquid); method: UV-Spectroscopy
Temperature, K	Pressure, kPa	Mole fraction of 5,10,15,20-tetraphenylporphyrin	uncertainty
303.2	101	.0000976	.000002928
313.2	101	.000107	.00000321
323.2	101	.00012	.0000036
333.2	101	.000136	.00000408
343.2	101	.000166	.00000498

System: N,N-dimethylformamide + 21H,23H-Porphine, 5,10,15,20-tetrakis(4-chlorophenyl)-; phases: Liquid, Crystal
Property: Mole fraction of 21H,23H-Porphine, 5,10,15,20-tetrakis(4-chlorophenyl)- (Liquid); method: UV-Spectroscopy
Temperature, K	Pressure, kPa	Mole fraction of 21H,23H-Porphine, 5,10,15,20-tetrakis(4-chlorophenyl)-	uncertainty
303.2	101	.0000264	.000000792
313.2	101	.0000351	.000001053
323.2	101	.0000456	.000001368
333.2	101	.0000616	.000001848
343.2	101	.0000867	.000002601
353.2	101	.000122	.00000366
