Measured thermophysical data. Isobaric Heat Capacity of HFC-161 in Liquid Phase at Temperatures up to 360.15 K and Pressures up to 5.5 MPa
Source: J. Chem. Eng. Data, 2015, 10.1021/acs.jced.5b00346
Compound 1: fluoroethane, C2H5F, purity 99.7%

System: fluoroethane; phases: Liquid
Property: Molar heat capacity at constant pressure, J/K/mol (Liquid); method: Large sample (1 g) scanning calorimetry
Temperature, K	Pressure, kPa	Molar heat capacity at constant pressure, J/K/mol	uncertainty
305.15	2160	105.010014492	4.830460666632
305.15	2580	104.3371814472	4.7995103465712
305.15	3100	103.9046459184	4.7796137122464
305.15	3480	104.1930029376	4.7928781351296
305.15	4030	104.6735979696	4.8149855066016
305.15	4460	104.3852409504	4.8017210837184
305.15	4990	103.808526912	4.775192237952
305.15	5490	102.9434558544	4.7353989693024
310.15	2160	107.5091086584	4.9454189982864
310.15	2580	106.211502072	4.885729095312
310.15	3100	106.3076210784	4.8901505696064
310.15	3480	106.2595615752	4.8879398324592
310.15	4030	105.5867285304	4.8569895123984
310.15	4460	105.0580739952	4.8326714037792
310.15	4990	105.250312008	4.841514352368
310.15	5490	104.3852409504	4.8017210837184
315.15	2160	109.815964812	5.051534381352
315.15	2580	108.6625367352	4.9984766898192
315.15	3100	108.9989532576	5.0139518498496
315.15	3480	108.2300012064	4.9785800554944
315.15	4030	107.3649301488	4.9387867868448
315.15	4460	106.2595615752	4.8879398324592
315.15	4990	106.5479185944	4.9012042553424
315.15	5490	105.8270260464	4.8680431981344
320.15	2160	112.1708804688	5.1598605015648
320.15	2580	111.6902854368	5.1377531300928
320.15	3100	111.6422259336	5.1355423929456
320.15	3480	110.4407383536	5.0802739642656
320.15	4030	109.5276077928	5.0382699584688
320.15	4460	108.1819417032	4.9763693183472
320.15	4990	107.9416441872	4.9653156326112
320.15	5490	107.4610491552	4.9432082611392
325.15	2580	114.862212648	5.283661781808
325.15	3100	114.0932605968	5.2482899874528
325.15	3480	112.8917730168	5.1930215587728
325.15	4030	111.8825234496	5.1465960786816
325.15	4460	110.8732738824	5.1001705985904
325.15	4990	109.6717863024	5.0449021699104
325.15	5490	109.33536978	5.02942700988
330.15	2580	117.7938423432	5.4185167477872
330.15	3100	116.5923547632	5.3632483191072
330.15	3480	115.9195217184	5.3322979990464
330.15	4030	114.5738556288	5.2703973589248
330.15	4460	113.9971415904	5.2438685131584
330.15	4990	112.0747614624	5.1554390272704
330.15	5490	111.498047424	5.128910181504
335.15	3100	120.6774125352	5.5511609766192
335.15	3480	119.8123414776	5.5113677079696
335.15	4030	117.986080356	5.427359696376
335.15	4460	117.505485324	5.405252324904
335.15	4990	115.2466886736	5.3013476789856
335.15	5490	114.1413201	5.2505007246
340.15	3100	129.4723016208	5.9557258745568
340.15	3480	125.2430653392	5.7611810056032
340.15	4030	122.6478521664	5.6418011996544
340.15	4460	121.3983050832	5.5843220338272
340.15	4990	119.2836869424	5.4870495993504
340.15	5490	117.4093663176	5.4008308506096
345.15	3480	132.5961693288	6.0994237891248
345.15	4030	128.7033495696	5.9203540802016
345.15	4460	126.0600768936	5.7987635371056
345.15	4990	124.233815772	5.714755525512
345.15	5490	121.6866621024	5.5975864567104
350.15	4030	136.5851080944	6.2829149723424
350.15	4460	132.4519908192	6.0927915776832
350.15	4990	130.0490156592	5.9822547203232
350.15	5490	127.2615644736	5.8540319657856
355.15	4030	148.7922219072	6.8444422077312
355.15	4460	142.496426988	6.554835641448
355.15	4990	136.6812271008	6.2873364466368
355.15	5490	134.3743709472	6.1812210635712
360.15	4460	159.2691936048	7.3263829058208
360.15	4990	147.4946153208	6.7847523047568
360.15	5490	142.7847840072	6.5681000643312
