Measured thermophysical data. Measurement and Correlation for Solubilities of Adipic Acid in Acetic Acid + e-Caprolactone Mixtures and Cyclohexanone + e-Caprolactone Mixtures
Source: J. Chem. Eng. Data, 2016, 10.1021/acs.jced.6b00177
Compound 1: adipic acid, C6H10O4, purity 99%
Compound 2: .epsilon.-caprolactone, C6H10O2, purity 99%
Compound 3: acetic acid, C2H4O2, purity 99%
Compound 4: cyclohexanone, C6H10O, purity 99%
Compound 5: water, H2O, purity 99.8%

System: acetic acid + adipic acid + .epsilon.-caprolactone; phases: Liquid, Crystal
Fixed: Pressure, kPa = 100
Property: Mole fraction of adipic acid (Liquid); method: Visual
Solvent: Mass fraction of .epsilon.-caprolactone	Temperature, K	Mole fraction of adipic acid	uncertainty
1	306.05	.02541	
1	310.15	.03085	
1	314.35	.03672	
1	317.55	.04316	
1	321.05	.05001	
1	323.95	.05702	
1	327.35	.06419	
1	330.45	.07168	
1	332.65	.07917	
1	335.35	.08731	
.9	306.25	.02405	
.9	310.25	.0288	
.9	313.85	.03421	
.9	317.45	.04086	
.9	321.65	.04908	
.9	325.05	.05744	
.9	329.05	.06668	
.9	332.55	.07594	
.9	334.45	.08046	
.9	336.05	.08493	
.8	308.45	.02566	
.8	311.85	.03008	
.8	314.45	.03465	
.8	316.85	.03981	
.8	320.35	.04579	
.8	323.95	.05499	
.8	327.85	.06405	
.8	330.05	.06921	
.8	332.05	.07431	
.8	336.05	.08478	
.7	306.95	.02366	
.7	310.35	.02786	
.7	313.45	.03247	
.7	316.25	.03728	
.7	319.25	.04331	
.7	322.45	.05109	
.7	326.05	.05955	
.7	329.95	.06855	
.7	333.95	.07844	
.7	337.95	.08838	
.6	307.65	.02418	
.6	311.85	.02908	
.6	315.25	.03448	
.6	318.65	.04053	
.6	325.75	.05544	
.6	329.45	.06402	
.6	333.05	.07332	
.6	336.55	.08291	
.6	340.05	.09309	
.6	343.15	.10358	
.5	307.05	.02441	
.5	311.25	.02956	
.5	315.35	.03495	
.5	318.05	.04058	
.5	321.15	.04708	
.5	324.35	.05412	
.5	327.75	.06218	
.5	331.25	.07092	
.5	335.05	.08	
.5	338.15	.08956	
.4	306.25	.02471	
.4	310.65	.02946	
.4	314.75	.03453	
.4	317.85	.03969	
.4	321.05	.04574	
.4	324.45	.0529	
.4	327.75	.06034	
.4	330.95	.06815	
.4	334.25	.07645	
.4	337.35	.08562	
.3	305.55	.02472	
.3	309.65	.02939	
.3	313.65	.03441	
.3	316.85	.03949	
.3	320.05	.04518	
.3	323.65	.05158	
.3	326.85	.05824	
.3	329.95	.06511	
.3	332.85	.07216	
.3	335.55	.0801	
.2	307.05	.02618	
.2	313.55	.03371	
.2	315.75	.03732	
.2	318.45	.04162	
.2	320.95	.04662	
.2	324.25	.05237	
.2	327.65	.05888	
.2	330.95	.06569	
.2	333.45	.07312	
.2	336.55	.08141	
.1	312.05	.03384	
.1	316.05	.0385	
.1	320.05	.04664	
.1	322.35	.05124	
.1	324.85	.05615	
.1	327.05	.06084	
.1	329.65	.06608	
.1	332.05	.0722	
.1	334.45	.07842	
.1	336.85	.08486	

System: cyclohexanone + adipic acid + .epsilon.-caprolactone; phases: Liquid, Crystal
Fixed: Pressure, kPa = 100
Property: Mole fraction of adipic acid (Liquid); method: Visual
Solvent: Mass fraction of .epsilon.-caprolactone	Temperature, K	Mole fraction of adipic acid	uncertainty
1	306.05	.02541	
1	310.15	.03085	
1	314.35	.03672	
1	317.55	.04316	
1	321.05	.05001	
1	323.95	.05702	
1	327.35	.06419	
1	330.45	.07168	
1	332.65	.07917	
1	335.35	.08731	
.9	306.45	.02489	
.9	310.65	.0302	
.9	314.95	.03589	
.9	318.05	.0423	
.9	321.35	.04905	
.9	324.25	.05587	
.9	327.45	.06289	
.9	330.55	.07024	
.9	332.85	.07753	
.9	335.55	.08559	
.8	307.85	.02456	
.8	311.15	.02961	
.8	314.35	.03507	
.8	318.05	.04088	
.8	321.85	.04703	
.8	324.75	.05339	
.8	327.95	.06002	
.8	330.65	.06693	
.8	333.05	.07413	
.8	335.45	.08167	
.7	307.95	.02411	
.7	311.05	.02902	
.7	314.35	.03422	
.7	317.95	.03988	
.7	321.55	.04581	
.7	324.65	.0521	
.7	327.95	.05849	
.7	330.55	.06531	
.7	332.75	.07245	
.7	335.45	.07978	
.6	307.75	.02347	
.6	311.25	.02814	
.6	315.25	.03317	
.6	318.85	.0385	
.6	321.95	.04422	
.6	324.75	.05043	
.6	327.05	.05589	
.6	330.15	.06287	
.6	333.55	.07012	
.6	336.05	.07746	
.5	308.35	.0228	
.5	311.45	.02731	
.5	315.25	.03235	
.5	319.35	.03793	
.5	321.75	.04318	
.5	325.45	.05025	
.5	328.95	.05693	
.5	331.85	.06381	
.5	335.05	.07095	
.5	337.25	.07802	
.4	307.45	.02182	
.4	311.95	.02733	
.4	316.25	.03191	
.4	320.05	.03741	
.4	323.25	.04281	
.4	325.65	.0478	
.4	327.35	.05277	
.4	329.25	.05611	
.4	331.85	.06233	
.4	334.65	.06933	
.3	310.65	.02528	
.3	315.25	.03032	
.3	318.75	.03548	
.3	321.85	.04049	
.3	324.75	.04493	
.3	327.15	.0509	
.3	329.35	.05451	
.3	331.45	.05965	
.3	333.85	.06465	
.3	336.35	.07164	
.2	308.25	.02175	
.2	310.6	.02472	
.2	313.75	.02768	
.2	319.45	.03365	
.2	322.45	.03935	
.2	325.65	.04584	
.2	328.65	.05216	
.2	331.95	.05909	
.2	334.75	.06614	
.2	337.65	.07343	
.1	308.55	.02079	
.1	312.05	.02503	
.1	314.05	.02665	
.1	319.25	.03318	
.1	322.45	.03881	
.1	326.15	.04522	
.1	329.25	.05146	
.1	335.35	.06526	
.1	338.25	.07246	
.1	340.85	.07994	

System: adipic acid + .epsilon.-caprolactone; phases: Liquid, Crystal
Property: Mole fraction of adipic acid (Liquid); method: Visual
Temperature, K	Pressure, kPa	Mole fraction of adipic acid	uncertainty
306.05	100	.02541	
310.15	100	.03085	
314.35	100	.03672	
317.55	100	.04316	
321.05	100	.05001	
323.95	100	.05702	
327.35	100	.06419	
330.45	100	.07168	
332.65	100	.07917	
335.35	100	.08731	

System: acetic acid + adipic acid; phases: Liquid, Crystal
Fixed: Pressure, kPa = 100
Property: Mole fraction of adipic acid (Liquid); method: visual
Temperature, K	Mole fraction of adipic acid	uncertainty
301.85	.02383	
306.25	.02785	
308.85	.03148	
312.35	.03638	
315.85	.04194	
319.75	.04797	
322.95	.05487	
328.55	.06717	
333.55	.08044	
338.25	.0958	

System: cyclohexanone + adipic acid; phases: Liquid, Crystal
Fixed: Pressure, kPa = 100
Property: Mole fraction of adipic acid (Liquid); method: visual
Temperature, K	Mole fraction of adipic acid	uncertainty
301.25	.01466	
305.45	.01876	
309.95	.023	
314.45	.02737	
318.25	.03207	
321.15	.03691	
324.35	.04221	
327.65	.04778	
331.65	.0542	
334.75	.06164	
338.55	.06898	
341.35	.07638	
342.85	.08372	
344.95	.09101	
