Measured thermophysical data. Isobaric Vapor Liquid Liquid Equilibrium for Water + Cyclohexane + Acrylic Acid at 200 mmHg
Source: J. Chem. Eng. Data, 2015, 10.1021/acs.jced.5b00500
Compound 1: acrylic acid, C3H4O2, purity 99.3%
Compound 2: cyclohexane, C6H12, purity 99.5%
Compound 3: ethyl alcohol, C2H6O, purity 99.8%
Compound 4: water, H2O, purity 99.8%

System: water; phases: Liquid, Gas
Property: Vapor or sublimation pressure, kPa (Liquid); method: Ebulliometric method (Recirculating still)
Temperature, K	Vapor or sublimation pressure, kPa	uncertainty
333.4	20	.1
342.12	30	.1

System: acrylic acid + cyclohexane + water; phases: Liquid mixture 1, Liquid mixture 2, Gas
Fixed: Pressure, kPa = 26.7
Property: Mole fraction of acrylic acid (Liquid mixture 1); method: Chromatography
Property: Mole fraction of cyclohexane (Liquid mixture 1); method: Chromatography
Property: Mole fraction of acrylic acid (Liquid mixture 2); method: Chromatography
Property: Mole fraction of cyclohexane (Liquid mixture 2); method: Chromatography
Property: Mole fraction of acrylic acid (Gas); method: Chromatography
Property: Mole fraction of cyclohexane (Gas); method: Chromatography
Temperature, K	Mole fraction of acrylic acid	uncertainty	Mole fraction of cyclohexane	uncertainty	Mole fraction of acrylic acid	uncertainty	Mole fraction of cyclohexane	uncertainty	Mole fraction of acrylic acid	uncertainty	Mole fraction of cyclohexane	uncertainty
309.18	0	0	.0003	.000024	0	0	.9903	.079224	0	0	.7729	.061832
310.78	.2705	.02164	.007	.00056	.1565	.01252	.822	.06576	.0158	.001264	.7663	.061304
310.97	.2915	.02332	.0052	.000416	.1766	.014128	.8011	.064088	.0205	.00164	.7638	.061104
311.28	.3488	.027904	.0111	.000888	.1985	.01588	.778	.06224	.0223	.001784	.7641	.061128
311.46	.3826	.030608	.0146	.001168	.2275	.0182	.7469	.059752	.0258	.002064	.7616	.060928
311.53	.4047	.032376	.0246	.001968	.2397	.019176	.7304	.058432	.0263	.002104	.7634	.061072
311.57	.4455	.03564	.0264	.002112	.2707	.021656	.697	.05576	.0357	.002856	.7572	.060576
311.71	.4733	.037864	.0269	.002152	.3148	.025184	.6523	.052184	.0386	.003088	.7561	.060488
311.77	.529	.04232	.0392	.003136	.3783	.030264	.5801	.046408	.0403	.003224	.7551	.060408
312.08	.562	.04496	.0469	.003752	.3986	.031888	.5522	.044176	.0439	.003512	.7545	.06036
312.42	.5864	.046912	.0527	.004216	.424	.03392	.5316	.042528	.0465	.00372	.7537	.060296
312.84	.6194	.049552	.0627	.005016	.4696	.037568	.4816	.038528	.0506	.004048	.7502	.060016
313.02	.6403	.051224	.0942	.007536	.5032	.040256	.4251	.034008	.0524	.004192	.7499	.059992
309.63	.0827	.006616	.001	.00008	.05	.004	.9379	.075032	.0054	.000432	.7723	.061784
310.23	.1535	.01228	.0012	.000096	.084	.00672	.8973	.071784	.0096	.000768	.7712	.061696
310.56	.2067	.016536	.0018	.000144	.1136	.009088	.8656	.069248	.0123	.000984	.7708	.061664

System: cyclohexane + water; phases: Liquid mixture 1, Liquid mixture 2, Gas
Property: Mole fraction of cyclohexane (Liquid mixture 1); method: Chromatography
Temperature, K	Mole fraction of cyclohexane	uncertainty
309.18	.0003	.000024

System: cyclohexane + water; phases: Liquid mixture 2, Liquid mixture 1, Gas
Property: Mole fraction of cyclohexane (Liquid mixture 2); method: Chromatography
Temperature, K	Mole fraction of cyclohexane	uncertainty
309.18	.9903	.079224

System: cyclohexane + water; phases: Gas, Liquid mixture 2, Liquid mixture 1
Property: Mole fraction of cyclohexane (Gas); method: Chromatography
Temperature, K	Mole fraction of cyclohexane	uncertainty
309.18	.7729	.061832

System: cyclohexane + water; phases: Liquid mixture 1, Liquid mixture 2, Gas
Property: Vapor or sublimation pressure, kPa (Liquid mixture 1); method: Ebulliometric method (Recirculating still)
Temperature, K	Vapor or sublimation pressure, kPa	uncertainty
309.18	26.6644	
