Measured thermophysical data. Measurement and Correlation of the Solubility for Camptothecine in Different Organic Solvents
Source: J. Chem. Eng. Data, 2016, 10.1021/acs.jced.5b00994
Compound 1: camptothecine, C20H16N2O4, purity 98%
Compound 2: methanol, CH4O, purity 99.8%
Compound 3: p-toluic acid, C8H8O2, purity 99.8%
Compound 4: ethanol, C2H6O, purity 99.8%
Compound 5: chloroform, CHCl3, purity 99.9%
Compound 6: water, H2O

System: p-toluic acid + water; phases: Liquid, Crystal
Fixed: Pressure, kPa = 100
Property: Mole fraction of p-toluic acid (Liquid); method: gravimetric
Temperature, K	Mole fraction of p-toluic acid	uncertainty
293.15	.00003463	
303.15	.00005294	
313.15	.00007878	
323.15	.0001198	
333.15	.0001711	
343.15	.0002494	

System: ethanol + chloroform + camptothecine; phases: Liquid, Crystal
Fixed: Pressure, kPa = 100
Property: Mole fraction of camptothecine (Liquid); method: gravimetric
Temperature, K	Solvent: Mole fraction of chloroform	Mole fraction of camptothecine	uncertainty
277.98	0	.00000903	
281.62	0	.00001076	
284.67	0	.0000125	
287.95	0	.00001392	
291	0	.00001597	
294.63	0	.00001784	
297.81	0	.00002007	
301.09	0	.00002243	
304.26	0	.00002464	
307.54	0	.00002763	
310.47	0	.00003063	
313.63	0	.00003331	
316.57	0	.00003678	
319.26	0	.00004009	
321.7	0	.00004314	
324.43	0	.0000464	
326.3	0	.00004908	
279.76	.0998	.00002015	
283.03	.0998	.00002293	
285.69	.0998	.0000252	
288.36	.0998	.00002849	
291.32	.0998	.00003105	
294.81	.0998	.00003545	
297.86	.0998	.00003894	
301.72	.0998	.00004444	
304.89	.0998	.00004918	
308.41	.0998	.00005493	
311.46	.0998	.00005967	
314.51	.0998	.00006517	
317.32	.0998	.00007065	
320.03	.0998	.0000759	
322.84	.0998	.00008189	
325.42	.0998	.00008813	
328.23	.0998	.00009438	
277.65	.2035	.00003208	
280.7	.2035	.00003542	
283.66	.2035	.00003844	
286.97	.2035	.00004239	
290.41	.2035	.00004691	
293.5	.2035	.00005209	
296.92	.2035	.00005723	
300.15	.2035	.00006328	
303.29	.2035	.00006995	
306.61	.2035	.00007724	
309.65	.2035	.00008452	
312.61	.2035	.00009212	
315.4	.2035	.00009909	
318.36	.2035	.00010726	
320.86	.2035	.00011577	
323.55	.2035	.00012578	
325.97	.2035	.00013455	
276.64	.3027	.00008812	
279.67	.3027	.00009587	
282.45	.3027	.00010447	
285.47	.3027	.00011542	
288.25	.3027	.00012553	
290.92	.3027	.00013639	
293.71	.3027	.0001475	
296.84	.3027	.00016142	
299.97	.3027	.00017544	
303.11	.3027	.00019183	
306.01	.3027	.00020345	
308.68	.3027	.00021828	
311.57	.3027	.00023235	
314.37	.3027	.00024558	
317.15	.3027	.00025965	
320.16	.3027	.00027675	
322.83	.3027	.00029158	
276.77	.3994	.00015502	
279.42	.3994	.00016298	
282.59	.3994	.00017562	
285.39	.3994	.00018838	
288.56	.3994	.00020266	
291.91	.3994	.00022011	
294.54	.3994	.00023439	
298.59	.3994	.00025347	
302	.3994	.00027729	
304.76	.3994	.00029479	
307.74	.3994	.00031376	
311.09	.3994	.000336	
313.89	.3994	.00035824	
317.42	.3994	.00038048	
320.24	.3994	.00040424	
322.52	.3994	.00042169	
276.42	.5011	.00027706	
279.4	.5011	.00029065	
282.38	.5011	.00030562	
286.24	.5011	.00032199	
288.98	.5011	.00033959	
292.08	.5011	.0003572	
295.28	.5011	.00038437	
298.03	.5011	.00040475	
300.9	.5011	.00042652	
304.09	.5011	.00045509	
307.4	.5011	.0004835	
310.16	.5011	.00051608	
313.36	.5011	.00055005	
316.66	.5011	.00058819	
319.42	.5011	.00062216	
322.73	.5011	.00066416	
276.53	.597	.00037973	
279.07	.597	.00039085	
282.26	.597	.00041081	
285.35	.597	.00043304	
287.99	.597	.00044416	
290.98	.597	.00047069	
294.28	.597	.00050404	
297.59	.597	.00052855	
300.67	.597	.00055736	
303.77	.597	.00058843	
306.3	.597	.00061749	
309.16	.597	.00065514	
311.92	.597	.00068647	
315.05	.597	.00072634	
317.99	.597	.00076404	
321.07	.597	.00080194	
324.6	.597	.00085298	
276.65	.6918	.00052487	
279.73	.6918	.00054217	
282.26	.6918	.00055946	
284.58	.6918	.00058363	
287.55	.6918	.00060446	
290.75	.6918	.0006304	
293.95	.6918	.00066499	
297.03	.6918	.00069604	
300.34	.6918	.00072886	
303.22	.6918	.00076345	
306.41	.6918	.00079804	
309.5	.6918	.00083439	
312.91	.6918	.00087743	
315.55	.6918	.00091044	
318.31	.6918	.00094837	
321.62	.6918	.00099161	
324.38	.6918	.00102	
276.21	.8031	.00059361	
279.29	.8031	.00061442	
282.38	.8031	.0006354	
285.46	.8031	.00065949	
287.78	.8031	.00067701	
290.54	.8031	.00069964	
293.62	.8031	.00072847	
296.92	.8031	.00075894	
300.12	.8031	.00078777	
303.1	.8031	.00081825	
306.08	.8031	.00084891	
309.27	.8031	.00088412	
312.36	.8031	.00091953	
315.55	.8031	.00095803	
318.43	.8031	.00099489	
321.51	.8031	.00103	
324.48	.8031	.00107	
277.4	.9003	.00048998	
279.9	.9003	.00050577	
283.32	.9003	.00053335	
286.18	.9003	.00055713	
289.68	.9003	.00058471	
292.82	.9003	.00061362	
295.59	.9003	.00063455	
298.11	.9003	.00065947	
300.89	.9003	.00068458	
303.94	.9003	.00071083	
306.9	.9003	.00073974	
309.86	.9003	.00076866	
313	.9003	.0007989	
315.96	.9003	.00082915	
319.27	.9003	.00086586	
322.23	.9003	.00089877	
325.18	.9003	.00093415	

System: methanol + chloroform + camptothecine; phases: Liquid, Crystal
Fixed: Pressure, kPa = 100
Property: Mole fraction of camptothecine (Liquid); method: gravimetric
Temperature, K	Solvent: Mole fraction of chloroform	Mole fraction of camptothecine	uncertainty
277.52	0	.0000127	
280.45	0	.00001425	
283.37	0	.00001567	
286.2	0	.00001722	
289.49	0	.00001952	
293.24	0	.00002204	
296.6	0	.00002486	
299.68	0	.00002742	
302.78	0	.00003025	
305.61	0	.00003351	
308.45	0	.00003662	
311.02	0	.00004002	
313.77	0	.00004368	
316.53	0	.0000478	
319.02	0	.00005204	
321.42	0	.00005585	
323.48	0	.00005953	
276.58	.1008	.00002421	
279.24	.1008	.00002725	
282.42	.1008	.00003079	
285.68	.1008	.00003507	
288.96	.1008	.0000387	
292.01	.1008	.00004358	
294.88	.1008	.0000487	
298.02	.1008	.00005314	
300.98	.1008	.00005869	
304.25	.1008	.00006437	
307.42	.1008	.00007044	
310.75	.1008	.0000766	
313.18	.1008	.00008207	
316.49	.1008	.00008848	
319.18	.1008	.00009383	
321.78	.1008	.00009918	
324.02	.1008	.00010568	
276.75	.1991	.00005241	
279.92	.1991	.00005817	
283.47	.1991	.00006449	
286.75	.1991	.00007043	
290.31	.1991	.00007814	
293.73	.1991	.00008603	
297.27	.1991	.00009339	
300.57	.1991	.00010339	
304.36	.1991	.00011232	
307.65	.1991	.00012229	
310.83	.1991	.00013122	
313.88	.1991	.00014279	
316.94	.1991	.0001533	
319.75	.1991	.0001638	
322.8	.1991	.00017484	
325.64	.1991	.00018713	
328.42	.1991	.00020006	
277.12	.3012	.0001326	
279.7	.3012	.00014257	
283.05	.3012	.00015483	
286.76	.3012	.00016887	
289.9	.3012	.00018404	
293.5	.3012	.00019806	
296.39	.3012	.00021449	
299.18	.3012	.00022738	
302.54	.3012	.00024722	
306.73	.3012	.00026946	
310.2	.3012	.00029044	
313.34	.3012	.00031394	
316.01	.3012	.00033265	
319.38	.3012	.00035476	
321.7	.3012	.000377	
324.13	.3012	.00039457	
326.34	.3012	.00041453	
277.92	.4003	.00032023	
280.83	.4003	.00034518	
283.84	.4003	.00036877	
286.66	.4003	.00038918	
289.67	.4003	.0004173	
292.68	.4003	.00045019	
296.08	.4003	.00047831	
299.29	.4003	.00051143	
302.2	.4003	.00053955	
304.63	.4003	.00056768	
307.15	.4003	.00059285	
310.55	.4003	.0006305	
313.38	.4003	.00066339	
316.58	.4003	.00069628	
319.49	.4003	.00074005	
322.99	.4003	.00078564	
277.92	.4003	.00032023	
276.65	.5017	.00049875	
279.63	.5017	.0005255	
282.6	.5017	.00055981	
285.46	.5017	.00058403	
288.45	.5017	.00061729	
290.98	.5017	.00064319	
294.28	.5017	.00068215	
297.03	.5017	.00070994	
299.91	.5017	.00074321	
302.66	.5017	.00078026	
305.31	.5017	.00081185	
308.51	.5017	.00085985	
311.48	.5017	.00089691	
314.45	.5017	.00093944	
317.55	.5017	.00099503	
321.3	.5017	.00105062	
276.65	.5017	.00049875	
277.2	.6028	.00073508	
280.17	.6028	.00075402	
282.93	.6028	.00077989	
285.45	.6028	.00080292	
288.67	.6028	.00083668	
291.24	.6028	.00086405	
294.27	.6028	.00090566	
298.03	.6028	.00095564	
301.67	.6028	.00100258	
304.21	.6028	.00104499	
307.18	.6028	.00109646	
310.26	.6028	.00115514	
313.57	.6028	.00121381	
317.21	.6028	.00129356	
320.52	.6028	.00135917	
323.94	.6028	.00142718	
326.59	.6028	.00148585	
276.76	.6989	.00086717	
279.96	.6989	.00089875	
282.26	.6989	.00091918	
285.13	.6989	.0009396	
288.22	.6989	.00096908	
291.42	.6989	.00100424	
294.18	.6989	.00103203	
297.05	.6989	.0010681	
300.46	.6989	.00111183	
302.66	.6989	.00114131	
305.75	.6989	.00118405	
308.61	.6989	.00123396	
311.48	.6989	.0012748	
314.9	.6989	.00133039	
317.55	.6989	.00138408	
321.18	.6989	.0014563	
324.71	.6989	.0015321	
277.2	.8016	.00089872	
279.35	.8016	.00091624	
282.33	.8016	.00095	
284.83	.8016	.00097737	
287.7	.8016	.00100785	
290.09	.8016	.00103358	
293.2	.8016	.00107044	
296.42	.8016	.00110566	
299.06	.8016	.00114106	
301.8	.8016	.00117318	
304.79	.8016	.00121971	
307.89	.8016	.00125985	
310.64	.8016	.0013031	
313.62	.8016	.00135456	
317.08	.8016	.0014042	
319.95	.8016	.00146369	
322.34	.8016	.00151661	
277.31	.9004	.00061159	
280.71	.9004	.00063727	
284.12	.9004	.0006691	
287.43	.9004	.00070246	
290.75	.9004	.00073275	
293.8	.9004	.00076611	
296.85	.9004	.00080101	
299.72	.9004	.00083152	
302.95	.9004	.00086335	
305.21	.9004	.00089205	
307.79	.9004	.00092392	
310.48	.9004	.00095729	
313.71	.9004	.00099811	
316.85	.9004	.00103	
319.81	.9004	.00108	
322.5	.9004	.00111	
325	.9004	.00114	
275.76	1	.00022153	
279.07	1	.00024563	
282.38	1	.00027188	
285.02	1	.00028763	
287.55	1	.00030756	
291.19	1	.00033166	
294.18	1	.00035373	
297.25	1	.00037484	
300.57	1	.00040409	
303.1	1	.00042091	
305.96	1	.00044083	
308.51	1	.00046506	
311.59	1	.00048916	
315.12	1	.00051326	
318.31	1	.00054368	
322.39	1	.00057518	
326.25	1	.00061301	

System: ethanol + camptothecine; phases: Liquid, Crystal
Property: Mole fraction of camptothecine (Liquid); method: gravimetric
Temperature, K	Pressure, kPa	Mole fraction of camptothecine	uncertainty
277.98	100	.00000903	
281.62	100	.00001076	
284.67	100	.0000125	
287.95	100	.00001392	
291	100	.00001597	
294.63	100	.00001784	
297.81	100	.00002007	
301.09	100	.00002243	
304.26	100	.00002464	
307.54	100	.00002763	
310.47	100	.00003063	
313.63	100	.00003331	
316.57	100	.00003678	
319.26	100	.00004009	
321.7	100	.00004314	
324.43	100	.0000464	
326.3	100	.00004908	

System: methanol + camptothecine; phases: Liquid, Crystal
Property: Mole fraction of camptothecine (Liquid); method: gravimetric
Temperature, K	Pressure, kPa	Mole fraction of camptothecine	uncertainty
277.52	100	.0000127	
280.45	100	.00001425	
283.37	100	.00001567	
286.2	100	.00001722	
289.49	100	.00001952	
293.24	100	.00002204	
296.6	100	.00002486	
299.68	100	.00002742	
302.78	100	.00003025	
305.61	100	.00003351	
308.45	100	.00003662	
311.02	100	.00004002	
313.77	100	.00004368	
316.53	100	.0000478	
319.02	100	.00005204	
321.42	100	.00005585	
323.48	100	.00005953	

System: chloroform + camptothecine; phases: Liquid, Crystal
Property: Mole fraction of camptothecine (Liquid); method: gravimetric
Temperature, K	Pressure, kPa	Mole fraction of camptothecine	uncertainty
275.76	100	.00022153	
279.07	100	.00024563	
282.38	100	.00027188	
285.02	100	.00028763	
287.55	100	.00030756	
291.19	100	.00033166	
294.18	100	.00035373	
297.25	100	.00037484	
300.57	100	.00040409	
303.1	100	.00042091	
305.96	100	.00044083	
308.51	100	.00046506	
311.59	100	.00048916	
315.12	100	.00051326	
318.31	100	.00054368	
322.39	100	.00057518	
326.25	100	.00061301	
