Measured thermophysical data. Solubility of Bicalutamide, Megestrol Acetate, Prednisolone, Beclomethasone Dipropionate, and
			Clarithromycin in Subcritical Water at Different Temperatures from 383.15 to 443.15 K
Source: J. Chem. Eng. Data, 2017, 10.1021/acs.jced.6b00997
Compound 1: bicalutamide, C18H14F4N2O4S
Compound 2: Megestrol acetate, C24H32O4
Compound 3: prednisolone, C21H28O5
Compound 4: beclomethasone dipropionate, C28H37ClO7
Compound 5: Clarithromycin, C38H69NO13
Compound 6: water, H2O, purity 99.8%

System: water + bicalutamide; phases: Liquid, Crystal
Fixed: Pressure, kPa = 5500
Property: Mole fraction of bicalutamide (Liquid); method: UV spectomemtry
Temperature, K	Mole fraction of bicalutamide	uncertainty
383.15	.0000079	
393.15	.0000204	
403.15	.0000317	
413.15	.0000765	
423.15	.0002221	
433.15	.0003675	
443.15	.0006235	

System: Megestrol acetate + water; phases: Liquid, Crystal
Fixed: Pressure, kPa = 5500
Property: Mole fraction of Megestrol acetate (Liquid); method: UV Spectroscopy
Temperature, K	Mole fraction of Megestrol acetate	uncertainty
383.15	.0000027	
393.15	.0000037	
403.15	.0000112	
413.15	.0000194	
423.15	.0000354	
433.15	.0000631	
443.15	.000099	

System: prednisolone + water; phases: Liquid, Crystal
Fixed: Pressure, kPa = 5500
Property: Mole fraction of prednisolone (Liquid); method: UV Spectroscopy
Temperature, K	Mole fraction of prednisolone	uncertainty
383.15	.0001631	
393.15	.0002294	
403.15	.000396	
413.15	.0006887	
423.15	.0014301	
433.15	.002771	
443.15	.00587	

System: beclomethasone dipropionate + water; phases: Liquid, Crystal
Fixed: Pressure, kPa = 5500
Property: Mole fraction of beclomethasone dipropionate (Liquid); method: UV Spectroscopy
Temperature, K	Mole fraction of beclomethasone dipropionate	uncertainty
383.15	.000002	
393.15	.0000023	
403.15	.0000032	
413.15	.0000045	
423.15	.0000084	
433.15	.0000139	
443.15	.0000213	

System: water + Clarithromycin; phases: Liquid, Crystal
Fixed: Pressure, kPa = 5500
Property: Mole fraction of Clarithromycin (Liquid); method: UV Spectroscopy
Temperature, K	Mole fraction of Clarithromycin	uncertainty
383.15	.0003564	
393.15	.0004448	
403.15	.0005018	
413.15	.0006269	
423.15	.0009457	
433.15	.0015048	
443.15	.0022807	
