Measured thermophysical data. Density, Viscosity, and Sound Speed of Bis(trifluoromethylsulfonyl)imide-Based Ionic Liquids + 1-Propanol Mixtures
Source: J. Chem. Eng. Data, 2016, 10.1021/acs.jced.5b00181
Compound 1: 1-ethyl-3-methylimidazolium bis(trifluoromethylsulfonyl)imide, C8H11F6N3O4S2, purity 99%
Compound 2: 1-butyl-3-methylimidazolium bis(trifluoromethylsulfonyl)imide, C10H15F6N3O4S2, purity 99%
Compound 3: 1-hexyl-3-methylimidazolium bis(trifluoromethylsulfonyl)imide, C12H19F6N3O4S2, purity 99%
Compound 4: 1-propanol, C3H8O, purity 99.5%

System: 1-propanol; phases: Liquid
Property: Mass density, kg/m3 (Liquid); method: Vibrating tube method
Temperature, K	Pressure, kPa	Mass density, kg/m3	uncertainty
278.15	101	815.46	1
298.15	101	799.55	1
318.15	101	783.18	1
338.15	101	765.96	1

System: 1-propanol; phases: Liquid
Fixed: Frequency, MHz = 3
Property: Speed of sound, m/s (Liquid); method: Sing-around technique in a fixed-path interferometer
Temperature, K	Pressure, kPa	Speed of sound, m/s	uncertainty
278.15	101	1275.54	.02
298.15	101	1205.28	.02
318.15	101	1137.46	.02
338.15	101	1070.79	.02

System: 1-propanol; phases: Liquid
Property: Viscosity, Pa*s (Liquid); method: Falling or rolling sphere viscometry
Temperature, K	Pressure, kPa	Viscosity, Pa*s	uncertainty
278.15	101	.003191	.000034
298.15	101	.001936	.000034
318.15	101	.001242	.000034
338.15	101	.000836	.000034

System: 1-propanol + 1-ethyl-3-methylimidazolium bis(trifluoromethylsulfonyl)imide; phases: Liquid
Fixed: Pressure, kPa = 101
Property: Mass density, kg/m3 (Liquid); method: Vibrating tube method
Temperature, K	Mole fraction of 1-ethyl-3-methylimidazolium bis(trifluoromethylsulfonyl)imide	Mass density, kg/m3	uncertainty
278.15	0	815.46	1
298.15	0	799.55	1
318.15	0	783.18	1
338.15	0	765.96	1
298.15	.0519	914.24	1
318.15	.0519	896.79	1
338.15	.0519	878.72	1
298.15	.1037	1005.11	1
318.15	.1037	986.91	1
338.15	.1037	968.2	1
298.15	.2013	1134.16	1
318.15	.2013	1115.01	1
338.15	.2013	1095.6	1
298.15	.3088	1235.5	1
318.15	.3088	1215.8	1
338.15	.3088	1196.06	1
318.15	.3963	1277.87	1
298.15	.3963	1297.78	1
338.15	.3963	1258.02	1
298.15	.4918	1352.18	1
318.15	.4918	1332.15	1
278.15	.4918	1372.4	1
338.15	.4918	1312.29	1
298.15	.5723	1389.87	1
318.15	.5723	1369.81	1
278.15	.5723	1410.18	1
338.15	.5723	1349.96	1
318.15	.7026	1419.12	1
278.15	.7026	1459.58	1
298.15	.7026	1439.2	1
338.15	.7026	1399.28	1
318.15	.8055	1450.62	1
278.15	.8055	1491.11	1
298.15	.8055	1470.7	1
338.15	.8055	1430.83	1
318.15	.9025	1475.84	1
278.15	.9025	1516.35	1
298.15	.9025	1495.92	1
338.15	.9025	1456.06	1

System: 1-propanol + 1-ethyl-3-methylimidazolium bis(trifluoromethylsulfonyl)imide; phases: Liquid
Fixed: Pressure, kPa = 101
Fixed: Frequency, MHz = 3
Property: Speed of sound, m/s (Liquid); method: Sing-around technique in a fixed-path interferometer
Temperature, K	Mole fraction of 1-ethyl-3-methylimidazolium bis(trifluoromethylsulfonyl)imide	Speed of sound, m/s	uncertainty
278.15	0	1275.54	.02
298.15	0	1205.28	.02
318.15	0	1137.46	.02
338.15	0	1070.79	.02
298.15	.0519	1184.75	.02
318.15	.0519	1124.08	.02
338.15	.0519	1064.38	.02
298.15	.1037	1175.1	.02
318.15	.1037	1119.27	.02
338.15	.1037	1064.08	.02
298.15	.2013	1175.79	.02
318.15	.2013	1124.79	.02
338.15	.2013	1074.64	.02
298.15	.3088	1186.25	.02
318.15	.3088	1137.79	.02
338.15	.3088	1090.44	.02
318.15	.3963	1148.34	.02
298.15	.3963	1195.58	.02
338.15	.3963	1102.61	.02
298.15	.4918	1205.05	.02
318.15	.4918	1158.93	.02
278.15	.4918	1253.12	.02
338.15	.4918	1114.43	.02
298.15	.5723	1212.21	.02
318.15	.5723	1166.82	.02
278.15	.5723	1259.6	.02
338.15	.5723	1123.18	.02
318.15	.7026	1177.71	.02
278.15	.7026	1268.7	.02
298.15	.7026	1222.15	.02
338.15	.7026	1135.32	.02
318.15	.8055	1185.04	.02
278.15	.8055	1274.94	.02
298.15	.8055	1228.87	.02
338.15	.8055	1143.18	.02
318.15	.9025	1190.97	.02
278.15	.9025	1279.96	.02
298.15	.9025	1234.31	.02
338.15	.9025	1149.7	.02

System: 1-propanol + 1-ethyl-3-methylimidazolium bis(trifluoromethylsulfonyl)imide; phases: Liquid
Fixed: Pressure, kPa = 101
Property: Viscosity, Pa*s (Liquid); method: Falling or rolling sphere viscometry
Temperature, K	Mole fraction of 1-ethyl-3-methylimidazolium bis(trifluoromethylsulfonyl)imide	Viscosity, Pa*s	uncertainty
278.15	0	.003191	.000034
298.15	0	.001936	.000034
318.15	0	.001242	.000034
338.15	0	.000836	.000034
298.15	.0519	.002639	.000034
318.15	.0519	.001656	.000034
338.15	.0519	.001117	.000034
298.15	.1037	.00353	.000034
318.15	.1037	.002083	.000034
338.15	.1037	.001389	.000034
298.15	.2013	.005134	.000034
318.15	.2013	.002938	.000034
338.15	.2013	.001956	.000034
298.15	.3088	.006891	.000034
318.15	.3088	.003978	.000034
338.15	.3088	.002656	.000034
318.15	.3963	.004994	.000034
298.15	.3963	.008358	.000034
338.15	.3963	.003333	.000034
298.15	.4918	.010603	.000034
318.15	.4918	.006245	.000034
278.15	.4918	.020938	.000214
338.15	.4918	.004156	.000034
298.15	.5723	.012629	.000214
318.15	.5723	.007454	.000034
278.15	.5723	.025387	.000214
338.15	.5723	.004931	.000034
318.15	.7026	.009792	.000034
278.15	.7026	.034807	.000214
298.15	.7026	.016886	.000214
338.15	.7026	.006395	.000034
318.15	.8055	.011974	.000214
278.15	.8055	.044902	.000214
298.15	.8055	.02107	.000214
338.15	.8055	.007634	.000034
318.15	.9025	.014581	.000214
278.15	.9025	.056987	.000958
298.15	.9025	.025973	.000214
338.15	.9025	.009201	.000034

System: 1-propanol + 1-butyl-3-methylimidazolium bis(trifluoromethylsulfonyl)imide; phases: Liquid
Fixed: Pressure, kPa = 101
Property: Mass density, kg/m3 (Liquid); method: Vibrating tube method
Temperature, K	Mole fraction of 1-butyl-3-methylimidazolium bis(trifluoromethylsulfonyl)imide	Mass density, kg/m3	uncertainty
278.15	0	815.46	1
298.15	0	799.55	1
318.15	0	783.18	1
338.15	0	765.96	1
278.15	.0508	926.62	1
298.15	.0508	909.64	1
318.15	.0508	892.29	1
338.15	.0508	874.3	1
298.15	.0949	984.4	1
278.15	.0949	1002.03	1
318.15	.0949	966.47	1
338.15	.0949	948.03	1
298.15	.1989	1112.17	1
318.15	.1989	1093.43	1
278.15	.1989	1130.78	1
338.15	.1989	1074.44	1
298.15	.2976	1194.92	1
318.15	.2976	1175.83	1
278.15	.2976	1214	1
338.15	.2976	1156.66	1
278.15	.3912	1272.23	1
298.15	.3912	1252.93	1
318.15	.3912	1233.7	1
338.15	.3912	1214.5	1
278.15	.4852	1317.37	1
318.15	.4852	1278.71	1
298.15	.4852	1297.96	1
338.15	.4852	1259.59	1
318.15	.5929	1319.36	1
278.15	.5929	1358.04	1
298.15	.5929	1338.58	1
338.15	.5929	1300.32	1
318.15	.692	1349.4	1
278.15	.692	1388.04	1
298.15	.692	1368.59	1
338.15	.692	1330.43	1
318.15	.7968	1375.56	1
278.15	.7968	1414.14	1
298.15	.7968	1394.7	1
338.15	.7968	1356.65	1
298.15	.903	1416.85	1
318.15	.903	1397.74	1
278.15	.903	1436.28	1
338.15	.903	1378.89	1

System: 1-propanol + 1-butyl-3-methylimidazolium bis(trifluoromethylsulfonyl)imide; phases: Liquid
Fixed: Pressure, kPa = 101
Fixed: Frequency, MHz = 3
Property: Speed of sound, m/s (Liquid); method: Sing-around technique in a fixed-path interferometer
Temperature, K	Mole fraction of 1-butyl-3-methylimidazolium bis(trifluoromethylsulfonyl)imide	Speed of sound, m/s	uncertainty
278.15	0	1275.54	.02
298.15	0	1205.28	.02
318.15	0	1137.46	.02
338.15	0	1070.79	.02
278.15	.0508	1252.24	.02
298.15	.0508	1188.88	.02
318.15	.0508	1127.45	.02
338.15	.0519	1066.73	.02
298.15	.0949	1181.36	.02
278.15	.0949	1240.98	.02
318.15	.0949	1123.68	.02
338.15	.1037	1066.71	.02
298.15	.1989	1180.87	.02
318.15	.1989	1128.18	.02
278.15	.1989	1235.69	.02
338.15	.2013	1076.81	.02
298.15	.2976	1187.64	.02
318.15	.2976	1137.59	.02
278.15	.2976	1239.73	.02
338.15	.3088	1089	.02
278.15	.3912	1245.74	.02
298.15	.3912	1195.63	.02
318.15	.3912	1147.16	.02
338.15	.3963	1099.96	.02
278.15	.4852	1250.88	.02
318.15	.4852	1154.57	.02
298.15	.4852	1201.68	.02
338.15	.4918	1109.14	.02
338.15	.5723	1118.31	.02
318.15	.5929	1162.55	.02
278.15	.5929	1256.75	.02
298.15	.5929	1208.59	.02
318.15	.692	1169.15	.02
278.15	.692	1261.74	.02
298.15	.692	1214.45	.02
338.15	.7026	1125.41	.02
318.15	.7968	1174.91	.02
278.15	.7968	1266.15	.02
298.15	.7968	1219.48	.02
338.15	.8055	1132.03	.02
338.15	.9025	1137.84	.02
318.15	.903	1180.06	.02
278.15	.903	1270.26	.02
298.15	.903	1224	.02

System: 1-propanol + 1-butyl-3-methylimidazolium bis(trifluoromethylsulfonyl)imide; phases: Liquid
Fixed: Pressure, kPa = 101
Property: Viscosity, Pa*s (Liquid); method: Falling or rolling sphere viscometry
Temperature, K	Mole fraction of 1-butyl-3-methylimidazolium bis(trifluoromethylsulfonyl)imide	Viscosity, Pa*s	uncertainty
278.15	0	.003191	.000034
298.15	0	.001936	.000034
318.15	0	.001242	.000034
338.15	0	.000836	.000034
278.15	.0508	.004722	.000034
298.15	.0508	.002701	.000034
318.15	.0508	.001693	.000034
338.15	.0508	.001136	.000034
298.15	.0949	.003573	.000034
278.15	.0949	.006623	.000034
318.15	.0949	.002187	.000034
338.15	.0949	.001457	.000034
298.15	.1989	.005908	.000034
318.15	.1989	.003491	.000034
278.15	.1989	.011441	.000214
338.15	.1989	.002303	.000034
298.15	.2976	.008374	.000034
318.15	.2976	.004677	.000034
278.15	.2976	.016839	.000214
338.15	.2976	.003004	.000034
278.15	.3912	.022981	.000214
298.15	.3912	.010882	.000034
318.15	.3912	.006173	.000034
338.15	.3912	.00393	.000034
278.15	.4852	.031145	.000214
318.15	.4852	.007805	.000034
298.15	.4852	.014139	.000214
338.15	.4852	.004908	.000034
318.15	.5929	.010096	.000034
278.15	.5929	.042145	.000214
298.15	.5929	.018548	.000214
338.15	.5929	.006258	.000034
318.15	.692	.012757	.000214
278.15	.692	.056148	.000958
298.15	.692	.023835	.000214
338.15	.692	.007446	.000034
318.15	.7968	.015777	.000214
278.15	.7968	.076572	.000958
298.15	.7968	.030511	.000214
338.15	.7968	.009633	.000034
298.15	.903	.039945	.000214
318.15	.903	.019349	.000214
278.15	.903	.102444	.000958
338.15	.903	.011482	.000214

System: 1-propanol + 1-hexyl-3-methylimidazolium bis(trifluoromethylsulfonyl)imide; phases: Liquid
Fixed: Pressure, kPa = 101
Property: Mass density, kg/m3 (Liquid); method: Vibrating tube method
Temperature, K	Mole fraction of 1-hexyl-3-methylimidazolium bis(trifluoromethylsulfonyl)imide	Mass density, kg/m3	uncertainty
278.15	0	815.46	1
298.15	0	799.55	1
318.15	0	783.18	1
338.15	0	765.96	1
278.15	.048	920.02	1
298.15	.048	903.08	1
318.15	.048	885.86	1
338.15	.048	868.04	1
298.15	.0991	985.65	1
278.15	.0991	1003.18	1
318.15	.0991	967.85	1
338.15	.0991	949.6	1
298.15	.1928	1091.69	1
318.15	.1928	1073.33	1
278.15	.1928	1109.95	1
338.15	.1928	1054.71	1
298.15	.2895	1165.51	1
318.15	.2895	1146.9	1
278.15	.2895	1184.1	1
338.15	.2895	1128.21	1
278.15	.3911	1239.44	1
298.15	.3911	1220.7	1
318.15	.3911	1202.04	1
338.15	.3911	1183.4	1
278.15	.4877	1278.76	1
318.15	.4877	1241.33	1
298.15	.4877	1259.96	1
338.15	.4877	1222.81	1
318.15	.6028	1277.27	1
278.15	.6028	1314.62	1
298.15	.6028	1295.83	1
338.15	.6028	1258.9	1
318.15	.6999	1301.3	1
278.15	.6999	1338.53	1
298.15	.6999	1319.79	1
338.15	.6999	1283.03	1
318.15	.8016	1322.04	1
278.15	.8016	1359.18	1
298.15	.8016	1340.46	1
338.15	.8016	1303.87	1
298.15	.8999	1357.18	1
318.15	.8999	1338.82	1
278.15	.8999	1375.88	1
338.15	.8999	1320.72	1

System: 1-propanol + 1-hexyl-3-methylimidazolium bis(trifluoromethylsulfonyl)imide; phases: Liquid
Fixed: Pressure, kPa = 101
Fixed: Frequency, MHz = 3
Property: Speed of sound, m/s (Liquid); method: Sing-around technique in a fixed-path interferometer
Temperature, K	Mole fraction of 1-hexyl-3-methylimidazolium bis(trifluoromethylsulfonyl)imide	Speed of sound, m/s	uncertainty
278.15	0	1275.54	.02
298.15	0	1205.28	.02
318.15	0	1137.46	.02
338.15	0	1070.79	.02
278.15	.048	1255.6	.02
298.15	.048	1191.47	.02
318.15	.048	1129.69	.02
338.15	.048	1069.17	.02
298.15	.0991	1186.03	.02
278.15	.0991	1246.21	.02
318.15	.0991	1128.17	.02
338.15	.0991	1071.63	.02
298.15	.1928	1187.71	.02
318.15	.1928	1134.04	.02
278.15	.1928	1243.66	.02
338.15	.1928	1081.81	.02
298.15	.2895	1193.51	.02
318.15	.2895	1142.36	.02
278.15	.2895	1246.87	.02
338.15	.2895	1092.79	.02
278.15	.3911	1251.96	.02
298.15	.3911	1200.37	.02
318.15	.3911	1151.01	.02
338.15	.3911	1103.31	.02
278.15	.4877	1256.27	.02
318.15	.4877	1157.71	.02
298.15	.4877	1205.85	.02
338.15	.4877	1111.37	.02
318.15	.6028	1164.77	.02
278.15	.6028	1261.28	.02
298.15	.6028	1211.84	.02
338.15	.6028	1119.65	.02
318.15	.6999	1169.85	.02
278.15	.6999	1265.1	.02
298.15	.6999	1216.19	.02
338.15	.6999	1125.63	.02
318.15	.8016	1174.34	.02
278.15	.8016	1268.51	.02
298.15	.8016	1220.07	.02
338.15	.8016	1130.77	.02
298.15	.8999	1223.31	.02
318.15	.8999	1178.14	.02
278.15	.8999	1271.55	.02
338.15	.8999	1135.26	.02

System: 1-propanol + 1-hexyl-3-methylimidazolium bis(trifluoromethylsulfonyl)imide; phases: Liquid
Fixed: Pressure, kPa = 101
Property: Viscosity, Pa*s (Liquid); method: Falling or rolling sphere viscometry
Temperature, K	Mole fraction of 1-hexyl-3-methylimidazolium bis(trifluoromethylsulfonyl)imide	Viscosity, Pa*s	uncertainty
278.15	0	.003191	.000034
298.15	0	.001936	.000034
318.15	0	.001242	.000034
338.15	0	.000836	.000034
278.15	.048	.004973	.000034
298.15	.048	.002872	.000034
318.15	.048	.001799	.000034
338.15	.048	.001203	.000034
298.15	.0991	.003917	.000034
278.15	.0991	.007263	.000034
318.15	.0991	.002374	.000034
338.15	.0991	.001565	.000034
298.15	.1928	.006538	.000034
318.15	.1928	.003734	.000034
278.15	.1928	.013145	.000214
338.15	.1928	.002399	.000034
298.15	.2895	.009707	.000034
318.15	.2895	.005367	.000034
278.15	.2895	.020706	.000214
338.15	.2895	.003401	.000034
278.15	.3911	.030929	.000214
298.15	.3911	.013776	.000214
318.15	.3911	.007383	.000034
338.15	.3911	.004568	.000034
278.15	.4877	.04403	.000214
318.15	.4877	.009855	.000034
298.15	.4877	.018592	.000214
338.15	.4877	.005928	.000034
318.15	.6028	.013256	.000214
278.15	.6028	.063472	.000958
298.15	.6028	.025712	.000214
338.15	.6028	.007803	.000034
318.15	.6999	.016473	.000214
278.15	.6999	.087452	.000958
298.15	.6999	.033173	.000214
338.15	.6999	.009596	.000034
318.15	.8016	.020579	.000214
278.15	.8016	.117109	.000958
298.15	.8016	.042832	.000214
338.15	.8016	.011711	.000214
298.15	.8999	.05458	.000958
318.15	.8999	.025189	.000214
278.15	.8999	.155866	.000958
338.15	.8999	.013922	.000214
