Measured thermophysical data. Water Solubility at Saturation for CO2 CH4 Mixtures at 323.2 K and 9.000 MPa
Source: J. Chem. Eng. Data, 2017, 10.1021/acs.jced.6b00999
Compound 1: methane, CH4
Compound 2: water, H2O, purity 99.9%
Compound 3: carbon dioxide, CO2

System: methane + carbon dioxide + water; phases: Fluid (supercritical or subcritical phases), Liquid
Fixed: Temperature, K = 323.15
Fixed: Pressure, kPa = 9000
Property: Mole fraction of water (Fluid (supercritical or subcritical phases)); method: Titration method
Solvent: Mole fraction of carbon dioxide	Mole fraction of water	uncertainty
0	.02	
.0301	.02	
.25	.0214	
.4995	.025	
.75	.03	
1	.0374	

System: methane + water; phases: Fluid (supercritical or subcritical phases), Liquid
Property: Boiling temperature at pressure P, K (Fluid (supercritical or subcritical phases)); method: Other
Mole fraction of water	Pressure, kPa	Boiling temperature at pressure P, K	uncertainty
.02	9000	323.15	

System: carbon dioxide + water; phases: Fluid (supercritical or subcritical phases), Liquid
Property: Boiling temperature at pressure P, K (Fluid (supercritical or subcritical phases)); method: Other
Mole fraction of water	Pressure, kPa	Boiling temperature at pressure P, K	uncertainty
.0374	9000	323.15	
