Measured thermophysical data. Extraction of Low Concentration Aqueous Solution of Methylal: Liquid Liquid Equilibrium in Water + Methylal + (Cyclohexane and n-Heptane) Ternary Systems
Source: J. Chem. Eng. Data, 2017, 10.1021/acs.jced.7b00312
Compound 1: cyclohexane, C6H12, purity 99.97%
Compound 2: n-heptane, C7H16, purity 99.97%
Compound 3: methylal, C3H8O2, purity 99.00%
Compound 4: water, H2O, purity 99.8%

System: methylal + water + cyclohexane; phases: Liquid mixture 2, Liquid mixture 1
Fixed: Pressure, kPa = 100
Property: Mole fraction of cyclohexane (Liquid mixture 2); method: Chromatography
Property: Mole fraction of methylal (Liquid mixture 1); method: Chromatography
Property: Mole fraction of cyclohexane (Liquid mixture 1); method: Chromatography
Temperature, K	Mole fraction of methylal	Mole fraction of cyclohexane	uncertainty	Mole fraction of methylal	uncertainty	Mole fraction of cyclohexane	uncertainty
303.15	.0205	.9795	.0185	.0006	.0012	0	.0185
313.15	.0308	.9692	.0185	.0026	.0012	0	.0185
313.15	.0529	.947	.0185	.0041	.0012	0	.0185
313.15	.0795	.9205	.0185	.0058	.0012	0	.0185
313.15	.1021	.8978	.0185	.0068	.0012	0	.0185
313.15	.1226	.8773	.0185	.0096	.0012	0	.0185
313.15	.1499	.8501	.0185	.0117	.0012	0	.0185
313.15	.1677	.8323	.0185	.0146	.0012	0	.0185
303.15	.0423	.9576	.0185	.0014	.0012	0	.0185
303.15	.0643	.9356	.0185	.0025	.0012	0	.0185
303.15	.0841	.9159	.0185	.0042	.0012	0	.0185
303.15	.1037	.8963	.0185	.0063	.0012	0	.0185
303.15	.1203	.8796	.0185	.0078	.0012	0	.0185
303.15	.1385	.8615	.0185	.01	.0012	0	.0185
303.15	.1557	.8442	.0185	.012	.0012	0	.0185
313.15	.0148	.9852	.0185	.0012	.0012	0	.0185

System: methylal + water + n-heptane; phases: Liquid mixture 2, Liquid mixture 1
Fixed: Pressure, kPa = 100
Property: Mole fraction of n-heptane (Liquid mixture 2); method: Chromatography
Property: Mole fraction of methylal (Liquid mixture 1); method: Chromatography
Property: Mole fraction of n-heptane (Liquid mixture 1); method: Chromatography
Temperature, K	Mole fraction of methylal	Mole fraction of n-heptane	uncertainty	Mole fraction of methylal	uncertainty	Mole fraction of n-heptane	uncertainty
303.15	.0242	.9722	.0162	.0027	.0018	.0002	.0002
313.15	.0405	.9538	.0162	.003	.0018	.0003	.0002
313.15	.0699	.9233	.0162	.005	.0018	.0003	.0002
313.15	.0987	.8932	.0162	.0077	.0018	.0004	.0002
313.15	.1166	.8738	.0162	.01	.0018	.0004	.0002
313.15	.15	.8397	.0162	.0127	.0018	.0004	.0002
313.15	.1684	.8202	.0162	.0144	.0018	.0005	.0002
313.15	.1949	.7925	.0162	.0173	.0018	.0005	.0002
303.15	.0551	.9409	.0162	.0046	.0018	.0002	.0002
303.15	.0813	.9147	.0162	.0065	.0018	.0003	.0002
303.15	.1086	.8873	.0162	.0086	.0018	.0003	.0002
303.15	.1302	.8653	.0162	.0117	.0018	.0003	.0002
303.15	.1521	.8434	.0162	.014	.0018	.0003	.0002
303.15	.1705	.8247	.0162	.0166	.0018	.0003	.0002
303.15	.1935	.8013	.0162	.0192	.0018	.0003	.0002
313.15	.0214	.9744	.0162	.0013	.0018	.0002	.0002
