Measured thermophysical data. Measurement and Correlation of Solubility of Loratadine in Different Pure Solvents and Binary Mixtures
Source: J. Chem. Eng. Data, 2017, 10.1021/acs.jced.6b00721
Compound 1: loratadine, C20H19ClN2O2, purity 99.5%
Compound 2: methanol, CH4O, purity 99.5%
Compound 3: ethanol, C2H6O, purity 99.7%
Compound 4: isopropanol, C3H8O, purity 99.5%
Compound 5: 1-propanol, C3H8O, purity 99.5%
Compound 6: 1-butanol, C4H10O, purity 99.5%
Compound 7: 1-pentanol, C5H12O, purity 99.5%
Compound 8: acetonitrile, C2H3N, purity 99.5%
Compound 9: acetone, C3H6O, purity 99.5%
Compound 10: ethyl acetate, C4H8O2, purity 99.5%
Compound 11: dimethylformamide, C3H7NO, purity 99.5%

System: methanol + loratadine; phases: Liquid, Crystal
Fixed: Pressure, kPa = 100
Property: Mole fraction of loratadine (Liquid); method: Titration method
Temperature, K	Mole fraction of loratadine	uncertainty
283.14	.01535	
288.15	.0196	
293.15	.02545	
298.14	.03389	
303.15	.04548	
308.15	.05983	
313.15	.07726	
318.75	.09838	
323.2	.1178	

System: ethanol + loratadine; phases: Liquid, Crystal
Fixed: Pressure, kPa = 100
Property: Mole fraction of loratadine (Liquid); method: Titration method
Temperature, K	Mole fraction of loratadine	uncertainty
283.15	.0119	
288.45	.01505	
293.44	.01857	
298.15	.02319	
303.15	.02917	
308.15	.03763	
313.54	.04895	
318.37	.0636	
323.15	.08196	

System: isopropanol + loratadine; phases: Liquid, Crystal
Fixed: Pressure, kPa = 100
Property: Mole fraction of loratadine (Liquid); method: Titration method
Temperature, K	Mole fraction of loratadine	uncertainty
283.17	.006879	
288.15	.008787	
293.16	.01131	
298.15	.01518	
303.15	.02052	
308.15	.02737	
313.14	.03598	
318.2	.0483	
323.15	.06687	

System: 1-propanol + loratadine; phases: Liquid, Crystal
Fixed: Pressure, kPa = 100
Property: Mole fraction of loratadine (Liquid); method: Titration method
Temperature, K	Mole fraction of loratadine	uncertainty
283.16	.01806	
288.12	.02387	
293.15	.03108	
298.17	.03879	
303.15	.04739	
308.16	.0578	
313.13	.07248	
318.15	.09119	
323.17	.11192	

System: 1-butanol + loratadine; phases: Liquid, Crystal
Fixed: Pressure, kPa = 100
Property: Mole fraction of loratadine (Liquid); method: Titration method
Temperature, K	Mole fraction of loratadine	uncertainty
283.15	.02131	
288.13	.02688	
293.15	.03327	
298.17	.0416	
303.15	.0525	
308.15	.06534	
313.15	.07977	
318.12	.09615	
323.15	.1155	

System: 1-pentanol + loratadine; phases: Liquid, Crystal
Fixed: Pressure, kPa = 100
Property: Mole fraction of loratadine (Liquid); method: Titration method
Temperature, K	Mole fraction of loratadine	uncertainty
283.12	.02245	
288.15	.02855	
293.13	.03576	
298.15	.04467	
303.15	.05595	
308.13	.0683	
313.15	.08272	
318.17	.10221	
323.15	.12221	

System: acetonitrile + loratadine; phases: Liquid, Crystal
Fixed: Pressure, kPa = 100
Property: Mole fraction of loratadine (Liquid); method: Titration method
Temperature, K	Mole fraction of loratadine	uncertainty
283.2	.003001	
288.25	.003843	
293.15	.004769	
298.15	.005847	
303.15	.007475	
308.75	.009567	
313.15	.01209	
318.15	.01556	
323.19	.0205	

System: acetone + loratadine; phases: Liquid, Crystal
Fixed: Pressure, kPa = 100
Property: Mole fraction of loratadine (Liquid); method: Titration method
Temperature, K	Mole fraction of loratadine	uncertainty
283.15	.0127	
288.13	.01536	
293.15	.01876	
298.15	.02291	
303.15	.02803	
308.15	.03488	
313.15	.04379	
318.17	.05508	
323.15	.06891	

System: ethyl acetate + loratadine; phases: Liquid, Crystal
Fixed: Pressure, kPa = 100
Property: Mole fraction of loratadine (Liquid); method: Titration method
Temperature, K	Mole fraction of loratadine	uncertainty
283.15	.01755	
288.15	.02081	
293.15	.02465	
298.15	.02933	
303.12	.03563	
308.15	.04302	
313.15	.05232	
318.15	.06341	
323.2	.07705	

System: dimethylformamide + loratadine; phases: Liquid, Crystal
Fixed: Pressure, kPa = 100
Property: Mole fraction of loratadine (Liquid); method: Titration method
Temperature, K	Mole fraction of loratadine	uncertainty
283.11	.02089	
288.15	.02604	
293.15	.0312	
298.15	.03887	
303.15	.04737	
308.19	.05663	
313.15	.0684	
318.17	.08252	
323.15	.09991	

System: methanol + acetonitrile + loratadine; phases: Liquid, Crystal
Fixed: Pressure, kPa = 100
Property: Mole fraction of loratadine (Liquid); method: Titration method
Solvent: Mole fraction of methanol	Temperature, K	Mole fraction of loratadine	uncertainty
0	283.2	.003001	
0	288.25	.003843	
0	293.15	.004769	
0	298.15	.005847	
0	303.15	.007475	
0	308.75	.009567	
0	313.15	.01209	
0	318.15	.01556	
0	323.19	.0205	
.1002	283.15	.006064	
.1002	288.15	.007383	
.1002	293.15	.008973	
.1002	298.15	.01104	
.1002	303.15	.01407	
.1002	308.35	.01818	
.1002	313.15	.0231	
.1002	318.15	.03014	
.1002	323.16	.04083	
.2	283.15	.01046	
.2	288.15	.0128	
.2	293.2	.01575	
.2	298.15	.01943	
.2	303.15	.02438	
.2	308.2	.03131	
.2	313.15	.04043	
.2	318.17	.05222	
.2	323.15	.06863	
.3055	283.15	.01548	
.3055	288.2	.01919	
.3055	293.15	.02347	
.3055	298.15	.02998	
.3055	303.15	.03786	
.3055	308.19	.04877	
.3055	313.15	.06213	
.3055	318.15	.0791	
.3055	323.15	.09789	
.4005	283.15	.02099	
.4005	288.55	.0262	
.4005	293.15	.03148	
.4005	298.15	.03926	
.4005	303.15	.04939	
.4005	308.15	.06134	
.4005	313.13	.0759	
.4005	318.15	.09285	
.4005	323.15	.1118	
.502	283.15	.02446	
.502	288.13	.03049	
.502	293.15	.03839	
.502	298.14	.04876	
.502	303.15	.06201	
.502	308.4	.07775	
.502	313.15	.09378	
.502	318.25	.1122	
.502	323.15	.1285	
.5999	283.13	.02814	
.5999	288.12	.03506	
.5999	293.15	.04452	
.5999	298.15	.05582	
.5999	303.15	.06955	
.5999	308.15	.08547	
.5999	313.15	.1037	
.5999	318.15	.1226	
.5999	323.15	.1421	
.6989	283.15	.03033	
.6989	288.15	.03715	
.6989	293.14	.04672	
.6989	298.15	.05826	
.6989	303.15	.07251	
.6989	308.15	.08962	
.6989	313.17	.1073	
.6989	318.15	.1256	
.6989	323.15	.1454	
.7994	283.15	.02852	
.7994	288.13	.03536	
.7994	293.15	.04482	
.7994	298.17	.05708	
.7994	303.15	.07229	
.7994	308.21	.09019	
.7994	313.15	.1083	
.7994	318.2	.1274	
.7994	323.15	.1467	
.8993	283.18	.02181	
.8993	288.12	.02901	
.8993	293.15	.03844	
.8993	298.15	.05002	
.8993	303.12	.06478	
.8993	308.15	.08255	
.8993	313.15	.1005	
.8993	318.15	.1196	
.8993	323.15	.1397	
1	283.14	.01535	
1	288.15	.0196	
1	293.15	.02545	
1	298.14	.03389	
1	303.15	.04548	
1	308.15	.05983	
1	313.15	.07726	
1	318.75	.09838	
1	323.2	.1178	

System: 1-pentanol + acetonitrile + loratadine; phases: Liquid, Crystal
Fixed: Pressure, kPa = 100
Property: Mole fraction of loratadine (Liquid); method: Titration method
Solvent: Mole fraction of 1-pentanol	Temperature, K	Mole fraction of loratadine	uncertainty
0	283.2	.003001	
0	288.25	.003843	
0	293.15	.004769	
0	298.15	.005847	
0	303.15	.007475	
0	308.75	.009567	
0	313.15	.01209	
0	318.15	.01556	
0	323.19	.0205	
.0998	283.16	.01151	
.0998	288.18	.01385	
.0998	293.15	.01697	
.0998	298.18	.02076	
.0998	303.16	.02583	
.0998	308.13	.03193	
.0998	313.15	.04092	
.0998	318.18	.05369	
.0998	323.15	.06928	
.2006	283.16	.02495	
.2006	288.15	.02861	
.2006	293.15	.03454	
.2006	298.14	.04119	
.2006	303.13	.04955	
.2006	308.15	.06034	
.2006	313.16	.07307	
.2006	318.15	.08806	
.2006	323.15	.10599	
.2996	283.15	.03767	
.2996	288.17	.04402	
.2996	293.13	.05099	
.2996	298.15	.05988	
.2996	303.18	.07027	
.2996	308.19	.08179	
.2996	313.15	.09611	
.2996	318.15	.11226	
.2996	323.17	.13028	
.3997	283.15	.04701	
.3997	288.15	.05519	
.3997	293.13	.06306	
.3997	298.17	.07219	
.3997	303.15	.08345	
.3997	308.15	.09648	
.3997	313.13	.11135	
.3997	318.12	.12784	
.3997	323.18	.14699	
.4983	283.15	.05352	
.4983	288.16	.06118	
.4983	293.17	.07029	
.4983	298.18	.08011	
.4983	303.15	.09211	
.4983	308.15	.10601	
.4983	313.15	.1203	
.4983	318.13	.13621	
.4983	323.14	.1532	
.5999	283.15	.05563	
.5999	288.17	.06358	
.5999	293.15	.07221	
.5999	298.15	.08236	
.5999	303.17	.09475	
.5999	308.12	.10845	
.5999	313.15	.12474	
.5999	318.13	.14183	
.5999	323.16	.16064	
.7005	283.15	.05414	
.7005	288.15	.0624	
.7005	293.18	.0711	
.7005	298.15	.08103	
.7005	303.17	.09281	
.7005	308.11	.10599	
.7005	313.15	.12147	
.7005	318.15	.13967	
.7005	323.15	.15824	
.7989	283.15	.04745	
.7989	288.13	.05611	
.7989	293.18	.06488	
.7989	298.15	.07486	
.7989	303.16	.08679	
.7989	308.15	.10048	
.7989	313.12	.11618	
.7989	318.17	.13327	
.7989	323.15	.15177	
.8975	283.18	.03948	
.8975	288.17	.04708	
.8975	293.17	.05505	
.8975	298.15	.06444	
.8975	303.12	.07495	
.8975	308.15	.08807	
.8975	313.15	.10379	
.8975	318.15	.12111	
.8975	323.15	.14059	
1	283.12	.02245	
1	288.15	.02855	
1	293.13	.03576	
1	298.15	.04467	
1	303.15	.05595	
1	308.13	.0683	
1	313.15	.08272	
1	318.17	.10221	
1	323.15	.12221	
