Measured thermophysical data. Thermodynamics and Phase Equilibrium of the System CsCl MgCl2 H2O at 298.15 K
Source: J. Chem. Eng. Data, 2017, 10.1021/acs.jced.6b00952
Compound 1: sodium chloride, ClNa
Compound 2: sulfuric acid, H2O4S, purity 99.99%
Compound 3: magnesium chloride, Cl2Mg
Compound 4: cesium chloride, ClCs, purity 99.95%
Compound 5: water, H2O, purity 99.9%

System: cesium chloride + water + magnesium chloride; phases: Liquid
Fixed: Pressure, kPa = 100
Fixed: Temperature, K = 298.15
Property: (Relative) activity of water (Liquid); method: Other
Molality, mol/kg of cesium chloride	Molality, mol/kg of magnesium chloride	(Relative) activity of water	uncertainty
2.0001	0	.9393	
1.5467	.2742	.9393	
1.273	.4258	.9393	
.8995	.6203	.9393	
.5824	.7736	.9393	
.3033	.9005	.9393	
.0646	1.004	.9393	
0	1.0309	.9393	
3.0764	0	.9064	
2.3499	.4165	.9064	
1.9107	.6391	.9064	
1.3217	.9114	.9064	
.8385	1.1138	.9064	
.4284	1.2719	.9064	
.0897	1.3949	.9064	
0	1.4258	.9064	
6.1137	0	.8101	
4.5435	.8054	.8101	
3.6033	1.2052	.8101	
2.3902	1.6482	.8101	
1.458	1.9368	.8101	
.7209	2.1402	.8101	
.147	2.2857	.8101	
0	2.3215	.8101	
7.7358	0	.7605	
5.6638	1.0039	.7605	
4.4508	1.4887	.7605	
2.9013	2.0007	.7605	
1.7439	2.3167	.7605	
.852	2.5295	.7605	
.1723	2.6782	.7605	
0	2.7118	.7605	
9.7395	0	.7016	
7.0368	1.2473	.7016	
5.4611	1.8266	.7016	
3.4915	2.4077	.7016	
2.065	2.7432	.7016	
.9981	2.9631	.7016	
.2001	3.1096	.7016	
0	3.1501	.7016	
8.6948	1.5412	.6365	
6.6535	2.2254	.6365	
4.1631	2.8708	.6365	
2.4215	3.2168	.6365	
1.156	3.432	.6365	
.2296	3.569	.6365	
0	3.6093	.6365	

System: cesium chloride + water + magnesium chloride; phases: Liquid, Crystal of intercomponent compound 1
Fixed: Temperature, K = 298.15
Fixed: Pressure, kPa = 100
Property: Molality, mol/kg of magnesium chloride (Liquid); method: phase equilibration
Molality, mol/kg of cesium chloride	Molality, mol/kg of magnesium chloride	uncertainty
1.1591	4.3549	
2.905	3.8329	
5.3618	3.3481	
8.3207	1.927	
9.9358	.9969	
1.9018	4.0275	

System: cesium chloride + water + magnesium chloride; phases: Liquid, Crystal
Fixed: Temperature, K = 298.15
Fixed: Pressure, kPa = 100
Property: Molality, mol/kg of magnesium chloride (Liquid); method: phase equilibration
Molality, mol/kg of cesium chloride	Molality, mol/kg of magnesium chloride	uncertainty
4.083	3.5799	
7.5735	3.3206	
8.9205	1.5514	

System: cesium chloride + water + magnesium chloride; phases: Liquid, Crystal
Fixed: Temperature, K = 298.15
Fixed: Pressure, kPa = 100
Property: Molality, mol/kg of magnesium chloride (Liquid); method: titration
Molality, mol/kg of cesium chloride	Molality, mol/kg of magnesium chloride	uncertainty
7.785	3.3342	
8.8441	1.7849	

System: cesium chloride + water + magnesium chloride; phases: Liquid, Crystal of intercomponent compound 1
Fixed: Temperature, K = 298.15
Fixed: Pressure, kPa = 100
Property: Molality, mol/kg of magnesium chloride (Liquid); method: titration
Molality, mol/kg of cesium chloride	Molality, mol/kg of magnesium chloride	uncertainty
1.5833	4.1727	
2.51	3.9553	
4.3674	3.6371	
6.5738	3.4118	
5.8536	3.4564	
7.785	3.3342	

System: cesium chloride + water; phases: Liquid
Property: (Relative) activity of water (Liquid); method: Other
Molality, mol/kg of cesium chloride	Pressure, kPa	Temperature, K	(Relative) activity of water	uncertainty
2.0001	100	298.15	.9393	
3.0764	100	298.15	.9064	
6.1137	100	298.15	.8101	
7.7358	100	298.15	.7605	
9.7395	100	298.15	.7016	

System: water + magnesium chloride; phases: Liquid
Property: (Relative) activity of water (Liquid); method: Other
Molality, mol/kg of magnesium chloride	Pressure, kPa	Temperature, K	(Relative) activity of water	uncertainty
1.0309	100	298.15	.9393	
1.4258	100	298.15	.9064	
2.3215	100	298.15	.8101	
2.7118	100	298.15	.7605	
3.1501	100	298.15	.7016	
3.6093	100	298.15	.6365	
