Measured thermophysical data. Determining the Solubility of Nifedipine and Quinine in Supercritical Fluid Carbon Dioxide Using Continuously Stirred Static Solubility Apparatus Interfaced with Online Supercritical Fluid Chromatography
Source: J. Chem. Eng. Data, 2017, 10.1021/acs.jced.7b00012
Compound 1: dimethyl 4-(2-nitrophenyl)-2,6-dimethyl-1,4-dihydropyridine-3,5-dicarboxylate, C17H18N2O6, purity 98%
Compound 2: quinine, C20H24N2O2, purity 99%
Compound 3: carbon dioxide, CO2, purity 99.9%

System: carbon dioxide + dimethyl 4-(2-nitrophenyl)-2,6-dimethyl-1,4-dihydropyridine-3,5-dicarboxylate; phases: Fluid (supercritical or subcritical phases), Crystal
Property: Mole fraction of dimethyl 4-(2-nitrophenyl)-2,6-dimethyl-1,4-dihydropyridine-3,5-dicarboxylate (Fluid (supercritical or subcritical phases)); method: Chromatography
Temperature, K	Pressure, kPa	Mole fraction of dimethyl 4-(2-nitrophenyl)-2,6-dimethyl-1,4-dihydropyridine-3,5-dicarboxylate	uncertainty
333.15	12500	.0000097	
333.15	15000	.0000131	
333.15	17500	.0000179	
333.15	20000	.0000232	
333.15	22500	.0000262	
333.15	25000	.000031	
333.15	27500	.0000366	
353.15	12500	.0000079	
353.15	15000	.0000111	
353.15	17500	.0000199	
353.15	20000	.000026	
353.15	22500	.0000352	
353.15	25000	.0000437	
353.15	27500	.0000536	

System: carbon dioxide + quinine; phases: Fluid (supercritical or subcritical phases), Crystal
Property: Mole fraction of quinine (Fluid (supercritical or subcritical phases)); method: Chromatography
Temperature, K	Pressure, kPa	Mole fraction of quinine	uncertainty
323.15	12500	.0000153	
323.15	15500	.0000174	
323.15	18500	.0000227	
323.15	21500	.0000236	
323.15	24500	.0000286	
323.15	27500	.0000298	
343.15	12500	.000012	
343.15	15500	.0000179	
343.15	18500	.0000235	
343.15	21500	.0000322	
343.15	24500	.0000398	
343.15	27500	.0000504	
