Measured thermophysical data. Studies on Thermodynamic and Transport Properties of Binary Mixtures Containing Alcohols and Aniline
Source: J. Chem. Eng. Data, 2016, 10.1021/acs.jced.6b00210
Compound 1: aniline, C6H7N, purity 99%
Compound 2: 2-propanol, C3H8O, purity 99.7%
Compound 3: 2-butanol, C4H10O, purity 99.5%
Compound 4: 2-pentanol, C5H12O, purity 99.5%

System: aniline; phases: Liquid
Property: Mass density, kg/m3 (Liquid); method: Vibrating tube method
Temperature, K	Pressure, kPa	Mass density, kg/m3	uncertainty
293.15	100	1021.7	
298.15	100	1017.4	
303.15	100	1013.2	
308.15	100	1009	
313.15	100	1004.7	
318.15	100	1000.4	
323.15	100	995.5	

System: aniline; phases: Liquid
Property: Viscosity, Pa*s (Liquid); method: Concentric cylinders viscometry
Temperature, K	Pressure, kPa	Viscosity, Pa*s	uncertainty
293.15	100	.00437	
298.15	100	.0038	
303.15	100	.00313	
308.15	100	.00275	
313.15	100	.00243	
318.15	100	.00214	
323.15	100	.00196	

System: 2-propanol; phases: Liquid
Property: Mass density, kg/m3 (Liquid); method: Vibrating tube method
Temperature, K	Pressure, kPa	Mass density, kg/m3	uncertainty
293.15	100	785.4	
298.15	100	781.1	
303.15	100	776.8	
308.15	100	772.4	
313.15	100	768	
318.15	100	763.4	
323.15	100	758.8	

System: 2-propanol; phases: Liquid
Property: Viscosity, Pa*s (Liquid); method: Concentric cylinders viscometry
Temperature, K	Pressure, kPa	Viscosity, Pa*s	uncertainty
293.15	100	.00242	
298.15	100	.00208	
303.15	100	.0018	
308.15	100	.00156	
313.15	100	.00136	
318.15	100	.00119	
323.15	100	.00105	

System: 2-butanol; phases: Liquid
Property: Mass density, kg/m3 (Liquid); method: Vibrating tube method
Temperature, K	Pressure, kPa	Mass density, kg/m3	uncertainty
293.15	100	806.7	
298.15	100	802.7	
303.15	100	798.4	
308.15	100	794.1	
313.15	100	789.8	
318.15	100	785.2	
323.15	100	780.6	

System: 2-butanol; phases: Liquid
Property: Viscosity, Pa*s (Liquid); method: Concentric cylinders viscometry
Temperature, K	Pressure, kPa	Viscosity, Pa*s	uncertainty
293.15	100	.00367	
298.15	100	.00304	
303.15	100	.00254	
308.15	100	.00213	
313.15	100	.0018	
318.15	100	.00154	
323.15	100	.00133	

System: 2-pentanol; phases: Liquid
Property: Mass density, kg/m3 (Liquid); method: Vibrating tube method
Temperature, K	Pressure, kPa	Mass density, kg/m3	uncertainty
293.15	100	809.3	
298.15	100	805.3	
303.15	100	801.2	
308.15	100	797	
313.15	100	792.7	
318.15	100	788.4	
323.15	100	784	

System: 2-pentanol; phases: Liquid
Property: Viscosity, Pa*s (Liquid); method: Concentric cylinders viscometry
Temperature, K	Pressure, kPa	Viscosity, Pa*s	uncertainty
293.15	100	.00397	
298.15	100	.00344	
303.15	100	.00294	
308.15	100	.00248	
313.15	100	.00204	
318.15	100	.00165	
323.15	100	.00129	

System: aniline + 2-propanol; phases: Liquid
Fixed: Pressure, kPa = 100
Property: Mass density, kg/m3 (Liquid); method: Vibrating tube method
Temperature, K	Mole fraction of aniline	Mass density, kg/m3	uncertainty
293.15	0	785.4	
293.15	.0813	809.7	
293.15	.1599	832	
293.15	.2396	853.7	
293.15	.349	882	
293.15	.4402	904.3	
293.15	.5598	932.1	
293.15	.6501	952	
293.15	.74	971	
293.15	.8499	993.2	
293.15	.9402	1010.6	
293.15	1	1021.7	
298.15	0	781.1	
298.15	.0813	805.3	
298.15	.1599	827.5	
298.15	.2396	849.2	
298.15	.349	877.4	
298.15	.4402	899.7	
298.15	.5598	927.6	
298.15	.6501	947.5	
298.15	.74	966.5	
298.15	.8499	988.8	
298.15	.9402	1006.2	
298.15	1	1017.4	
303.15	0	776.8	
303.15	.0813	800.8	
303.15	.1599	823	
303.15	.2396	844.6	
303.15	.349	872.8	
303.15	.4402	895.1	
303.15	.5598	923	
303.15	.6501	942.9	
303.15	.74	961.9	
303.15	.8499	984.2	
303.15	.9402	1001.8	
303.15	1	1013.2	
308.15	0	772.4	
308.15	.0813	796.4	
308.15	.1599	818.5	
308.15	.2396	840	
308.15	.349	868.2	
308.15	.4402	890.6	
308.15	.5598	918.5	
308.15	.6501	938.5	
308.15	.74	957.6	
308.15	.8499	980	
308.15	.9402	997.7	
308.15	1	1009	
313.15	0	768	
313.15	.0813	791.9	
313.15	.1599	814	
313.15	.2396	835.5	
313.15	.349	863.6	
313.15	.4402	885.9	
313.15	.5598	913.8	
313.15	.6501	933.9	
313.15	.74	953.1	
313.15	.8499	975.6	
313.15	.9402	993.3	
313.15	1	1004.7	
318.15	0	763.4	
318.15	.0813	787.2	
318.15	.1599	809.2	
318.15	.2396	830.7	
318.15	.349	858.9	
318.15	.4402	881.2	
318.15	.5598	909.2	
318.15	.6501	929.2	
318.15	.74	948.5	
318.15	.8499	971.1	
318.15	.9402	988.9	
318.15	1	1000.4	
323.15	0	758.8	
323.15	.0813	782.4	
323.15	.1599	804.3	
323.15	.2396	825.7	
323.15	.349	853.8	
323.15	.4402	876.2	
323.15	.5598	904.1	
323.15	.6501	924.2	
323.15	.74	943.4	
323.15	.8499	966.1	
323.15	.9402	984	
323.15	1	995.5	

System: aniline + 2-propanol; phases: Liquid
Fixed: Pressure, kPa = 100
Property: Viscosity, Pa*s (Liquid); method: Concentric cylinders viscometry
Temperature, K	Mole fraction of aniline	Viscosity, Pa*s	uncertainty
293.15	0	.00242	
293.15	.0813	.002291	
293.15	.1599	.002176	
293.15	.2396	.00212	
293.15	.349	.0021	
293.15	.4402	.00217	
293.15	.5598	.00233	
293.15	.6501	.00254	
293.15	.74	.00281	
293.15	.8499	.00331	
293.15	.9402	.00393	
293.15	1	.00437	
298.15	0	.00208	
298.15	.0813	.001963	
298.15	.1599	.00186	
298.15	.2396	.0018	
298.15	.349	.00178	
298.15	.4402	.00184	
298.15	.5598	.00198	
298.15	.6501	.00216	
298.15	.74	.00239	
298.15	.8499	.00284	
298.15	.9402	.00339	
298.15	1	.0038	
303.15	0	.0018	
303.15	.0813	.001651	
303.15	.1599	.00156	
303.15	.2396	.0015	
303.15	.349	.00147	
303.15	.4402	.00148	
303.15	.5598	.00158	
303.15	.6501	.0017	
303.15	.74	.0019	
303.15	.8499	.00227	
303.15	.9402	.00273	
303.15	1	.00313	
308.15	0	.00156	
308.15	.0813	.001454	
308.15	.1599	.00139	
308.15	.2396	.00134	
308.15	.349	.0013	
308.15	.4402	.0013	
308.15	.5598	.00136	
308.15	.6501	.00148	
308.15	.74	.00167	
308.15	.8499	.00199	
308.15	.9402	.00239	
308.15	1	.00275	
313.15	0	.00136	
313.15	.0813	.00129	
313.15	.1599	.00123	
313.15	.2396	.00118	
313.15	.349	.00115	
313.15	.4402	.00114	
313.15	.5598	.0012	
313.15	.6501	.0013	
313.15	.74	.00148	
313.15	.8499	.00179	
313.15	.9402	.00213	
313.15	1	.00243	
318.15	0	.00119	
318.15	.0813	.001125	
318.15	.1599	.001076	
318.15	.2396	.001043	
318.15	.349	.00102	
318.15	.4402	.00103	
318.15	.5598	.00108	
318.15	.6501	.001166	
318.15	.74	.00134	
318.15	.8499	.0016	
318.15	.9402	.0019	
318.15	1	.00214	
323.15	0	.00105	
323.15	.0813	.00097	
323.15	.1599	.00091	
323.15	.2396	.00088	
323.15	.349	.00085	
323.15	.4402	.00086	
323.15	.5598	.00091	
323.15	.6501	.00101	
323.15	.74	.00118	
323.15	.8499	.00145	
323.15	.9402	.00174	
323.15	1	.00196	

System: aniline + 2-butanol; phases: Liquid
Fixed: Pressure, kPa = 100
Property: Mass density, kg/m3 (Liquid); method: Vibrating tube method
Temperature, K	Mole fraction of aniline	Mass density, kg/m3	uncertainty
293.15	0	806.7	
293.15	.0813	825	
293.15	.16	842.5	
293.15	.24	860.1	
293.15	.3502	884.2	
293.15	.44	903.7	
293.15	.5601	929.6	
293.15	.65	948.8	
293.15	.74	967.8	
293.15	.8499	990.8	
293.15	.94	1009.4	
293.15	1	1021.7	
298.15	0	802.7	
298.15	.0813	820.7	
298.15	.16	838.1	
298.15	.24	855.7	
298.15	.3502	879.7	
298.15	.44	899.2	
298.15	.5601	924.9	
298.15	.65	944.1	
298.15	.74	963.1	
298.15	.8499	986.2	
298.15	.94	1004.9	
298.15	1	1017.4	
303.15	0	798.4	
303.15	.0813	816.3	
303.15	.16	833.6	
303.15	.24	851.1	
303.15	.3502	875.1	
303.15	.44	894.5	
303.15	.5601	920.4	
303.15	.65	939.6	
303.15	.74	958.6	
303.15	.8499	981.8	
303.15	.94	1000.6	
303.15	1	1013.2	
308.15	0	794.1	
308.15	.0813	811.9	
308.15	.16	829.1	
308.15	.24	846.6	
308.15	.3502	870.5	
308.15	.44	890	
308.15	.5601	915.8	
308.15	.65	935	
308.15	.74	954.2	
308.15	.8499	977.4	
308.15	.94	996.4	
308.15	1	1009	
313.15	0	789.8	
313.15	.0813	807.5	
313.15	.16	824.7	
313.15	.24	842.1	
313.15	.3502	865.9	
313.15	.44	885.3	
313.15	.5601	911.2	
313.15	.65	930.5	
313.15	.74	949.6	
313.15	.8499	973	
313.15	.94	992	
313.15	1	1004.7	
318.15	0	785.2	
318.15	.0813	802.9	
318.15	.16	820	
318.15	.24	837.3	
318.15	.3502	861.1	
318.15	.44	880.5	
318.15	.5601	906.4	
318.15	.65	925.7	
318.15	.74	945	
318.15	.8499	968.5	
318.15	.94	987.6	
318.15	1	1000.4	
323.15	0	780.6	
323.15	.0813	798.2	
323.15	.16	815.2	
323.15	.24	832.5	
323.15	.3502	856.2	
323.15	.44	875.5	
323.15	.5601	901.3	
323.15	.65	920.7	
323.15	.74	940	
323.15	.8499	963.5	
323.15	.94	982.7	
323.15	1	995.5	

System: aniline + 2-butanol; phases: Liquid
Fixed: Pressure, kPa = 100
Property: Viscosity, Pa*s (Liquid); method: Concentric cylinders viscometry
Temperature, K	Mole fraction of aniline	Viscosity, Pa*s	uncertainty
293.15	0	.00367	
293.15	.0813	.00332	
293.15	.16	.00307	
293.15	.24	.00288	
293.15	.3502	.00271	
293.15	.44	.00266	
293.15	.5601	.00272	
293.15	.65	.00281	
293.15	.74	.003	
293.15	.8499	.0034	
293.15	.94	.00389	
293.15	1	.00437	
298.15	0	.00304	
298.15	.0813	.00277	
298.15	.16	.00255	
298.15	.24	.00239	
298.15	.3502	.00225	
298.15	.44	.00221	
298.15	.5601	.00224	
298.15	.65	.00233	
298.15	.74	.00252	
298.15	.8499	.00292	
298.15	.94	.00338	
298.15	1	.0038	
303.15	0	.00254	
303.15	.0813	.0023	
303.15	.16	.00212	
303.15	.24	.00197	
303.15	.3502	.00183	
303.15	.44	.00178	
303.15	.5601	.00177	
303.15	.65	.00183	
303.15	.74	.00197	
303.15	.8499	.00232	
303.15	.94	.00277	
303.15	1	.00313	
308.15	0	.00213	
308.15	.0813	.00194	
308.15	.16	.00181	
308.15	.24	.00169	
308.15	.3502	.00156	
308.15	.44	.00151	
308.15	.5601	.0015	
308.15	.65	.00155	
308.15	.74	.00169	
308.15	.8499	.00201	
308.15	.94	.00243	
308.15	1	.00275	
313.15	0	.0018	
313.15	.0813	.00165	
313.15	.16	.00152	
313.15	.24	.001416	
313.15	.3502	.00133	
313.15	.44	.00129	
313.15	.5601	.0013	
313.15	.65	.00135	
313.15	.74	.00149	
313.15	.8499	.00178	
313.15	.94	.00214	
313.15	1	.00243	
318.15	0	.00154	
318.15	.0813	.00142	
318.15	.16	.00131	
318.15	.24	.00121	
318.15	.3502	.00113	
318.15	.44	.00111	
318.15	.5601	.00113	
318.15	.65	.00119	
318.15	.74	.00131	
318.15	.8499	.00158	
318.15	.94	.0019	
318.15	1	.00214	
323.15	0	.00133	
323.15	.0813	.00124	
323.15	.16	.00115	
323.15	.24	.00107	
323.15	.3502	.001	
323.15	.44	.00099	
323.15	.5601	.001014	
323.15	.65	.001075	
323.15	.74	.001189	
323.15	.8499	.00146	
323.15	.94	.00175	
323.15	1	.00196	

System: aniline + 2-pentanol; phases: Liquid
Fixed: Pressure, kPa = 100
Property: Mass density, kg/m3 (Liquid); method: Vibrating tube method
Temperature, K	Mole fraction of aniline	Mass density, kg/m3	uncertainty
293.15	0	809.3	
293.15	.0811	824.5	
293.15	.1599	839.5	
293.15	.2399	855	
293.15	.35	877	
293.15	.44	895.5	
293.15	.56	920.8	
293.15	.65	940.4	
293.15	.74	960.5	
293.15	.8499	985.8	
293.15	.9363	1006.3	
293.15	1	1021.7	
298.15	0	805.3	
298.15	.0811	820.3	
298.15	.1599	835.3	
298.15	.2399	850.8	
298.15	.35	872.7	
298.15	.44	891.1	
298.15	.56	916.4	
298.15	.65	935.9	
298.15	.74	956	
298.15	.8499	981.4	
298.15	.9363	1001.9	
298.15	1	1017.4	
303.15	0	801.2	
303.15	.0811	816.1	
303.15	.1599	831	
303.15	.2399	846.5	
303.15	.35	868.3	
303.15	.44	886.7	
303.15	.56	912	
303.15	.65	931.6	
303.15	.74	951.7	
303.15	.8499	977	
303.15	.9363	997.6	
303.15	1	1013.2	
308.15	0	797	
308.15	.0811	811.8	
308.15	.1599	826.7	
308.15	.2399	842.1	
308.15	.35	863.9	
308.15	.44	882.3	
308.15	.56	907.6	
308.15	.65	927.1	
308.15	.74	947.2	
308.15	.8499	972.7	
308.15	.9363	993.3	
308.15	1	1009	
313.15	0	792.7	
313.15	.0811	807.5	
313.15	.1599	822.3	
313.15	.2399	837.6	
313.15	.35	859.4	
313.15	.44	877.8	
313.15	.56	903	
313.15	.65	922.6	
313.15	.74	942.8	
313.15	.8499	968.2	
313.15	.9363	989	
313.15	1	1004.7	
318.15	0	788.4	
318.15	.0811	803.1	
318.15	.1599	817.9	
318.15	.2399	833.2	
318.15	.35	854.9	
318.15	.44	873.3	
318.15	.56	898.6	
318.15	.65	918.1	
318.15	.74	938.3	
318.15	.8499	963.8	
318.15	.9363	984.6	
318.15	1	1000.4	
323.15	0	784	
323.15	.0811	798.7	
323.15	.1599	813.3	
323.15	.2399	828.6	
323.15	.35	850.2	
323.15	.44	868.5	
323.15	.56	893.7	
323.15	.65	913.3	
323.15	.74	933.4	
323.15	.8499	958.9	
323.15	.9363	979.7	
323.15	1	995.5	

System: aniline + 2-pentanol; phases: Liquid
Fixed: Pressure, kPa = 100
Property: Viscosity, Pa*s (Liquid); method: Concentric cylinders viscometry
Temperature, K	Mole fraction of aniline	Viscosity, Pa*s	uncertainty
293.15	0	.00397	
293.15	.0811	.00355	
293.15	.1599	.00323	
293.15	.2399	.003	
293.15	.35	.0028	
293.15	.44	.00271	
293.15	.56	.00267	
293.15	.65	.00272	
293.15	.74	.00286	
293.15	.8499	.00326	
293.15	.9363	.00379	
293.15	1	.00437	
298.15	0	.00344	
298.15	.0811	.00303	
298.15	.1599	.00274	
298.15	.2399	.00253	
298.15	.35	.00235	
298.15	.44	.00228	
298.15	.56	.00228	
298.15	.65	.00234	
298.15	.74	.00249	
298.15	.8499	.00287	
298.15	.9363	.00331	
298.15	1	.0038	
303.15	0	.00294	
303.15	.0811	.00261	
303.15	.1599	.00234	
303.15	.2399	.00212	
303.15	.35	.00193	
303.15	.44	.00186	
303.15	.56	.00183	
303.15	.65	.00187	
303.15	.74	.00201	
303.15	.8499	.00236	
303.15	.9363	.00274	
303.15	1	.00313	
308.15	0	.00248	
308.15	.0811	.00222	
308.15	.1599	.00198	
308.15	.2399	.0018	
308.15	.35	.00165	
308.15	.44	.00158	
308.15	.56	.001562	
308.15	.65	.00164	
308.15	.74	.00178	
308.15	.8499	.00209	
308.15	.9363	.00244	
308.15	1	.00275	
313.15	0	.00204	
313.15	.0811	.00184	
313.15	.1599	.00164	
313.15	.2399	.0015	
313.15	.35	.00139	
313.15	.44	.001359	
313.15	.56	.00138	
313.15	.65	.00146	
313.15	.74	.00161	
313.15	.8499	.00189	
313.15	.9363	.00218	
313.15	1	.00243	
318.15	0	.00165	
318.15	.0811	.00148	
318.15	.1599	.00134	
318.15	.2399	.001257	
318.15	.35	.00118	
318.15	.44	.00116	
318.15	.56	.00121	
318.15	.65	.00129	
318.15	.74	.00144	
318.15	.8499	.0017	
318.15	.9363	.00193	
318.15	1	.00214	
323.15	0	.00129	
323.15	.0811	.00119	
323.15	.1599	.00111	
323.15	.2399	.00106	
323.15	.35	.00103	
323.15	.44	.00103	
323.15	.56	.00108	
323.15	.65	.00117	
323.15	.74	.00131	
323.15	.8499	.00154	
323.15	.9363	.00177	
323.15	1	.00196	
