Measured thermophysical data. Solubility Measurement and Simulation of Rivaroxaban (Form I) in Solvent Mixtures from 273.15 to 323.15 K
Source: J. Chem. Eng. Data, 2016, 10.1021/acs.jced.5b00667
Compound 1: 1-methyl-2-pyrrolidinone, C5H9NO, purity 99.5%
Compound 2: water, H2O, purity 99.9%
Compound 3: methanol, CH4O, purity 99.5%
Compound 4: ethanol, C2H6O, purity 99.5%
Compound 5: isopropanol, C3H8O, purity 99.5%
Compound 6: (S)-5-chloro-N-((2-oxo-3-(4-(3-oxomorpholino)phenyl)oxazolidin-5-yl)methyl)thiophene-2-carboxamide, C19H18ClN3O5S, purity 99.5%

System: (S)-5-chloro-N-((2-oxo-3-(4-(3-oxomorpholino)phenyl)oxazolidin-5-yl)methyl)thiophene-2-carboxamide; phases: Crystal, Liquid, Air at 1 atmosphere
Property: Triple point temperature, K (Crystal); method: DSC
Triple point temperature, K	uncertainty
508.55	.5

System: (S)-5-chloro-N-((2-oxo-3-(4-(3-oxomorpholino)phenyl)oxazolidin-5-yl)methyl)thiophene-2-carboxamide; phases: Crystal, Liquid, Air at 1 atmosphere
Property: Molar enthalpy of transition or fusion, kJ/mol (Crystal); method: DSC
Molar enthalpy of transition or fusion, kJ/mol	uncertainty
46.85	.93

System: 1-methyl-2-pyrrolidinone + water + (S)-5-chloro-N-((2-oxo-3-(4-(3-oxomorpholino)phenyl)oxazolidin-5-yl)methyl)thiophene-2-carboxamide; phases: Liquid, Crystal
Fixed: Pressure, kPa = 101.3
Property: Mole fraction of (S)-5-chloro-N-((2-oxo-3-(4-(3-oxomorpholino)phenyl)oxazolidin-5-yl)methyl)thiophene-2-carboxamide (Liquid); method: gravimetric
Solvent: Mole fraction of water	Temperature, K	Mole fraction of (S)-5-chloro-N-((2-oxo-3-(4-(3-oxomorpholino)phenyl)oxazolidin-5-yl)methyl)thiophene-2-carboxamide	uncertainty
0	273.15	.0068413	.000342065
0	278.15	.0073515	.000367575
0	283.15	.0078886	.00039443
0	288.15	.0084535	.000422675
0	293.15	.0090471	.000452355
0	298.15	.0096702	.00048351
0	303.15	.0103236	.00051618
0	308.15	.0110084	.00055042
0	313.15	.0117254	.00058627
0	318.15	.0124755	.000623775
0	323.15	.0132597	.000662985
.2	273.15	.0019302	.00009651
.2	278.15	.0020703	.000103515
.2	283.15	.002288	.0001144
.2	288.15	.0023939	.000119695
.2	293.15	.0025785	.000128925
.2	298.15	.002792	.0001396
.2	303.15	.0029677	.000148385
.2	308.15	.0032128	.00016064
.2	313.15	.003516	.0001758
.2	318.15	.0038103	.000190515
.2	323.15	.0040865	.000204325
.4	273.15	.0007693	.000038465
.4	278.15	.0008675	.000043375
.4	283.15	.0009303	.000046515
.4	288.15	.0009781	.000048905
.4	293.15	.0010807	.000054035
.4	298.15	.0011826	.00005913
.4	303.15	.0012421	.000062105
.4	308.15	.00136	.000068
.4	313.15	.0014739	.000073695
.4	318.15	.0015482	.00007741
.4	323.15	.0015807	.000079035
.6	273.15	.0002975	.000014875
.6	278.15	.0003288	.00001644
.6	283.15	.0003523	.000017615
.6	288.15	.000378	.0000189
.6	293.15	.000418	.0000209
.6	298.15	.000462	.0000231
.6	303.15	.0005005	.000025025
.6	308.15	.0005315	.000026575
.6	313.15	.0005867	.000029335
.6	318.15	.0006114	.00003057
.6	323.15	.000662	.0000331
.8	273.15	.0001128	.00000564
.8	278.15	.0001285	.000006425
.8	283.15	.0001392	.00000696
.8	288.15	.0001553	.000007765
.8	293.15	.0001734	.00000867
.8	298.15	.0001878	.00000939
.8	303.15	.0002097	.000010485
.8	308.15	.0002249	.000011245
.8	313.15	.0002387	.000011935
.8	318.15	.0002546	.00001273
.8	323.15	.0002735	.000013675
1	273.15	.0000507	.000002535
1	278.15	.0000577	.000002885
1	283.15	.0000632	.00000316
1	288.15	.0000712	.00000356
1	293.15	.0000787	.000003935
1	298.15	.0000871	.000004355
1	303.15	.0000904	.00000452
1	308.15	.0000997	.000004985
1	313.15	.0001057	.000005285
1	318.15	.0001137	.000005685
1	323.15	.0001233	.000006165

System: methanol + 1-methyl-2-pyrrolidinone + (S)-5-chloro-N-((2-oxo-3-(4-(3-oxomorpholino)phenyl)oxazolidin-5-yl)methyl)thiophene-2-carboxamide; phases: Liquid, Crystal
Fixed: Pressure, kPa = 101.3
Property: Mole fraction of (S)-5-chloro-N-((2-oxo-3-(4-(3-oxomorpholino)phenyl)oxazolidin-5-yl)methyl)thiophene-2-carboxamide (Liquid); method: gravimetric
Solvent: Mole fraction of methanol	Temperature, K	Mole fraction of (S)-5-chloro-N-((2-oxo-3-(4-(3-oxomorpholino)phenyl)oxazolidin-5-yl)methyl)thiophene-2-carboxamide	uncertainty
0	273.15	.0068413	.000342065
0	278.15	.0073515	.000367575
0	283.15	.0078886	.00039443
0	288.15	.0084535	.000422675
0	293.15	.0090471	.000452355
0	298.15	.0096702	.00048351
0	303.15	.0103236	.00051618
0	308.15	.0110084	.00055042
0	313.15	.0117254	.00058627
0	318.15	.0124755	.000623775
0	323.15	.0132597	.000662985
.2	273.15	.0035119	.000175595
.2	278.15	.0037667	.000188335
.2	283.15	.0040787	.000203935
.2	288.15	.0044225	.000221125
.2	293.15	.0047242	.00023621
.2	298.15	.0049653	.000248265
.2	303.15	.0054496	.00027248
.2	308.15	.0057887	.000289435
.2	313.15	.0062585	.000312925
.2	318.15	.0066044	.00033022
.2	323.15	.0070246	.00035123
.4	273.15	.0018596	.00009298
.4	278.15	.0020491	.000102455
.4	283.15	.0021946	.00010973
.4	288.15	.0023722	.00011861
.4	293.15	.0025698	.00012849
.4	298.15	.0028105	.000140525
.4	303.15	.0029787	.000148935
.4	308.15	.0032367	.000161835
.4	313.15	.0034675	.000173375
.4	318.15	.0037766	.00018883
.4	323.15	.0039827	.000199135
.6	273.15	.001028	.0000514
.6	278.15	.0011485	.000057425
.6	283.15	.0012489	.000062445
.6	288.15	.001382	.0000691
.6	293.15	.0014932	.00007466
.6	298.15	.0016292	.00008146
.6	303.15	.0017463	.000087315
.6	308.15	.0019492	.00009746
.6	313.15	.0021107	.000105535
.6	318.15	.0022702	.00011351
.6	323.15	.0024426	.00012213
.8	273.15	.0005476	.00002738
.8	278.15	.0006232	.00003116
.8	283.15	.0006957	.000034785
.8	288.15	.0008007	.000040035
.8	293.15	.0008935	.000044675
.8	298.15	.0009868	.00004934
.8	303.15	.0010911	.000054555
.8	308.15	.0012186	.00006093
.8	313.15	.00136	.000068
.8	318.15	.0014735	.000073675
.8	323.15	.0015962	.00007981
1	273.15	.0004098	.00002049
1	278.15	.0004713	.000023565
1	283.15	.000542	.0000271
1	288.15	.0006174	.00003087
1	293.15	.0006957	.000034785
1	298.15	.0007766	.00003883
1	303.15	.0008585	.000042925
1	308.15	.0009676	.00004838
1	313.15	.0010805	.000054025
1	318.15	.0011945	.000059725
1	323.15	.001333	.00006665

System: ethanol + 1-methyl-2-pyrrolidinone + (S)-5-chloro-N-((2-oxo-3-(4-(3-oxomorpholino)phenyl)oxazolidin-5-yl)methyl)thiophene-2-carboxamide; phases: Liquid, Crystal
Fixed: Pressure, kPa = 101.3
Property: Mole fraction of (S)-5-chloro-N-((2-oxo-3-(4-(3-oxomorpholino)phenyl)oxazolidin-5-yl)methyl)thiophene-2-carboxamide (Liquid); method: gravimetric
Solvent: Mole fraction of ethanol	Temperature, K	Mole fraction of (S)-5-chloro-N-((2-oxo-3-(4-(3-oxomorpholino)phenyl)oxazolidin-5-yl)methyl)thiophene-2-carboxamide	uncertainty
0	273.15	.0068413	.000342065
0	278.15	.0073515	.000367575
0	283.15	.0078886	.00039443
0	288.15	.0084535	.000422675
0	293.15	.0090471	.000452355
0	298.15	.0096702	.00048351
0	303.15	.0103236	.00051618
0	308.15	.0110084	.00055042
0	313.15	.0117254	.00058627
0	318.15	.0124755	.000623775
0	323.15	.0132597	.000662985
.2	273.15	.0025299	.000126495
.2	278.15	.0027958	.00013979
.2	283.15	.0029659	.000148295
.2	288.15	.0032461	.000162305
.2	293.15	.0035141	.000175705
.2	298.15	.0037722	.00018861
.2	303.15	.0041682	.00020841
.2	308.15	.00448	.000224
.2	313.15	.00491	.0002455
.2	318.15	.00528	.000264
.2	323.15	.0057423	.000287115
.4	273.15	.0011477	.000057385
.4	278.15	.001294	.0000647
.4	283.15	.001416	.0000708
.4	288.15	.0015965	.000079825
.4	293.15	.0017469	.000087345
.4	298.15	.0019113	.000095565
.4	303.15	.002091	.00010455
.4	308.15	.0022655	.000113275
.4	313.15	.0024788	.00012394
.4	318.15	.0027113	.000135565
.4	323.15	.0029687	.000148435
.6	273.15	.0006231	.000031155
.6	278.15	.0006957	.000034785
.6	283.15	.0007694	.00003847
.6	288.15	.0008674	.00004337
.6	293.15	.0009587	.000047935
.6	298.15	.001059	.00005295
.6	303.15	.0011821	.000059105
.6	308.15	.0013175	.000065875
.6	313.15	.0014202	.00007101
.6	318.15	.0015455	.000077275
.6	323.15	.0016349	.000081745
.8	273.15	.0003562	.00001781
.8	278.15	.0003972	.00001986
.8	283.15	.0004483	.000022415
.8	288.15	.0005052	.00002526
.8	293.15	.0005641	.000028205
.8	298.15	.0006361	.000031805
.8	303.15	.0007172	.00003586
.8	308.15	.0008085	.000040425
.8	313.15	.0008848	.00004424
.8	318.15	.0009875	.000049375
.8	323.15	.0010914	.00005457
1	273.15	.0002639	.000013195
1	278.15	.0003006	.00001503
1	283.15	.0003423	.000017115
1	288.15	.0003858	.00001929
1	293.15	.0004396	.00002198
1	298.15	.0004904	.00002452
1	303.15	.0005364	.00002682
1	308.15	.0005991	.000029955
1	313.15	.000662	.0000331
1	318.15	.0007466	.00003733
1	323.15	.0008335	.000041675

System: isopropanol + 1-methyl-2-pyrrolidinone + (S)-5-chloro-N-((2-oxo-3-(4-(3-oxomorpholino)phenyl)oxazolidin-5-yl)methyl)thiophene-2-carboxamide; phases: Liquid, Crystal
Fixed: Pressure, kPa = 101.3
Property: Mole fraction of (S)-5-chloro-N-((2-oxo-3-(4-(3-oxomorpholino)phenyl)oxazolidin-5-yl)methyl)thiophene-2-carboxamide (Liquid); method: gravimetric
Solvent: Mole fraction of isopropanol	Temperature, K	Mole fraction of (S)-5-chloro-N-((2-oxo-3-(4-(3-oxomorpholino)phenyl)oxazolidin-5-yl)methyl)thiophene-2-carboxamide	uncertainty
0	273.15	.0068413	.000342065
0	278.15	.0073515	.000367575
0	283.15	.0078886	.00039443
0	288.15	.0084535	.000422675
0	293.15	.0090471	.000452355
0	298.15	.0096702	.00048351
0	303.15	.0103236	.00051618
0	308.15	.0110084	.00055042
0	313.15	.0117254	.00058627
0	318.15	.0124755	.000623775
0	323.15	.0132597	.000662985
.2	273.15	.0023109	.000115545
.2	278.15	.0024784	.00012392
.2	283.15	.002685	.00013425
.2	288.15	.0029372	.00014686
.2	293.15	.0032787	.000163935
.2	298.15	.00354	.000177
.2	303.15	.0038881	.000194405
.2	308.15	.00422	.000211
.2	313.15	.00465	.0002325
.2	318.15	.0050402	.00025201
.2	323.15	.00547	.0002735
.4	273.15	.0009582	.00004791
.4	278.15	.0010703	.000053515
.4	283.15	.0012188	.00006094
.4	288.15	.0013878	.00006939
.4	293.15	.0015874	.00007937
.4	298.15	.0017483	.000087415
.4	303.15	.0019117	.000095585
.4	308.15	.0021299	.000106495
.4	313.15	.0023543	.000117715
.4	318.15	.0025112	.00012556
.4	323.15	.0026586	.00013293
.6	273.15	.0004381	.000021905
.6	278.15	.0004906	.00002453
.6	283.15	.000548	.0000274
.6	288.15	.0006237	.000031185
.6	293.15	.0007245	.000036225
.6	298.15	.0008251	.000041255
.6	303.15	.0009118	.00004559
.6	308.15	.0010271	.000051355
.6	313.15	.0011697	.000058485
.6	318.15	.0012827	.000064135
.6	323.15	.0013969	.000069845
.8	273.15	.0001992	.00000996
.8	278.15	.0002488	.00001244
.8	283.15	.0002745	.000013725
.8	288.15	.0003157	.000015785
.8	293.15	.0003594	.00001797
.8	298.15	.0004097	.000020485
.8	303.15	.0004574	.00002287
.8	308.15	.0005309	.000026545
.8	313.15	.0006036	.00003018
.8	318.15	.0006801	.000034005
.8	323.4	.0007526	.00003763
1	273.15	.0001463	.000007315
1	278.15	.0001734	.00000867
1	283.15	.0001991	.000009955
1	288.15	.0002349	.000011745
1	293.15	.0002636	.00001318
1	298.15	.0002928	.00001464
1	303.15	.0003261	.000016305
1	308.15	.0003707	.000018535
1	313.15	.0004262	.00002131
1	318.15	.0004937	.000024685
1	323.15	.0005582	.00002791

System: 1-methyl-2-pyrrolidinone + (S)-5-chloro-N-((2-oxo-3-(4-(3-oxomorpholino)phenyl)oxazolidin-5-yl)methyl)thiophene-2-carboxamide; phases: Liquid, Crystal
Property: Mole fraction of (S)-5-chloro-N-((2-oxo-3-(4-(3-oxomorpholino)phenyl)oxazolidin-5-yl)methyl)thiophene-2-carboxamide (Liquid); method: gravimetric
Temperature, K	Pressure, kPa	Mole fraction of (S)-5-chloro-N-((2-oxo-3-(4-(3-oxomorpholino)phenyl)oxazolidin-5-yl)methyl)thiophene-2-carboxamide	uncertainty
273.15	101.3	.0068413	.000342065
278.15	101.3	.0073515	.000367575
283.15	101.3	.0078886	.00039443
288.15	101.3	.0084535	.000422675
293.15	101.3	.0090471	.000452355
298.15	101.3	.0096702	.00048351
303.15	101.3	.0103236	.00051618
308.15	101.3	.0110084	.00055042
313.15	101.3	.0117254	.00058627
318.15	101.3	.0124755	.000623775
323.15	101.3	.0132597	.000662985

System: water + (S)-5-chloro-N-((2-oxo-3-(4-(3-oxomorpholino)phenyl)oxazolidin-5-yl)methyl)thiophene-2-carboxamide; phases: Liquid, Crystal
Property: Mole fraction of (S)-5-chloro-N-((2-oxo-3-(4-(3-oxomorpholino)phenyl)oxazolidin-5-yl)methyl)thiophene-2-carboxamide (Liquid); method: gravimetric
Temperature, K	Pressure, kPa	Mole fraction of (S)-5-chloro-N-((2-oxo-3-(4-(3-oxomorpholino)phenyl)oxazolidin-5-yl)methyl)thiophene-2-carboxamide	uncertainty
273.15	101.3	.0000507	.000002535
278.15	101.3	.0000577	.000002885
283.15	101.3	.0000632	.00000316
288.15	101.3	.0000712	.00000356
293.15	101.3	.0000787	.000003935
298.15	101.3	.0000871	.000004355
303.15	101.3	.0000904	.00000452
308.15	101.3	.0000997	.000004985
313.15	101.3	.0001057	.000005285
318.15	101.3	.0001137	.000005685
323.15	101.3	.0001233	.000006165

System: methanol + (S)-5-chloro-N-((2-oxo-3-(4-(3-oxomorpholino)phenyl)oxazolidin-5-yl)methyl)thiophene-2-carboxamide; phases: Liquid, Crystal
Property: Mole fraction of (S)-5-chloro-N-((2-oxo-3-(4-(3-oxomorpholino)phenyl)oxazolidin-5-yl)methyl)thiophene-2-carboxamide (Liquid); method: gravimetric
Temperature, K	Pressure, kPa	Mole fraction of (S)-5-chloro-N-((2-oxo-3-(4-(3-oxomorpholino)phenyl)oxazolidin-5-yl)methyl)thiophene-2-carboxamide	uncertainty
273.15	101.3	.0004098	.00002049
278.15	101.3	.0004713	.000023565
283.15	101.3	.000542	.0000271
288.15	101.3	.0006174	.00003087
293.15	101.3	.0006957	.000034785
298.15	101.3	.0007766	.00003883
303.15	101.3	.0008585	.000042925
308.15	101.3	.0009676	.00004838
313.15	101.3	.0010805	.000054025
318.15	101.3	.0011945	.000059725
323.15	101.3	.001333	.00006665

System: ethanol + (S)-5-chloro-N-((2-oxo-3-(4-(3-oxomorpholino)phenyl)oxazolidin-5-yl)methyl)thiophene-2-carboxamide; phases: Liquid, Crystal
Property: Mole fraction of (S)-5-chloro-N-((2-oxo-3-(4-(3-oxomorpholino)phenyl)oxazolidin-5-yl)methyl)thiophene-2-carboxamide (Liquid); method: gravimetric
Temperature, K	Pressure, kPa	Mole fraction of (S)-5-chloro-N-((2-oxo-3-(4-(3-oxomorpholino)phenyl)oxazolidin-5-yl)methyl)thiophene-2-carboxamide	uncertainty
273.15	101.3	.0002639	.000013195
278.15	101.3	.0003006	.00001503
283.15	101.3	.0003423	.000017115
288.15	101.3	.0003858	.00001929
293.15	101.3	.0004396	.00002198
298.15	101.3	.0004904	.00002452
303.15	101.3	.0005364	.00002682
308.15	101.3	.0005991	.000029955
313.15	101.3	.000662	.0000331
318.15	101.3	.0007466	.00003733
323.15	101.3	.0008335	.000041675

System: isopropanol + (S)-5-chloro-N-((2-oxo-3-(4-(3-oxomorpholino)phenyl)oxazolidin-5-yl)methyl)thiophene-2-carboxamide; phases: Liquid, Crystal
Property: Mole fraction of (S)-5-chloro-N-((2-oxo-3-(4-(3-oxomorpholino)phenyl)oxazolidin-5-yl)methyl)thiophene-2-carboxamide (Liquid); method: gravimetric
Temperature, K	Pressure, kPa	Mole fraction of (S)-5-chloro-N-((2-oxo-3-(4-(3-oxomorpholino)phenyl)oxazolidin-5-yl)methyl)thiophene-2-carboxamide	uncertainty
273.15	101.3	.0001463	.000007315
278.15	101.3	.0001734	.00000867
283.15	101.3	.0001991	.000009955
288.15	101.3	.0002349	.000011745
293.15	101.3	.0002636	.00001318
298.15	101.3	.0002928	.00001464
303.15	101.3	.0003261	.000016305
308.15	101.3	.0003707	.000018535
313.15	101.3	.0004262	.00002131
318.15	101.3	.0004937	.000024685
323.15	101.3	.0005582	.00002791
