Measured thermophysical data. Hexafluorosilicate Salts in Wet Phosphoric Acid Processes: Properties of X2SiF6 H2O with X = Na+, K+, or NH4+ in Aqueous Solutions at 353.15 K
Source: J. Chem. Eng. Data, 2016, 10.1021/acs.jced.5b00866
Compound 1: sodium chloride, ClNa, purity 99.5%
Compound 2: sodium hexafluorosilicate, F6Na2Si, purity 97%
Compound 3: dipotassium hexafluorosilicate, F6K2Si, purity 99%
Compound 4: ammonium hexafluorosilicate, F6H8N2Si, purity 98%
Compound 5: water, H2O, purity 99.8%

System: water + sodium hexafluorosilicate; phases: Liquid
Fixed: Temperature, K = 353.15
Fixed: Pressure, kPa = 100
Property: (Relative) activity of water (Liquid); method: Other
Molality, mol/kg of sodium hexafluorosilicate	(Relative) activity of water	uncertainty
.05	.9979	
.06	.9974	
.07	.997	
.08	.9966	
.09	.9962	
.1	.9958	
.11	.9953	
.12	.9949	
.13	.9945	
.14	.994	
.15	.9935	
.16	.9931	
.17	.9926	
.18	.9921	
.19	.9916	
.2	.9911	
.21	.9905	
.22	.99	
.25	.9883	

System: water + sodium hexafluorosilicate; phases: Liquid, Crystal
Property: Molality, mol/kg of sodium hexafluorosilicate (Liquid); method: titration
Temperature, K	Pressure, kPa	Molality, mol/kg of sodium hexafluorosilicate	uncertainty
353.15	100	.25	

System: water + dipotassium hexafluorosilicate; phases: Liquid
Fixed: Temperature, K = 353.15
Fixed: Pressure, kPa = 100
Property: (Relative) activity of water (Liquid); method: Other
Molality, mol/kg of dipotassium hexafluorosilicate	(Relative) activity of water	uncertainty
.05	.9981	
.06	.9977	
.07	.9974	
.08	.9971	
.09	.9967	
.1	.9964	
.11	.9961	
.12	.9957	
.13	.9954	
.14	.995	
.15	.9947	
.16	.9943	
.17	.9939	
.18	.9935	
.19	.9931	
.2	.9927	
.21	.9923	
.22	.9918	
.25	.9904	
.27	.9895	
.3	.9879	

System: water + dipotassium hexafluorosilicate; phases: Liquid, Crystal
Property: Molality, mol/kg of dipotassium hexafluorosilicate (Liquid); method: titration
Temperature, K	Pressure, kPa	Molality, mol/kg of dipotassium hexafluorosilicate	uncertainty
353.15	100	.3	

System: water + ammonium hexafluorosilicate; phases: Liquid
Fixed: Temperature, K = 353.15
Fixed: Pressure, kPa = 100
Property: (Relative) activity of water (Liquid); method: Other
Molality, mol/kg of ammonium hexafluorosilicate	(Relative) activity of water	uncertainty
.05	.9982	
.06	.9979	
.07	.9977	
.08	.9974	
.09	.9972	
.1	.9969	
.11	.9967	
.12	.9964	
.13	.9962	
.14	.9959	
.15	.9956	
.16	.9954	
.17	.9951	
.18	.9948	
.19	.9946	
.2	.9943	
.21	.994	
.22	.9937	

System: water + ammonium hexafluorosilicate; phases: Liquid, Crystal
Property: Molality, mol/kg of ammonium hexafluorosilicate (Liquid); method: titration
Temperature, K	Pressure, kPa	Molality, mol/kg of ammonium hexafluorosilicate	uncertainty
353.15	100	.22	
