Measured thermophysical data. The Vaporization Enthalpy and vapor Pressure of Fenpropidin and Phencyclidine (PCP) at T/K = 298.15 by Correlation Gas Chromatography
Source: J. Chem. Eng. Data, 2016, 10.1021/acs.jced.5b00737
Compound 1: 1-(1-phenylcyclohexyl)piperidine, C17H25N, purity 99%
Compound 2: 1-(3-(4-(tert-butyl)phenyl)-2-methylpropyl)piperidine, C19H31N, purity 97%

System: 1-(1-phenylcyclohexyl)piperidine; phases: Liquid, Gas
Property: Molar enthalpy of vaporization or sublimation, kJ/mol (Liquid); method: Correlation gas chromatography
Temperature, K	Molar enthalpy of vaporization or sublimation, kJ/mol	uncertainty
298	77.6	2.1

System: 1-(1-phenylcyclohexyl)piperidine; phases: Liquid, Gas
Property: Vapor or sublimation pressure, kPa (Liquid); method: Gas chromatography
Temperature, K	Vapor or sublimation pressure, kPa	uncertainty
298.15	.00003	.000006

System: 1-(3-(4-(tert-butyl)phenyl)-2-methylpropyl)piperidine; phases: Liquid, Gas
Property: Molar enthalpy of vaporization or sublimation, kJ/mol (Liquid); method: Correlation gas chromatography
Temperature, K	Molar enthalpy of vaporization or sublimation, kJ/mol	uncertainty
298	80.9	1.6

System: 1-(3-(4-(tert-butyl)phenyl)-2-methylpropyl)piperidine; phases: Liquid, Gas
Property: Vapor or sublimation pressure, kPa (Liquid); method: Gas chromatography
Temperature, K	Vapor or sublimation pressure, kPa	uncertainty
298.15	.000016	.000004
