Measured thermophysical data. Solubility Measurement and Modeling of 4,4'-Dihydroxydiphenyl Sulfone in Nine Organic Solvents from T = (278.15 to 313.15) K and Thermodynamic Property of Dissolution
Source: J. Chem. Eng. Data, 2016, 10.1021/acs.jced.5b00714
Compound 1: 4,4'-sulfonyldiphenol, C12H10O4S
Compound 2: acetonitrile, C2H3N, purity 99.6%
Compound 3: methanol, CH4O, purity 99.5%
Compound 4: ethanol, C2H6O, purity 99.7%
Compound 5: trichloromethane, CHCl3, purity 99.4%
Compound 6: isopropanol, C3H8O, purity 99.7%
Compound 7: acetone, C3H6O, purity 99.5%
Compound 8: toluene, C7H8, purity 99.6%
Compound 9: ethyl acetate, C4H8O2, purity 99.6%
Compound 10: 1-butanol, C4H10O, purity 99.5%
Compound 11: n-propanol, C3H8O
Compound 12: 2-methyl-1-propanol, C4H10O

System: acetonitrile + 4,4'-sulfonyldiphenol; phases: Liquid, Crystal
Fixed: Pressure, kPa = 101.3
Property: Mole fraction of 4,4'-sulfonyldiphenol (Liquid); method: Chromatography
Temperature, K	Mole fraction of 4,4'-sulfonyldiphenol	uncertainty
278.15	.003163	.00006326
280.65	.003529	.00007058
283.15	.00391	.0000782
285.65	.004342	.00008684
288.15	.004892	.00009784
290.65	.005648	.00011296
293.15	.006548	.00013096
295.65	.007394	.00014788
298.15	.008195	.0001639
300.65	.009107	.00018214
303.15	.0101	.000202
305.65	.01121	.0002242
308.15	.01259	.0002518
310.65	.01395	.000279
313.15	.01528	.0003056

System: methanol + 4,4'-sulfonyldiphenol; phases: Liquid, Crystal
Fixed: Pressure, kPa = 101.3
Property: Mole fraction of 4,4'-sulfonyldiphenol (Liquid); method: Chromatography
Temperature, K	Mole fraction of 4,4'-sulfonyldiphenol	uncertainty
278.15	.0001789	.000003578
280.65	.0002081	.000004162
283.15	.0002446	.000004892
285.65	.0002927	.000005854
288.15	.0003421	.000006842
290.65	.0004028	.000008056
293.15	.0004698	.000009396
295.65	.0005557	.000011114
298.15	.000648	.00001296
300.65	.000754	.00001508
303.15	.0008707	.000017414
305.65	.0009898	.000019796
308.15	.001124	.00002248
310.65	.001255	.0000251
313.15	.001411	.00002822

System: ethanol + 4,4'-sulfonyldiphenol; phases: Liquid, Crystal
Fixed: Pressure, kPa = 101.3
Property: Mole fraction of 4,4'-sulfonyldiphenol (Liquid); method: Chromatography
Temperature, K	Mole fraction of 4,4'-sulfonyldiphenol	uncertainty
278.15	.0002134	.000004268
280.65	.0002543	.000005086
283.15	.0002909	.000005818
285.65	.0003369	.000006738
288.15	.0003887	.000007774
290.65	.0004502	.000009004
293.15	.0005305	.00001061
295.65	.0006147	.000012294
298.15	.0007146	.000014292
300.65	.0008148	.000016296
303.15	.0009241	.000018482
305.65	.001045	.0000209
308.15	.001177	.00002354
310.65	.001295	.0000259
313.15	.00142	.0000284

System: n-propanol + 4,4'-sulfonyldiphenol; phases: Liquid, Crystal
Fixed: Pressure, kPa = 101.3
Property: Mole fraction of 4,4'-sulfonyldiphenol (Liquid); method: Chromatography
Temperature, K	Mole fraction of 4,4'-sulfonyldiphenol	uncertainty
278.15	.0001826	.000003652
280.65	.0002114	.000004228
283.15	.0002539	.000005078
285.65	.000306	.00000612
288.15	.0003616	.000007232
290.65	.0004258	.000008516
293.15	.0005007	.000010014
295.65	.0006003	.000012006
298.15	.0007131	.000014262
300.65	.0008315	.00001663
303.15	.0009671	.000019342
305.65	.001114	.00002228
308.15	.001288	.00002576
310.65	.001458	.00002916
313.15	.001663	.00003326

System: isopropanol + 4,4'-sulfonyldiphenol; phases: Liquid, Crystal
Fixed: Pressure, kPa = 101.3
Property: Mole fraction of 4,4'-sulfonyldiphenol (Liquid); method: Chromatography
Temperature, K	Mole fraction of 4,4'-sulfonyldiphenol	uncertainty
278.15	.0000912	.000001824
280.65	.0001188	.000002376
283.15	.0001431	.000002862
285.65	.0001707	.000003414
288.15	.0002049	.000004098
290.65	.0002501	.000005002
293.15	.0003094	.000006188
295.65	.000375	.0000075
298.15	.0004536	.000009072
300.65	.0005512	.000011024
303.15	.0006492	.000012984
305.65	.0007801	.000015602
308.15	.0009113	.000018226
310.65	.001069	.00002138
313.15	.001252	.00002504

System: acetone + 4,4'-sulfonyldiphenol; phases: Liquid, Crystal
Fixed: Pressure, kPa = 101.3
Property: Mole fraction of 4,4'-sulfonyldiphenol (Liquid); method: Chromatography
Temperature, K	Mole fraction of 4,4'-sulfonyldiphenol	uncertainty
278.15	.01026	.0002052
280.65	.01134	.0002268
283.15	.0127	.000254
285.65	.01398	.0002796
288.15	.01529	.0003058
290.65	.01687	.0003374
293.15	.01887	.0003774
295.65	.02088	.0004176
298.15	.02279	.0004558
300.65	.02475	.000495
303.15	.02681	.0005362
305.65	.02876	.0005752
308.15	.03079	.0006158
310.65	.03287	.0006574
313.15	.03513	.0007026

System: 1-butanol + 4,4'-sulfonyldiphenol; phases: Liquid, Crystal
Fixed: Pressure, kPa = 101.3
Property: Mole fraction of 4,4'-sulfonyldiphenol (Liquid); method: Chromatography
Temperature, K	Mole fraction of 4,4'-sulfonyldiphenol	uncertainty
278.15	.0002269	.000004538
280.65	.0002694	.000005388
283.15	.0003134	.000006268
285.65	.0003595	.00000719
288.15	.0004141	.000008282
290.65	.0004763	.000009526
293.15	.0005597	.000011194
295.65	.000653	.00001306
298.15	.0007592	.000015184
300.65	.0008732	.000017464
303.15	.001019	.00002038
305.65	.001173	.00002346
308.15	.00135	.000027
310.65	.001522	.00003044
313.15	.001723	.00003446

System: 2-methyl-1-propanol + 4,4'-sulfonyldiphenol; phases: Liquid, Crystal
Fixed: Pressure, kPa = 101.3
Property: Mole fraction of 4,4'-sulfonyldiphenol (Liquid); method: Chromatography
Temperature, K	Mole fraction of 4,4'-sulfonyldiphenol	uncertainty
278.15	.0001156	.000002312
280.65	.0001442	.000002884
283.15	.0001743	.000003486
285.65	.000213	.00000426
288.15	.000255	.0000051
290.65	.0003099	.000006198
293.15	.0003864	.000007728
295.65	.0004638	.000009276
298.15	.0005554	.000011108
300.65	.0006643	.000013286
303.15	.0007958	.000015916
305.65	.0009531	.000019062
308.15	.001125	.0000225
310.65	.001314	.00002628
313.15	.001516	.00003032

System: 4,4'-sulfonyldiphenol + ethyl acetate; phases: Liquid, Crystal
Fixed: Pressure, kPa = 101.3
Property: Mole fraction of 4,4'-sulfonyldiphenol (Liquid); method: Chromatography
Temperature, K	Mole fraction of 4,4'-sulfonyldiphenol	uncertainty
278.15	.00539	.0001078
280.65	.005985	.0001197
283.15	.006603	.00013206
285.65	.007352	.00014704
288.15	.008427	.00016854
290.65	.009416	.00018832
293.15	.01066	.0002132
295.65	.012	.00024
298.15	.01364	.0002728
300.65	.01556	.0003112
303.15	.0174	.000348
305.65	.01945	.000389
308.15	.02145	.000429
310.65	.02354	.0004708
313.15	.02609	.0005218
