Measured thermophysical data. Solubility of Benzoic Acid and Aspirin in Pure Solvents Using Focused Beam Reflective Measurement
Source: J. Chem. Eng. Data, 2016, 10.1021/acs.jced.5b00746
Compound 1: benzoic acid, C7H6O2, purity 99.5%
Compound 2: aspirin, C9H8O4, purity 99.0%
Compound 3: methanol, CH4O, purity 99.8%
Compound 4: 1-propanol, C3H8O, purity 99.5%
Compound 5: 1-butanol, C4H10O, purity 99.5%
Compound 6: isobutanol, C4H10O, purity 99.0%
Compound 7: ethyl acetate, C4H8O2, purity 99.0%
Compound 8: isopropyl acetate, C5H10O2, purity 98.0%
Compound 9: isobutyl acetate, C6H12O2, purity 99.0%
Compound 10: methyl ethyl ketone, C4H8O, purity 99.5%
Compound 11: methyl isobutyl ketone, C6H12O, purity 99.0%

System: benzoic acid + methanol; phases: Liquid, Crystal
Fixed: Pressure, kPa = 100
Property: Mole fraction of benzoic acid (Liquid); method: Visual
Temperature, K	Mole fraction of benzoic acid	uncertainty
278	.111	.0001
285.5	.1285	.0001
292.23	.1454	.0001
298.99	.1637	.0001
304.78	.1804	.0001
312.56	.2044	.0001
319.32	.227	.0001
323.49	.2412	.0001

System: benzoic acid + 1-propanol; phases: Liquid, Crystal
Fixed: Pressure, kPa = 100
Property: Mole fraction of benzoic acid (Liquid); method: Visual
Temperature, K	Mole fraction of benzoic acid	uncertainty
279.06	.1186	.0001
284.15	.1327	.0001
289.26	.1478	.0001
294.47	.1641	.0001
299.65	.1816	.0001
304.75	.2003	.0001
310.06	.2205	.0001
315.41	.2423	.0001
320.77	.2657	.0001
326.16	.291	.0001

System: benzoic acid + 1-butanol; phases: Liquid, Crystal
Fixed: Pressure, kPa = 100
Property: Mole fraction of benzoic acid (Liquid); method: Visual
Temperature, K	Mole fraction of benzoic acid	uncertainty
276.92	.1158	.0001
281.92	.1295	.0001
291.77	.1596	.0001
296.56	.176	.0001
301.56	.1936	.0001
311.66	.2337	.0001
316.79	.2558	.0001
321.9	.2794	.0001
327.3	.3056	.0001

System: benzoic acid + methyl ethyl ketone; phases: Liquid, Crystal
Fixed: Pressure, kPa = 100
Property: Mole fraction of benzoic acid (Liquid); method: Visual
Temperature, K	Mole fraction of benzoic acid	uncertainty
278.65	.1314	.0001
284.29	.1479	.0001
289.86	.1657	.0001
295.54	.1856	.0001
301.27	.2064	.0001
307.1	.2293	.0001
313.04	.2543	.0001
319.06	.2813	.0001
325.2	.3106	.0001

System: benzoic acid + methyl isobutyl ketone; phases: Liquid, Crystal
Fixed: Pressure, kPa = 100
Property: Mole fraction of benzoic acid (Liquid); method: Visual
Temperature, K	Mole fraction of benzoic acid	uncertainty
276.45	.1096	.0001
281.66	.1238	.0001
287.16	.1394	.0001
292.73	.1564	.0001
298.25	.175	.0001
303.76	.1953	.0001
309.36	.2175	.0001
315.05	.2417	.0001
320.74	.2639	.0001
325.16	.281	.0001

System: benzoic acid + ethyl acetate; phases: Liquid, Crystal
Fixed: Pressure, kPa = 100
Property: Mole fraction of benzoic acid (Liquid); method: Visual
Temperature, K	Mole fraction of benzoic acid	uncertainty
279.67	.1053	.0001
285.24	.1206	.0001
289.24	.1329	.0001
293.36	.1465	.0001
298.93	.1667	.0001
303.76	.1857	.0001
308.76	.2062	.0001
313.66	.2284	.0001
318.65	.2523	.0001
323.56	.278	.0001
326.5	.3057	.0001

System: benzoic acid + isopropyl acetate; phases: Liquid, Crystal
Fixed: Pressure, kPa = 100
Property: Mole fraction of benzoic acid (Liquid); method: Visual
Temperature, K	Mole fraction of benzoic acid	uncertainty
276.27	.0855	.0001
283.74	.1046	.0001
288.69	.1185	.0001
293.67	.1336	.0001
298.34	.1502	.0001

System: benzoic acid + isobutyl acetate; phases: Liquid, Crystal
Fixed: Pressure, kPa = 100
Property: Mole fraction of benzoic acid (Liquid); method: Visual
Temperature, K	Mole fraction of benzoic acid	uncertainty
303.36	.1682	.0001
308.33	.1878	.0001
313.25	.2091	.0001
318.25	.2322	.0001
324.02	.2599	.0001

System: aspirin + ethyl acetate; phases: Liquid, Crystal
Fixed: Pressure, kPa = 100
Property: Mole fraction of aspirin (Liquid); method: Visual
Temperature, K	Mole fraction of aspirin	uncertainty
275.86	.0154	.0001
283.66	.0204	.0001
289.86	.0254	.0001
296.16	.0313	.0001
302.67	.0384	.0001
308.68	.0467	.0001
315.16	.0564	.0001
321.37	.0676	.0001
327.91	.0807	.0001

System: aspirin + isobutyl acetate; phases: Liquid, Crystal
Fixed: Pressure, kPa = 100
Property: Mole fraction of aspirin (Liquid); method: Visual
Temperature, K	Mole fraction of aspirin	uncertainty
277.86	.0109	.0001
281.16	.0124	.0001
287.78	.0157	.0001
293.97	.0198	.0001
300.25	.0247	.0001
307.15	.0306	.0001
313.56	.0376	.0001
320.16	.046	.0001
327.15	.0559	.0001

System: aspirin + 1-propanol; phases: Liquid, Crystal
Fixed: Pressure, kPa = 100
Property: Mole fraction of aspirin (Liquid); method: Visual
Temperature, K	Mole fraction of aspirin	uncertainty
276.36	.0164	.0001
282.96	.0227	.0001
288.16	.0286	.0001
293.16	.0354	.0001
297.85	.0434	.0001
302.55	.0527	.0001
307.06	.0632	.0001
311.66	.0752	.0001
316.06	.0887	.0001
320.45	.1038	.0001
324.75	.1208	.0001

System: aspirin + 1-butanol; phases: Liquid, Crystal
Fixed: Pressure, kPa = 100
Property: Mole fraction of aspirin (Liquid); method: Visual
Temperature, K	Mole fraction of aspirin	uncertainty
277.66	.0145	.0001
282.35	.0183	.0001
287.35	.0232	.0001
292.35	.0291	.0001
297.37	.036	.0001
301.66	.044	.0001
306.16	.0531	.0001
310.35	.0635	.0001
314.64	.0752	.0001
318.75	.0883	.0001
323.44	.103	.0001

System: aspirin + isobutanol; phases: Liquid, Crystal
Fixed: Pressure, kPa = 100
Property: Mole fraction of aspirin (Liquid); method: Visual
Temperature, K	Mole fraction of aspirin	uncertainty
276.36	.0098	.0001
284.46	.0151	.0001
289.27	.0194	.0001
294.3	.0247	.0001
299.16	.0309	.0001
303.65	.0383	.0001
308.26	.0469	.0001
312.61	.0567	.0001
316.87	.0679	.0001
320.96	.0807	.0001
322.96	.0875	.0001
326.57	.1	.0001

System: aspirin + methyl isobutyl ketone; phases: Liquid, Crystal
Fixed: Pressure, kPa = 100
Property: Mole fraction of aspirin (Liquid); method: Visual
Temperature, K	Mole fraction of aspirin	uncertainty
277.46	.0196	.0001
281.76	.023	.0001
287.96	.0283	.0001
292.96	.0331	.0001
300.18	.0414	.0001
307.27	.0511	.0001
312.47	.0594	.0001
318.36	.07	.0001
327.95	.0897	.0001
