Measured thermophysical data. Measurement and Correlation of Solubility of Theobromine, Theophylline, and Caffeine in Water and Organic Solvents at Various Temperatures
Source: J. Chem. Eng. Data, 2017, 10.1021/acs.jced.7b00065
Compound 1: theobromine, C7H8N4O2
Compound 2: 1,3-dimethylxanthine, C7H8N4O2
Compound 3: caffeine, C8H10N4O2
Compound 4: benzil, C14H10O2
Compound 5: acetonitrile, C2H3N
Compound 6: methanol, CH4O
Compound 7: ethanol, C2H6O
Compound 8: 1-propanol, C3H8O
Compound 9: ethyl acetate, C4H8O2
Compound 10: acetone, C3H6O
Compound 11: water, H2O, purity 99.9%

System: 1,3-dimethylxanthine; phases: Crystal, Liquid, Air at 1 atmosphere
Property: Normal melting temperature, K (Crystal); method: DSC/DTA
Normal melting temperature, K	uncertainty
545.18	.5

System: 1,3-dimethylxanthine; phases: Crystal, Liquid, Air at 1 atmosphere
Property: Molar enthalpy of transition or fusion, kJ/mol (Crystal); method: DSC
Molar enthalpy of transition or fusion, kJ/mol	uncertainty
28.92	.8676

System: caffeine; phases: Crystal, Liquid, Air at 1 atmosphere
Property: Normal melting temperature, K (Crystal); method: DSC/DTA
Normal melting temperature, K	uncertainty
509.07	.5

System: caffeine; phases: Crystal, Liquid, Air at 1 atmosphere
Property: Molar enthalpy of transition or fusion, kJ/mol (Crystal); method: DSC
Molar enthalpy of transition or fusion, kJ/mol	uncertainty
19.44	.5832

System: benzil + acetone; phases: Liquid, Crystal
Fixed: Pressure, kPa = 100
Property: Mole fraction of benzil (Liquid); method: Chromatography
Temperature, K	Mole fraction of benzil	uncertainty
298.15	.159	

System: benzil + acetonitrile; phases: Liquid, Crystal
Fixed: Pressure, kPa = 100
Property: Mole fraction of benzil (Liquid); method: Chromatography
Temperature, K	Mole fraction of benzil	uncertainty
298.15	.0645	

System: theobromine + water; phases: Liquid, Crystal
Fixed: Pressure, kPa = 100
Property: Mole fraction of theobromine (Liquid); method: Chromatography
Temperature, K	Mole fraction of theobromine	uncertainty
288.07	.0000309	
298.1	.0000473	
308.93	.0000693	
318.62	.0001001	
328.15	.0001448	

System: theobromine + methanol; phases: Liquid, Crystal
Fixed: Pressure, kPa = 100
Property: Mole fraction of theobromine (Liquid); method: Chromatography
Temperature, K	Mole fraction of theobromine	uncertainty
288.07	.0000282	
298.1	.0000434	
308.93	.00007	
318.62	.0001102	
328.15	.0001633	

System: theobromine + ethanol; phases: Liquid, Crystal
Fixed: Pressure, kPa = 100
Property: Mole fraction of theobromine (Liquid); method: Chromatography
Temperature, K	Mole fraction of theobromine	uncertainty
288.15	.0000138	
298.2	.0000226	
308.19	.0000385	
318.16	.0000631	
328.16	.0001061	

System: theobromine + 1-propanol; phases: Liquid, Crystal
Fixed: Pressure, kPa = 100
Property: Mole fraction of theobromine (Liquid); method: Chromatography
Temperature, K	Mole fraction of theobromine	uncertainty
288.15	.0000118	
298.2	.0000206	
308.19	.0000371	
318.16	.0000637	
328.16	.000109	

System: 1,3-dimethylxanthine + water; phases: Liquid, Crystal of intercomponent compound 1
Fixed: Pressure, kPa = 100
Property: Mole fraction of 1,3-dimethylxanthine (Liquid); method: Chromatography
Temperature, K	Mole fraction of 1,3-dimethylxanthine	uncertainty
288.06	.000325	
298.16	.00063	
308.16	.000991	
318.13	.00141	
328.19	.002164	

System: 1,3-dimethylxanthine + methanol; phases: Liquid, Crystal
Fixed: Pressure, kPa = 100
Property: Mole fraction of 1,3-dimethylxanthine (Liquid); method: Chromatography
Temperature, K	Mole fraction of 1,3-dimethylxanthine	uncertainty
288.06	.00077	
298.16	.00137	
308.16	.002172	
318.13	.002982	
328.19	.003941	

System: 1,3-dimethylxanthine + ethanol; phases: Liquid, Crystal
Fixed: Pressure, kPa = 100
Property: Mole fraction of 1,3-dimethylxanthine (Liquid); method: Chromatography
Temperature, K	Mole fraction of 1,3-dimethylxanthine	uncertainty
288.01	.0008	
297.95	.00116	
308.01	.00173	
318.11	.002541	
328.09	.003192	

System: 1,3-dimethylxanthine + 1-propanol; phases: Liquid, Crystal
Fixed: Pressure, kPa = 100
Property: Mole fraction of 1,3-dimethylxanthine (Liquid); method: Chromatography
Temperature, K	Mole fraction of 1,3-dimethylxanthine	uncertainty
288.01	.000912	
297.95	.001358	
308.01	.002036	
318.11	.003133	
328.09	.004234	

System: theobromine + ethyl acetate; phases: Liquid, Crystal
Fixed: Pressure, kPa = 100
Property: Mole fraction of theobromine (Liquid); method: Chromatography
Temperature, K	Mole fraction of theobromine	uncertainty
288.13	.0000104	
297.99	.0000159	
308.08	.0000228	
318.07	.0000333	
328.17	.0000494	

System: theobromine + acetone; phases: Liquid, Crystal
Fixed: Pressure, kPa = 100
Property: Mole fraction of theobromine (Liquid); method: Chromatography
Temperature, K	Mole fraction of theobromine	uncertainty
288.13	.0000147	
297.99	.0000223	
308.08	.0000299	
318.07	.0000457	
328.17	.0000677	

System: 1,3-dimethylxanthine + ethyl acetate; phases: Liquid, Crystal
Fixed: Pressure, kPa = 100
Property: Mole fraction of 1,3-dimethylxanthine (Liquid); method: Chromatography
Temperature, K	Mole fraction of 1,3-dimethylxanthine	uncertainty
288.02	.000502	
298.15	.000673	
308.15	.000901	
318.15	.0011	
328.1	.001408	

System: 1,3-dimethylxanthine + acetone; phases: Liquid, Crystal
Fixed: Pressure, kPa = 100
Property: Mole fraction of 1,3-dimethylxanthine (Liquid); method: Chromatography
Temperature, K	Mole fraction of 1,3-dimethylxanthine	uncertainty
288.02	.000667	
298.15	.00093	
308.15	.001241	
318.15	.001473	
328.1	.001802	

System: caffeine + water; phases: Liquid, Crystal of intercomponent compound 1
Fixed: Pressure, kPa = 100
Property: Mole fraction of caffeine (Liquid); method: Chromatography
Temperature, K	Mole fraction of caffeine	uncertainty
288.01	.00123	
298.11	.00161	
308.09	.00227	
318.11	.00296	
328.15	.00398	

System: caffeine + ethanol; phases: Liquid, Crystal
Fixed: Pressure, kPa = 100
Property: Mole fraction of caffeine (Liquid); method: Chromatography
Temperature, K	Mole fraction of caffeine	uncertainty
288.01	.00078	
298.11	.00132	
308.09	.00204	
318.11	.00322	
328.15	.00469	

System: caffeine + methanol; phases: Liquid, Crystal
Fixed: Pressure, kPa = 100
Property: Mole fraction of caffeine (Liquid); method: Chromatography
Temperature, K	Mole fraction of caffeine	uncertainty
288.24	.00134	
298.17	.00189	
308.17	.0028	
318.2	.00426	
328.12	.00663	

System: caffeine + 1-propanol; phases: Liquid, Crystal
Fixed: Pressure, kPa = 100
Property: Mole fraction of caffeine (Liquid); method: Chromatography
Temperature, K	Mole fraction of caffeine	uncertainty
288.24	.00117	
298.17	.00177	
308.17	.00282	
318.2	.00453	
328.12	.00716	

System: caffeine + ethyl acetate; phases: Liquid, Crystal
Fixed: Pressure, kPa = 100
Property: Mole fraction of caffeine (Liquid); method: Chromatography
Temperature, K	Mole fraction of caffeine	uncertainty
288.24	.0027	
298.09	.00354	
308.21	.00488	
318.15	.00689	
328.18	.00924	

System: caffeine + acetone; phases: Liquid, Crystal
Fixed: Pressure, kPa = 100
Property: Mole fraction of caffeine (Liquid); method: Chromatography
Temperature, K	Mole fraction of caffeine	uncertainty
288.24	.00279	
298.09	.00363	
308.21	.00528	
318.15	.00728	
328.18	.00953	
