Measured thermophysical data. Thermodynamic Data for Processing Naphthol with Supercritical Carbon Dioxide
Source: J. Chem. Eng. Data, 2017, 10.1021/acs.jced.6b00781
Compound 1: 1-naphthol, C10H8O
Compound 2: 2-naphthol, C10H8O
Compound 3: carbon dioxide, CO2, purity 99.5%

System: 1-naphthol; phases: Crystal, Liquid, Air at 1 atmosphere
Property: Normal melting temperature, K (Crystal); method: Visual observation
Normal melting temperature, K	uncertainty
370.54	1

System: 2-naphthol; phases: Crystal, Liquid, Air at 1 atmosphere
Property: Normal melting temperature, K (Crystal); method: DSC/DTA
Normal melting temperature, K	uncertainty
396.98	1

System: 1-naphthol + carbon dioxide; phases: Fluid (supercritical or subcritical phases), Crystal
Property: Mole fraction of 1-naphthol (Fluid (supercritical or subcritical phases)); method: GRAVIMETRIC
Temperature, K	Pressure, kPa	Mole fraction of 1-naphthol	uncertainty
313.05	10040	.0833	
313.05	20390	.094	
313.35	29550	.1096	
313.1	40230	.1112	
313.33	49630	.1194	
313.25	57940	.1057	
313.4	59530	.1036	
332.95	10450	.0593	
333.15	20800	.084	
333.25	30590	.1078	
333.3	41270	.1113	
333.15	49470	.1084	
333.35	51600	.103	
333.15	58840	.0992	
353.35	10490	.0772	
352.8	19570	.0834	
353.05	30520	.0834	
353.3	40580	.0792	
353.3	50110	.0784	
353.1	59130	.0697	

System: 1-naphthol + carbon dioxide; phases: Fluid (supercritical or subcritical phases), Crystal
Property: Mass density, kg/m3 (Fluid (supercritical or subcritical phases)); method: Vibrating tube method
Temperature, K	Pressure, kPa	Mass density, kg/m3	uncertainty
313	1160	47.04	
313	3140	83.35	
313	5240	143.14	
313	6330	192.59	
313	7220	237.08	
313	8170	320.9	
313	9970	651.56	
313	10640	704.02	
313	12120	763.2	
313	13980	809.51	
313	15660	831.36	
313	18130	833.74	
313	21590	864.24	
313	25710	892.42	
313	29810	912.78	
313	34290	934.49	
333	1500	52.02	
333	3100	76.21	
333	5450	142.3	
333	6270	168.46	
333	7030	198.25	
333	7950	229.84	
333	9520	296.29	
333	11320	408.6	
333	13280	509.67	
333	15130	605.61	
333	16120	628.76	
333	19820	749.4	
333	25180	781.03	
333	31150	835.42	
333	34470	855.78	
333	39480	884.589	
353	1120	15.55	
353	3090	48.47	
353	6360	114.62	
353	9220	189.61	
353	11950	289.19	
353	16100	458.82	
353	19900	583.64	
353	23300	649.01	
353	28100	714.82	
353	31140	747.07	
353	37780	798.4	

System: 1-naphthol + carbon dioxide; phases: Crystal, Liquid, Gas
Property: Boiling temperature at pressure P, K (Crystal); method: Visual observation
Pressure, kPa	Boiling temperature at pressure P, K	uncertainty
2400	368.95	
5040	365.45	
10210	362.65	
15070	359.9	
20250	358.9	
30040	359.15	
40840	360.15	
50800	360.8	
60840	362.95	

System: carbon dioxide + 2-naphthol; phases: Fluid (supercritical or subcritical phases), Crystal
Property: Mole fraction of 2-naphthol (Fluid (supercritical or subcritical phases)); method: GRAVIMETRIC
Temperature, K	Pressure, kPa	Mole fraction of 2-naphthol	uncertainty
313.25	10000	.0784	
313.35	20030	.0879	
313.2	29850	.0903	
313.3	39940	.0789	
313.25	49470	.0825	
313.05	59640	.0851	
353.25	9970	.074	
353.4	20020	.0781	
353.2	30050	.0765	
353.3	39890	.0765	
353.45	49950	.0788	
333.45	9950	.0736	
333.3	19840	.076	
332.58	29880	.0731	
333.02	40720	.0727	
333.45	50060	.0803	
332.85	60000	.0761	

System: carbon dioxide + 2-naphthol; phases: Fluid (supercritical or subcritical phases), Crystal
Property: Mass density, kg/m3 (Fluid (supercritical or subcritical phases)); method: Vibrating tube method
Temperature, K	Pressure, kPa	Mass density, kg/m3	uncertainty
313	690	16.18	
313	3440	74.31	
313	5540	137.24	
313	7570	237.62	
313	9220	477.38	
313	12220	712.57	
313	13950	754.37	
313	16630	799.16	
313	19290	830.24	
313	22770	861.64	
313	26570	889.5	
313	29200	906.02	
313	33730	929.35	
313	39390	954.14	
333	1300	21.31	
333	3430	60.92	
333	5660	112.53	
333	9160	237.55	
333	13910	540.68	
333	17000	651.37	
333	20120	715.08	
333	25460	783.89	
333	29390	818.98	
333	34530	855.16	
333	39850	874.76	
353	1970	29.02	
353	5040	85.27	
353	13540	352.64	
353	19820	576.64	
353	25880	686.94	
353	30150	743.88	
353	35060	792.18	
353	38910	820.4	

System: carbon dioxide + 2-naphthol; phases: Crystal, Liquid, Gas
Property: Boiling temperature at pressure P, K (Crystal); method: Visual observation
Pressure, kPa	Boiling temperature at pressure P, K	uncertainty
2510	397.4	
4980	394.4	
10060	390.1	
14790	386.05	
20480	383.45	
30480	384.1	
39990	385.05	
51120	386.1	
60570	387.35	
