Measured thermophysical data. Isobaric Vapor Liquid Equilibrium for the Binary Systems of sec-Butyl Acetate + Methyl Ethyl Ketone,
			2-Methoxyethanol, or 1,2-Dimethoxyethane at 101.3 kPa
Source: J. Chem. Eng. Data, 2016, 10.1021/acs.jced.5b00582
Compound 1: sec-butyl acetate, C6H12O2, purity 99.8%
Compound 2: methyl ethyl ketone, C4H8O, purity 99.5%
Compound 3: 2-methoxyethanol, C3H8O2, purity 99.5%
Compound 4: 1,2-dimethoxyethane, C4H10O2, purity 99.5%
Compound 5: isobutanol, C4H10O, purity 99.5%
Compound 6: ethanol, C2H6O, purity 99.7%

System: sec-butyl acetate; phases: Liquid
Fixed: Pressure, kPa = 101.325
Property: Mass density, kg/m3 (Liquid); method: Pycnometric method
Temperature, K	Mass density, kg/m3	uncertainty
298.15	863.8	.1

System: sec-butyl acetate; phases: Liquid
Fixed: Pressure, kPa = 101.325
Property: Refractive index (Na D-line) (Liquid); method: Standard Abbe refractometry
Temperature, K	Refractive index (Na D-line)	uncertainty
298.15	1.3872	.0001

System: sec-butyl acetate; phases: Liquid, Gas
Property: Vapor or sublimation pressure, kPa (Liquid); method: Ebulliometric method (Recirculating still)
Temperature, K	Vapor or sublimation pressure, kPa	uncertainty
385.12	101.3	.3

System: methyl ethyl ketone; phases: Liquid
Fixed: Pressure, kPa = 101.325
Property: Mass density, kg/m3 (Liquid); method: Pycnometric method
Temperature, K	Mass density, kg/m3	uncertainty
298.15	799.7	.1

System: methyl ethyl ketone; phases: Liquid
Fixed: Pressure, kPa = 101.325
Property: Refractive index (Na D-line) (Liquid); method: Standard Abbe refractometry
Temperature, K	Refractive index (Na D-line)	uncertainty
298.15	1.3761	.0001

System: methyl ethyl ketone; phases: Liquid, Gas
Property: Vapor or sublimation pressure, kPa (Liquid); method: Ebulliometric method (Recirculating still)
Temperature, K	Vapor or sublimation pressure, kPa	uncertainty
352.76	101.3	.3

System: 2-methoxyethanol; phases: Liquid
Fixed: Pressure, kPa = 101.325
Property: Mass density, kg/m3 (Liquid); method: Pycnometric method
Temperature, K	Mass density, kg/m3	uncertainty
298.15	960.1	.1

System: 2-methoxyethanol; phases: Liquid
Fixed: Pressure, kPa = 101.325
Property: Refractive index (Na D-line) (Liquid); method: Standard Abbe refractometry
Temperature, K	Refractive index (Na D-line)	uncertainty
298.15	1.4002	.0001

System: 2-methoxyethanol; phases: Liquid, Gas
Property: Vapor or sublimation pressure, kPa (Liquid); method: Ebulliometric method (Recirculating still)
Temperature, K	Vapor or sublimation pressure, kPa	uncertainty
397.48	101.3	.3

System: 1,2-dimethoxyethane; phases: Liquid
Fixed: Pressure, kPa = 101.325
Property: Mass density, kg/m3 (Liquid); method: Pycnometric method
Temperature, K	Mass density, kg/m3	uncertainty
298.15	860.4	.1

System: 1,2-dimethoxyethane; phases: Liquid
Fixed: Pressure, kPa = 101.325
Property: Refractive index (Na D-line) (Liquid); method: Standard Abbe refractometry
Temperature, K	Refractive index (Na D-line)	uncertainty
298.15	1.378	.0001

System: 1,2-dimethoxyethane; phases: Liquid, Gas
Property: Vapor or sublimation pressure, kPa (Liquid); method: Ebulliometric method (Recirculating still)
Temperature, K	Vapor or sublimation pressure, kPa	uncertainty
357.71	101.3	.3

System: ethanol + isobutanol; phases: Gas, Liquid
Fixed: Pressure, kPa = 101.3
Property: Mole fraction of ethanol (Gas); method: Chromatography
Mole fraction of ethanol	Mole fraction of ethanol	uncertainty
0	0	.005
.041	.125	.005
.085	.231	.005
.136	.341	.005
.198	.451	.005
.252	.526	.005
.302	.584	.005
.358	.642	.005
.432	.722	.005
.525	.787	.005
.581	.818	.005
.649	.854	.005
.711	.885	.005
.751	.905	.005
.812	.934	.005
.889	.966	.005
.948	.984	.005
1	1	.005

System: methyl ethyl ketone + sec-butyl acetate; phases: Liquid, Gas
Fixed: Pressure, kPa = 101.3
Property: Boiling temperature at pressure P, K (Liquid); method: Ebulliometric method (Recirculating still)
Mole fraction of methyl ethyl ketone	Boiling temperature at pressure P, K	uncertainty
0	385.12	.05
.09	378.69	.05
.166	375.12	.05
.266	371.84	.05
.321	369.65	.05
.377	367.97	.05
.428	366.47	.05
.47	365.22	.05
.505	364.22	.05
.546	363.15	.05
.591	361.84	.05
.64	360.71	.05
.668	359.8	.05
.705	358.92	.05
.728	358.19	.05
.766	357.34	.05
.8	356.54	.05
.837	355.69	.05
.863	355	.05
.888	354.53	.05
.897	354.23	.05
.914	353.79	.05
.934	353.41	.05
.946	353.4	.05
1	352.76	.05

System: methyl ethyl ketone + sec-butyl acetate; phases: Gas, Liquid
Fixed: Pressure, kPa = 101.3
Property: Mole fraction of methyl ethyl ketone (Gas); method: Chromatography
Mole fraction of methyl ethyl ketone	Mole fraction of methyl ethyl ketone	uncertainty
0	0	.005
.09	.226	.005
.166	.392	.005
.266	.513	.005
.321	.59	.005
.377	.643	.005
.428	.684	.005
.47	.719	.005
.505	.746	.005
.546	.779	.005
.591	.798	.005
.64	.828	.005
.668	.847	.005
.705	.866	.005
.728	.875	.005
.766	.894	.005
.8	.908	.005
.837	.925	.005
.863	.938	.005
.888	.947	.005
.897	.952	.005
.914	.959	.005
.934	.967	.005
.946	.971	.005
1	1	.005

System: sec-butyl acetate + 2-methoxyethanol; phases: Liquid, Gas
Fixed: Pressure, kPa = 101.3
Property: Boiling temperature at pressure P, K (Liquid); method: Ebulliometric method (Recirculating still)
Mole fraction of sec-butyl acetate	Boiling temperature at pressure P, K	uncertainty
0	397.48	.05
.024	396.55	.05
.119	393.1	.05
.191	391.18	.05
.258	389.64	.05
.324	388.58	.05
.379	387.61	.05
.429	386.92	.05
.479	386.3	.05
.509	385.97	.05
.551	385.55	.05
.595	385.15	.05
.636	384.84	.05
.673	384.58	.05
.718	384.33	.05
.735	384.08	.05
.762	384.03	.05
.819	383.96	.05
.851	383.86	.05
.877	383.91	.05
.903	383.94	.05
.939	384.12	.05
.962	384.29	.05
1	385.12	.05

System: sec-butyl acetate + 2-methoxyethanol; phases: Gas, Liquid
Fixed: Pressure, kPa = 101.3
Property: Mole fraction of sec-butyl acetate (Gas); method: Chromatography
Mole fraction of sec-butyl acetate	Mole fraction of sec-butyl acetate	uncertainty
0	0	.005
.024	.058	.005
.119	.249	.005
.191	.354	.005
.258	.44	.005
.324	.502	.005
.379	.546	.005
.429	.583	.005
.479	.629	.005
.509	.651	.005
.551	.671	.005
.595	.698	.005
.636	.715	.005
.673	.737	.005
.718	.763	.005
.735	.773	.005
.762	.79	.005
.819	.824	.005
.851	.849	.005
.877	.865	.005
.903	.884	.005
.939	.914	.005
.962	.941	.005
1	1	.005

System: sec-butyl acetate + 1,2-dimethoxyethane; phases: Liquid, Gas
Fixed: Pressure, kPa = 101.3
Property: Boiling temperature at pressure P, K (Liquid); method: Ebulliometric method (Recirculating still)
Mole fraction of 1,2-dimethoxyethane	Boiling temperature at pressure P, K	uncertainty
0	385.12	.05
.066	381.76	.05
.146	379.45	.05
.223	377.02	.05
.284	375.28	.05
.347	373.55	.05
.394	372.42	.05
.439	371.13	.05
.49	369.84	.05
.509	368.97	.05
.538	368.73	.05
.571	367.46	.05
.646	365.74	.05
.715	364.15	.05
.783	362.74	.05
.85	361.41	.05
.911	360.48	.05
.972	359.5	.05
1	357.71	.05

System: sec-butyl acetate + 1,2-dimethoxyethane; phases: Gas, Liquid
Fixed: Pressure, kPa = 101.3
Property: Mole fraction of 1,2-dimethoxyethane (Gas); method: Chromatography
Mole fraction of 1,2-dimethoxyethane	Mole fraction of 1,2-dimethoxyethane	uncertainty
0	0	.001
.066	.154	.001
.146	.293	.001
.223	.408	.001
.284	.487	.001
.347	.56	.001
.394	.606	.001
.439	.65	.001
.49	.692	.001
.509	.707	.001
.538	.727	.001
.571	.755	.001
.646	.808	.001
.715	.852	.001
.783	.891	.001
.85	.925	.001
.911	.955	.001
.972	.986	.001
1	1	.001
