Measured thermophysical data. Study of CO2 Absorption into Phase Change Solvents MAPA and DEEA
Source: J. Chem. Eng. Data, 2017, 10.1021/acs.jced.6b01038
Compound 1: 3-amino-1-(methylamino)propane, C4H12N2
Compound 2: 2-(diethylamino)ethanol, C6H15NO
Compound 3: carbon dioxide, CO2
Compound 4: dinitrogen oxide, N2O
Compound 5: water, H2O, purity 99.9%
Compound 6: MDEA, C5H13NO2

System: 3-amino-1-(methylamino)propane; phases: Liquid
Property: Mass density, kg/m3 (Liquid); method: Vibrating tube method
Pressure, kPa	Temperature, K	Mass density, kg/m3	uncertainty
101.3	298.15	848	

System: 3-amino-1-(methylamino)propane; phases: Liquid
Property: Refractive index (Na D-line) (Liquid); method: Standard Abbe refractometry
Pressure, kPa	Temperature, K	Refractive index (Na D-line)	uncertainty
101.3	298.15	1.44564	

System: 2-(diethylamino)ethanol; phases: Liquid
Property: Mass density, kg/m3 (Liquid); method: Vibrating tube method
Pressure, kPa	Temperature, K	Mass density, kg/m3	uncertainty
101.3	298.15	880	

System: 2-(diethylamino)ethanol; phases: Liquid
Property: Refractive index (Na D-line) (Liquid); method: Standard Abbe refractometry
Pressure, kPa	Temperature, K	Refractive index (Na D-line)	uncertainty
101.3	298.15	1.43833	

System: water; phases: Liquid
Property: Refractive index (Na D-line) (Liquid); method: Standard Abbe refractometry
Pressure, kPa	Temperature, K	Refractive index (Na D-line)	uncertainty
101.3	298.15	1.33249	

System: MDEA; phases: Liquid
Property: Mass density, kg/m3 (Liquid); method: Vibrating tube method
Pressure, kPa	Temperature, K	Mass density, kg/m3	uncertainty
101.3	298.15	1037	

System: MDEA; phases: Liquid
Property: Refractive index (Na D-line) (Liquid); method: Standard Abbe refractometry
Pressure, kPa	Temperature, K	Refractive index (Na D-line)	uncertainty
101.3	298.15	1.4674	
