Measured thermophysical data. Determination of the Solubility of Ammonium Dihydrogen Phosphate in Water Ethanol System at Different Temperatures from 283.2 to 343.2 K
Source: J. Chem. Eng. Data, 2016, 10.1021/acs.jced.5b00224
Compound 1: ammonium dihydrogen phosphate, H6NO4P, purity 99.0%
Compound 2: ethanol, C2H6O, purity 99.7%
Compound 3: water, H2O, purity 99.8%

System: ethanol + ammonium dihydrogen phosphate + water; phases: Liquid, Crystal
Fixed: Pressure, kPa = 100
Property: Mole fraction of ammonium dihydrogen phosphate (Liquid); method: visual
Solvent: Mass fraction of ethanol	Temperature, K	Mole fraction of ammonium dihydrogen phosphate	uncertainty
0	283.2	.04253	.004253
0	293.2	.05284	.005284
0	303.2	.06443	.006443
0	313.2	.08081	.008081
0	323.2	.09379	.009379
0	333.2	.11307	.011307
0	343.2	.13435	.013435
.1	283.2	.02123	.002123
.1	293.2	.0308	.00308
.1	303.2	.04049	.004049
.1	313.2	.05404	.005404
.1	323.2	.06916	.006916
.1	333.2	.08949	.008949
.1	343.2	.11429	.011429
.2	283.2	.01072	.001072
.2	293.2	.01633	.001633
.2	303.2	.02382	.002382
.2	313.2	.03268	.003268
.2	323.2	.04427	.004427
.2	333.2	.06162	.006162
.2	343.2	.08288	.008288
.3	283.2	.00558	.000558
.3	293.2	.0095	.00095
.3	303.2	.01366	.001366
.3	313.2	.01881	.001881
.3	323.2	.02636	.002636
.3	333.2	.03831	.003831
.3	343.2	.05734	.005734
.4	283.2	.00257	.000257
.4	293.2	.00477	.000477
.4	303.2	.00737	.000737
.4	313.2	.01035	.001035
.4	323.2	.01468	.001468
.4	333.2	.02129	.002129
.4	343.2	.03404	.003404
.5	283.2	.001354	.0001354
.5	293.2	.002368	.0002368
.5	303.2	.003889	.0003889
.5	313.2	.005269	.0005269
.5	323.2	.007451	.0007451
.5	333.2	.009889	.0009889
.5	343.2	.014998	.0014998
.6	283.2	.000845	.0000845
.6	293.2	.001238	.0001238
.6	303.2	.001845	.0001845
.6	313.2	.002596	.0002596
.6	323.2	.0033	.00033
.6	333.2	.004319	.0004319
.6	343.2	.005673	.0005673
.7	283.2	.000556	.0000556
.7	293.2	.000721	.0000721
.7	303.2	.000911	.0000911
.7	313.2	.001087	.0001087
.7	323.2	.001321	.0001321
.7	333.2	.001573	.0001573
.7	343.2	.001877	.0001877
.8	283.2	.000203	.0000203
.8	293.2	.000245	.0000245
.8	303.2	.000312	.0000312
.8	313.2	.000352	.0000352
.8	323.2	.000406	.0000406
.8	333.2	.000454	.0000454
.8	343.2	.000545	.0000545
.9	283.2	.000056	.0000056
.9	293.2	.000063	.0000063
.9	303.2	.000072	.0000072
.9	313.2	.000081	.0000081
.9	323.2	.000093	.0000093
.9	333.2	.000104	.0000104
.9	343.2	.00012	.000012

System: ammonium dihydrogen phosphate + water; phases: Liquid, Crystal
Property: Mole fraction of ammonium dihydrogen phosphate (Liquid); method: visual
Temperature, K	Pressure, kPa	Mole fraction of ammonium dihydrogen phosphate	uncertainty
283.2	100	.04253	.004253
293.2	100	.05284	.005284
303.2	100	.06443	.006443
313.2	100	.08081	.008081
323.2	100	.09379	.009379
333.2	100	.11307	.011307
343.2	100	.13435	.013435
