Measured thermophysical data. Apparatus for Low-Temperature Investigations: Phase Equilibrium Measurements for Systems Containing Ammonia
Source: J. Chem. Eng. Data, 2016, 10.1021/acs.jced.6b00623
Compound 1: ammonia, H3N, purity 99.999%
Compound 2: butane, C4H10, purity 99.9%
Compound 3: 1-butene, C4H8, purity 99.5%

System: ammonia; phases: Liquid, Gas
Property: Vapor or sublimation pressure, kPa (Liquid); method: Closed cell (Static) method
Temperature, K	Vapor or sublimation pressure, kPa	uncertainty
293.15	857.2	
288.15	728.7	
283.15	614.8	
278.15	515.6	
273.15	429.7	
268.15	355	
263.15	291	
258.15	235.9	
253.15	190.2	
248.15	152	
243.15	120	
263.15	290.7	

System: butane; phases: Liquid, Gas
Property: Vapor or sublimation pressure, kPa (Liquid); method: Closed cell (Static) method
Temperature, K	Vapor or sublimation pressure, kPa	uncertainty
293.15	207.5	
283.15	148.2	
273.15	103	
263.15	69.8	
253.15	45.1	
243.15	28.3	
273.15	103.2	
263.15	69.6	

System: 1-butene; phases: Liquid, Gas
Property: Vapor or sublimation pressure, kPa (Liquid); method: Closed cell (Static) method
Temperature, K	Vapor or sublimation pressure, kPa	uncertainty
293.15	255.3	
283.15	183.4	
273.15	128.7	
263.15	87.4	
253.15	57.3	
243.15	36.2	

System: butane + ammonia; phases: Gas, Liquid
Property: Vapor or sublimation pressure, kPa (Gas); method: Closed cell (Static) method
Temperature, K	Mole fraction of ammonia	Vapor or sublimation pressure, kPa	uncertainty
273.15	0	103.2	
273.15	.011	162.6	
273.15	.018	209	
273.15	.048	301.2	
273.15	.084	401.5	
273.15	.098	451.4	
273.15	.157	526.2	
273.15	.992	526.2	
273.15	1	429.7	
263.15	0	69.6	
263.15	.02	163.4	
263.15	.028	122.5	
263.15	.042	237.4	
263.15	.1	318.6	
263.15	.129	343.3	
263.15	.146	356.2	
263.15	.995	356.2	
263.15	1	290.7	

System: butane + ammonia; phases: Gas, Liquid
Property: Mole fraction of ammonia (Gas); method: Chromatography
Temperature, K	Mole fraction of ammonia	Mole fraction of ammonia	uncertainty
273.15	0	0	
273.15	.011	.359	
273.15	.018	.488	
273.15	.048	.65	
273.15	.084	.745	
273.15	.098	.779	
273.15	.157	.814	
273.15	.992	.814	
273.15	1	1	
263.15	0	0	
263.15	.02	.577	
263.15	.028	.435	
263.15	.042	.705	
263.15	.1	.786	
263.15	.129	.804	
263.15	.146	.815	
263.15	.995	.815	
263.15	1	1	

System: 1-butene + ammonia; phases: Gas, Liquid
Property: Vapor or sublimation pressure, kPa (Gas); method: Closed cell (Static) method
Temperature, K	Mole fraction of ammonia	Vapor or sublimation pressure, kPa	uncertainty
293.15	0	255.3	
293.15	.049	357.7	
293.15	.13	554.8	
293.15	.214	703.4	
293.15	.45	951.8	
293.15	.604	1003.9	
293.15	.632	1014.1	
293.15	.659	1017.2	
293.15	.748	1019.6	
293.15	.767	1020.2	
293.15	.786	1020.6	
293.15	.802	1021	
293.15	.831	1020.9	
293.15	.846	1019.7	
293.15	.912	1006.4	
293.15	.983	916	
293.15	1	857.2	
283.15	0	183.4	
283.15	.101	365.8	
283.15	.194	484.8	
283.15	.272	562.6	
283.15	.407	657	
283.15	.464	689.2	
283.15	.537	727	
283.15	.54	732.2	
283.15	.551	736.3	
283.15	.564	741.6	
283.15	.565	744.1	
283.15	.656	746.8	
283.15	.817	746.9	
283.15	.836	747	
283.15	.873	746.7	
283.15	.885	746.5	
283.15	.894	746.3	
283.15	.911	744.6	
283.15	.922	743	
283.15	.945	735.6	
283.15	.957	726.1	
283.15	.976	668.9	
283.15	1	614.8	
273.15	0	128.7	
273.15	.075	251.2	
273.15	.157	374.3	
273.15	.217	427	
273.15	.313	491	
273.15	.404	524	
273.15	.945	524	
273.15	.972	504	
273.15	1	429.7	

System: 1-butene + ammonia; phases: Gas, Liquid
Property: Mole fraction of ammonia (Gas); method: Chromatography
Temperature, K	Mole fraction of ammonia	Mole fraction of ammonia	uncertainty
293.15	0	0	
293.15	.049	.282	
293.15	.13	.552	
293.15	.214	.653	
293.15	.45	.766	
293.15	.604	.793	
293.15	.632	.797	
293.15	.659	.801	
293.15	.748	.803	
293.15	.767	.804	
293.15	.786	.807	
293.15	.802	.809	
293.15	.831	.816	
293.15	.846	.818	
293.15	.912	.836	
293.15	.983	.931	
293.15	1	1	
283.15	0	0	
283.15	.101	.519	
283.15	.194	.665	
283.15	.272	.716	
283.15	.407	.769	
283.15	.464	.786	
283.15	.537	.802	
283.15	.54	.803	
283.15	.551	.805	
283.15	.564	.808	
283.15	.565	.81	
283.15	.656	.812	
283.15	.817	.814	
283.15	.836	.813	
283.15	.873	.809	
283.15	.885	.809	
283.15	.894	.81	
283.15	.911	.813	
283.15	.922	.818	
283.15	.945	.83	
283.15	.957	.842	
283.15	.976	.902	
283.15	1	1	
273.15	0	0	
273.15	.075	.487	
273.15	.157	.68	
273.15	.217	.735	
273.15	.313	.778	
273.15	.404	.812	
273.15	.945	.812	
273.15	.972	.853	
273.15	1	1	
