Measured thermophysical data. Solubilities of 4',5,7-Triacetoxyflavanone in Fourteen Organic Solvents at Different Temperatures
Source: J. Chem. Eng. Data, 2017, 10.1021/acs.jced.6b00929
Compound 1: 4',5,7-triacetoxyflavanone, C21H18O8
Compound 2: methanol, CH4O
Compound 3: ethanol, C2H6O
Compound 4: 1-propanol, C3H8O
Compound 5: 2-propanol, C3H8O
Compound 6: 1-butanol, C4H10O
Compound 7: 2-butanol, C4H10O
Compound 8: 1-pentanol, C5H12O
Compound 9: 1-hexanol, C6H14O
Compound 10: 2-methoxyethanol, C3H8O2
Compound 11: 2-propoxyethanol, C5H12O2
Compound 12: 2-butoxyethanol, C6H14O2
Compound 13: ethyl acetate, C4H8O2
Compound 14: tetrahydrofuran, C4H8O
Compound 15: acetone, C3H6O

System: 4',5,7-triacetoxyflavanone; phases: Crystal, Liquid, Air at 1 atmosphere
Property: Normal melting temperature, K (Crystal); method: DSC/DTA
Normal melting temperature, K	uncertainty
346.95	.147600000000011

System: 4',5,7-triacetoxyflavanone; phases: Crystal, Liquid, Air at 1 atmosphere
Property: Molar enthalpy of transition or fusion, kJ/mol (Crystal); method: DSC
Molar enthalpy of transition or fusion, kJ/mol	uncertainty
20.79	.5

System: methanol + 4',5,7-triacetoxyflavanone; phases: Liquid, Crystal
Fixed: Pressure, kPa = 100
Property: Mole fraction of 4',5,7-triacetoxyflavanone (Liquid); method: Chromatography
Temperature, K	Mole fraction of 4',5,7-triacetoxyflavanone	uncertainty
278.2	.00122	
288.2	.00155	
298.2	.002172	
308.2	.002892	
318.2	.004071	

System: ethanol + 4',5,7-triacetoxyflavanone; phases: Liquid, Crystal
Fixed: Pressure, kPa = 100
Property: Mole fraction of 4',5,7-triacetoxyflavanone (Liquid); method: Chromatography
Temperature, K	Mole fraction of 4',5,7-triacetoxyflavanone	uncertainty
278.2	.000721	
288.2	.000931	
298.2	.001321	
308.2	.001753	
318.2	.002393	

System: 1-propanol + 4',5,7-triacetoxyflavanone; phases: Liquid, Crystal
Fixed: Pressure, kPa = 100
Property: Mole fraction of 4',5,7-triacetoxyflavanone (Liquid); method: Chromatography
Temperature, K	Mole fraction of 4',5,7-triacetoxyflavanone	uncertainty
278.2	.000649	
288.2	.000873	
298.2	.001272	
308.2	.001653	
318.2	.002449	

System: 2-propanol + 4',5,7-triacetoxyflavanone; phases: Liquid, Crystal
Fixed: Pressure, kPa = 100
Property: Mole fraction of 4',5,7-triacetoxyflavanone (Liquid); method: Chromatography
Temperature, K	Mole fraction of 4',5,7-triacetoxyflavanone	uncertainty
278.2	.000289	
288.2	.000426	
298.2	.000667	
308.2	.001023	
318.2	.001522	

System: 1-butanol + 4',5,7-triacetoxyflavanone; phases: Liquid, Crystal
Fixed: Pressure, kPa = 100
Property: Mole fraction of 4',5,7-triacetoxyflavanone (Liquid); method: Chromatography
Temperature, K	Mole fraction of 4',5,7-triacetoxyflavanone	uncertainty
278.2	.000228	
288.2	.000353	
298.2	.000491	
308.2	.000752	
318.2	.001062	

System: 2-butanol + 4',5,7-triacetoxyflavanone; phases: Liquid, Crystal
Fixed: Pressure, kPa = 100
Property: Mole fraction of 4',5,7-triacetoxyflavanone (Liquid); method: Chromatography
Temperature, K	Mole fraction of 4',5,7-triacetoxyflavanone	uncertainty
278.2	.000216	
288.2	.000372	
298.2	.000507	
308.2	.000824	
318.2	.001224	

System: 1-pentanol + 4',5,7-triacetoxyflavanone; phases: Liquid, Crystal
Fixed: Pressure, kPa = 100
Property: Mole fraction of 4',5,7-triacetoxyflavanone (Liquid); method: Chromatography
Temperature, K	Mole fraction of 4',5,7-triacetoxyflavanone	uncertainty
278.2	.000249	
288.2	.000402	
298.2	.000556	
308.2	.001011	
318.2	.001407	

System: 1-hexanol + 4',5,7-triacetoxyflavanone; phases: Liquid, Crystal
Fixed: Pressure, kPa = 100
Property: Mole fraction of 4',5,7-triacetoxyflavanone (Liquid); method: Chromatography
Temperature, K	Mole fraction of 4',5,7-triacetoxyflavanone	uncertainty
278.2	.000018	
288.2	.000024	
298.2	.00003	
308.2	.000046	
318.2	.000064	

System: 2-methoxyethanol + 4',5,7-triacetoxyflavanone; phases: Liquid, Crystal
Fixed: Pressure, kPa = 100
Property: Mole fraction of 4',5,7-triacetoxyflavanone (Liquid); method: Chromatography
Temperature, K	Mole fraction of 4',5,7-triacetoxyflavanone	uncertainty
278.2	.008359	
288.2	.01082	
298.2	.017388	
308.2	.023468	
318.2	.035648	

System: 2-propoxyethanol + 4',5,7-triacetoxyflavanone; phases: Liquid, Crystal
Fixed: Pressure, kPa = 100
Property: Mole fraction of 4',5,7-triacetoxyflavanone (Liquid); method: Chromatography
Temperature, K	Mole fraction of 4',5,7-triacetoxyflavanone	uncertainty
278.2	.004854	
288.2	.006294	
298.2	.007753	
308.2	.008869	
318.2	.011586	

System: 2-butoxyethanol + 4',5,7-triacetoxyflavanone; phases: Liquid, Crystal
Fixed: Pressure, kPa = 100
Property: Mole fraction of 4',5,7-triacetoxyflavanone (Liquid); method: Chromatography
Temperature, K	Mole fraction of 4',5,7-triacetoxyflavanone	uncertainty
278.2	.001802	
288.2	.002532	
298.2	.003373	
308.2	.004756	
318.2	.007122	

System: ethyl acetate + 4',5,7-triacetoxyflavanone; phases: Liquid, Crystal
Fixed: Pressure, kPa = 100
Property: Mole fraction of 4',5,7-triacetoxyflavanone (Liquid); method: Chromatography
Temperature, K	Mole fraction of 4',5,7-triacetoxyflavanone	uncertainty
278.2	.022002	
288.2	.033965	
298.2	.044961	
308.2	.071383	
318.2	.102968	

System: tetrahydrofuran + 4',5,7-triacetoxyflavanone; phases: Liquid, Crystal
Fixed: Pressure, kPa = 100
Property: Mole fraction of 4',5,7-triacetoxyflavanone (Liquid); method: Chromatography
Temperature, K	Mole fraction of 4',5,7-triacetoxyflavanone	uncertainty
278.2	.04128	
288.2	.048252	
298.2	.057976	
308.2	.073162	
318.2	.090171	

System: acetone + 4',5,7-triacetoxyflavanone; phases: Liquid, Crystal
Fixed: Pressure, kPa = 100
Property: Mole fraction of 4',5,7-triacetoxyflavanone (Liquid); method: Chromatography
Temperature, K	Mole fraction of 4',5,7-triacetoxyflavanone	uncertainty
278.2	.07586	
288.2	.086868	
298.2	.10999	
308.2	.128623	
318.2	.165852	
