Measured thermophysical data. Liquid-Liquid Equilibrium of Hydrophilic Alcohols with Three Different Salts of Chloride: Experimental and Correlation
Source: J. Chem. Eng. Data, 2016, 10.1021/acs.jced.5b00771
Compound 1: 1-propanol, C3H8O, purity 99.5%
Compound 2: 2-propanol, C3H8O, purity 99.8%
Compound 3: potassium chloride, ClK, purity 99.5%
Compound 4: sodium chloride, ClNa, purity 99.5%
Compound 5: calcium chloride, CaCl2, purity 99.0%
Compound 6: water, H2O

System: 1-propanol + potassium chloride + water; phases: Liquid mixture 1, Liquid mixture 2
Fixed: Pressure, kPa = 100
Fixed: Temperature, K = 298.15
Property: Mass fraction of potassium chloride (Liquid mixture 1); method: Titration method
Mass fraction of 1-propanol	Mass fraction of potassium chloride	uncertainty
.072	.2041	
.0728	.2132	
.081	.193	
.088	.1824	
.0937	.1767	
.0955	.1707	
.1061	.1609	
.1054	.1565	
.1059	.152	
.122	.1448	
.1325	.1386	
.1414	.133	
.1479	.1235	
.15	.1275	
.1693	.1158	
.1766	.1111	
.1979	.1034	
.2271	.0927	
.2846	.0822	
.3078	.0761	
.3759	.0648	
.4824	.0466	
.5632	.04	

System: 1-propanol + potassium chloride + water; phases: Liquid mixture 2, Liquid mixture 1
Property: Mass fraction of potassium chloride (Liquid mixture 2); method: Titration method
Property: Mass fraction of 1-propanol (Liquid mixture 1); method: Titration method
Property: Mass fraction of potassium chloride (Liquid mixture 1); method: Titration method
Temperature, K	Pressure, kPa	Mass fraction of 1-propanol	Mass fraction of potassium chloride	uncertainty	Mass fraction of 1-propanol	uncertainty	Mass fraction of potassium chloride	uncertainty
298.15	101.325	.1385	.1343	.001	.6042	.001	.037	.001
298.15	101.325	.1167	.1502	.001	.6745	.001	.032	.001
298.15	101.325	.1022	.1635	.001	.7109	.001	.0297	.001
298.15	101.325	.0894	.1778	.001	.7381	.001	.0281	.001

System: 1-propanol + sodium chloride + water; phases: Liquid mixture 1, Liquid mixture 2
Fixed: Pressure, kPa = 100
Fixed: Temperature, K = 298.15
Property: Mass fraction of sodium chloride (Liquid mixture 1); method: Titration method
Mass fraction of 1-propanol	Mass fraction of sodium chloride	uncertainty
.0645	.1856	
.0667	.1766	
.0673	.1728	
.0763	.1663	
.0712	.1625	
.083	.1559	
.0809	.1516	
.0866	.1455	
.0889	.1412	
.0967	.1355	
.1084	.1287	
.107	.1205	
.1227	.114	
.1333	.1083	
.1387	.1024	
.1791	.0903	
.1804	.086	
.2167	.0783	
.2397	.0722	
.359	.0528	
.3747	.0516	
.5045	.04	

System: 1-propanol + sodium chloride + water; phases: Liquid mixture 2, Liquid mixture 1
Property: Mass fraction of sodium chloride (Liquid mixture 2); method: Titration method
Property: Mass fraction of 1-propanol (Liquid mixture 1); method: Titration method
Property: Mass fraction of sodium chloride (Liquid mixture 1); method: Titration method
Temperature, K	Pressure, kPa	Mass fraction of 1-propanol	Mass fraction of sodium chloride	uncertainty	Mass fraction of 1-propanol	uncertainty	Mass fraction of sodium chloride	uncertainty
298.15	101.325	.1337	.1093	.001	.6184	.001	.0305	.001
298.15	101.325	.0975	.1364	.001	.7007	.001	.028	.001
298.15	101.325	.0805	.1552	.001	.7324	.001	.0276	.001
298.15	101.325	.0723	.1665	.001	.7625	.001	.0272	.001

System: 1-propanol + water + calcium chloride; phases: Liquid mixture 1, Liquid mixture 2
Fixed: Pressure, kPa = 100
Fixed: Temperature, K = 298.15
Property: Mass fraction of calcium chloride (Liquid mixture 1); method: Titration method
Mass fraction of 1-propanol	Mass fraction of calcium chloride	uncertainty
.0291	.3883	
.0284	.3837	
.0289	.3778	
.0302	.3733	
.0308	.3683	
.0329	.3626	
.0388	.3556	
.0373	.3513	
.0386	.3461	
.04	.3408	
.0405	.3358	
.0448	.3248	
.0461	.3148	
.0506	.3038	
.0523	.2975	
.0529	.2936	
.0559	.2738	
.0578	.2638	
.0815	.2286	
.1012	.1977	
.1306	.1739	
.208	.1432	
.2862	.1274	
.3804	.1157	
.544	.1033	

System: 1-propanol + water + calcium chloride; phases: Liquid mixture 2, Liquid mixture 1
Property: Mass fraction of 1-propanol (Liquid mixture 2); method: Titration method
Property: Mass fraction of 1-propanol (Liquid mixture 1); method: Titration method
Property: Mass fraction of calcium chloride (Liquid mixture 1); method: Titration method
Temperature, K	Pressure, kPa	Mass fraction of calcium chloride	Mass fraction of 1-propanol	uncertainty	Mass fraction of 1-propanol	uncertainty	Mass fraction of calcium chloride	uncertainty
298.15	101.325	.2319	.0781	.001	.4432	.001	.1084	.001
298.15	101.325	.291	.0531	.001	.6742	.001	.0968	.001
298.15	101.325	.3202	.0447	.001	.7424	.001	.0941	.001
298.15	101.325	.3061	.0485	.001	.6978	.001	.0957	.001

System: 2-propanol + potassium chloride + water; phases: Liquid mixture 1, Liquid mixture 2
Fixed: Pressure, kPa = 100
Fixed: Temperature, K = 298.15
Property: Mass fraction of potassium chloride (Liquid mixture 1); method: Titration method
Mass fraction of 2-propanol	Mass fraction of potassium chloride	uncertainty
.1467	.1849	
.1773	.1728	
.1823	.1676	
.1923	.1615	
.2158	.1529	
.2471	.1431	
.2635	.1363	
.329	.1186	
.3671	.1044	
.3663	.1014	
.4182	.0871	
.435	.0848	
.4587	.0785	
.4615	.0754	
.4969	.0679	
.4979	.0653	
.5373	.0578	
.5514	.0538	
.5711	.0493	
.5837	.0458	
.6119	.0408	
.6133	.0387	
.6327	.0349	
.63	.0333	
.6438	.0318	
.6722	.0257	
.6973	.0207	

System: 2-propanol + potassium chloride + water; phases: Liquid mixture 2, Liquid mixture 1
Property: Mass fraction of potassium chloride (Liquid mixture 2); method: Titration method
Property: Mass fraction of 2-propanol (Liquid mixture 1); method: Titration method
Property: Mass fraction of potassium chloride (Liquid mixture 1); method: Titration method
Temperature, K	Pressure, kPa	Mass fraction of 2-propanol	Mass fraction of potassium chloride	uncertainty	Mass fraction of 2-propanol	uncertainty	Mass fraction of potassium chloride	uncertainty
298.15	101.325	.1662	.1757	.001	.5761	.001	.0478	.001
298.15	101.325	.1302	.1933	.001	.6312	.001	.0373	.001
298.15	101.325	.1845	.1672	.001	.5386	.001	.057	.001
298.15	101.325	.1479	.1843	.001	.6135	.001	.0387	.001

System: 2-propanol + sodium chloride + water; phases: Liquid mixture 1, Liquid mixture 2
Fixed: Pressure, kPa = 100
Fixed: Temperature, K = 298.15
Property: Mass fraction of sodium chloride (Liquid mixture 1); method: Titration method
Mass fraction of 2-propanol	Mass fraction of sodium chloride	uncertainty
.0512	.233	
.0618	.2252	
.0788	.2119	
.083	.2063	
.0833	.2017	
.0913	.1908	
.1042	.1926	
.1137	.1817	
.1176	.1765	
.1282	.17	
.1336	.1646	
.1396	.1549	
.144	.1583	
.1774	.1437	
.1783	.1402	
.1964	.1323	
.2074	.1268	
.2251	.1198	
.2596	.111	
.3324	.0958	
.3455	.0916	
.3832	.0833	
.4336	.0734	
.4482	.0684	
.4802	.0624	
.4912	.0585	
.5916	.0432	
.614	.0397	

System: 2-propanol + sodium chloride + water; phases: Liquid mixture 2, Liquid mixture 1
Property: Mass fraction of sodium chloride (Liquid mixture 2); method: Titration method
Property: Mass fraction of 2-propanol (Liquid mixture 1); method: Titration method
Property: Mass fraction of sodium chloride (Liquid mixture 1); method: Titration method
Temperature, K	Pressure, kPa	Mass fraction of 2-propanol	Mass fraction of sodium chloride	uncertainty	Mass fraction of 2-propanol	uncertainty	Mass fraction of sodium chloride	uncertainty
298.15	101.325	.1611	.15	.001	.6248	.001	.0384	.001
298.15	101.325	.1294	.169	.001	.7079	.001	.0233	.001
298.15	101.325	.0965	.1896	.001	.7431	.001	.0208	.001
298.15	101.325	.0703	.2127	.001	.7934	.001	.0144	.001

System: 2-propanol + water + calcium chloride; phases: Liquid mixture 1, Liquid mixture 2
Fixed: Pressure, kPa = 100
Fixed: Temperature, K = 298.15
Property: Mass fraction of calcium chloride (Liquid mixture 1); method: Titration method
Mass fraction of 2-propanol	Mass fraction of calcium chloride	uncertainty
.0349	.2914	
.0513	.2765	
.0564	.2706	
.0675	.2639	
.0688	.2565	
.0746	.2584	
.0762	.244	
.0793	.2501	
.0822	.2459	
.1069	.2282	
.1118	.2313	
.135	.2154	
.1392	.2111	
.1697	.1943	
.1953	.1853	
.2364	.17	
.2417	.166	
.2537	.1605	
.3249	.1385	
.417	.1129	
.5091	.0925	
.5918	.0733	

System: 2-propanol + water + calcium chloride; phases: Liquid mixture 2, Liquid mixture 1
Property: Mass fraction of calcium chloride (Liquid mixture 2); method: Titration method
Property: Mass fraction of 2-propanol (Liquid mixture 1); method: Titration method
Property: Mass fraction of calcium chloride (Liquid mixture 1); method: Titration method
Temperature, K	Pressure, kPa	Mass fraction of 2-propanol	Mass fraction of calcium chloride	uncertainty	Mass fraction of 2-propanol	uncertainty	Mass fraction of calcium chloride	uncertainty
298.15	101.325	.067	.263	.001	.5964	.001	.072	.001
298.15	101.325	.0431	.287	.001	.6405	.001	.0689	.001
298.15	101.325	.0767	.2508	.001	.5401	.001	.0846	.001
298.15	101.325	.0345	.3	.001	.6774	.001	.065	.001
