Measured thermophysical data. Density, viscosity and vapor-liquid equilibrium of the ternary system water - 1-ethyl-3-methylimidazolium acetate - 1-ethyl-3-methylimidazolium trifluoromethanesulfonate
Source: J. Chem. Eng. Data, 2017, 10.1021/acs.jced.6b00801
Compound 1: 1-ethyl-3-methylimidazolium acetate, C8H14N2O2, purity 99.2%
Compound 2: 1-ethyl-3-methylimidazolium trifluoromethanesulfonate, C7H11F3N2O3S, purity 99.1%
Compound 3: water, H2O, purity 99.9%

System: water + 1-ethyl-3-methylimidazolium acetate + 1-ethyl-3-methylimidazolium trifluoromethanesulfonate; phases: Liquid
Fixed: Pressure, kPa = 100
Property: Mass density, kg/m3 (Liquid); method: Pycnometric method
Temperature, K	Mole fraction of water	Mole fraction of 1-ethyl-3-methylimidazolium acetate	Mass density, kg/m3	uncertainty
293.15	.337	.64	1116.69	
313.15	.337	.64	1106.91	
333.15	.337	.64	1097.24	
353.15	.337	.64	1087.35	
293.15	.341	.612	1127.62	
313.15	.341	.612	1117.07	
333.15	.341	.612	1107.03	
353.15	.341	.612	1096.92	
313.15	.348	.555	1140.91	
293.15	.348	.555	1153.34	
333.15	.348	.555	1128.84	
353.15	.348	.555	1117.86	
313.15	.359	.492	1165.49	
333.15	.359	.492	1154.09	
293.15	.359	.492	1174	
353.15	.359	.492	1142.73	
293.15	.371	.426	1183.79	
313.15	.371	.426	1173.24	
333.15	.371	.426	1163.82	
353.15	.371	.426	1149.42	
293.15	.373	.395	1215.88	
313.15	.373	.395	1202.99	
333.15	.373	.395	1190.71	
353.15	.373	.395	1180.63	
313.15	.385	.324	1232.1	
293.15	.385	.324	1244.8	
333.15	.385	.324	1217.27	
353.15	.385	.324	1204.49	
313.15	.395	.25	1259.84	
333.15	.395	.25	1246.08	
293.15	.395	.25	1273.45	
353.15	.395	.25	1233.52	
293.15	.406	.172	1301.77	
313.15	.406	.172	1288.27	
333.15	.406	.172	1273.27	
353.15	.406	.172	1261.14	
313.15	.419	.089	1316.08	
293.15	.419	.089	1327.17	
333.15	.419	.089	1300.76	
353.15	.419	.089	1280.49	
313.15	.426	.045	1329.24	
293.15	.426	.045	1343.71	
333.15	.426	.045	1315.9	
353.15	.426	.045	1293.72	
313.15	.518	.465	1110.29	
333.15	.518	.465	1098.64	
293.15	.518	.465	1120.74	
353.15	.518	.465	1090.7	
313.15	.522	.442	1119.66	
333.15	.522	.442	1108.23	
293.15	.522	.442	1131.07	
353.15	.522	.442	1098.62	
313.15	.533	.393	1143.03	
293.15	.533	.393	1154.78	
333.15	.533	.393	1130.58	
353.15	.533	.393	1118.65	
313.15	.543	.344	1166.61	
333.15	.543	.344	1153	
293.15	.543	.344	1177.54	
353.15	.543	.344	1141.92	
333.15	.554	.292	1176.75	
293.15	.554	.292	1201.4	
313.15	.554	.292	1189.25	
353.15	.554	.292	1165.36	
313.15	.564	.24	1214.8	
333.15	.564	.24	1202.2	
293.15	.564	.24	1226.03	
353.15	.564	.24	1182.28	
313.15	.585	.18	1239.06	
333.15	.585	.18	1224.86	
293.15	.585	.18	1251.31	
353.15	.585	.18	1205.11	
293.15	.59	.125	1281.78	
333.15	.59	.125	1252.26	
313.15	.59	.125	1266.56	
353.15	.59	.125	1239.32	
333.15	.602	.064	1277.72	
293.15	.602	.064	1303.65	
313.15	.602	.064	1292.56	
353.15	.602	.064	1258.54	
293.15	.609	.032	1321.2	
313.15	.609	.032	1305.6	
333.15	.609	.032	1290.31	
353.15	.609	.032	1275.59	
293.15	.63	.355	1120.74	
333.15	.63	.355	1099.38	
313.15	.63	.355	1109.97	
353.15	.63	.355	1088.07	
293.15	.635	.335	1131.57	
333.15	.635	.335	1108.59	
313.15	.635	.335	1120.3	
353.15	.635	.335	1097.06	
333.15	.645	.295	1128.72	
293.15	.645	.295	1153.42	
313.15	.645	.295	1141.13	
353.15	.645	.295	1116.06	
333.15	.655	.255	1150.33	
293.15	.655	.255	1177.22	
313.15	.655	.255	1163.57	
353.15	.655	.255	1138.87	
293.15	.666	.211	1198.35	
313.15	.671	.189	1197.95	
333.15	.671	.189	1184.48	
333.15	.671	.189	1172.98	
293.15	.671	.189	1208.62	
313.15	.671	.189	1186.02	
353.15	.671	.189	1166.4	
353.15	.671	.189	1160.71	
293.15	.683	.144	1233.85	
313.15	.683	.144	1221.69	
333.15	.683	.144	1207.74	
353.15	.683	.144	1188.53	
333.15	.694	.098	1232.16	
293.15	.694	.098	1259.41	
313.15	.694	.098	1246.68	
353.15	.694	.098	1210.65	
313.15	.706	.05	1270.9	
333.15	.706	.05	1254.78	
293.15	.706	.05	1282.51	
353.15	.706	.05	1235.36	
293.15	.707	.281	1119.62	
313.15	.707	.281	1108.55	
333.15	.707	.281	1097.68	
353.15	.707	.281	1087.09	
333.15	.711	.264	1105.48	
293.15	.711	.264	1129.71	
313.15	.711	.264	1117.39	
353.15	.711	.264	1094.33	
313.15	.712	.025	1282.89	
293.15	.712	.025	1296.01	
333.15	.712	.025	1267.19	
353.15	.712	.025	1247.07	
313.15	.721	.229	1141.21	
293.15	.721	.229	1151.08	
333.15	.721	.229	1125.06	
353.15	.721	.229	1112.55	
293.15	.731	.193	1172.87	
313.15	.731	.193	1159.77	
333.15	.731	.193	1145.86	
353.15	.731	.193	1132.3	
293.15	.741	.157	1192.86	
333.15	.741	.157	1166.93	
313.15	.741	.157	1180.36	
353.15	.741	.157	1153.97	
313.15	.751	.119	1204.31	
293.15	.751	.119	1217.09	
333.15	.751	.119	1188.46	
353.15	.751	.119	1173.18	
333.15	.762	.08	1210.19	
313.15	.762	.08	1225.94	
293.15	.762	.08	1240.27	
353.15	.762	.08	1195.6	
313.15	.773	.041	1248.16	
293.15	.773	.041	1261.77	
333.15	.773	.041	1233.52	
353.15	.773	.041	1218.62	
333.15	.778	.021	1244.4	
313.15	.778	.021	1260.37	
293.15	.778	.021	1275.39	
353.15	.778	.021	1230.23	

System: water + 1-ethyl-3-methylimidazolium acetate + 1-ethyl-3-methylimidazolium trifluoromethanesulfonate; phases: Liquid
Fixed: Pressure, kPa = 100
Property: Viscosity, Pa*s (Liquid); method: Falling or rolling sphere viscometry
Temperature, K	Mole fraction of water	Mole fraction of 1-ethyl-3-methylimidazolium acetate	Viscosity, Pa*s	uncertainty
293.15	.337	.64	.0909	
293.15	.341	.612	.0871	
293.15	.348	.555	.0797	
293.15	.359	.492	.0721	
293.15	.371	.426	.0623	
293.15	.373	.395	.0585	
293.15	.385	.324	.05	
293.15	.395	.25	.0419	
293.15	.406	.172	.0341	
293.15	.419	.089	.0282	
293.15	.426	.045	.0239	
293.15	.518	.465	.0575	
293.15	.522	.442	.0549	
293.15	.533	.393	.0487	
293.15	.543	.344	.0426	
293.15	.554	.292	.0366	
293.15	.564	.24	.0324	
293.15	.585	.18	.0261	
293.15	.59	.125	.0204	
293.15	.602	.064	.0166	
293.15	.609	.032	.0133	
293.15	.63	.355	.0406	
293.15	.635	.335	.0384	
293.15	.645	.295	.0333	
293.15	.655	.255	.0289	
293.15	.666	.211	.0245	
293.15	.671	.189	.023	
293.15	.683	.144	.0189	
293.15	.694	.098	.015	
293.15	.706	.05	.0114	
293.15	.707	.281	.0307	
293.15	.711	.264	.0284	
293.15	.712	.025	.0097	
293.15	.721	.229	.0249	
293.15	.731	.193	.024	
293.15	.741	.157	.0172	
293.15	.751	.119	.0139	
293.15	.762	.08	.011	
293.15	.773	.041	.0084	
293.15	.778	.021	.0072	
313.15	.426	.045	.0129	
313.15	.518	.465	.0239	
313.15	.522	.442	.0228	
313.15	.359	.492	.0289	
313.15	.533	.393	.0207	
313.15	.543	.344	.0187	
313.15	.554	.292	.0167	
313.15	.564	.24	.0151	
313.15	.337	.64	.0343	
313.15	.585	.18	.0126	
313.15	.371	.426	.0258	
313.15	.59	.125	.0105	
313.15	.602	.064	.0088	
313.15	.341	.612	.0333	
313.15	.609	.032	.0074	
313.15	.373	.395	.025	
313.15	.63	.355	.0173	
313.15	.635	.335	.0166	
313.15	.645	.295	.0148	
313.15	.385	.324	.0221	
313.15	.655	.255	.0132	
313.15	.671	.189	.011	
313.15	.671	.189	.0115	
313.15	.683	.144	.0093	
313.15	.395	.25	.0195	
313.15	.694	.098	.0078	
313.15	.706	.05	.0062	
313.15	.707	.281	.0135	
313.15	.711	.264	.0125	
313.15	.712	.025	.0055	
313.15	.348	.555	.0314	
313.15	.721	.229	.011	
313.15	.406	.172	.0167	
313.15	.731	.193	.0096	
313.15	.741	.157	.0083	
313.15	.751	.119	.0069	
313.15	.419	.089	.0144	
313.15	.762	.08	.0058	
313.15	.773	.041	.0046	
313.15	.778	.021	.0041	
333.15	.359	.492	.0146	
333.15	.533	.393	.0109	
333.15	.609	.032	.0047	
333.15	.63	.355	.009	
333.15	.518	.465	.0121	
333.15	.373	.395	.0132	
333.15	.635	.335	.0087	
333.15	.543	.344	.01	
333.15	.645	.295	.008	
333.15	.655	.255	.0072	
333.15	.554	.292	.0091	
333.15	.341	.612	.0163	
333.15	.671	.189	.0062	
333.15	.671	.189	.0065	
333.15	.385	.324	.012	
333.15	.683	.144	.0054	
333.15	.694	.098	.0047	
333.15	.564	.24	.0084	
333.15	.426	.045	.0078	
333.15	.706	.05	.0039	
333.15	.395	.25	.0108	
333.15	.707	.281	.0071	
333.15	.711	.264	.0067	
333.15	.522	.442	.0117	
333.15	.585	.18	.0072	
333.15	.712	.025	.0035	
333.15	.371	.426	.0132	
333.15	.721	.229	.006	
333.15	.406	.172	.0096	
333.15	.59	.125	.0062	
333.15	.731	.193	.0054	
333.15	.741	.157	.0048	
333.15	.602	.064	.0054	
333.15	.751	.119	.0041	
333.15	.762	.08	.0035	
333.15	.337	.64	.0166	
333.15	.348	.555	.0157	
333.15	.419	.089	.0086	
333.15	.773	.041	.0029	
333.15	.778	.021	.0027	
353.15	.341	.612	.0094	
353.15	.564	.24	.0053	
353.15	.359	.492	.0086	
353.15	.707	.281	.0043	
353.15	.609	.032	.0033	
353.15	.395	.25	.0068	
353.15	.373	.395	.0079	
353.15	.711	.264	.0041	
353.15	.337	.64	.0095	
353.15	.426	.045	.0053	
353.15	.348	.555	.009	
353.15	.712	.025	.0025	
353.15	.585	.18	.0047	
353.15	.671	.189	.004	
353.15	.671	.189	.0041	
353.15	.721	.229	.0038	
353.15	.385	.324	.0073	
353.15	.554	.292	.0056	
353.15	.645	.295	.0049	
353.15	.731	.193	.0034	
353.15	.406	.172	.0061	
353.15	.683	.144	.0036	
353.15	.522	.442	.0069	
353.15	.741	.157	.0031	
353.15	.59	.125	.0041	
353.15	.533	.393	.0065	
353.15	.518	.465	.0071	
353.15	.751	.119	.0027	
353.15	.543	.344	.006	
353.15	.371	.426	.0079	
353.15	.694	.098	.0031	
353.15	.762	.08	.0024	
353.15	.63	.355	.0054	
353.15	.655	.255	.0045	
353.15	.635	.335	.0053	
353.15	.773	.041	.0021	
353.15	.706	.05	.0027	
353.15	.602	.064	.0037	
353.15	.419	.089	.0057	
353.15	.778	.021	.0019	

System: water + 1-ethyl-3-methylimidazolium acetate + 1-ethyl-3-methylimidazolium trifluoromethanesulfonate; phases: Liquid, Gas
Property: Vapor or sublimation pressure, kPa (Liquid); method: spectroscopy
Temperature, K	Mole fraction of water	Mole fraction of 1-ethyl-3-methylimidazolium acetate	Vapor or sublimation pressure, kPa	uncertainty
293.13	.337	.64	.293	
293.13	.399	.512	.313	
293.12	.517	.465	.319	
293.12	.399	.379	.321	
303.12	.337	.64	.349	
293.17	.63	.355	.359	
293.15	.645	.296	.368	
293.11	.707	.281	.371	
293.13	.532	.394	.374	
303.18	.399	.512	.377	
313.13	.337	.64	.395	
293.13	.552	.292	.411	
303.11	.517	.465	.414	
303.19	.399	.379	.418	
293.12	.72	.23	.438	
323.19	.337	.64	.449	
303.12	.63	.355	.464	
303.16	.532	.394	.504	
313.14	.399	.512	.506	
313.18	.399	.379	.508	
313.16	.517	.465	.516	
303.15	.645	.296	.523	
303.11	.552	.292	.534	
333.17	.337	.64	.534	
303.12	.707	.281	.578	
323.16	.399	.512	.627	
313.19	.532	.394	.723	
313.13	.63	.356	.826	
303.13	.72	.23	.834	
333.16	.398	.512	1.045	
323.14	.517	.465	1.165	
343.18	.336	.64	1.238	
313.17	.644	.296	1.257	
323.11	.398	.38	1.29	
323.16	.531	.395	1.369	
313.19	.706	.281	1.613	
313.15	.551	.292	1.614	
323.15	.629	.356	1.934	
313.13	.719	.23	1.942	
333.16	.516	.466	2.024	
353.15	.336	.641	2.025	
333.17	.531	.395	2.12	
333.11	.398	.38	2.136	
343.17	.397	.513	2.191	
323.18	.644	.296	2.453	
323.15	.55	.292	2.609	
353.17	.396	.513	3.094	
343.17	.515	.466	3.228	
323.18	.706	.281	3.266	
333.12	.628	.356	3.278	
323.12	.719	.23	3.321	
343.11	.396	.381	3.421	
343.12	.53	.395	3.569	
333.16	.549	.293	4.05	
333.11	.643	.297	4.19	
353.16	.514	.467	4.728	
353.13	.395	.381	4.845	
343.15	.627	.357	5.038	
353.15	.529	.396	5.064	
333.19	.718	.23	5.139	
333.2	.705	.282	5.171	
343.15	.548	.293	6.117	
343.11	.641	.297	6.245	
353.15	.626	.357	7.479	
343.11	.704	.282	7.862	
343.15	.716	.231	8.979	
353.19	.546	.294	9.051	
353.15	.64	.298	9.5	
353.14	.702	.283	11.576	
353.14	.702	.283	11.619	
353.15	.713	.232	15.164	

System: water + 1-ethyl-3-methylimidazolium acetate + 1-ethyl-3-methylimidazolium trifluoromethanesulfonate; phases: Gas, Liquid
Property: Mole fraction of 1-ethyl-3-methylimidazolium acetate (Gas); method: spectroscopy
Temperature, K	Mole fraction of water	Mole fraction of 1-ethyl-3-methylimidazolium acetate	Mole fraction of 1-ethyl-3-methylimidazolium acetate	uncertainty
293.13	.337	.64	0	
303.12	.337	.64	0	
313.13	.337	.64	0	
323.19	.337	.64	0	
333.17	.337	.64	0	
343.18	.336	.64	0	
353.15	.336	.641	0	
293.17	.63	.355	0	
303.12	.63	.355	0	
313.13	.63	.356	0	
323.15	.629	.356	0	
333.12	.628	.356	0	
343.15	.627	.357	0	
353.15	.626	.357	0	
293.12	.517	.465	0	
303.11	.517	.465	0	
313.16	.517	.465	0	
323.14	.517	.465	0	
333.16	.516	.466	0	
343.17	.515	.466	0	
353.16	.514	.467	0	
293.11	.707	.281	0	
303.12	.707	.281	0	
313.19	.706	.281	0	
323.18	.706	.281	0	
333.2	.705	.282	0	
343.11	.704	.282	0	
353.14	.702	.283	0	
353.14	.702	.283	0	
293.13	.399	.512	0	
303.18	.399	.512	0	
313.14	.399	.512	0	
323.16	.399	.512	0	
333.16	.398	.512	0	
343.17	.397	.513	0	
353.17	.396	.513	0	
293.13	.532	.394	0	
303.16	.532	.394	0	
313.19	.532	.394	0	
323.16	.531	.395	0	
333.17	.531	.395	0	
343.12	.53	.395	0	
353.15	.529	.396	0	
293.15	.645	.296	0	
303.15	.645	.296	0	
313.17	.644	.296	0	
323.18	.644	.296	0	
333.11	.643	.297	0	
343.11	.641	.297	0	
353.15	.64	.298	0	
293.12	.72	.23	0	
303.13	.72	.23	0	
313.13	.719	.23	0	
323.12	.719	.23	0	
333.19	.718	.23	0	
343.15	.716	.231	0	
353.15	.713	.232	0	
293.12	.399	.379	0	
303.19	.399	.379	0	
313.18	.399	.379	0	
323.11	.398	.38	0	
333.11	.398	.38	0	
343.11	.396	.381	0	
353.13	.395	.381	0	
293.13	.552	.292	0	
303.11	.552	.292	0	
313.15	.551	.292	0	
323.15	.55	.292	0	
333.16	.549	.293	0	
343.15	.548	.293	0	
353.19	.546	.294	0	

System: water + 1-ethyl-3-methylimidazolium acetate + 1-ethyl-3-methylimidazolium trifluoromethanesulfonate; phases: Gas, Liquid
Property: Mole fraction of 1-ethyl-3-methylimidazolium trifluoromethanesulfonate (Gas); method: spectroscopy
Temperature, K	Mole fraction of water	Mole fraction of 1-ethyl-3-methylimidazolium acetate	Mole fraction of 1-ethyl-3-methylimidazolium trifluoromethanesulfonate	uncertainty
293.13	.337	.64	0	
303.12	.337	.64	0	
313.13	.337	.64	0	
323.19	.337	.64	0	
333.17	.337	.64	0	
343.18	.336	.64	0	
353.15	.336	.641	0	
293.17	.63	.355	0	
303.12	.63	.355	0	
313.13	.63	.356	0	
323.15	.629	.356	0	
333.12	.628	.356	0	
343.15	.627	.357	0	
353.15	.626	.357	0	
293.12	.517	.465	0	
303.11	.517	.465	0	
313.16	.517	.465	0	
323.14	.517	.465	0	
333.16	.516	.466	0	
343.17	.515	.466	0	
353.16	.514	.467	0	
293.11	.707	.281	0	
303.12	.707	.281	0	
313.19	.706	.281	0	
323.18	.706	.281	0	
333.2	.705	.282	0	
343.11	.704	.282	0	
353.14	.702	.283	0	
353.14	.702	.283	0	
293.13	.399	.512	0	
303.18	.399	.512	0	
313.14	.399	.512	0	
323.16	.399	.512	0	
333.16	.398	.512	0	
343.17	.397	.513	0	
353.17	.396	.513	0	
293.13	.532	.394	0	
303.16	.532	.394	0	
313.19	.532	.394	0	
323.16	.531	.395	0	
333.17	.531	.395	0	
343.12	.53	.395	0	
353.15	.529	.396	0	
293.15	.645	.296	0	
303.15	.645	.296	0	
313.17	.644	.296	0	
323.18	.644	.296	0	
333.11	.643	.297	0	
343.11	.641	.297	0	
353.15	.64	.298	0	
293.12	.72	.23	0	
303.13	.72	.23	0	
313.13	.719	.23	0	
323.12	.719	.23	0	
333.19	.718	.23	0	
343.15	.716	.231	0	
353.15	.713	.232	0	
293.12	.399	.379	0	
303.19	.399	.379	0	
313.18	.399	.379	0	
323.11	.398	.38	0	
333.11	.398	.38	0	
343.11	.396	.381	0	
353.13	.395	.381	0	
293.13	.552	.292	0	
303.11	.552	.292	0	
313.15	.551	.292	0	
323.15	.55	.292	0	
333.16	.549	.293	0	
343.15	.548	.293	0	
353.19	.546	.294	0	
