Measured thermophysical data. Densities and Viscosities of Polyhydroxy Solutes in Aqueous Tetraethylammonium Bromide Solutions at Different Temperatures
Source: J. Chem. Eng. Data, 2016, 10.1021/acs.jced.5b00940
Compound 1: tetraethylammonium bromide, C8H20BrN, purity 95%
Compound 2: water, H2O, purity 99.9%
Compound 3: D-(-)-arabinose, C5H10O5, purity 99%
Compound 4: arabinitol, D-, C5H12O5, purity 99%
Compound 5: xylose, D-, C5H10O5, purity 99%
Compound 6: xylitol, C5H12O5, purity 99%
Compound 7: L-sorbose, C6H12O6, purity 98%
Compound 8: D-sorbitol, C6H14O6, purity 98%
Compound 9: (+)-galactose, C6H12O6, purity 99%
Compound 10: dulcitol, C6H14O6, purity 99%
Compound 11: D-glucose, C6H12O6, purity 99%
Compound 12: D-(+)-maltose, C12H22O11, purity 95%

System: tetraethylammonium bromide + water + D-(-)-arabinose; phases: Liquid
Fixed: Pressure, kPa = 100
Property: Mass density, kg/m3 (Liquid); method: Vibrating tube method
Solvent: Molality, mol/kg of tetraethylammonium bromide	Temperature, K	Molality, mol/kg of D-(-)-arabinose	Mass density, kg/m3	uncertainty
.05	288.15	0	1001.825	
.05	288.15	.05017	1004.718	
.05	288.15	.07233	1005.984	
.05	288.15	.09072	1007.03	
.05	288.15	.10871	1008.051	
.05	288.15	.12574	1009.012	
.05	288.15	.14947	1010.345	
.05	288.15	.16591	1011.263	
.05	288.15	.19302	1012.769	
.05	288.15	.2074	1013.567	
.05	298.15	0	998.859	
.05	298.15	.05017	1001.691	
.05	298.15	.07233	1002.926	
.05	298.15	.09072	1003.943	
.05	298.15	.10871	1004.932	
.05	298.15	.12574	1005.858	
.05	298.15	.14947	1007.147	
.05	298.15	.16591	1008.028	
.05	298.15	.19302	1009.477	
.05	298.15	.2074	1010.238	
.05	308.15	0	993.878	
.05	308.15	.05017	996.661	
.05	308.15	.07233	997.872	
.05	308.15	.09072	998.868	
.05	308.15	.10871	999.839	
.05	308.15	.12574	1000.747	
.05	308.15	.14947	1002.011	
.05	308.15	.16591	1002.871	
.05	308.15	.19302	1004.293	
.05	308.15	.2074	1005.035	
.05	318.15	0	991.993	
.05	318.15	.05017	994.718	
.05	318.15	.07233	995.906	
.05	318.15	.09072	996.883	
.05	318.15	.10871	997.834	
.05	318.15	.12574	998.726	
.05	318.15	.14947	999.965	
.05	318.15	.16591	1000.812	
.05	318.15	.19302	1002.198	
.05	318.15	.2074	1002.924	
.5	288.15	0	1017.913	
.5	288.15	.05028	1020.938	
.5	288.15	.06958	1022.081	
.5	288.15	.08695	1023.102	
.5	288.15	.10823	1024.347	
.5	288.15	.12805	1025.491	
.5	288.15	.14893	1026.688	
.5	288.15	.16787	1027.764	
.5	288.15	.1877	1028.887	
.5	288.15	.20811	1030.028	
.5	298.15	0	1015.985	
.5	298.15	.05028	1018.947	
.5	298.15	.06958	1020.069	
.5	298.15	.08695	1021.068	
.5	298.15	.10823	1022.281	
.5	298.15	.12805	1023.401	
.5	298.15	.14893	1024.574	
.5	298.15	.16787	1025.63	
.5	298.15	.1877	1026.733	
.5	298.15	.20811	1027.844	
.5	308.15	0	1010.17	
.5	308.15	.05028	1013.072	
.5	308.15	.06958	1014.17	
.5	308.15	.08695	1015.154	
.5	308.15	.10823	1016.349	
.5	308.15	.12805	1017.454	
.5	308.15	.14893	1018.61	
.5	308.15	.16787	1019.649	
.5	308.15	.1877	1020.731	
.5	308.15	.20811	1021.834	
.5	318.15	0	1007.208	
.5	318.15	.05028	1010.037	
.5	318.15	.06958	1011.111	
.5	318.15	.08695	1012.071	
.5	318.15	.10823	1013.237	
.5	318.15	.12805	1014.318	
.5	318.15	.14893	1015.445	
.5	318.15	.16787	1016.461	
.5	318.15	.1877	1017.521	
.5	318.15	.20811	1018.604	
1	288.15	0	1035.824	
1	288.15	.05115	1038.906	
1	288.15	.07162	1040.124	
1	288.15	.08965	1041.189	
1	288.15	.10914	1042.334	
1	288.15	.12714	1043.383	
1	288.15	.1525	1044.854	
1	288.15	.17179	1045.96	
1	288.15	.18932	1046.961	
1	288.15	.20557	1047.889	
1	298.15	0	1032.567	
1	298.15	.05115	1035.577	
1	298.15	.07162	1036.768	
1	298.15	.08965	1037.806	
1	298.15	.10914	1038.921	
1	298.15	.12714	1039.944	
1	298.15	.1525	1041.379	
1	298.15	.17179	1042.447	
1	298.15	.18932	1043.424	
1	298.15	.20557	1044.322	
1	308.15	0	1027.253	
1	308.15	.05115	1030.191	
1	308.15	.07162	1031.351	
1	308.15	.08965	1032.365	
1	308.15	.10914	1033.452	
1	308.15	.12714	1034.45	
1	308.15	.1525	1035.846	
1	308.15	.17179	1036.894	
1	308.15	.18932	1037.842	
1	308.15	.20557	1038.716	
1	318.15	0	1023.501	
1	318.15	.05115	1026.359	
1	318.15	.07162	1027.484	
1	318.15	.08965	1028.466	
1	318.15	.10914	1029.521	
1	318.15	.12714	1030.484	
1	318.15	.1525	1031.841	
1	318.15	.17179	1032.862	
1	318.15	.18932	1033.779	
1	318.15	.20557	1034.626	
2	288.15	0	1060.978	
2	288.15	.04889	1063.945	
2	288.15	.07019	1065.225	
2	288.15	.09001	1066.407	
2	288.15	.10768	1067.457	
2	288.15	.13218	1068.899	
2	288.15	.15283	1070.11	
2	288.15	.19009	1072.283	
2	288.15	.21081	1073.473	
2	298.15	0	1057.937	
2	298.15	.04889	1061.134	
2	298.15	.07019	1062.382	
2	298.15	.09001	1063.539	
2	298.15	.10768	1064.56	
2	298.15	.13218	1065.97	
2	298.15	.15283	1067.147	
2	298.15	.19009	1069.257	
2	298.15	.21081	1070.409	
2	308.15	0	1051.906	
2	308.15	.04889	1054.736	
2	308.15	.07019	1055.954	
2	308.15	.09001	1057.078	
2	308.15	.10768	1058.069	
2	308.15	.13218	1059.438	
2	308.15	.15283	1060.586	
2	308.15	.19009	1062.63	
2	308.15	.21081	1063.758	
2	318.15	0	1046.828	
2	318.15	.04889	1049.591	
2	318.15	.07019	1050.781	
2	318.15	.09001	1051.883	
2	318.15	.10768	1052.858	
2	318.15	.13218	1054.202	
2	318.15	.15283	1055.322	
2	318.15	.19009	1057.331	
2	318.15	.21081	1058.429	

System: tetraethylammonium bromide + water + D-(-)-arabinose; phases: Liquid
Fixed: Pressure, kPa = 100
Property: Viscosity, Pa*s (Liquid); method: Capillary tube (Ostwald; Ubbelohde) method
Solvent: Molality, mol/kg of tetraethylammonium bromide	Temperature, K	Molality, mol/kg of D-(-)-arabinose	Viscosity, Pa*s	uncertainty
.05	288.15	0	.00116	
.05	288.15	.05017	.001185	
.05	288.15	.07233	.001196	
.05	288.15	.09072	.001205	
.05	288.15	.10871	.001213	
.05	288.15	.12574	.001222	
.05	288.15	.14947	.001233	
.05	288.15	.16591	.001241	
.05	288.15	.19302	.001254	
.05	288.15	.2074	.001261	
.05	298.15	0	.000904	
.05	298.15	.05017	.000922	
.05	298.15	.07233	.00093	
.05	298.15	.09072	.000936	
.05	298.15	.10871	.000943	
.05	298.15	.12574	.000949	
.05	298.15	.14947	.000957	
.05	298.15	.16591	.000963	
.05	298.15	.19302	.000972	
.05	298.15	.2074	.000977	
.05	308.15	0	.000731	
.05	308.15	.05017	.000743	
.05	308.15	.07233	.000749	
.05	308.15	.09072	.000753	
.05	308.15	.10871	.000757	
.05	308.15	.12574	.000761	
.05	308.15	.14947	.000767	
.05	308.15	.16591	.000771	
.05	308.15	.19302	.000777	
.05	308.15	.2074	.000781	
.05	318.15	0	.000612	
.05	318.15	.05017	.000621	
.05	318.15	.07233	.000625	
.05	318.15	.09072	.000628	
.05	318.15	.10871	.000631	
.05	318.15	.12574	.000634	
.05	318.15	.14947	.000639	
.05	318.15	.16591	.000641	
.05	318.15	.19302	.000646	
.05	318.15	.2074	.000649	
.5	288.15	0	.001341	
.5	288.15	.05028	.001385	
.5	288.15	.06958	.001402	
.5	288.15	.08695	.001417	
.5	288.15	.10823	.001436	
.5	288.15	.12805	.001453	
.5	288.15	.14893	.001471	
.5	288.15	.16787	.001487	
.5	288.15	.1877	.001504	
.5	288.15	.20811	.001522	
.5	298.15	0	.001043	
.5	298.15	.05028	.001075	
.5	298.15	.06958	.001087	
.5	298.15	.08695	.001098	
.5	298.15	.10823	.001111	
.5	298.15	.12805	.001124	
.5	298.15	.14893	.001137	
.5	298.15	.16787	.001149	
.5	298.15	.1877	.001161	
.5	298.15	.20811	.001174	
.5	308.15	0	.000836	
.5	308.15	.05028	.000859	
.5	308.15	.06958	.000868	
.5	308.15	.08695	.000876	
.5	308.15	.10823	.000886	
.5	308.15	.12805	.000895	
.5	308.15	.14893	.000904	
.5	308.15	.16787	.000913	
.5	308.15	.1877	.000922	
.5	308.15	.20811	.000931	
.5	318.15	0	.0007	
.5	318.15	.05028	.000718	
.5	318.15	.06958	.000724	
.5	318.15	.08695	.00073	
.5	318.15	.10823	.000738	
.5	318.15	.12805	.000745	
.5	318.15	.14893	.000752	
.5	318.15	.16787	.000759	
.5	318.15	.1877	.000766	
.5	318.15	.20811	.000773	
1	288.15	0	.00155	
1	288.15	.05115	.001612	
1	288.15	.07162	.001636	
1	288.15	.08965	.001658	
1	288.15	.10914	.001681	
1	288.15	.12714	.001703	
1	288.15	.1525	.001733	
1	288.15	.17179	.001755	
1	288.15	.18932	.001776	
1	288.15	.20557	.001795	
1	298.15	0	.001209	
1	298.15	.05115	.001254	
1	298.15	.07162	.001271	
1	298.15	.08965	.001287	
1	298.15	.10914	.001304	
1	298.15	.12714	.001319	
1	298.15	.1525	.001341	
1	298.15	.17179	.001357	
1	298.15	.18932	.001372	
1	298.15	.20557	.001386	
1	308.15	0	.000959	
1	308.15	.05115	.000991	
1	308.15	.07162	.001003	
1	308.15	.08965	.001015	
1	308.15	.10914	.001027	
1	308.15	.12714	.001038	
1	308.15	.1525	.001053	
1	308.15	.17179	.001065	
1	308.15	.18932	.001075	
1	308.15	.20557	.001085	
1	318.15	0	.000792	
1	318.15	.05115	.000816	
1	318.15	.07162	.000825	
1	318.15	.08965	.000834	
1	318.15	.10914	.000843	
1	318.15	.12714	.000851	
1	318.15	.1525	.000862	
1	318.15	.17179	.000871	
1	318.15	.18932	.000879	
1	318.15	.20557	.000886	
2	288.15	0	.001942	
2	288.15	.04889	.002028	
2	288.15	.07019	.002066	
2	288.15	.09001	.0021	
2	288.15	.10768	.002131	
2	288.15	.13218	.002173	
2	288.15	.15283	.002209	
2	288.15	.19009	.002273	
2	288.15	.21081	.002308	
2	298.15	0	.001513	
2	298.15	.04889	.001575	
2	298.15	.07019	.001601	
2	298.15	.09001	.001626	
2	298.15	.10768	.001648	
2	298.15	.13218	.001678	
2	298.15	.15283	.001704	
2	298.15	.19009	.001749	
2	298.15	.21081	.001775	
2	308.15	0	.001189	
2	308.15	.04889	.001233	
2	308.15	.07019	.001251	
2	308.15	.09001	.001269	
2	308.15	.10768	.001284	
2	308.15	.13218	.001306	
2	308.15	.15283	.001324	
2	308.15	.19009	.001356	
2	308.15	.21081	.001374	
2	318.15	0	.000952	
2	318.15	.04889	.000984	
2	318.15	.07019	.000998	
2	318.15	.09001	.001011	
2	318.15	.10768	.001022	
2	318.15	.13218	.001038	
2	318.15	.15283	.001051	
2	318.15	.19009	.001075	
2	318.15	.21081	.001088	

System: tetraethylammonium bromide + arabinitol, D- + water; phases: Liquid
Fixed: Pressure, kPa = 100
Property: Mass density, kg/m3 (Liquid); method: Vibrating tube method
Solvent: Molality, mol/kg of tetraethylammonium bromide	Temperature, K	Molality, mol/kg of arabinitol, D-	Mass density, kg/m3	uncertainty
.05	288.15	.05029	1004.327	
.05	288.15	.0698	1005.281	
.05	288.15	.09016	1006.272	
.05	288.15	.10854	1007.154	
.05	288.15	.12744	1008.06	
.05	288.15	.14686	1008.976	
.05	298.15	.05029	1001.313	
.05	298.15	.0698	1002.249	
.05	298.15	.09016	1003.223	
.05	298.15	.10854	1004.091	
.05	298.15	.12744	1004.975	
.05	298.15	.14686	1005.883	
.05	308.15	.05029	996.297	
.05	308.15	.0698	997.223	
.05	308.15	.09016	998.176	
.05	308.15	.10854	999.031	
.05	308.15	.12744	999.905	
.05	308.15	.14686	1000.793	
.05	318.15	.05029	994.382	
.05	318.15	.0698	995.296	
.05	318.15	.09016	996.241	
.05	318.15	.10854	997.09	
.05	318.15	.12744	997.959	
.05	318.15	.14686	998.843	
.5	288.15	.05064	1020.454	
.5	288.15	.07053	1021.437	
.5	288.15	.08835	1022.308	
.5	288.15	.10746	1023.235	
.5	288.15	.12919	1024.281	
.5	288.15	.15196	1025.367	
.5	298.15	.05064	1018.488	
.5	298.15	.07053	1019.458	
.5	298.15	.08835	1020.322	
.5	298.15	.10746	1021.244	
.5	298.15	.12919	1022.284	
.5	298.15	.15196	1023.364	
.5	308.15	.05064	1012.643	
.5	308.15	.07053	1013.601	
.5	308.15	.08835	1014.458	
.5	308.15	.10746	1015.369	
.5	308.15	.12919	1016.396	
.5	308.15	.15196	1017.462	
.5	318.15	.05064	1009.642	
.5	318.15	.07053	1010.579	
.5	318.15	.08835	1011.416	
.5	318.15	.10746	1012.299	
.5	318.15	.12919	1013.294	
.5	318.15	.15196	1014.326	
1	288.15	.04707	1038.18	
1	288.15	.0693	1039.277	
1	288.15	.09044	1040.311	
1	288.15	.10953	1041.236	
1	288.15	.13099	1042.264	
1	288.15	.1502	1043.183	
1	298.15	.04707	1034.883	
1	298.15	.0693	1035.958	
1	298.15	.09044	1036.971	
1	298.15	.10953	1037.875	
1	298.15	.13099	1038.885	
1	298.15	.1502	1039.777	
1	308.15	.04707	1029.54	
1	308.15	.0693	1030.596	
1	308.15	.09044	1031.587	
1	308.15	.10953	1032.476	
1	308.15	.13099	1033.46	
1	308.15	.1502	1034.333	
1	318.15	.04707	1025.756	
1	318.15	.0693	1026.794	
1	318.15	.09044	1027.766	
1	318.15	.10953	1028.632	
1	318.15	.13099	1029.598	
1	318.15	.1502	1030.447	
2	288.15	.04771	1063.335	
2	288.15	.06438	1064.151	
2	288.15	.0827	1065.042	
2	288.15	.11428	1066.569	
2	288.15	.13216	1067.426	
2	288.15	.14772	1068.168	
2	298.15	.04771	1060.543	
2	298.15	.06438	1061.337	
2	298.15	.0827	1062.199	
2	298.15	.11428	1063.677	
2	298.15	.13216	1064.501	
2	298.15	.14772	1065.217	
2	308.15	.04771	1054.186	
2	308.15	.06438	1054.974	
2	308.15	.0827	1055.831	
2	308.15	.11428	1057.289	
2	308.15	.13216	1058.11	
2	308.15	.14772	1058.814	
2	318.15	.04771	1049.064	
2	318.15	.06438	1049.824	
2	318.15	.0827	1050.64	
2	318.15	.11428	1052.031	
2	318.15	.13216	1052.807	
2	318.15	.14772	1053.467	

System: tetraethylammonium bromide + arabinitol, D- + water; phases: Liquid
Fixed: Pressure, kPa = 100
Property: Viscosity, Pa*s (Liquid); method: Capillary tube (Ostwald; Ubbelohde) method
Solvent: Molality, mol/kg of tetraethylammonium bromide	Temperature, K	Molality, mol/kg of arabinitol, D-	Viscosity, Pa*s	uncertainty
.05	288.15	.05029	.001186	
.05	288.15	.0698	.001196	
.05	288.15	.09016	.001207	
.05	288.15	.10854	.001216	
.05	288.15	.12744	.001226	
.05	288.15	.14686	.001236	
.05	298.15	.05029	.000921	
.05	298.15	.0698	.000928	
.05	298.15	.09016	.000935	
.05	298.15	.10854	.000942	
.05	298.15	.12744	.000948	
.05	298.15	.14686	.000955	
.05	308.15	.05029	.000743	
.05	308.15	.0698	.000748	
.05	308.15	.09016	.000753	
.05	308.15	.10854	.000757	
.05	308.15	.12744	.000762	
.05	308.15	.14686	.000766	
.05	318.15	.05029	.000621	
.05	318.15	.0698	.000624	
.05	318.15	.09016	.000628	
.05	318.15	.10854	.000631	
.05	318.15	.12744	.000634	
.05	318.15	.14686	.000637	
.5	288.15	.05064	.001382	
.5	288.15	.07053	.001398	
.5	288.15	.08835	.001412	
.5	288.15	.10746	.001428	
.5	288.15	.12919	.001445	
.5	288.15	.15196	.001463	
.5	298.15	.05064	.00107	
.5	298.15	.07053	.00108	
.5	298.15	.08835	.00109	
.5	298.15	.10746	.0011	
.5	298.15	.12919	.001111	
.5	298.15	.15196	.001123	
.5	308.15	.05064	.000854	
.5	308.15	.07053	.000861	
.5	308.15	.08835	.000867	
.5	308.15	.10746	.000873	
.5	308.15	.12919	.000881	
.5	308.15	.15196	.000889	
.5	318.15	.05064	.000712	
.5	318.15	.07053	.000716	
.5	318.15	.08835	.00072	
.5	318.15	.10746	.000725	
.5	318.15	.12919	.00073	
.5	318.15	.15196	.000735	
1	288.15	.04707	.001609	
1	288.15	.0693	.001636	
1	288.15	.09044	.001662	
1	288.15	.10953	.001685	
1	288.15	.13099	.001712	
1	288.15	.1502	.001735	
1	298.15	.04707	.001247	
1	298.15	.0693	.001265	
1	298.15	.09044	.001283	
1	298.15	.10953	.001298	
1	298.15	.13099	.001315	
1	298.15	.1502	.00133	
1	308.15	.04707	.000983	
1	308.15	.0693	.000994	
1	308.15	.09044	.001005	
1	308.15	.10953	.001014	
1	308.15	.13099	.001025	
1	308.15	.1502	.001034	
1	318.15	.04707	.000808	
1	318.15	.0693	.000816	
1	318.15	.09044	.000823	
1	318.15	.10953	.000829	
1	318.15	.13099	.000837	
1	318.15	.1502	.000843	
2	288.15	.04771	.002026	
2	288.15	.06438	.002055	
2	288.15	.0827	.002087	
2	288.15	.11428	.002142	
2	288.15	.13216	.002173	
2	288.15	.14772	.0022	
2	298.15	.04771	.001571	
2	298.15	.06438	.001591	
2	298.15	.0827	.001612	
2	298.15	.11428	.00165	
2	298.15	.13216	.001671	
2	298.15	.14772	.001689	
2	308.15	.04771	.001227	
2	308.15	.06438	.001241	
2	308.15	.0827	.001255	
2	308.15	.11428	.00128	
2	308.15	.13216	.001294	
2	308.15	.14772	.001307	
2	318.15	.04771	.000978	
2	318.15	.06438	.000987	
2	318.15	.0827	.000997	
2	318.15	.11428	.001014	
2	318.15	.13216	.001023	
2	318.15	.14772	.001032	

System: xylose, D- + tetraethylammonium bromide + water; phases: Liquid
Fixed: Pressure, kPa = 100
Property: Mass density, kg/m3 (Liquid); method: Vibrating tube method
Solvent: Molality, mol/kg of tetraethylammonium bromide	Temperature, K	Molality, mol/kg of xylose, D-	Mass density, kg/m3	uncertainty
.05	288.15	.04949	1004.574	
.05	288.15	.06704	1005.537	
.05	288.15	.09173	1006.883	
.05	288.15	.10639	1007.672	
.05	288.15	.13004	1008.944	
.05	288.15	.14947	1009.981	
.05	288.15	.16382	1010.743	
.05	288.15	.18553	1011.89	
.05	298.15	.04949	1001.559	
.05	298.15	.06704	1002.505	
.05	298.15	.09173	1003.826	
.05	298.15	.10639	1004.603	
.05	298.15	.13004	1005.854	
.05	298.15	.14947	1006.867	
.05	298.15	.16382	1007.613	
.05	298.15	.18553	1008.738	
.05	308.15	.04949	996.532	
.05	308.15	.06704	997.461	
.05	308.15	.09173	998.753	
.05	308.15	.10639	999.516	
.05	308.15	.13004	1000.741	
.05	308.15	.14947	1001.737	
.05	308.15	.16382	1002.471	
.05	308.15	.18553	1003.566	
.05	318.15	.04949	994.592	
.05	318.15	.06704	995.502	
.05	318.15	.09173	996.771	
.05	318.15	.10639	997.517	
.05	318.15	.13004	998.717	
.05	318.15	.14947	999.695	
.05	318.15	.16382	1000.406	
.05	318.15	.18553	1001.484	
.5	288.15	.05153	1020.818	
.5	288.15	.06677	1021.666	
.5	288.15	.08676	1022.775	
.5	288.15	.10835	1023.962	
.5	288.15	.12004	1024.598	
.5	288.15	.13176	1025.238	
.5	288.15	.16307	1026.933	
.5	288.15	.18783	1028.261	
.5	298.15	.05153	1018.831	
.5	298.15	.06677	1019.657	
.5	298.15	.08676	1020.735	
.5	298.15	.10835	1021.876	
.5	298.15	.12004	1022.491	
.5	298.15	.13176	1023.104	
.5	298.15	.16307	1024.728	
.5	298.15	.18783	1025.988	
.5	308.15	.05153	1012.976	
.5	308.15	.06677	1013.795	
.5	308.15	.08676	1014.859	
.5	308.15	.10835	1015.997	
.5	308.15	.12004	1016.607	
.5	308.15	.13176	1017.215	
.5	308.15	.16307	1018.835	
.5	308.15	.18783	1020.089	
.5	318.15	.05153	1009.963	
.5	318.15	.06677	1010.764	
.5	318.15	.08676	1011.812	
.5	318.15	.10835	1012.932	
.5	318.15	.12004	1013.531	
.5	318.15	.13176	1014.128	
.5	318.15	.16307	1015.728	
.5	318.15	.18783	1016.975	
1	288.15	.05273	1038.902	
1	288.15	.06888	1039.837	
1	288.15	.08772	1040.924	
1	288.15	.10745	1042.057	
1	288.15	.12146	1042.859	
1	288.15	.13575	1043.673	
1	288.15	.15399	1044.71	
1	288.15	.18203	1046.294	
1	298.15	.05273	1035.587	
1	298.15	.06888	1036.504	
1	298.15	.08772	1037.568	
1	298.15	.10745	1038.677	
1	298.15	.12146	1039.463	
1	298.15	.13575	1040.258	
1	298.15	.15399	1041.274	
1	298.15	.18203	1042.822	
1	308.15	.05273	1030.207	
1	308.15	.06888	1031.102	
1	308.15	.08772	1032.136	
1	308.15	.10745	1033.215	
1	308.15	.12146	1033.971	
1	308.15	.13575	1034.739	
1	308.15	.15399	1035.717	
1	308.15	.18203	1037.2	
1	318.15	.05273	1026.393	
1	318.15	.06888	1027.265	
1	318.15	.08772	1028.269	
1	318.15	.10745	1029.319	
1	318.15	.12146	1030.061	
1	318.15	.13575	1030.801	
1	318.15	.15399	1031.75	
1	318.15	.18203	1033.199	
2	288.15	.04827	1063.78	
2	288.15	.06731	1064.872	
2	288.15	.08476	1065.865	
2	288.15	.10932	1067.255	
2	288.15	.12424	1068.089	
2	288.15	.14939	1069.493	
2	288.15	.17476	1070.892	
2	288.15	.19106	1071.792	
2	298.15	.04827	1060.996	
2	298.15	.06731	1062.075	
2	298.15	.08476	1063.055	
2	298.15	.10932	1064.425	
2	298.15	.12424	1065.254	
2	298.15	.14939	1066.645	
2	298.15	.17476	1068.031	
2	298.15	.19106	1068.919	
2	308.15	.04827	1054.609	
2	308.15	.06731	1055.661	
2	308.15	.08476	1056.622	
2	308.15	.10932	1057.965	
2	308.15	.12424	1058.773	
2	308.15	.14939	1060.128	
2	308.15	.17476	1061.479	
2	308.15	.19106	1062.346	
2	318.15	.04827	1049.456	
2	318.15	.06731	1050.481	
2	318.15	.08476	1051.413	
2	318.15	.10932	1052.715	
2	318.15	.12424	1053.499	
2	318.15	.14939	1054.807	
2	318.15	.17476	1056.119	
2	318.15	.19106	1056.946	

System: xylose, D- + tetraethylammonium bromide + water; phases: Liquid
Fixed: Pressure, kPa = 100
Property: Viscosity, Pa*s (Liquid); method: Capillary tube (Ostwald; Ubbelohde) method
Solvent: Molality, mol/kg of tetraethylammonium bromide	Temperature, K	Molality, mol/kg of xylose, D-	Viscosity, Pa*s	uncertainty
.05	288.15	.04949	.001184	
.05	288.15	.06704	.001192	
.05	288.15	.09173	.001204	
.05	288.15	.10639	.001211	
.05	288.15	.13004	.001222	
.05	288.15	.14947	.001231	
.05	288.15	.16382	.001238	
.05	288.15	.18553	.001248	
.05	298.15	.04949	.00092	
.05	298.15	.06704	.000926	
.05	298.15	.09173	.000934	
.05	298.15	.10639	.000939	
.05	298.15	.13004	.000946	
.05	298.15	.14947	.000952	
.05	298.15	.16382	.000957	
.05	298.15	.18553	.000964	
.05	308.15	.04949	.000743	
.05	308.15	.06704	.000747	
.05	308.15	.09173	.000753	
.05	308.15	.10639	.000757	
.05	308.15	.13004	.000762	
.05	308.15	.14947	.000767	
.05	308.15	.16382	.00077	
.05	308.15	.18553	.000776	
.05	318.15	.04949	.000622	
.05	318.15	.06704	.000625	
.05	318.15	.09173	.000629	
.05	318.15	.10639	.000632	
.05	318.15	.13004	.000637	
.05	318.15	.14947	.00064	
.05	318.15	.16382	.000643	
.05	318.15	.18553	.000647	
.5	288.15	.05153	.001388	
.5	288.15	.06677	.001401	
.5	288.15	.08676	.00142	
.5	288.15	.10835	.001439	
.5	288.15	.12004	.001449	
.5	288.15	.13176	.00146	
.5	288.15	.16307	.001488	
.5	288.15	.18783	.00151	
.5	298.15	.05153	.001074	
.5	298.15	.06677	.001083	
.5	298.15	.08676	.001095	
.5	298.15	.10835	.001107	
.5	298.15	.12004	.001114	
.5	298.15	.13176	.001121	
.5	298.15	.16307	.001139	
.5	298.15	.18783	.001154	
.5	308.15	.05153	.000858	
.5	308.15	.06677	.000864	
.5	308.15	.08676	.000872	
.5	308.15	.10835	.000881	
.5	308.15	.12004	.000886	
.5	308.15	.13176	.000891	
.5	308.15	.16307	.000904	
.5	308.15	.18783	.000914	
.5	318.15	.05153	.000716	
.5	318.15	.06677	.000721	
.5	318.15	.08676	.000727	
.5	318.15	.10835	.000734	
.5	318.15	.12004	.000738	
.5	318.15	.13176	.000741	
.5	318.15	.16307	.000751	
.5	318.15	.18783	.000759	
1	288.15	.05273	.001617	
1	288.15	.06888	.001637	
1	288.15	.08772	.00166	
1	288.15	.10745	.001685	
1	288.15	.12146	.001702	
1	288.15	.13575	.00172	
1	288.15	.15399	.001742	
1	288.15	.18203	.001777	
1	298.15	.05273	.001255	
1	298.15	.06888	.00127	
1	298.15	.08772	.001286	
1	298.15	.10745	.001303	
1	298.15	.12146	.001316	
1	298.15	.13575	.001328	
1	298.15	.15399	.001344	
1	298.15	.18203	.001368	
1	308.15	.05273	.000992	
1	308.15	.06888	.001002	
1	308.15	.08772	.001014	
1	308.15	.10745	.001026	
1	308.15	.12146	.001035	
1	308.15	.13575	.001044	
1	308.15	.15399	.001055	
1	308.15	.18203	.001073	
1	318.15	.05273	.000817	
1	318.15	.06888	.000824	
1	318.15	.08772	.000833	
1	318.15	.10745	.000842	
1	318.15	.12146	.000849	
1	318.15	.13575	.000855	
1	318.15	.15399	.000864	
1	318.15	.18203	.000877	
2	288.15	.04827	.002029	
2	288.15	.06731	.002063	
2	288.15	.08476	.002095	
2	288.15	.10932	.002138	
2	288.15	.12424	.002165	
2	288.15	.14939	.002209	
2	288.15	.17476	.002254	
2	288.15	.19106	.002282	
2	298.15	.04827	.001575	
2	298.15	.06731	.001599	
2	298.15	.08476	.001622	
2	298.15	.10932	.001653	
2	298.15	.12424	.001672	
2	298.15	.14939	.001703	
2	298.15	.17476	.001735	
2	298.15	.19106	.001756	
2	308.15	.04827	.001234	
2	308.15	.06731	.001251	
2	308.15	.08476	.001267	
2	308.15	.10932	.00129	
2	308.15	.12424	.001303	
2	308.15	.14939	.001326	
2	308.15	.17476	.001349	
2	308.15	.19106	.001364	
2	318.15	.04827	.000984	
2	318.15	.06731	.000997	
2	318.15	.08476	.001009	
2	318.15	.10932	.001025	
2	318.15	.12424	.001035	
2	318.15	.14939	.001051	
2	318.15	.17476	.001068	
2	318.15	.19106	.001079	

System: tetraethylammonium bromide + xylitol + water; phases: Liquid
Fixed: Pressure, kPa = 100
Property: Mass density, kg/m3 (Liquid); method: Vibrating tube method
Solvent: Molality, mol/kg of tetraethylammonium bromide	Temperature, K	Molality, mol/kg of xylitol	Mass density, kg/m3	uncertainty
.05	288.15	.04984	1004.34	
.05	288.15	.06816	1005.254	
.05	288.15	.08468	1006.07	
.05	288.15	.10531	1007.087	
.05	288.15	.12203	1007.903	
.05	288.15	.1484	1009.18	
.05	288.15	.16375	1009.915	
.05	288.15	.18593	1010.975	
.05	298.15	.04984	1001.333	
.05	298.15	.06816	1002.227	
.05	298.15	.08468	1003.026	
.05	298.15	.10531	1004.019	
.05	298.15	.12203	1004.814	
.05	298.15	.1484	1006.056	
.05	298.15	.16375	1006.776	
.05	298.15	.18593	1007.801	
.05	308.15	.04984	996.32	
.05	308.15	.06816	997.203	
.05	308.15	.08468	997.991	
.05	308.15	.10531	998.971	
.05	308.15	.12203	999.755	
.05	308.15	.1484	1000.982	
.05	308.15	.16375	1001.691	
.05	308.15	.18593	1002.708	
.05	318.15	.04984	994.39	
.05	318.15	.06816	995.252	
.05	318.15	.08468	996.02	
.05	318.15	.10531	996.966	
.05	318.15	.12203	997.726	
.05	318.15	.1484	998.92	
.05	318.15	.16375	999.599	
.05	318.15	.18593	1000.574	
.5	288.15	.05281	1020.622	
.5	288.15	.06985	1021.485	
.5	288.15	.09	1022.496	
.5	288.15	.10455	1023.218	
.5	288.15	.12626	1024.295	
.5	288.15	.14215	1025.075	
.5	288.15	.16521	1026.206	
.5	288.15	.18309	1027.07	
.5	298.15	.05281	1018.647	
.5	298.15	.06985	1019.493	
.5	298.15	.09	1020.49	
.5	298.15	.10455	1021.201	
.5	298.15	.12626	1022.256	
.5	298.15	.14215	1023.022	
.5	298.15	.16521	1024.13	
.5	298.15	.18309	1024.983	
.5	308.15	.05281	1012.812	
.5	308.15	.06985	1013.652	
.5	308.15	.09	1014.64	
.5	308.15	.10455	1015.347	
.5	308.15	.12626	1016.397	
.5	308.15	.14215	1017.155	
.5	308.15	.16521	1018.255	
.5	308.15	.18309	1019.098	
.5	318.15	.05281	1009.835	
.5	318.15	.06985	1010.671	
.5	318.15	.09	1011.654	
.5	318.15	.10455	1012.355	
.5	318.15	.12626	1013.393	
.5	318.15	.14215	1014.147	
.5	318.15	.16521	1015.235	
.5	318.15	.18309	1016.07	
1	288.15	.0517	1038.477	
1	288.15	.06813	1039.306	
1	288.15	.08888	1040.349	
1	288.15	.10113	1040.953	
1	288.15	.12767	1042.269	
1	288.15	.14145	1042.942	
1	288.15	.17211	1044.435	
1	288.15	.1831	1044.962	
1	298.15	.0517	1035.185	
1	298.15	.06813	1036.005	
1	298.15	.08888	1037.032	
1	298.15	.10113	1037.633	
1	298.15	.12767	1038.932	
1	298.15	.14145	1039.597	
1	298.15	.17211	1041.068	
1	298.15	.1831	1041.587	
1	308.15	.0517	1029.851	
1	308.15	.06813	1030.664	
1	308.15	.08888	1031.688	
1	308.15	.10113	1032.283	
1	308.15	.12767	1033.573	
1	308.15	.14145	1034.23	
1	308.15	.17211	1035.692	
1	308.15	.1831	1036.207	
1	318.15	.0517	1026.077	
1	318.15	.06813	1026.881	
1	318.15	.08888	1027.89	
1	318.15	.10113	1028.476	
1	318.15	.12767	1029.743	
1	318.15	.14145	1030.392	
1	318.15	.17211	1031.836	
1	318.15	.1831	1032.345	
2	288.15	.05303	1063.653	
2	288.15	.0682	1064.406	
2	288.15	.09514	1065.734	
2	288.15	.1093	1066.423	
2	288.15	.1153	1066.71	
2	288.15	.14732	1068.254	
2	288.15	.15844	1068.78	
2	288.15	.18534	1070.052	
2	298.15	.05303	1060.866	
2	298.15	.0682	1061.609	
2	298.15	.09514	1062.914	
2	298.15	.1093	1063.593	
2	298.15	.1153	1063.873	
2	298.15	.14732	1065.395	
2	298.15	.15844	1065.907	
2	298.15	.18534	1067.16	
2	308.15	.05303	1054.509	
2	308.15	.0682	1055.242	
2	308.15	.09514	1056.529	
2	308.15	.1093	1057.196	
2	308.15	.1153	1057.475	
2	308.15	.14732	1058.973	
2	308.15	.15844	1059.481	
2	308.15	.18534	1060.713	
2	318.15	.05303	1049.403	
2	318.15	.0682	1050.126	
2	318.15	.09514	1051.4	
2	318.15	.1093	1052.063	
2	318.15	.1153	1052.337	
2	318.15	.14732	1053.82	
2	318.15	.15844	1054.317	
2	318.15	.18534	1055.537	

System: tetraethylammonium bromide + xylitol + water; phases: Liquid
Fixed: Pressure, kPa = 100
Property: Viscosity, Pa*s (Liquid); method: Capillary tube (Ostwald; Ubbelohde) method
Solvent: Molality, mol/kg of tetraethylammonium bromide	Temperature, K	Molality, mol/kg of xylitol	Viscosity, Pa*s	uncertainty
.05	288.15	.04984	.001188	
.05	288.15	.06816	.001198	
.05	288.15	.08468	.001207	
.05	288.15	.10531	.001218	
.05	288.15	.12203	.001227	
.05	288.15	.1484	.001241	
.05	288.15	.16375	.001249	
.05	288.15	.18593	.001261	
.05	298.15	.04984	.000923	
.05	298.15	.06816	.00093	
.05	298.15	.08468	.000937	
.05	298.15	.10531	.000945	
.05	298.15	.12203	.000951	
.05	298.15	.1484	.000961	
.05	298.15	.16375	.000967	
.05	298.15	.18593	.000976	
.05	308.15	.04984	.000745	
.05	308.15	.06816	.00075	
.05	308.15	.08468	.000755	
.05	308.15	.10531	.000761	
.05	308.15	.12203	.000765	
.05	308.15	.1484	.000773	
.05	308.15	.16375	.000777	
.05	308.15	.18593	.000783	
.05	318.15	.04984	.000623	
.05	318.15	.06816	.000627	
.05	318.15	.08468	.000631	
.05	318.15	.10531	.000635	
.05	318.15	.12203	.000639	
.05	318.15	.1484	.000644	
.05	318.15	.16375	.000648	
.05	318.15	.18593	.000652	
.5	288.15	.05281	.001386	
.5	288.15	.06985	.001401	
.5	288.15	.09	.001418	
.5	288.15	.10455	.001431	
.5	288.15	.12626	.001449	
.5	288.15	.14215	.001462	
.5	288.15	.16521	.001482	
.5	288.15	.18309	.001497	
.5	298.15	.05281	.001075	
.5	298.15	.06985	.001085	
.5	298.15	.09	.001097	
.5	298.15	.10455	.001105	
.5	298.15	.12626	.001118	
.5	298.15	.14215	.001128	
.5	298.15	.16521	.001141	
.5	298.15	.18309	.001152	
.5	308.15	.05281	.000858	
.5	308.15	.06985	.000865	
.5	308.15	.09	.000873	
.5	308.15	.10455	.000879	
.5	308.15	.12626	.000887	
.5	308.15	.14215	.000894	
.5	308.15	.16521	.000903	
.5	308.15	.18309	.00091	
.5	318.15	.05281	.000715	
.5	318.15	.06985	.00072	
.5	318.15	.09	.000726	
.5	318.15	.10455	.00073	
.5	318.15	.12626	.000736	
.5	318.15	.14215	.000741	
.5	318.15	.16521	.000747	
.5	318.15	.18309	.000752	
1	288.15	.0517	.001619	
1	288.15	.06813	.00164	
1	288.15	.08888	.001667	
1	288.15	.10113	.001683	
1	288.15	.12767	.001718	
1	288.15	.14145	.001736	
1	288.15	.17211	.001775	
1	288.15	.1831	.00179	
1	298.15	.0517	.001256	
1	298.15	.06813	.00127	
1	298.15	.08888	.001289	
1	298.15	.10113	.0013	
1	298.15	.12767	.001323	
1	298.15	.14145	.001335	
1	298.15	.17211	.001362	
1	298.15	.1831	.001372	
1	308.15	.0517	.000991	
1	308.15	.06813	.001001	
1	308.15	.08888	.001014	
1	308.15	.10113	.001021	
1	308.15	.12767	.001038	
1	308.15	.14145	.001046	
1	308.15	.17211	.001064	
1	308.15	.1831	.001071	
1	318.15	.0517	.000815	
1	318.15	.06813	.000823	
1	318.15	.08888	.000832	
1	318.15	.10113	.000837	
1	318.15	.12767	.000849	
1	318.15	.14145	.000855	
1	318.15	.17211	.000869	
1	318.15	.1831	.000873	
2	288.15	.05303	.002043	
2	288.15	.0682	.002072	
2	288.15	.09514	.002123	
2	288.15	.1093	.002149	
2	288.15	.1153	.002161	
2	288.15	.14732	.00222	
2	288.15	.15844	.002241	
2	288.15	.18534	.002291	
2	298.15	.05303	.001585	
2	298.15	.0682	.001605	
2	298.15	.09514	.001641	
2	298.15	.1093	.00166	
2	298.15	.1153	.001668	
2	298.15	.14732	.001711	
2	298.15	.15844	.001726	
2	298.15	.18534	.001761	
2	308.15	.05303	.00124	
2	308.15	.0682	.001255	
2	308.15	.09514	.001281	
2	308.15	.1093	.001294	
2	308.15	.1153	.0013	
2	308.15	.14732	.00133	
2	308.15	.15844	.001341	
2	308.15	.18534	.001366	
2	318.15	.05303	.000987	
2	318.15	.0682	.000997	
2	318.15	.09514	.001015	
2	318.15	.1093	.001025	
2	318.15	.1153	.001029	
2	318.15	.14732	.00105	
2	318.15	.15844	.001057	
2	318.15	.18534	.001075	

System: tetraethylammonium bromide + L-sorbose + water; phases: Liquid
Fixed: Pressure, kPa = 100
Property: Mass density, kg/m3 (Liquid); method: Vibrating tube method
Solvent: Molality, mol/kg of tetraethylammonium bromide	Temperature, K	Molality, mol/kg of L-sorbose	Mass density, kg/m3	uncertainty
.05	288.15	.04681	1005.137	
.05	288.15	.06799	1006.618	
.05	288.15	.08679	1007.928	
.05	288.15	.10772	1009.373	
.05	288.15	.13602	1011.312	
.05	288.15	.14721	1012.066	
.05	288.15	.18573	1014.67	
.05	288.15	.19948	1015.583	
.05	298.15	.04681	1002.127	
.05	298.15	.06799	1003.592	
.05	298.15	.08679	1004.881	
.05	298.15	.10772	1006.305	
.05	298.15	.13602	1008.22	
.05	298.15	.14721	1008.969	
.05	298.15	.18573	1011.532	
.05	298.15	.19948	1012.438	
.05	308.15	.04681	997.119	
.05	308.15	.06799	998.573	
.05	308.15	.08679	999.854	
.05	308.15	.10772	1001.274	
.05	308.15	.13602	1003.183	
.05	308.15	.14721	1003.933	
.05	308.15	.18573	1006.497	
.05	308.15	.19948	1007.408	
.05	318.15	.04681	995.194	
.05	318.15	.06799	996.631	
.05	318.15	.08679	997.896	
.05	318.15	.10772	999.3	
.05	318.15	.13602	1001.187	
.05	318.15	.14721	1001.927	
.05	318.15	.18573	1004.463	
.05	318.15	.19948	1005.36	
.5	288.15	.04552	1021.147	
.5	288.15	.06972	1022.837	
.5	288.15	.07687	1023.33	
.5	288.15	.10854	1025.517	
.5	288.15	.12332	1026.516	
.5	288.15	.14864	1028.237	
.5	288.15	.16785	1029.519	
.5	288.15	.1854	1030.684	
.5	298.15	.04552	1019.183	
.5	298.15	.06972	1020.861	
.5	298.15	.07687	1021.354	
.5	298.15	.10854	1023.517	
.5	298.15	.12332	1024.517	
.5	298.15	.14864	1026.222	
.5	298.15	.16785	1027.508	
.5	298.15	.1854	1028.666	
.5	308.15	.04552	1013.342	
.5	308.15	.06972	1015.001	
.5	308.15	.07687	1015.487	
.5	308.15	.10854	1017.631	
.5	308.15	.12332	1018.611	
.5	308.15	.14864	1020.299	
.5	308.15	.16785	1021.556	
.5	308.15	.1854	1022.707	
.5	318.15	.04552	1010.356	
.5	318.15	.06972	1012.007	
.5	318.15	.07687	1012.492	
.5	318.15	.10854	1014.63	
.5	318.15	.12332	1015.617	
.5	318.15	.14864	1017.298	
.5	318.15	.16785	1018.564	
.5	318.15	.1854	1019.714	
1	288.15	.04836	1039.259	
1	288.15	.07197	1040.91	
1	288.15	.09023	1042.173	
1	288.15	.10751	1043.357	
1	288.15	.13232	1045.049	
1	288.15	.14921	1046.186	
1	288.15	.16388	1047.172	
1	288.15	.18766	1048.751	
1	298.15	.04836	1035.966	
1	298.15	.07197	1037.602	
1	298.15	.09023	1038.857	
1	298.15	.10751	1040.038	
1	298.15	.13232	1041.719	
1	298.15	.14921	1042.853	
1	298.15	.16388	1043.826	
1	298.15	.18766	1045.393	
1	308.15	.04836	1030.619	
1	308.15	.07197	1032.243	
1	308.15	.09023	1033.484	
1	308.15	.10751	1034.654	
1	308.15	.13232	1036.323	
1	308.15	.14921	1037.444	
1	308.15	.16388	1038.407	
1	308.15	.18766	1039.974	
1	318.15	.04836	1026.832	
1	318.15	.07197	1028.432	
1	318.15	.09023	1029.659	
1	318.15	.10751	1030.812	
1	318.15	.13232	1032.46	
1	318.15	.14921	1033.569	
1	318.15	.16388	1034.518	
1	318.15	.18766	1036.069	
2	288.15	.05215	1064.653	
2	288.15	.06704	1065.688	
2	288.15	.08347	1066.82	
2	288.15	.09288	1067.464	
2	288.15	.11621	1069.052	
2	288.15	.14654	1071.099	
2	288.15	.16728	1072.486	
2	288.15	.2097	1075.286	
2	298.15	.05215	1061.863	
2	298.15	.06704	1062.883	
2	298.15	.08347	1064.001	
2	298.15	.09288	1064.64	
2	298.15	.11621	1066.206	
2	298.15	.14654	1068.233	
2	298.15	.16728	1069.599	
2	298.15	.2097	1072.347	
2	308.15	.05215	1055.505	
2	308.15	.06704	1056.519	
2	308.15	.08347	1057.629	
2	308.15	.09288	1058.259	
2	308.15	.11621	1059.817	
2	308.15	.14654	1061.822	
2	308.15	.16728	1063.183	
2	308.15	.2097	1065.929	
2	318.15	.05215	1050.391	
2	318.15	.06704	1051.396	
2	318.15	.08347	1052.495	
2	318.15	.09288	1053.121	
2	318.15	.11621	1054.67	
2	318.15	.14654	1056.654	
2	318.15	.16728	1058.003	
2	318.15	.2097	1060.722	

System: tetraethylammonium bromide + L-sorbose + water; phases: Liquid
Fixed: Pressure, kPa = 100
Property: Viscosity, Pa*s (Liquid); method: Capillary tube (Ostwald; Ubbelohde) method
Solvent: Molality, mol/kg of tetraethylammonium bromide	Temperature, K	Molality, mol/kg of L-sorbose	Viscosity, Pa*s	uncertainty
.05	288.15	.04681	.00119	
.05	288.15	.06799	.001204	
.05	288.15	.08679	.001216	
.05	288.15	.10772	.001229	
.05	288.15	.13602	.001247	
.05	288.15	.14721	.001254	
.05	288.15	.18573	.001278	
.05	288.15	.19948	.001286	
.05	298.15	.04681	.000925	
.05	298.15	.06799	.000935	
.05	298.15	.08679	.000943	
.05	298.15	.10772	.000953	
.05	298.15	.13602	.000965	
.05	298.15	.14721	.00097	
.05	298.15	.18573	.000987	
.05	298.15	.19948	.000993	
.05	308.15	.04681	.000747	
.05	308.15	.06799	.000754	
.05	308.15	.08679	.00076	
.05	308.15	.10772	.000767	
.05	308.15	.13602	.000776	
.05	308.15	.14721	.00078	
.05	308.15	.18573	.000792	
.05	308.15	.19948	.000797	
.05	318.15	.04681	.000624	
.05	318.15	.06799	.000629	
.05	318.15	.08679	.000634	
.05	318.15	.10772	.000639	
.05	318.15	.13602	.000646	
.05	318.15	.14721	.000649	
.05	318.15	.18573	.000658	
.05	318.15	.19948	.000662	
.5	288.15	.04552	.001381	
.5	288.15	.06972	.001403	
.5	288.15	.07687	.001409	
.5	288.15	.10854	.001437	
.5	288.15	.12332	.00145	
.5	288.15	.14864	.001472	
.5	288.15	.16785	.001489	
.5	288.15	.1854	.001504	
.5	298.15	.04552	.001071	
.5	298.15	.06972	.001085	
.5	298.15	.07687	.00109	
.5	298.15	.10854	.001109	
.5	298.15	.12332	.001118	
.5	298.15	.14864	.001133	
.5	298.15	.16785	.001144	
.5	298.15	.1854	.001154	
.5	308.15	.04552	.000856	
.5	308.15	.06972	.000867	
.5	308.15	.07687	.00087	
.5	308.15	.10854	.000884	
.5	308.15	.12332	.000891	
.5	308.15	.14864	.000902	
.5	308.15	.16785	.00091	
.5	308.15	.1854	.000917	
.5	318.15	.04552	.000714	
.5	318.15	.06972	.000722	
.5	318.15	.07687	.000724	
.5	318.15	.10854	.000735	
.5	318.15	.12332	.000739	
.5	318.15	.14864	.000747	
.5	318.15	.16785	.000753	
.5	318.15	.1854	.000759	
1	288.15	.04836	.001612	
1	288.15	.07197	.001643	
1	288.15	.09023	.001666	
1	288.15	.10751	.001688	
1	288.15	.13232	.001719	
1	288.15	.14921	.00174	
1	288.15	.16388	.001759	
1	288.15	.18766	.001789	
1	298.15	.04836	.001253	
1	298.15	.07197	.001274	
1	298.15	.09023	.001291	
1	298.15	.10751	.001306	
1	298.15	.13232	.001328	
1	298.15	.14921	.001343	
1	298.15	.16388	.001356	
1	298.15	.18766	.001377	
1	308.15	.04836	.00099	
1	308.15	.07197	.001005	
1	308.15	.09023	.001017	
1	308.15	.10751	.001028	
1	308.15	.13232	.001044	
1	308.15	.14921	.001055	
1	308.15	.16388	.001064	
1	308.15	.18766	.001079	
1	318.15	.04836	.000816	
1	318.15	.07197	.000827	
1	318.15	.09023	.000836	
1	318.15	.10751	.000844	
1	318.15	.13232	.000856	
1	318.15	.14921	.000864	
1	318.15	.16388	.000871	
1	318.15	.18766	.000882	
2	288.15	.05215	.002052	
2	288.15	.06704	.002083	
2	288.15	.08347	.002117	
2	288.15	.09288	.002137	
2	288.15	.11621	.002185	
2	288.15	.14654	.002247	
2	288.15	.16728	.002289	
2	288.15	.2097	.002375	
2	298.15	.05215	.001588	
2	298.15	.06704	.001609	
2	298.15	.08347	.001632	
2	298.15	.09288	.001646	
2	298.15	.11621	.001679	
2	298.15	.14654	.001721	
2	298.15	.16728	.00175	
2	298.15	.2097	.001809	
2	308.15	.05215	.00124	
2	308.15	.06704	.001254	
2	308.15	.08347	.00127	
2	308.15	.09288	.001279	
2	308.15	.11621	.001301	
2	308.15	.14654	.00133	
2	308.15	.16728	.001349	
2	308.15	.2097	.001389	
2	318.15	.05215	.000986	
2	318.15	.06704	.000995	
2	318.15	.08347	.001006	
2	318.15	.09288	.001012	
2	318.15	.11621	.001027	
2	318.15	.14654	.001047	
2	318.15	.16728	.00106	
2	318.15	.2097	.001086	

System: D-sorbitol + tetraethylammonium bromide + water; phases: Liquid
Fixed: Pressure, kPa = 100
Property: Mass density, kg/m3 (Liquid); method: Vibrating tube method
Solvent: Molality, mol/kg of tetraethylammonium bromide	Temperature, K	Molality, mol/kg of D-sorbitol	Mass density, kg/m3	uncertainty
.05	288.15	.04614	1004.826	
.05	288.15	.06895	1006.292	
.05	288.15	.08738	1007.464	
.05	288.15	.10615	1008.647	
.05	288.15	.12558	1009.862	
.05	288.15	.14703	1011.197	
.05	288.15	.18114	1013.307	
.05	288.15	.19816	1014.339	
.05	298.15	.04614	1001.798	
.05	298.15	.06895	1003.231	
.05	298.15	.08738	1004.374	
.05	298.15	.10615	1005.529	
.05	298.15	.12558	1006.719	
.05	298.15	.14703	1008.025	
.05	298.15	.18114	1010.083	
.05	298.15	.19816	1011.09	
.05	308.15	.04614	996.774	
.05	308.15	.06895	998.184	
.05	308.15	.08738	999.312	
.05	308.15	.10615	1000.45	
.05	308.15	.12558	1001.62	
.05	308.15	.14703	1002.898	
.05	308.15	.18114	1004.921	
.05	308.15	.19816	1005.913	
.05	318.15	.04614	994.849	
.05	318.15	.06895	996.243	
.05	318.15	.08738	997.355	
.05	318.15	.10615	998.481	
.05	318.15	.12558	999.638	
.05	318.15	.14703	1000.906	
.05	318.15	.18114	1002.899	
.05	318.15	.19816	1003.869	
.5	288.15	.04832	1021.047	
.5	288.15	.06963	1022.41	
.5	288.15	.08225	1023.209	
.5	288.15	.10744	1024.798	
.5	288.15	.12505	1025.892	
.5	288.15	.14969	1027.421	
.5	288.15	.16386	1028.288	
.5	288.15	.18931	1029.842	
.5	298.15	.04832	1019.051	
.5	298.15	.06963	1020.385	
.5	298.15	.08225	1021.167	
.5	298.15	.10744	1022.718	
.5	298.15	.12505	1023.792	
.5	298.15	.14969	1025.286	
.5	298.15	.16386	1026.132	
.5	298.15	.18931	1027.65	
.5	308.15	.04832	1013.191	
.5	308.15	.06963	1014.504	
.5	308.15	.08225	1015.276	
.5	308.15	.10744	1016.799	
.5	308.15	.12505	1017.856	
.5	308.15	.14969	1019.325	
.5	308.15	.16386	1020.162	
.5	308.15	.18931	1021.654	
.5	318.15	.04832	1010.193	
.5	318.15	.06963	1011.489	
.5	318.15	.08225	1012.248	
.5	318.15	.10744	1013.76	
.5	318.15	.12505	1014.802	
.5	318.15	.14969	1016.257	
.5	318.15	.16386	1017.079	
.5	318.15	.18931	1018.556	
1	288.15	.04657	1038.836	
1	288.15	.06864	1040.246	
1	288.15	.08549	1041.314	
1	288.15	.10923	1042.808	
1	288.15	.13048	1044.132	
1	288.15	.14725	1045.165	
1	288.15	.16721	1046.394	
1	288.15	.18675	1047.584	
1	298.15	.04657	1035.521	
1	298.15	.06864	1036.904	
1	298.15	.08549	1037.946	
1	298.15	.10923	1039.408	
1	298.15	.13048	1040.701	
1	298.15	.14725	1041.716	
1	298.15	.16721	1042.909	
1	298.15	.18675	1044.067	
1	308.15	.04657	1030.17	
1	308.15	.06864	1031.532	
1	308.15	.08549	1032.56	
1	308.15	.10923	1034.002	
1	308.15	.13048	1035.278	
1	308.15	.14725	1036.276	
1	308.15	.16721	1037.459	
1	308.15	.18675	1038.605	
1	318.15	.04657	1026.385	
1	318.15	.06864	1027.733	
1	318.15	.08549	1028.752	
1	318.15	.10923	1030.173	
1	318.15	.13048	1031.436	
1	318.15	.14725	1032.419	
1	318.15	.16721	1033.581	
1	318.15	.18675	1034.715	
2	288.15	.05171	1064.285	
2	288.15	.07374	1065.67	
2	288.15	.10584	1067.676	
2	288.15	.11896	1068.482	
2	288.15	.13302	1069.345	
2	288.15	.16763	1071.456	
2	288.15	.18613	1072.57	
2	288.15	.19481	1073.082	
2	298.15	.05171	1061.476	
2	298.15	.07374	1062.836	
2	298.15	.10584	1064.795	
2	298.15	.11896	1065.586	
2	298.15	.13302	1066.429	
2	298.15	.16763	1068.492	
2	298.15	.18613	1069.585	
2	298.15	.19481	1070.088	
2	308.15	.05171	1055.111	
2	308.15	.07374	1056.456	
2	308.15	.10584	1058.392	
2	308.15	.11896	1059.175	
2	308.15	.13302	1060.007	
2	308.15	.16763	1062.048	
2	308.15	.18613	1063.121	
2	308.15	.19481	1063.618	
2	318.15	.05171	1050.01	
2	318.15	.07374	1051.343	
2	318.15	.10584	1053.262	
2	318.15	.11896	1054.04	
2	318.15	.13302	1054.859	
2	318.15	.16763	1056.884	
2	318.15	.18613	1057.941	
2	318.15	.19481	1058.431	

System: D-sorbitol + tetraethylammonium bromide + water; phases: Liquid
Fixed: Pressure, kPa = 100
Property: Viscosity, Pa*s (Liquid); method: Capillary tube (Ostwald; Ubbelohde) method
Solvent: Molality, mol/kg of tetraethylammonium bromide	Temperature, K	Molality, mol/kg of D-sorbitol	Viscosity, Pa*s	uncertainty
.05	288.15	.04614	.001197	
.05	288.15	.06895	.001216	
.05	288.15	.08738	.001231	
.05	288.15	.10615	.001246	
.05	288.15	.12558	.001261	
.05	288.15	.14703	.001278	
.05	288.15	.18114	.001305	
.05	288.15	.19816	.001318	
.05	298.15	.04614	.00093	
.05	298.15	.06895	.000942	
.05	298.15	.08738	.000952	
.05	298.15	.10615	.000963	
.05	298.15	.12558	.000973	
.05	298.15	.14703	.000985	
.05	298.15	.18114	.001004	
.05	298.15	.19816	.001013	
.05	308.15	.04614	.000749	
.05	308.15	.06895	.000758	
.05	308.15	.08738	.000765	
.05	308.15	.10615	.000772	
.05	308.15	.12558	.00078	
.05	308.15	.14703	.000788	
.05	308.15	.18114	.000801	
.05	308.15	.19816	.000807	
.05	318.15	.04614	.000626	
.05	318.15	.06895	.000632	
.05	318.15	.08738	.000638	
.05	318.15	.10615	.000643	
.05	318.15	.12558	.000649	
.05	318.15	.14703	.000655	
.05	318.15	.18114	.000664	
.05	318.15	.19816	.000669	
.5	288.15	.04832	.001394	
.5	288.15	.06963	.001417	
.5	288.15	.08225	.001431	
.5	288.15	.10744	.001458	
.5	288.15	.12505	.001477	
.5	288.15	.14969	.001504	
.5	288.15	.16386	.001519	
.5	288.15	.18931	.001546	
.5	298.15	.04832	.001079	
.5	298.15	.06963	.001094	
.5	298.15	.08225	.001103	
.5	298.15	.10744	.001122	
.5	298.15	.12505	.001134	
.5	298.15	.14969	.001152	
.5	298.15	.16386	.001162	
.5	298.15	.18931	.00118	
.5	308.15	.04832	.000861	
.5	308.15	.06963	.000872	
.5	308.15	.08225	.000878	
.5	308.15	.10744	.000891	
.5	308.15	.12505	.0009	
.5	308.15	.14969	.000912	
.5	308.15	.16386	.000919	
.5	308.15	.18931	.000932	
.5	318.15	.04832	.000718	
.5	318.15	.06963	.000726	
.5	318.15	.08225	.00073	
.5	318.15	.10744	.000739	
.5	318.15	.12505	.000746	
.5	318.15	.14969	.000755	
.5	318.15	.16386	.00076	
.5	318.15	.18931	.000769	
1	288.15	.04657	.001616	
1	288.15	.06864	.001648	
1	288.15	.08549	.001671	
1	288.15	.10923	.001705	
1	288.15	.13048	.001734	
1	288.15	.14725	.001758	
1	288.15	.16721	.001785	
1	288.15	.18675	.001812	
1	298.15	.04657	.001253	
1	298.15	.06864	.001273	
1	298.15	.08549	.001289	
1	298.15	.10923	.001311	
1	298.15	.13048	.001331	
1	298.15	.14725	.001346	
1	298.15	.16721	.001364	
1	298.15	.18675	.001382	
1	308.15	.04657	.000989	
1	308.15	.06864	.001004	
1	308.15	.08549	.001014	
1	308.15	.10923	.00103	
1	308.15	.13048	.001043	
1	308.15	.14725	.001054	
1	308.15	.16721	.001067	
1	308.15	.18675	.001079	
1	318.15	.04657	.000814	
1	318.15	.06864	.000824	
1	318.15	.08549	.000832	
1	318.15	.10923	.000843	
1	318.15	.13048	.000853	
1	318.15	.14725	.00086	
1	318.15	.16721	.00087	
1	318.15	.18675	.000878	
2	288.15	.05171	.002063	
2	288.15	.07374	.002114	
2	288.15	.10584	.002187	
2	288.15	.11896	.002217	
2	288.15	.13302	.002249	
2	288.15	.16763	.002328	
2	288.15	.18613	.002369	
2	288.15	.19481	.002389	
2	298.15	.05171	.001595	
2	298.15	.07374	.001629	
2	298.15	.10584	.001679	
2	298.15	.11896	.001699	
2	298.15	.13302	.001721	
2	298.15	.16763	.001774	
2	298.15	.18613	.001802	
2	298.15	.19481	.001815	
2	308.15	.05171	.001245	
2	308.15	.07374	.001268	
2	308.15	.10584	.001302	
2	308.15	.11896	.001316	
2	308.15	.13302	.00133	
2	308.15	.16763	.001366	
2	308.15	.18613	.001386	
2	308.15	.19481	.001395	
2	318.15	.05171	.000989	
2	318.15	.07374	.001005	
2	318.15	.10584	.001029	
2	318.15	.11896	.001038	
2	318.15	.13302	.001048	
2	318.15	.16763	.001073	
2	318.15	.18613	.001086	
2	318.15	.19481	.001092	

System: (+)-galactose + tetraethylammonium bromide + water; phases: Liquid
Fixed: Pressure, kPa = 100
Property: Mass density, kg/m3 (Liquid); method: Vibrating tube method
Solvent: Molality, mol/kg of tetraethylammonium bromide	Temperature, K	Molality, mol/kg of (+)-galactose	Mass density, kg/m3	uncertainty
.05	288.15	.05047	1005.382	
.05	288.15	.0712	1006.825	
.05	288.15	.0835	1007.674	
.05	288.15	.1078	1009.347	
.05	288.15	.1286	1010.761	
.05	288.15	.14602	1011.94	
.05	288.15	.16839	1013.437	
.05	288.15	.18546	1014.572	
.05	298.15	.05047	1002.396	
.05	298.15	.0712	1003.829	
.05	298.15	.0835	1004.673	
.05	298.15	.1078	1006.33	
.05	298.15	.1286	1007.733	
.05	298.15	.14602	1008.899	
.05	298.15	.16839	1010.391	
.05	298.15	.18546	1011.516	
.05	308.15	.05047	997.392	
.05	308.15	.0712	998.812	
.05	308.15	.0835	999.643	
.05	308.15	.1078	1001.279	
.05	308.15	.1286	1002.665	
.05	308.15	.14602	1003.816	
.05	308.15	.16839	1005.283	
.05	308.15	.18546	1006.39	
.05	318.15	.05047	995.491	
.05	318.15	.0712	996.908	
.05	318.15	.0835	997.741	
.05	318.15	.1078	999.379	
.05	318.15	.1286	1000.769	
.05	318.15	.14602	1001.922	
.05	318.15	.16839	1003.399	
.05	318.15	.18546	1004.521	
.5	288.15	.04874	1021.317	
.5	288.15	.07023	1022.803	
.5	288.15	.08819	1024.037	
.5	288.15	.10676	1025.307	
.5	288.15	.13282	1027.073	
.5	288.15	.14973	1028.213	
.5	288.15	.16568	1029.278	
.5	288.15	.18568	1030.613	
.5	298.15	.04874	1019.372	
.5	298.15	.07023	1020.846	
.5	298.15	.08819	1022.067	
.5	298.15	.10676	1023.319	
.5	298.15	.13282	1025.064	
.5	298.15	.14973	1026.186	
.5	298.15	.16568	1027.23	
.5	298.15	.18568	1028.542	
.5	308.15	.04874	1013.544	
.5	308.15	.07023	1015.006	
.5	308.15	.08819	1016.217	
.5	308.15	.10676	1017.454	
.5	308.15	.13282	1019.175	
.5	308.15	.14973	1020.272	
.5	308.15	.16568	1021.305	
.5	308.15	.18568	1022.595	
.5	318.15	.04874	1010.577	
.5	318.15	.07023	1012.038	
.5	318.15	.08819	1013.25	
.5	318.15	.10676	1014.497	
.5	318.15	.13282	1016.217	
.5	318.15	.14973	1017.336	
.5	318.15	.16568	1018.373	
.5	318.15	.18568	1019.673	
1	288.15	.04549	1038.96	
1	288.15	.06267	1040.128	
1	288.15	.09486	1042.301	
1	288.15	.10327	1042.862	
1	288.15	.12711	1044.444	
1	288.15	.14896	1045.884	
1	288.15	.18155	1048.014	
1	288.15	.20052	1049.235	
1	298.15	.04549	1035.698	
1	298.15	.06267	1036.868	
1	298.15	.09486	1039.046	
1	298.15	.10327	1039.612	
1	298.15	.12711	1041.207	
1	298.15	.14896	1042.656	
1	298.15	.18155	1044.801	
1	298.15	.20052	1046.034	
1	308.15	.04549	1030.372	
1	308.15	.06267	1031.536	
1	308.15	.09486	1033.699	
1	308.15	.10327	1034.253	
1	308.15	.12711	1035.828	
1	308.15	.14896	1037.26	
1	308.15	.18155	1039.375	
1	308.15	.20052	1040.594	
1	318.15	.04549	1026.608	
1	318.15	.06267	1027.764	
1	318.15	.09486	1029.906	
1	318.15	.10327	1030.458	
1	318.15	.12711	1032.015	
1	318.15	.14896	1033.432	
1	318.15	.18155	1035.521	
1	318.15	.20052	1036.72	
2	288.15	.04802	1064.218	
2	288.15	.07015	1065.691	
2	288.15	.08306	1066.544	
2	288.15	.10559	1068.019	
2	288.15	.12158	1069.058	
2	288.15	.14937	1070.851	
2	288.15	.18366	1073.041	
2	288.15	.19622	1073.825	
2	298.15	.04802	1061.478	
2	298.15	.07015	1062.956	
2	298.15	.08306	1063.814	
2	298.15	.10559	1065.306	
2	298.15	.12158	1066.358	
2	298.15	.14937	1068.176	
2	298.15	.18366	1070.395	
2	298.15	.19622	1071.203	
2	308.15	.04802	1055.14	
2	308.15	.07015	1056.615	
2	308.15	.08306	1057.471	
2	308.15	.10559	1058.954	
2	308.15	.12158	1060.003	
2	308.15	.14937	1061.814	
2	308.15	.18366	1064.032	
2	308.15	.19622	1064.836	
2	318.15	.04802	1050.042	
2	318.15	.07015	1051.502	
2	318.15	.08306	1052.346	
2	318.15	.10559	1053.815	
2	318.15	.12158	1054.847	
2	318.15	.14937	1056.626	
2	318.15	.18366	1058.803	
2	318.15	.19622	1059.584	

System: (+)-galactose + tetraethylammonium bromide + water; phases: Liquid
Fixed: Pressure, kPa = 100
Property: Viscosity, Pa*s (Liquid); method: Capillary tube (Ostwald; Ubbelohde) method
Solvent: Molality, mol/kg of tetraethylammonium bromide	Temperature, K	Molality, mol/kg of (+)-galactose	Viscosity, Pa*s	uncertainty
.05	288.15	.05047	.001194	
.05	288.15	.0712	.001208	
.05	288.15	.0835	.001216	
.05	288.15	.1078	.001232	
.05	288.15	.1286	.001246	
.05	288.15	.14602	.001258	
.05	288.15	.16839	.001272	
.05	288.15	.18546	.001283	
.05	298.15	.05047	.000928	
.05	298.15	.0712	.000937	
.05	298.15	.0835	.000943	
.05	298.15	.1078	.000955	
.05	298.15	.1286	.000964	
.05	298.15	.14602	.000972	
.05	298.15	.16839	.000983	
.05	298.15	.18546	.00099	
.05	308.15	.05047	.000749	
.05	308.15	.0712	.000756	
.05	308.15	.0835	.00076	
.05	308.15	.1078	.000769	
.05	308.15	.1286	.000776	
.05	308.15	.14602	.000782	
.05	308.15	.16839	.00079	
.05	308.15	.18546	.000796	
.05	318.15	.05047	.000625	
.05	318.15	.0712	.00063	
.05	318.15	.0835	.000633	
.05	318.15	.1078	.000639	
.05	318.15	.1286	.000644	
.05	318.15	.14602	.000648	
.05	318.15	.16839	.000654	
.05	318.15	.18546	.000658	
.5	288.15	.04874	.001387	
.5	288.15	.07023	.001408	
.5	288.15	.08819	.001425	
.5	288.15	.10676	.001442	
.5	288.15	.13282	.001467	
.5	288.15	.14973	.001483	
.5	288.15	.16568	.001498	
.5	288.15	.18568	.001516	
.5	298.15	.04874	.001075	
.5	298.15	.07023	.00109	
.5	298.15	.08819	.001101	
.5	298.15	.10676	.001114	
.5	298.15	.13282	.001131	
.5	298.15	.14973	.001141	
.5	298.15	.16568	.001152	
.5	298.15	.18568	.001165	
.5	308.15	.04874	.000859	
.5	308.15	.07023	.000869	
.5	308.15	.08819	.000878	
.5	308.15	.10676	.000886	
.5	308.15	.13282	.000898	
.5	308.15	.14973	.000906	
.5	308.15	.16568	.000913	
.5	308.15	.18568	.000923	
.5	318.15	.04874	.000716	
.5	318.15	.07023	.000723	
.5	318.15	.08819	.000729	
.5	318.15	.10676	.000735	
.5	318.15	.13282	.000744	
.5	318.15	.14973	.000749	
.5	318.15	.16568	.000754	
.5	318.15	.18568	.000761	
1	288.15	.04549	.001608	
1	288.15	.06267	.00163	
1	288.15	.09486	.00167	
1	288.15	.10327	.001681	
1	288.15	.12711	.00171	
1	288.15	.14896	.001737	
1	288.15	.18155	.001777	
1	288.15	.20052	.001801	
1	298.15	.04549	.001249	
1	298.15	.06267	.001264	
1	298.15	.09486	.001292	
1	298.15	.10327	.0013	
1	298.15	.12711	.00132	
1	298.15	.14896	.001339	
1	298.15	.18155	.001367	
1	298.15	.20052	.001383	
1	308.15	.04549	.000987	
1	308.15	.06267	.000998	
1	308.15	.09486	.001017	
1	308.15	.10327	.001022	
1	308.15	.12711	.001037	
1	308.15	.14896	.00105	
1	308.15	.18155	.001069	
1	308.15	.20052	.001081	
1	318.15	.04549	.000812	
1	318.15	.06267	.000819	
1	318.15	.09486	.000832	
1	318.15	.10327	.000836	
1	318.15	.12711	.000846	
1	318.15	.14896	.000855	
1	318.15	.18155	.000869	
1	318.15	.20052	.000877	
2	288.15	.04802	.002047	
2	288.15	.07015	.002095	
2	288.15	.08306	.002123	
2	288.15	.10559	.002171	
2	288.15	.12158	.002205	
2	288.15	.14937	.002265	
2	288.15	.18366	.002337	
2	288.15	.19622	.002364	
2	298.15	.04802	.001585	
2	298.15	.07015	.001618	
2	298.15	.08306	.001637	
2	298.15	.10559	.00167	
2	298.15	.12158	.001694	
2	298.15	.14937	.001734	
2	298.15	.18366	.001784	
2	298.15	.19622	.001802	
2	308.15	.04802	.001238	
2	308.15	.07015	.00126	
2	308.15	.08306	.001273	
2	308.15	.10559	.001295	
2	308.15	.12158	.001311	
2	308.15	.14937	.001338	
2	308.15	.18366	.001372	
2	308.15	.19622	.001384	
2	318.15	.04802	.000983	
2	318.15	.07015	.000997	
2	318.15	.08306	.001006	
2	318.15	.10559	.00102	
2	318.15	.12158	.001031	
2	318.15	.14937	.001048	
2	318.15	.18366	.00107	
2	318.15	.19622	.001078	

System: tetraethylammonium bromide + dulcitol + water; phases: Liquid
Fixed: Pressure, kPa = 100
Property: Mass density, kg/m3 (Liquid); method: Vibrating tube method
Solvent: Molality, mol/kg of tetraethylammonium bromide	Temperature, K	Molality, mol/kg of dulcitol	Mass density, kg/m3	uncertainty
.05	288.15	.0495	1004.958	
.05	288.15	.07077	1006.286	
.05	288.15	.08824	1007.366	
.05	288.15	.11037	1008.724	
.05	288.15	.12783	1009.787	
.05	288.15	.14952	1011.101	
.05	288.15	.16418	1011.98	
.05	288.15	.19016	1013.526	
.05	288.15	.20446	1014.368	
.05	298.15	.0495	1001.747	
.05	298.15	.07077	1003.055	
.05	298.15	.08824	1004.121	
.05	298.15	.11037	1005.46	
.05	298.15	.12783	1006.507	
.05	298.15	.14952	1007.804	
.05	298.15	.16418	1008.663	
.05	298.15	.19016	1010.19	
.05	298.15	.20446	1011.024	
.05	308.15	.0495	999.006	
.05	308.15	.07077	1000.301	
.05	308.15	.08824	1001.351	
.05	308.15	.11037	1002.676	
.05	308.15	.12783	1003.712	
.05	308.15	.14952	1004.993	
.05	308.15	.16418	1005.845	
.05	308.15	.19016	1007.355	
.05	308.15	.20446	1008.174	
.05	318.15	.0495	995.015	
.05	318.15	.07077	996.295	
.05	318.15	.08824	997.34	
.05	318.15	.11037	998.656	
.05	318.15	.12783	999.683	
.05	318.15	.14952	1000.951	
.05	318.15	.16418	1001.793	
.05	318.15	.19016	1003.293	
.05	318.15	.20446	1004.103	
.5	288.15	.04996	1021.047	
.5	288.15	.06968	1022.267	
.5	288.15	.08746	1023.358	
.5	288.15	.11079	1024.784	
.5	288.15	.129	1025.888	
.5	288.15	.14999	1027.152	
.5	288.15	.17069	1028.384	
.5	288.15	.19151	1029.611	
.5	288.15	.21138	1030.779	
.5	298.15	.04996	1019.074	
.5	298.15	.06968	1020.279	
.5	298.15	.08746	1021.355	
.5	298.15	.11079	1022.762	
.5	298.15	.129	1023.847	
.5	298.15	.14999	1025.092	
.5	298.15	.17069	1026.309	
.5	298.15	.19151	1027.525	
.5	298.15	.21138	1028.675	
.5	308.15	.04996	1013.234	
.5	308.15	.06968	1014.427	
.5	308.15	.08746	1015.494	
.5	308.15	.11079	1016.884	
.5	308.15	.129	1017.961	
.5	308.15	.14999	1019.196	
.5	308.15	.17069	1020.4	
.5	308.15	.19151	1021.602	
.5	308.15	.21138	1022.74	
.5	318.15	.04996	1010.245	
.5	318.15	.06968	1011.426	
.5	318.15	.08746	1012.479	
.5	318.15	.11079	1013.853	
.5	318.15	.129	1014.915	
.5	318.15	.14999	1016.128	
.5	318.15	.17069	1017.313	
.5	318.15	.19151	1018.493	
.5	318.15	.21138	1019.618	
1	288.15	.04946	1038.907	
1	288.15	.06998	1040.173	
1	288.15	.09077	1041.443	
1	288.15	.10967	1042.591	
1	288.15	.13017	1043.826	
1	288.15	.14854	1044.923	
1	288.15	.16665	1045.996	
1	298.15	.04946	1035.615	
1	298.15	.06998	1036.865	
1	298.15	.09077	1038.123	
1	298.15	.10967	1039.256	
1	298.15	.13017	1040.478	
1	298.15	.14854	1041.566	
1	298.15	.16665	1042.627	
1	308.15	.04946	1030.28	
1	308.15	.06998	1031.52	
1	308.15	.09077	1032.765	
1	308.15	.10967	1033.89	
1	308.15	.13017	1035.098	
1	308.15	.14854	1036.17	
1	308.15	.16665	1037.222	
1	318.15	.04946	1026.511	
1	318.15	.06998	1027.747	
1	318.15	.09077	1028.99	
1	318.15	.10967	1030.114	
1	318.15	.13017	1031.322	
1	318.15	.14854	1032.397	
1	318.15	.16665	1033.452	
2	288.15	.05109	1064.128	
2	288.15	.07214	1065.405	
2	288.15	.0862	1066.251	
2	288.15	.10919	1067.627	
2	288.15	.12447	1068.53	
2	288.15	.1485	1069.942	
2	288.15	.16744	1071.046	
2	288.15	.21149	1073.574	
2	298.15	.05109	1061.341	
2	298.15	.07214	1062.603	
2	298.15	.0862	1063.435	
2	298.15	.10919	1064.792	
2	298.15	.12447	1065.683	
2	298.15	.1485	1067.079	
2	298.15	.16744	1068.165	
2	298.15	.21149	1070.663	
2	308.15	.05109	1054.984	
2	308.15	.07214	1056.236	
2	308.15	.0862	1057.061	
2	308.15	.10919	1058.407	
2	308.15	.12447	1059.289	
2	308.15	.1485	1060.674	
2	308.15	.16744	1061.755	
2	308.15	.21149	1064.228	
2	318.15	.05109	1049.88	
2	318.15	.07214	1051.116	
2	318.15	.0862	1051.934	
2	318.15	.10919	1053.265	
2	318.15	.12447	1054.139	
2	318.15	.1485	1055.509	
2	318.15	.16744	1056.577	
2	318.15	.21149	1059.019	

System: tetraethylammonium bromide + dulcitol + water; phases: Liquid
Fixed: Pressure, kPa = 100
Property: Viscosity, Pa*s (Liquid); method: Capillary tube (Ostwald; Ubbelohde) method
Solvent: Molality, mol/kg of tetraethylammonium bromide	Temperature, K	Molality, mol/kg of dulcitol	Viscosity, Pa*s	uncertainty
.05	288.15	.0495	.001191	
.05	288.15	.07077	.001204	
.05	288.15	.08824	.001214	
.05	288.15	.11037	.001228	
.05	288.15	.12783	.001238	
.05	288.15	.14952	.001251	
.05	288.15	.16418	.00126	
.05	288.15	.19016	.001276	
.05	288.15	.20446	.001284	
.05	298.15	.0495	.000924	
.05	298.15	.07077	.000933	
.05	298.15	.08824	.00094	
.05	298.15	.11037	.000949	
.05	298.15	.12783	.000956	
.05	298.15	.14952	.000964	
.05	298.15	.16418	.00097	
.05	298.15	.19016	.00098	
.05	298.15	.20446	.000986	
.05	308.15	.0495	.000745	
.05	308.15	.07077	.000751	
.05	308.15	.08824	.000756	
.05	308.15	.11037	.000762	
.05	308.15	.12783	.000767	
.05	308.15	.14952	.000773	
.05	308.15	.16418	.000777	
.05	308.15	.19016	.000784	
.05	308.15	.20446	.000788	
.05	318.15	.0495	.000621	
.05	318.15	.07077	.000625	
.05	318.15	.08824	.000629	
.05	318.15	.11037	.000633	
.05	318.15	.12783	.000636	
.05	318.15	.14952	.00064	
.05	318.15	.16418	.000643	
.05	318.15	.19016	.000647	
.05	318.15	.20446	.00065	
.5	288.15	.04996	.001383	
.5	288.15	.06968	.0014	
.5	288.15	.08746	.001415	
.5	288.15	.11079	.001435	
.5	288.15	.129	.00145	
.5	288.15	.14999	.001467	
.5	288.15	.17069	.001485	
.5	288.15	.19151	.001502	
.5	288.15	.21138	.001518	
.5	298.15	.04996	.001071	
.5	298.15	.06968	.001081	
.5	298.15	.08746	.001091	
.5	298.15	.11079	.001104	
.5	298.15	.129	.001114	
.5	298.15	.14999	.001125	
.5	298.15	.17069	.001136	
.5	298.15	.19151	.001147	
.5	298.15	.21138	.001158	
.5	308.15	.04996	.000856	
.5	308.15	.06968	.000864	
.5	308.15	.08746	.00087	
.5	308.15	.11079	.00088	
.5	308.15	.129	.000887	
.5	308.15	.14999	.000895	
.5	308.15	.17069	.000903	
.5	308.15	.19151	.000911	
.5	308.15	.21138	.000918	
.5	318.15	.04996	.000713	
.5	318.15	.06968	.000718	
.5	318.15	.08746	.000723	
.5	318.15	.11079	.000729	
.5	318.15	.129	.000734	
.5	318.15	.14999	.000739	
.5	318.15	.17069	.000745	
.5	318.15	.19151	.00075	
.5	318.15	.21138	.000755	
1	288.15	.04946	.001605	
1	288.15	.06998	.001628	
1	288.15	.09077	.001651	
1	288.15	.10967	.001672	
1	288.15	.13017	.001694	
1	288.15	.14854	.001714	
1	288.15	.16665	.001733	
1	298.15	.04946	.001245	
1	298.15	.06998	.00126	
1	298.15	.09077	.001275	
1	298.15	.10967	.001288	
1	298.15	.13017	.001303	
1	298.15	.14854	.001316	
1	298.15	.16665	.001329	
1	308.15	.04946	.000984	
1	308.15	.06998	.000994	
1	308.15	.09077	.001005	
1	308.15	.10967	.001014	
1	308.15	.13017	.001025	
1	308.15	.14854	.001034	
1	308.15	.16665	.001043	
1	318.15	.04946	.000809	
1	318.15	.06998	.000816	
1	318.15	.09077	.000823	
1	318.15	.10967	.00083	
1	318.15	.13017	.000836	
1	318.15	.14854	.000843	
1	318.15	.16665	.000849	
2	288.15	.05109	.002045	
2	288.15	.07214	.002087	
2	288.15	.0862	.002115	
2	288.15	.10919	.00216	
2	288.15	.12447	.00219	
2	288.15	.1485	.002237	
2	288.15	.16744	.002274	
2	288.15	.21149	.002359	
2	298.15	.05109	.001579	
2	298.15	.07214	.001606	
2	298.15	.0862	.001624	
2	298.15	.10919	.001653	
2	298.15	.12447	.001673	
2	298.15	.1485	.001703	
2	298.15	.16744	.001727	
2	298.15	.21149	.001781	
2	308.15	.05109	.001231	
2	308.15	.07214	.001249	
2	308.15	.0862	.00126	
2	308.15	.10919	.001279	
2	308.15	.12447	.001291	
2	308.15	.1485	.00131	
2	308.15	.16744	.001325	
2	308.15	.21149	.00136	
2	318.15	.05109	.000978	
2	318.15	.07214	.000988	
2	318.15	.0862	.000995	
2	318.15	.10919	.001007	
2	318.15	.12447	.001015	
2	318.15	.1485	.001027	
2	318.15	.16744	.001036	
2	318.15	.21149	.001058	

System: D-glucose + tetraethylammonium bromide + water; phases: Liquid
Fixed: Pressure, kPa = 100
Property: Mass density, kg/m3 (Liquid); method: Vibrating tube method
Solvent: Molality, mol/kg of tetraethylammonium bromide	Temperature, K	Molality, mol/kg of D-glucose	Mass density, kg/m3	uncertainty
.05	288.15	.04993	1005.221	
.05	288.15	.06875	1006.485	
.05	288.15	.08606	1007.637	
.05	288.15	.10943	1009.187	
.05	288.15	.13076	1010.588	
.05	288.15	.14726	1011.665	
.05	288.15	.1653	1012.83	
.05	288.15	.19027	1014.44	
.05	298.15	.04993	1002.23	
.05	298.15	.06875	1003.486	
.05	298.15	.08606	1004.633	
.05	298.15	.10943	1006.174	
.05	298.15	.13076	1007.571	
.05	298.15	.14726	1008.64	
.05	298.15	.1653	1009.8	
.05	298.15	.19027	1011.403	
.05	308.15	.04993	1002.23	
.05	308.15	.06875	1003.486	
.05	308.15	.08606	1004.633	
.05	308.15	.10943	1006.174	
.05	308.15	.13076	1007.571	
.05	308.15	.14726	1008.64	
.05	308.15	.1653	1009.8	
.05	308.15	.19027	1011.403	
.05	318.15	.04993	995.295	
.05	318.15	.06875	996.522	
.05	318.15	.08606	997.642	
.05	318.15	.10943	999.142	
.05	318.15	.13076	1000.498	
.05	318.15	.14726	1001.539	
.05	318.15	.1653	1002.663	
.05	318.15	.19027	1004.22	
.5	288.15	.04808	1021.256	
.5	288.15	.0702	1022.774	
.5	288.15	.08862	1024.025	
.5	288.15	.10996	1025.47	
.5	288.15	.12979	1026.8	
.5	288.15	.14884	1028.07	
.5	288.15	.1667	1029.248	
.5	288.15	.18773	1030.627	
.5	298.15	.04808	1019.284	
.5	298.15	.0702	1020.781	
.5	298.15	.08862	1022.018	
.5	298.15	.10996	1023.443	
.5	298.15	.12979	1024.753	
.5	298.15	.14884	1026.008	
.5	298.15	.1667	1027.172	
.5	298.15	.18773	1028.539	
.5	308.15	.04808	1013.425	
.5	308.15	.0702	1014.899	
.5	308.15	.08862	1016.118	
.5	308.15	.10996	1017.521	
.5	308.15	.12979	1018.811	
.5	308.15	.14884	1020.039	
.5	308.15	.1667	1021.182	
.5	308.15	.18773	1022.529	
.5	318.15	.04808	1010.414	
.5	318.15	.0702	1011.873	
.5	318.15	.08862	1013.077	
.5	318.15	.10996	1014.463	
.5	318.15	.12979	1015.74	
.5	318.15	.14884	1016.961	
.5	318.15	.1667	1018.093	
.5	318.15	.18773	1019.424	
1	288.15	.0509	1039.358	
1	288.15	.0673	1040.483	
1	288.15	.078	1041.213	
1	288.15	.10072	1042.753	
1	288.15	.12732	1044.544	
1	288.15	.15063	1046.104	
1	288.15	.17202	1047.517	
1	288.15	.19524	1049.045	
1	298.15	.0509	1036.054	
1	298.15	.0673	1037.168	
1	298.15	.078	1037.889	
1	298.15	.10072	1039.416	
1	298.15	.12732	1041.188	
1	298.15	.15063	1042.725	
1	298.15	.17202	1044.123	
1	298.15	.19524	1045.63	
1	308.15	.0509	1030.69	
1	308.15	.0673	1031.783	
1	308.15	.078	1032.493	
1	308.15	.10072	1033.993	
1	308.15	.12732	1035.727	
1	308.15	.15063	1037.236	
1	308.15	.17202	1038.605	
1	308.15	.19524	1040.088	
1	318.15	.0509	1026.884	
1	318.15	.0673	1027.963	
1	318.15	.078	1028.659	
1	318.15	.10072	1030.134	
1	318.15	.12732	1031.849	
1	318.15	.15063	1033.334	
1	318.15	.17202	1034.687	
1	318.15	.19524	1036.145	
2	288.15	.05329	1064.654	
2	288.15	.06714	1065.598	
2	288.15	.08825	1067.025	
2	288.15	.09466	1067.455	
2	288.15	.1228	1069.334	
2	288.15	.14403	1070.741	
2	288.15	.16612	1072.192	
2	288.15	.18938	1073.713	
2	298.15	.05329	1061.849	
2	298.15	.06714	1062.775	
2	298.15	.08825	1064.177	
2	298.15	.09466	1064.596	
2	298.15	.1228	1066.44	
2	298.15	.14403	1067.818	
2	298.15	.16612	1069.239	
2	298.15	.18938	1070.726	
2	308.15	.05329	1055.466	
2	308.15	.06714	1056.379	
2	308.15	.08825	1057.764	
2	308.15	.09466	1058.177	
2	308.15	.1228	1060	
2	308.15	.14403	1061.36	
2	308.15	.16612	1062.764	
2	308.15	.18938	1064.235	
2	318.15	.05329	1050.329	
2	318.15	.06714	1051.225	
2	318.15	.08825	1052.588	
2	318.15	.09466	1052.994	
2	318.15	.1228	1054.788	
2	318.15	.14403	1056.122	
2	318.15	.16612	1057.497	
2	318.15	.18938	1058.939	

System: D-glucose + tetraethylammonium bromide + water; phases: Liquid
Fixed: Pressure, kPa = 100
Property: Viscosity, Pa*s (Liquid); method: Capillary tube (Ostwald; Ubbelohde) method
Solvent: Molality, mol/kg of tetraethylammonium bromide	Temperature, K	Molality, mol/kg of D-glucose	Viscosity, Pa*s	uncertainty
.05	288.15	.04993	.001191	
.05	288.15	.06875	.001203	
.05	288.15	.08606	.001214	
.05	288.15	.10943	.001228	
.05	288.15	.13076	.001242	
.05	288.15	.14726	.001252	
.05	288.15	.1653	.001263	
.05	288.15	.19027	.001278	
.05	298.15	.04993	.000926	
.05	298.15	.06875	.000934	
.05	298.15	.08606	.000942	
.05	298.15	.10943	.000952	
.05	298.15	.13076	.000961	
.05	298.15	.14726	.000969	
.05	298.15	.1653	.000976	
.05	298.15	.19027	.000987	
.05	308.15	.04993	.000748	
.05	308.15	.06875	.000754	
.05	308.15	.08606	.00076	
.05	308.15	.10943	.000767	
.05	308.15	.13076	.000774	
.05	308.15	.14726	.00078	
.05	308.15	.1653	.000786	
.05	308.15	.19027	.000794	
.05	318.15	.04993	.000625	
.05	318.15	.06875	.00063	
.05	318.15	.08606	.000634	
.05	318.15	.10943	.00064	
.05	318.15	.13076	.000645	
.05	318.15	.14726	.000649	
.05	318.15	.1653	.000653	
.05	318.15	.19027	.00066	
.5	288.15	.04808	.001382	
.5	288.15	.0702	.001401	
.5	288.15	.08862	.001417	
.5	288.15	.10996	.001435	
.5	288.15	.12979	.001452	
.5	288.15	.14884	.001468	
.5	288.15	.1667	.001483	
.5	288.15	.18773	.001501	
.5	298.15	.04808	.001071	
.5	298.15	.0702	.001084	
.5	298.15	.08862	.001095	
.5	298.15	.10996	.001107	
.5	298.15	.12979	.001119	
.5	298.15	.14884	.00113	
.5	298.15	.1667	.00114	
.5	298.15	.18773	.001152	
.5	308.15	.04808	.000857	
.5	308.15	.0702	.000866	
.5	308.15	.08862	.000874	
.5	308.15	.10996	.000883	
.5	308.15	.12979	.000891	
.5	308.15	.14884	.000899	
.5	308.15	.1667	.000906	
.5	308.15	.18773	.000915	
.5	318.15	.04808	.000715	
.5	318.15	.0702	.000722	
.5	318.15	.08862	.000728	
.5	318.15	.10996	.000735	
.5	318.15	.12979	.000741	
.5	318.15	.14884	.000747	
.5	318.15	.1667	.000753	
.5	318.15	.18773	.000759	
1	288.15	.0509	.001614	
1	288.15	.0673	.001634	
1	288.15	.078	.001647	
1	288.15	.10072	.001675	
1	288.15	.12732	.001708	
1	288.15	.15063	.001737	
1	288.15	.17202	.001762	
1	288.15	.19524	.001791	
1	298.15	.0509	.001251	
1	298.15	.0673	.001265	
1	298.15	.078	.001274	
1	298.15	.10072	.001292	
1	298.15	.12732	.001314	
1	298.15	.15063	.001333	
1	298.15	.17202	.00135	
1	298.15	.19524	.001369	
1	308.15	.0509	.000989	
1	308.15	.0673	.000999	
1	308.15	.078	.001005	
1	308.15	.10072	.001019	
1	308.15	.12732	.001035	
1	308.15	.15063	.001048	
1	308.15	.17202	.001061	
1	308.15	.19524	.001074	
1	318.15	.0509	.000814	
1	318.15	.0673	.000821	
1	318.15	.078	.000826	
1	318.15	.10072	.000836	
1	318.15	.12732	.000847	
1	318.15	.15063	.000857	
1	318.15	.17202	.000866	
1	318.15	.19524	.000876	
2	288.15	.05329	.002058	
2	288.15	.06714	.002088	
2	288.15	.08825	.002134	
2	288.15	.09466	.002148	
2	288.15	.1228	.002208	
2	288.15	.14403	.002253	
2	288.15	.16612	.0023	
2	288.15	.18938	.002349	
2	298.15	.05329	.001592	
2	298.15	.06714	.001612	
2	298.15	.08825	.001643	
2	298.15	.09466	.001652	
2	298.15	.1228	.001693	
2	298.15	.14403	.001723	
2	298.15	.16612	.001755	
2	298.15	.18938	.001788	
2	308.15	.05329	.001241	
2	308.15	.06714	.001254	
2	308.15	.08825	.001274	
2	308.15	.09466	.001281	
2	308.15	.1228	.001307	
2	308.15	.14403	.001328	
2	308.15	.16612	.001348	
2	308.15	.18938	.00137	
2	318.15	.05329	.000987	
2	318.15	.06714	.000996	
2	318.15	.08825	.00101	
2	318.15	.09466	.001015	
2	318.15	.1228	.001033	
2	318.15	.14403	.001047	
2	318.15	.16612	.001061	
2	318.15	.18938	.001076	

System: tetraethylammonium bromide + D-(+)-maltose + water; phases: Liquid
Fixed: Pressure, kPa = 100
Property: Mass density, kg/m3 (Liquid); method: Vibrating tube method
Solvent: Molality, mol/kg of tetraethylammonium bromide	Temperature, K	Molality, mol/kg of D-(+)-maltose	Mass density, kg/m3	uncertainty
.05	288.15	.05055	1008.431	
.05	288.15	.06925	1010.834	
.05	288.15	.09003	1013.473	
.05	288.15	.10949	1015.921	
.05	288.15	.1291	1018.366	
.05	288.15	.1477	1020.659	
.05	288.15	.16876	1023.231	
.05	288.15	.18963	1025.757	
.05	298.15	.05055	1005.439	
.05	298.15	.06925	1007.833	
.05	298.15	.09003	1010.47	
.05	298.15	.10949	1012.918	
.05	298.15	.1291	1015.36	
.05	298.15	.1477	1017.655	
.05	298.15	.16876	1020.23	
.05	298.15	.18963	1022.757	
.05	308.15	.05055	1000.401	
.05	308.15	.06925	1002.773	
.05	308.15	.09003	1005.378	
.05	308.15	.10949	1007.796	
.05	308.15	.1291	1010.203	
.05	308.15	.1477	1012.467	
.05	308.15	.16876	1015.007	
.05	308.15	.18963	1017.487	
.05	318.15	.05055	998.434	
.05	318.15	.06925	1000.775	
.05	318.15	.09003	1003.351	
.05	318.15	.10949	1005.737	
.05	318.15	.1291	1008.112	
.05	318.15	.1477	1010.345	
.05	318.15	.16876	1012.857	
.05	318.15	.18963	1015.301	
.5	288.15	.0492	1024.149	
.5	288.15	.06911	1026.629	
.5	288.15	.09059	1029.47	
.5	288.15	.09215	1029.276	
.5	288.15	.1074	1031.327	
.5	288.15	.12339	1033.262	
.5	288.15	.14874	1036.299	
.5	288.15	.16612	1038.35	
.5	288.15	.184	1040.45	
.5	298.15	.0492	1022.193	
.5	298.15	.06911	1024.659	
.5	298.15	.09059	1027.292	
.5	298.15	.09215	1027.48	
.5	298.15	.1074	1029.326	
.5	298.15	.12339	1031.247	
.5	298.15	.14874	1034.263	
.5	298.15	.16612	1036.307	
.5	298.15	.184	1038.387	
.5	308.15	.0492	1016.352	
.5	308.15	.06911	1018.807	
.5	308.15	.09059	1021.425	
.5	308.15	.09215	1021.615	
.5	308.15	.1074	1023.453	
.5	308.15	.12339	1025.372	
.5	308.15	.14874	1028.367	
.5	308.15	.16612	1030.403	
.5	308.15	.184	1032.475	
.5	318.15	.0492	1013.332	
.5	318.15	.06911	1015.764	
.5	318.15	.09059	1018.362	
.5	318.15	.09215	1018.548	
.5	318.15	.1074	1020.373	
.5	318.15	.12339	1022.27	
.5	318.15	.14874	1025.247	
.5	318.15	.16612	1027.265	
.5	318.15	.184	1029.322	
1	288.15	.0489	1041.862	
1	288.15	.06596	1043.933	
1	288.15	.08217	1045.879	
1	288.15	.10446	1048.527	
1	288.15	.12522	1050.97	
1	288.15	.14876	1053.698	
1	288.15	.16402	1055.45	
1	288.15	.19207	1058.633	
1	298.15	.0489	1038.585	
1	298.15	.06596	1040.649	
1	298.15	.08217	1042.591	
1	298.15	.10446	1045.235	
1	298.15	.12522	1047.669	
1	298.15	.14876	1050.4	
1	298.15	.16402	1052.149	
1	298.15	.19207	1055.326	
1	308.15	.0489	1033.24	
1	308.15	.06596	1035.291	
1	308.15	.08217	1037.218	
1	308.15	.10446	1039.842	
1	308.15	.12522	1042.264	
1	308.15	.14876	1044.972	
1	308.15	.16402	1046.708	
1	308.15	.19207	1049.866	
1	318.15	.0489	1029.437	
1	318.15	.06596	1031.472	
1	318.15	.08217	1033.384	
1	318.15	.10446	1035.992	
1	318.15	.12522	1038.388	
1	318.15	.14876	1041.077	
1	318.15	.16402	1042.806	
1	318.15	.19207	1045.939	
2	288.15	.04266	1066.058	
2	288.15	.06338	1068.481	
2	288.15	.08382	1070.846	
2	288.15	.09938	1072.625	
2	288.15	.12887	1075.962	
2	288.15	.14927	1078.237	
2	288.15	.16273	1079.719	
2	288.15	.18559	1082.219	
2	298.15	.04266	1063.296	
2	298.15	.06338	1065.708	
2	298.15	.08382	1068.056	
2	298.15	.09938	1069.827	
2	298.15	.12887	1073.145	
2	298.15	.14927	1075.406	
2	298.15	.16273	1076.876	
2	298.15	.18559	1079.364	
2	308.15	.04266	1056.95	
2	308.15	.06338	1059.356	
2	308.15	.08382	1061.7	
2	308.15	.09938	1063.471	
2	308.15	.12887	1066.785	
2	308.15	.14927	1069.044	
2	308.15	.16273	1070.517	
2	308.15	.18559	1073.003	
2	318.15	.04266	1051.835	
2	318.15	.06338	1054.227	
2	318.15	.08382	1056.559	
2	318.15	.09938	1058.317	
2	318.15	.12887	1061.609	
2	318.15	.14927	1063.859	
2	318.15	.16273	1065.328	
2	318.15	.18559	1067.797	

System: tetraethylammonium bromide + D-(+)-maltose + water; phases: Liquid
Fixed: Pressure, kPa = 100
Property: Viscosity, Pa*s (Liquid); method: Capillary tube (Ostwald; Ubbelohde) method
Solvent: Molality, mol/kg of tetraethylammonium bromide	Temperature, K	Molality, mol/kg of D-(+)-maltose	Viscosity, Pa*s	uncertainty
.05	288.15	.05055	.001234	
.05	288.15	.06925	.001261	
.05	288.15	.09003	.00129	
.05	288.15	.10949	.001318	
.05	288.15	.1291	.001345	
.05	288.15	.1477	.001371	
.05	288.15	.16876	.0014	
.05	288.15	.18963	.001429	
.05	298.15	.05055	.000957	
.05	298.15	.06925	.000977	
.05	298.15	.09003	.000998	
.05	298.15	.10949	.001018	
.05	298.15	.1291	.001038	
.05	298.15	.1477	.001057	
.05	298.15	.16876	.001078	
.05	298.15	.18963	.001099	
.05	308.15	.05055	.000772	
.05	308.15	.06925	.000787	
.05	308.15	.09003	.000804	
.05	308.15	.10949	.000819	
.05	308.15	.1291	.000835	
.05	308.15	.1477	.000849	
.05	308.15	.16876	.000865	
.05	308.15	.18963	.000881	
.05	318.15	.05055	.000645	
.05	318.15	.06925	.000657	
.05	318.15	.09003	.00067	
.05	318.15	.10949	.000682	
.05	318.15	.1291	.000695	
.05	318.15	.1477	.000706	
.05	318.15	.16876	.000719	
.05	318.15	.18963	.000732	
.5	288.15	.0492	.00143	
.5	288.15	.06911	.001465	
.5	288.15	.09059	.001503	
.5	288.15	.09215	.001506	
.5	288.15	.1074	.001532	
.5	288.15	.12339	.00156	
.5	288.15	.14874	.001604	
.5	288.15	.16612	.001633	
.5	288.15	.184	.001664	
.5	298.15	.0492	.001108	
.5	298.15	.06911	.001133	
.5	298.15	.09059	.001161	
.5	298.15	.09215	.001163	
.5	298.15	.1074	.001183	
.5	298.15	.12339	.001203	
.5	298.15	.14874	.001235	
.5	298.15	.16612	.001256	
.5	298.15	.184	.001278	
.5	308.15	.0492	.000885	
.5	308.15	.06911	.000905	
.5	308.15	.09059	.000926	
.5	308.15	.09215	.000927	
.5	308.15	.1074	.000942	
.5	308.15	.12339	.000957	
.5	308.15	.14874	.000981	
.5	308.15	.16612	.000998	
.5	308.15	.184	.001014	
.5	318.15	.0492	.000738	
.5	318.15	.06911	.000753	
.5	318.15	.09059	.000769	
.5	318.15	.09215	.000771	
.5	318.15	.1074	.000782	
.5	318.15	.12339	.000794	
.5	318.15	.14874	.000813	
.5	318.15	.16612	.000825	
.5	318.15	.184	.000838	
1	288.15	.0489	.001669	
1	288.15	.06596	.00171	
1	288.15	.08217	.001749	
1	288.15	.10446	.001801	
1	288.15	.12522	.00185	
1	288.15	.14876	.001905	
1	288.15	.16402	.00194	
1	288.15	.19207	.002003	
1	298.15	.0489	.001294	
1	298.15	.06596	.001323	
1	298.15	.08217	.00135	
1	298.15	.10446	.001388	
1	298.15	.12522	.001422	
1	298.15	.14876	.001461	
1	298.15	.16402	.001486	
1	298.15	.19207	.001532	
1	308.15	.0489	.00102	
1	308.15	.06596	.001041	
1	308.15	.08217	.001061	
1	308.15	.10446	.001088	
1	308.15	.12522	.001114	
1	308.15	.14876	.001142	
1	308.15	.16402	.00116	
1	308.15	.19207	.001193	
1	318.15	.0489	.000839	
1	318.15	.06596	.000855	
1	318.15	.08217	.00087	
1	318.15	.10446	.00089	
1	318.15	.12522	.000909	
1	318.15	.14876	.00093	
1	318.15	.16402	.000944	
1	318.15	.19207	.000969	
2	288.15	.04266	.002097	
2	288.15	.06338	.002171	
2	288.15	.08382	.002244	
2	288.15	.09938	.002298	
2	288.15	.12887	.002401	
2	288.15	.14927	.002471	
2	288.15	.16273	.002517	
2	288.15	.18559	.002595	
2	298.15	.04266	.001623	
2	298.15	.06338	.001676	
2	298.15	.08382	.001728	
2	298.15	.09938	.001767	
2	298.15	.12887	.00184	
2	298.15	.14927	.00189	
2	298.15	.16273	.001923	
2	298.15	.18559	.001978	
2	308.15	.04266	.001269	
2	308.15	.06338	.001308	
2	308.15	.08382	.001345	
2	308.15	.09938	.001374	
2	308.15	.12887	.001427	
2	308.15	.14927	.001463	
2	308.15	.16273	.001487	
2	308.15	.18559	.001527	
2	318.15	.04266	.001009	
2	318.15	.06338	.001037	
2	318.15	.08382	.001064	
2	318.15	.09938	.001084	
2	318.15	.12887	.001122	
2	318.15	.14927	.001149	
2	318.15	.16273	.001166	
2	318.15	.18559	.001195	

System: tetraethylammonium bromide + water; phases: Liquid
Fixed: Pressure, kPa = 100
Property: Mass density, kg/m3 (Liquid); method: Vibrating tube method
Molality, mol/kg of tetraethylammonium bromide	Temperature, K	Mass density, kg/m3	uncertainty
.05	288.15	1001.825	
.05	298.15	998.859	
.05	308.15	993.878	
.05	318.15	991.993	
.5	288.15	1017.913	
.5	298.15	1015.985	
.5	308.15	1010.17	
.5	318.15	1007.208	
1	288.15	1035.824	
1	298.15	1032.567	
1	308.15	1027.253	
1	318.15	1023.501	
2	288.15	1060.978	
2	298.15	1057.937	
2	308.15	1051.906	
2	318.15	1046.828	

System: tetraethylammonium bromide + water; phases: Liquid
Fixed: Pressure, kPa = 100
Property: Viscosity, Pa*s (Liquid); method: Capillary tube (Ostwald; Ubbelohde) method
Molality, mol/kg of tetraethylammonium bromide	Temperature, K	Viscosity, Pa*s	uncertainty
.05	288.15	.00116	
.05	298.15	.000904	
.05	308.15	.000731	
.05	318.15	.000612	
.5	288.15	.001341	
.5	298.15	.001043	
.5	308.15	.000836	
.5	318.15	.0007	
1	288.15	.00155	
1	298.15	.001209	
1	308.15	.000959	
1	318.15	.000792	
2	288.15	.001942	
2	298.15	.001513	
2	308.15	.001189	
2	318.15	.000952	
