Measured thermophysical data. Solubility and Solution Thermodynamics of Gibberellin A4 in Different Organic Solvents from 278.15 K to 333.15 K
Source: J. Chem. Eng. Data, 2015, 10.1021/acs.jced.5b00190
Compound 1: Gibberellin A4, C19H24O5, purity 98%
Compound 2: water, H2O, purity 99.9%
Compound 3: methanol, CH4O, purity 99.5%
Compound 4: ethanol, C2H6O, purity 99.7%
Compound 5: 2-propanol, C3H8O, purity 99.7%
Compound 6: 1-butanol, C4H10O, purity 99%
Compound 7: acetonitrile, C2H3N, purity 99.9%
Compound 8: acetone, C3H6O, purity 99.5%
Compound 9: ethyl ethanoate, C4H8O2, purity 99.7%

System: Gibberellin A4; phases: Crystal, Liquid, Air at 1 atmosphere
Property: Normal melting temperature, K (Crystal); method: Visual observation
Normal melting temperature, K	uncertainty
476.15	.85

System: Gibberellin A4 + water; phases: Liquid, Crystal
Fixed: Pressure, kPa = 100
Property: Mole fraction of Gibberellin A4 (Liquid); method: Gravimetric
Temperature, K	Mole fraction of Gibberellin A4	uncertainty
278.15	.000009	.00000018
283.15	.000012	.00000024
288.15	.000017	.00000034
293.15	.000021	.00000042
298.15	.000028	.00000056
303.15	.000034	.00000068
308.15	.000044	.00000088
313.15	.000053	.00000106
318.15	.000061	.00000122
323.15	.000073	.00000146
328.15	.000092	.00000184
333.15	.00012	.0000024

System: methanol + Gibberellin A4; phases: Liquid, Crystal
Fixed: Pressure, kPa = 100
Property: Mole fraction of Gibberellin A4 (Liquid); method: Gravimetric
Temperature, K	Mole fraction of Gibberellin A4	uncertainty
278.15	.04657	.0009314
283.15	.050966	.00101932
288.15	.055927	.00111854
293.15	.063657	.00127314
298.15	.070533	.00141066
303.15	.074272	.00148544
308.15	.080533	.00161066
313.15	.088152	.00176304
318.15	.093331	.00186662
323.15	.100583	.00201166
328.15	.109745	.0021949
333.15	.120779	.00241558

System: ethanol + Gibberellin A4; phases: Liquid, Crystal
Fixed: Pressure, kPa = 100
Property: Mole fraction of Gibberellin A4 (Liquid); method: Gravimetric
Temperature, K	Mole fraction of Gibberellin A4	uncertainty
278.15	.000809	.00001618
283.15	.000911	.00001822
288.15	.001067	.00002134
293.15	.001179	.00002358
298.15	.001327	.00002654
303.15	.001592	.00003184
308.15	.001874	.00003748
313.15	.002171	.00004342
318.15	.002565	.0000513
323.15	.002726	.00005452
328.15	.003184	.00006368
333.15	.003873	.00007746

System: 2-propanol + Gibberellin A4; phases: Liquid, Crystal
Fixed: Pressure, kPa = 100
Property: Mole fraction of Gibberellin A4 (Liquid); method: Gravimetric
Temperature, K	Mole fraction of Gibberellin A4	uncertainty
278.15	.069068	.00138136
283.15	.074513	.00149026
288.15	.077496	.00154992
293.15	.085934	.00171868
298.15	.091604	.00183208
303.15	.096862	.00193724
308.15	.102519	.00205038
313.15	.109526	.00219052
318.15	.119738	.00239476
323.15	.123285	.0024657
328.15	.131368	.00262736
333.15	.140276	.00280552

System: 1-butanol + Gibberellin A4; phases: Liquid, Crystal
Fixed: Pressure, kPa = 100
Property: Mole fraction of Gibberellin A4 (Liquid); method: Gravimetric
Temperature, K	Mole fraction of Gibberellin A4	uncertainty
278.15	.058815	.0011763
283.15	.061264	.00122528
288.15	.067402	.00134804
293.15	.072298	.00144596
298.15	.076158	.00152316
303.15	.079769	.00159538
308.15	.083567	.00167134
313.15	.087226	.00174452
318.15	.093133	.00186266
323.15	.100278	.00200556
328.15	.108891	.00217782
333.15	.119046	.00238092

System: acetonitrile + Gibberellin A4; phases: Liquid, Crystal
Fixed: Pressure, kPa = 100
Property: Mole fraction of Gibberellin A4 (Liquid); method: Gravimetric
Temperature, K	Mole fraction of Gibberellin A4	uncertainty
278.15	.003906	.00007812
283.15	.004573	.00009146
288.15	.005294	.00010588
293.15	.006469	.00012938
298.15	.007763	.00015526
303.15	.009065	.0001813
308.15	.010773	.00021546
313.15	.012364	.00024728
318.15	.013508	.00027016
323.15	.014933	.00029866
328.15	.016788	.00033576
333.15	.018842	.00037684

System: acetone + Gibberellin A4; phases: Liquid, Crystal
Fixed: Pressure, kPa = 100
Property: Mole fraction of Gibberellin A4 (Liquid); method: Gravimetric
Temperature, K	Mole fraction of Gibberellin A4	uncertainty
278.15	.052979	.00105958
283.15	.056971	.00113942
288.15	.059557	.00119114
293.15	.064481	.00128962
298.15	.069201	.00138402
303.15	.075864	.00151728
308.15	.080128	.00160256
313.15	.08617	.0017234
318.15	.091703	.00183406
323.15	.098267	.00196534
328.15	.105994	.00211988
333.15	.11191	.0022382

System: ethyl ethanoate + Gibberellin A4; phases: Liquid, Crystal
Fixed: Pressure, kPa = 100
Property: Mole fraction of Gibberellin A4 (Liquid); method: Gravimetric
Temperature, K	Mole fraction of Gibberellin A4	uncertainty
278.15	.010515	.0002103
283.15	.011811	.00023622
288.15	.013432	.00026864
293.15	.015653	.00031306
298.15	.017201	.00034402
303.15	.019455	.0003891
308.15	.02115	.000423
313.15	.023853	.00047706
318.15	.026497	.00052994
323.15	.02987	.0005974
328.15	.032476	.00064952
333.15	.035657	.00071314
