Measured thermophysical data. Density, Viscosity, Speed of Sound, Bulk Modulus, Surface Tension, and Flash Point of Binary Mixtures of 1,2,3,4-Tetrahydronaphthalene and Trans-decahydronaphthalene
Source: J. Chem. Eng. Data, 2016, 10.1021/acs.jced.5b01075
Compound 1: 1,2,3,4-tetrahydronaphthalene, C10H12, purity 98.9%
Compound 2: trans-decahydronaphthalene, C10H18, purity 99.5%
Compound 3: toluene, C7H8, purity 99.999%

System: toluene; phases: Liquid
Fixed: Pressure, kPa = 101.325
Property: Mass density, kg/m3 (Liquid); method: Vibrating tube method
Temperature, K	Mass density, kg/m3	uncertainty
293.15	866.816	
303.15	857.497	
313.15	848.114	
323.15	838.661	
333.15	829.124	

System: toluene; phases: Liquid
Fixed: Pressure, kPa = 101.325
Property: Mass density, kg/m3 (Liquid); method: Vibrating tube method
Temperature, K	Mass density, kg/m3	uncertainty
293.15	866.8	
303.15	857.5	
313.15	848.1	
323.15	838.7	
333.15	829.1	
343.15	819.5	
353.15	809.7	

System: toluene; phases: Liquid
Fixed: Pressure, kPa = 101.325
Property: Speed of sound, m/s (Liquid); method: Sing-around technique in a fixed-path interferometer
Temperature, K	Speed of sound, m/s	uncertainty
293.15	1326.5	
303.15	1283.5	
313.15	1241	
323.15	1198.9	
333.15	1157.5	

System: 1,2,3,4-tetrahydronaphthalene + trans-decahydronaphthalene; phases: Liquid
Fixed: Pressure, kPa = 100
Property: Mass density, kg/m3 (Liquid); method: Vibrating tube method
Mass fraction of 1,2,3,4-tetrahydronaphthalene	Temperature, K	Mass density, kg/m3	uncertainty
.1003	293.15	878.7	
.2002	293.15	887.89	
.3	293.15	897.28	
.4002	293.15	906.9	
.5	293.15	916.67	
.6	293.15	926.69	
.7	293.15	936.89	
.8	293.15	947.32	
.8999	293.15	957.95	
.1003	303.15	871.18	
.2002	303.15	880.33	
.3	303.15	889.67	
.4002	303.15	899.23	
.5	303.15	908.96	
.6	303.15	918.92	
.7	303.15	929.09	
.8	303.15	939.47	
.8999	303.15	950.07	
.1003	313.15	863.68	
.2002	313.15	872.76	
.3	313.15	882.05	
.4002	313.15	891.55	
.5	313.15	901.24	
.6	313.15	911.15	
.7	313.15	921.27	
.8	313.15	931.61	
.8999	313.15	942.17	
.1003	323.15	856.15	
.2002	323.15	865.18	
.3	323.15	874.42	
.4002	323.15	883.87	
.5	323.15	893.51	
.6	323.15	903.37	
.7	323.15	913.45	
.8	323.15	923.75	
.8999	323.15	934.26	
.1003	333.15	848.6	
.2002	333.15	857.58	
.3	333.15	866.77	
.4002	333.15	876.17	
.5	333.15	885.76	
.6	333.15	895.58	
.7	333.15	905.62	
.8	333.15	915.87	
.8999	333.15	926.34	
.1003	343.15	841	
.2002	343.15	850	
.3	343.15	859.1	
.4002	343.15	868.3	
.5	343.15	878	
.6	343.15	887.9	
.7	343.15	897.7	
.8	343.15	907.9	
.8999	343.15	918.5	
.1003	353.1	833.2	
.2002	353.1	842.3	
.3	353.1	851.4	
.4002	353.1	860.6	
.5	353.1	870.2	
.6	353.1	880	
.7	353.1	889.8	
.8	353.1	900	
.8999	353.1	910.5	
.1003	363.1	825.5	
.2002	363.1	834.6	
.3	363.1	843.5	
.4002	363.1	852.8	
.5	363.1	862.3	
.6	363.1	872.1	
.7	363.1	881.8	
.8	363.1	892	
.8999	363.1	902.4	
.1003	373.1	817.9	
.2002	373.1	826.9	
.3	373.1	835.8	
.4002	373.1	844.9	
.5	373.1	854.5	
.6	373.1	864.2	
.7	373.1	874	
.8	373.1	883.9	
.8999	373.1	894.4	

System: 1,2,3,4-tetrahydronaphthalene + trans-decahydronaphthalene; phases: Liquid
Fixed: Pressure, kPa = 100
Fixed: Frequency, MHz = 3
Property: Speed of sound, m/s (Liquid); method: Sing-around technique in a fixed-path interferometer
Mass fraction of 1,2,3,4-tetrahydronaphthalene	Temperature, K	Speed of sound, m/s	uncertainty
.1003	293.15	1405	
.2002	293.15	1412.5	
.3	293.15	1420.5	
.4002	293.15	1428.8	
.5	293.15	1437.7	
.6	293.15	1446.9	
.7	293.15	1456.8	
.8	293.15	1467	
.8999	293.15	1477.9	
.1003	303.15	1364.8	
.2002	303.15	1372.4	
.3	303.15	1380.5	
.4002	303.15	1388.9	
.5	303.15	1397.9	
.6	303.15	1407.2	
.7	303.15	1417.2	
.8	303.15	1427.6	
.8999	303.15	1438.6	
.1003	313.15	1325.3	
.2002	313.15	1333.1	
.3	313.15	1341.3	
.4002	313.15	1349.9	
.5	313.15	1358.9	
.6	313.15	1368.4	
.7	313.15	1378.4	
.8	313.15	1388.9	
.8999	313.15	1400	
.1003	323.15	1286.7	
.2002	323.15	1294.5	
.3	323.15	1302.8	
.4002	323.15	1311.5	
.5	323.15	1320.7	
.6	323.15	1330.2	
.7	323.15	1340.4	
.8	323.15	1350.9	
.8999	323.15	1362	
.1003	333.15	1248.7	
.2002	333.15	1256.7	
.3	333.15	1265.1	
.4002	333.15	1273.9	
.5	333.15	1283.1	
.6	333.15	1292.7	
.7	333.15	1303	
.8	333.15	1313.5	
.8999	333.15	1324.8	

System: 1,2,3,4-tetrahydronaphthalene + trans-decahydronaphthalene; phases: Liquid
Fixed: Pressure, kPa = 100
Property: Viscosity, Pa*s (Liquid); method: Concentric cylinders viscometry
Mole fraction of 1,2,3,4-tetrahydronaphthalene	Temperature, K	Viscosity, Pa*s	uncertainty
.1044	293.15	.00207	
.2075	293.15	.00203	
.3094	293.15	.00202	
.4109	293.15	.002	
.5112	293.15	.00202	
.6106	293.15	.00204	
.7093	293.15	.00207	
.807	293.15	.00211	
.9039	293.15	.00217	
.1044	303.15	.00174	
.2075	303.15	.00171	
.3094	303.15	.0017	
.4109	303.15	.00168	
.5112	303.15	.00169	
.6106	303.15	.00171	
.7093	303.15	.00173	
.807	303.15	.00175	
.9039	303.15	.0018	
.1044	313.15	.00148	
.2075	313.15	.00146	
.3094	313.15	.00144	
.4109	313.15	.00143	
.5112	313.15	.00144	
.6106	313.15	.00145	
.7093	313.15	.00146	
.807	313.15	.00148	
.9039	313.15	.00151	
.1044	323.15	.00127	
.2075	323.15	.00125	
.3094	323.15	.00124	
.4109	323.15	.00123	
.5112	323.15	.00124	
.6106	323.15	.00125	
.7093	323.15	.00126	
.807	323.15	.00127	
.9039	323.15	.00129	
.1044	333.15	.0011	
.2075	333.15	.00109	
.3094	333.15	.00108	
.4109	333.15	.00107	
.5112	333.15	.00108	
.6106	333.15	.00108	
.7093	333.15	.00109	
.807	333.15	.0011	
.9039	333.15	.00112	
.1044	343.15	.000968	
.2075	343.15	.000957	
.3094	343.15	.00095	
.4109	343.15	.000943	
.5112	343.15	.000947	
.6106	343.15	.000951	
.7093	343.15	.000958	
.807	343.15	.000968	
.9039	343.15	.000982	
.1044	353.15	.000856	
.2075	353.15	.000847	
.3094	353.15	.000842	
.4109	353.15	.000836	
.5112	353.15	.00084	
.6106	353.15	.000843	
.7093	353.15	.000849	
.807	353.15	.000858	
.9039	353.15	.00087	
.1044	363.15	.000765	
.2075	363.15	.000758	
.3094	363.15	.000753	
.4109	363.15	.000749	
.5112	363.15	.000752	
.6106	363.15	.000755	
.7093	363.15	.00076	
.807	363.15	.000768	
.9039	363.15	.000778	
.1044	373.15	.000689	
.2075	373.15	.000683	
.3094	373.15	.00068	
.4109	373.15	.000676	
.5112	373.15	.000679	
.6106	373.15	.000685	
.7093	373.15	.000687	
.807	373.15	.000694	
.9039	373.15	.000703	

System: 1,2,3,4-tetrahydronaphthalene + trans-decahydronaphthalene; phases: Liquid, Air at 1 atmosphere
Fixed: Temperature, K = 294.2
Property: Surface tension liquid-gas, N/m (Liquid); method: Pendant drop shape
Mole fraction of 1,2,3,4-tetrahydronaphthalene	Surface tension liquid-gas, N/m	uncertainty
.1044	.0305	
.2075	.031	
.3094	.0314	
.4109	.0321	
.5112	.0323	
.6106	.0329	
.7093	.0336	
.807	.0341	
.9039	.035	
