Measured thermophysical data. Solubility of Ethene in n-Hexane and n-Heptane as Common Slurry-Phase Polymerization Solvents: Experimental Measurement and Modeling
Source: J. Chem. Eng. Data, 2016, 10.1021/acs.jced.5b00907
Compound 1: ethene, C2H4
Compound 2: n-hexane, C6H14
Compound 3: n-heptane, C7H16
Compound 4: methylbenzene, C7H8

System: ethene + n-hexane; phases: Liquid, Gas
Property: Vapor or sublimation pressure, kPa (Liquid); method: Closed cell (Static) method
Temperature, K	Mole fraction of ethene	Vapor or sublimation pressure, kPa	uncertainty
303.2	.03	192	.192
303.2	.0395	233	.233
303.2	.0577	329	.329
303.2	.0567	338	.338
303.2	.0687	388	.388
303.2	.0848	473	.473
303.2	.0995	552	.552
303.2	.1131	628	.628
303.2	.1259	697	.697
303.2	.1376	763	.763
303.2	.1488	827	.827
303.2	.1594	888	.888
303.2	.1696	960	.96
303.2	.1791	1014	1.014
303.2	.1885	1067	1.067
313.2	.0295	223	.223
313.2	.0558	383	.383
313.2	.0674	447	.447
313.2	.1114	707	.707
313.2	.157	998	.998
313.2	.1862	1190	1.19
323.2	.029	257	.257
323.2	.0549	433	.433
323.2	.0666	498	.498
323.2	.1098	790	.79
323.2	.155	1107	1.107
323.2	.1838	1320	1.32
333.2	.0286	297	.297
333.2	.0541	488	.488
333.2	.0657	557	.557
333.2	.1084	878	.878
333.2	.153	1227	1.227
333.2	.1817	1456	1.456
343.2	.0282	344	.344
343.2	.0533	553	.553
343.2	.0648	626	.626
343.2	.1071	972	.972
343.2	.1512	1351	1.351
343.2	.1797	1597	1.597
348.2	.0277	378	.378
348.2	.0528	593	.593

System: ethene + n-heptane; phases: Liquid, Gas
Property: Vapor or sublimation pressure, kPa (Liquid); method: Closed cell (Static) method
Temperature, K	Mole fraction of ethene	Vapor or sublimation pressure, kPa	uncertainty
303.2	.0294	182	.182
303.2	.0644	344	.344
303.2	.0927	480	.48
303.2	.1219	624	.624
303.2	.1439	747	.747
303.2	.1747	903	.903
303.2	.1958	1012	1.012
313.2	.0283	214	.214
313.2	.1197	701	.701
313.2	.1929	1131	1.131
323.2	.0274	244	.244
323.2	.1176	782	.782
323.2	.1899	1257	1.257
333.2	.0265	280	.28
333.2	.1154	870	.87
333.2	.1873	1385	1.385
343.2	.0255	323	.323
343.2	.1134	963	.963
343.2	.1847	1516	1.516
