Measured thermophysical data. Determination and Correlation of Solid Liquid Phase Equilibrium and Phase Diagram for a Multicomponent System of Mixed Dibasic Acids. Ternary System of Succinic Acid + Adipic Acid + Ethanol
Source: J. Chem. Eng. Data, 2016, 10.1021/acs.jced.6b00031
Compound 1: succinic acid, C4H6O4, purity 98.5%
Compound 2: adipic acid, C6H10O4, purity 98.5%
Compound 3: ethanol, C2H6O, purity 99.7%

System: ethanol + succinic acid + adipic acid; phases: Liquid, Crystal
Fixed: Pressure, kPa = 101.3
Property: Mass fraction of adipic acid (Liquid); method: Chromatography
Temperature, K	Mass fraction of succinic acid	Mass fraction of adipic acid	uncertainty
283.15	0	.0695	
283.15	.0106	.0684	
283.15	.0215	.0674	
283.15	.0326	.0664	
283.15	.0431	.0655	
283.15	.0521	.0646	
313.15	0	.1853	
313.15	.0202	.1782	
313.15	.0397	.1732	
313.15	.0599	.168	
313.15	.0794	.1619	
313.15	.1012	.1563	
313.15	.1157	.152	

System: ethanol + succinic acid + adipic acid; phases: Liquid, Crystal
Fixed: Pressure, kPa = 101.3
Property: Mass fraction of adipic acid (Liquid); method: Chromatography
Temperature, K	Mass fraction of succinic acid	Mass fraction of adipic acid	uncertainty
283.15	.0521	.0646	
283.15	.053	.0534	
283.15	.0537	.0419	
283.15	.0544	.0314	
283.15	.0551	.021	
283.15	.056	.0106	
283.15	.0569	0	
313.15	.1157	.152	
313.15	.1182	.1359	
313.15	.1197	.1206	
313.15	.1211	.107	
313.15	.1259	.0834	
313.15	.1296	.0578	
313.15	.1342	.0314	
313.15	.1419	0	

System: ethanol + succinic acid + adipic acid; phases: Liquid
Fixed: Pressure, kPa = 101.3
Property: Mass density, kg/m3 (Liquid); method: Vibrating tube method
Temperature, K	Mass fraction of succinic acid	Mass fraction of adipic acid	Mass density, kg/m3	uncertainty
283.15	0	.0695	837.4	
283.15	.0106	.0684	842.4	
283.15	.0215	.0674	847.7	
283.15	.0326	.0664	853.7	
283.15	.0431	.0655	859	
283.15	.0521	.0646	864.3	
283.15	.053	.0534	860.6	
283.15	.0537	.0419	856.9	
283.15	.0544	.0314	852.8	
283.15	.0551	.021	848.2	
283.15	.056	.0106	843.4	
283.15	.0569	0	836.8	
313.15	0	.1853	870.4	
313.15	.0202	.1782	876.6	
313.15	.0397	.1732	883.5	
313.15	.0599	.168	890.2	
313.15	.0794	.1619	897.1	
313.15	.1012	.1563	904.6	
313.15	.1157	.152	909.8	
313.15	.1182	.1359	904.7	
313.15	.1197	.1206	901.6	
313.15	.1211	.107	898.6	
313.15	.1259	.0834	892.2	
313.15	.1296	.0578	886.2	
313.15	.1342	.0314	878.8	
313.15	.1419	0	868.6	

System: ethanol + succinic acid + adipic acid; phases: Liquid, Crystal
Fixed: Pressure, kPa = 101.3
Fixed: Temperature, K = 303.15
Property: Mass fraction of adipic acid (Liquid); method: Chromatography
Mass fraction of succinic acid	Mass fraction of adipic acid	uncertainty
0	.1382	
.0097	.1362	
.0288	.1324	
.0508	.1281	
.0688	.1246	
.0895	.1193	

System: ethanol + succinic acid + adipic acid; phases: Liquid, Crystal
Fixed: Pressure, kPa = 101.3
Fixed: Temperature, K = 303.15
Property: Mass fraction of adipic acid (Liquid); method: Chromatography
Mass fraction of succinic acid	Mass fraction of adipic acid	uncertainty
.0895	.1193	
.0915	.1003	
.0942	.0765	
.0971	.0544	
.1005	.0328	
.1046	.0141	
.1084	0	

System: ethanol + succinic acid + adipic acid; phases: Liquid
Fixed: Pressure, kPa = 101.3
Fixed: Temperature, K = 303.15
Property: Mass density, kg/m3 (Liquid); method: Vibrating tube method
Mass fraction of succinic acid	Mass fraction of adipic acid	Mass density, kg/m3	uncertainty
0	.1382	852.3	
.0097	.1362	855.9	
.0288	.1324	864.3	
.0508	.1281	873.8	
.0688	.1246	882.1	
.0895	.1193	891.3	
.0915	.1003	883.5	
.0942	.0765	876.3	
.0971	.0544	868.1	
.1005	.0328	859.3	
.1046	.0141	851.3	
.1084	0	843.8	

System: ethanol + adipic acid; phases: Liquid, Crystal
Property: Mass fraction of adipic acid (Liquid); method: Chromatography
Temperature, K	Pressure, kPa	Mass fraction of adipic acid	uncertainty
283.15	101.3	.0695	
313.15	101.3	.1853	
303.15	101.3	.1382	

System: ethanol + adipic acid; phases: Liquid
Property: Mass density, kg/m3 (Liquid); method: Vibrating tube method
Temperature, K	Mass fraction of adipic acid	Pressure, kPa	Mass density, kg/m3	uncertainty
283.15	.0695	101.3	837.4	
313.15	.1853	101.3	870.4	
303.15	.1382	101.3	852.3	

System: ethanol + succinic acid; phases: Liquid
Property: Mass density, kg/m3 (Liquid); method: Vibrating tube method
Temperature, K	Mass fraction of succinic acid	Pressure, kPa	Mass density, kg/m3	uncertainty
283.15	.0569	101.3	836.8	
313.15	.1419	101.3	868.6	
303.15	.1084	101.3	843.8	

System: ethanol + succinic acid; phases: Liquid, Crystal
Property: Mass fraction of succinic acid (Liquid); method: Chromatography
Temperature, K	Pressure, kPa	Mass fraction of succinic acid	uncertainty
283.15	101.3	.0569	
313.15	101.3	.1419	
303.15	101.3	.1084	
