Measured thermophysical data. Temperature and Pressure Dependence of the Electrical Conductivity of 1-Butyl-3-methylimidazolium Bis(trifluoromethanesulfonyl)amide
Source: J. Chem. Eng. Data, 2015, 10.1021/acs.jced.5b00071
Compound 1: 1-butyl-3-methylimidazolium bis(trifluoromethylsulfonyl)imide, C10H15F6N3O4S2

System: 1-butyl-3-methylimidazolium bis(trifluoromethylsulfonyl)imide; phases: Liquid
Property: Electrical conductivity, S/m (Liquid); method: Alternating current cell with electrodes
Temperature, K	Pressure, kPa	Electrical conductivity, S/m	uncertainty
273.15	101	.1192	.002384
278.14	101	.1589	.003178
283.15	101	.207	.00414
288.14	101	.2635	.00527
293.15	101	.3289	.006578
298.15	101	.404	.00808
303.15	101	.4878	.009756
308.15	101	.5805	.01161
313.15	101	.6828	.013656
318.15	101	.7931	.015862
323.15	101	.9175	.01835
328.16	101	1.048	.02096
333.15	101	1.186	.02372
338.15	101	1.332	.02664
343.15	101	1.476	.02952
348.15	101	1.645	.0329
353.15	101	1.796	.03592
273.15	101	.1181	.002362
278.14	101	.1575	.00315
283.15	101	.2043	.004086
288.14	101	.2598	.005196
293.15	101	.3228	.006456
298.15	101	.3936	.007872
303.15	101	.4734	.009468
308.15	101	.5576	.011152
313.15	101	.6575	.01315
318.15	101	.7586	.015172
323.15	101	.8681	.017362
328.16	101	.9649	.019298
333.15	101	1.105	.0221
338.15	101	1.213	.02426
343.15	101	1.356	.02712
348.15	101	1.491	.02982
353.15	101	1.63	.0326
273.38	101	.1198	.002396
278.15	101	.1575	.00315
283.15	101	.2048	.004096
288.15	101	.2594	.005188
293.15	101	.3227	.006454
298.15	101	.3945	.00789
303.15	101	.4752	.009504
308.15	101	.5639	.011278
313.15	101	.6603	.013206
318.15	101	.7637	.015274
323.11	101	.8754	.017508
328.08	101	.9923	.019846
333.15	101	1.119	.02238
338.13	101	1.249	.02498
343.11	101	1.382	.02764
348.19	101	1.524	.03048
353.17	101	1.663	.03326

System: 1-butyl-3-methylimidazolium bis(trifluoromethylsulfonyl)imide; phases: Liquid
Property: Electrical conductivity, S/m (Liquid); method: Alternating current cell with electrodes
Temperature, K	Pressure, kPa	Electrical conductivity, S/m	uncertainty
283.14	1610	.2039	.004078
283.14	3360	.1997	.003994
283.15	100	.2072	.004144
283.15	900	.2053	.004106
283.15	5010	.1955	.00391
283.15	9940	.1843	.003686
283.15	14970	.1734	.003468
283.15	20060	.1632	.003264
283.15	25130	.1537	.003074
283.15	30210	.1449	.002898
283.15	40320	.1287	.002574
283.15	50070	.115	.0023
283.15	74700	.08709	.0017418
283.15	100300	.06494	.0012988
283.15	149400	.03727	.0007454
283.15	174400	.02812	.0005624
283.15	200600	.02094	.0004188
283.16	125200	.04886	.0009772
298.13	24500	.3029	.006058
298.13	49000	.2402	.004804
298.15	98100	.1501	.003002
298.15	122300	.1195	.00239
298.15	196100	.06027	.0012054
298.15	100	.4025	.00805
298.15	1150	.3986	.007972
298.15	2090	.3946	.007892
298.15	2920	.3911	.007822
298.15	4760	.3847	.007694
298.15	9890	.3641	.007282
298.15	14990	.3453	.006906
298.15	19960	.3284	.006568
298.15	24510	.3134	.006268
298.15	28750	.3002	.006004
298.15	40280	.2676	.005352
298.15	49150	.2447	.004894
298.15	49830	.2433	.004866
298.15	70200	.2001	.004002
298.15	72100	.1951	.003902
298.15	81000	.1801	.003602
298.15	92200	.1612	.003224
298.15	97900	.1527	.003054
298.15	124900	.1173	.002346
298.15	150700	.09182	.0018364
298.15	174700	.07318	.0014636
298.15	200600	.05717	.0011434
298.16	171600	.0758	.001516
298.17	147100	.09552	.0019104
298.17	100	.3872	.007744
298.18	73500	.1898	.003796
323.13	24500	.6853	.013706
323.13	147100	.2815	.00563
323.14	48700	.577	.01154
323.14	73800	.4797	.009594
323.14	100	.8126	.016252
323.14	171600	.236	.00472
323.15	100	.9082	.018164
323.15	1080	.9005	.01801
323.15	2020	.8925	.01785
323.15	3100	.885	.0177
323.15	5080	.8714	.017428
323.15	10070	.835	.0167
323.15	15040	.8018	.016036
323.15	20040	.7689	.015378
323.15	24990	.7391	.014782
323.15	30090	.7086	.014172
323.15	40040	.6535	.01307
323.15	49970	.6043	.012086
323.15	75200	.497	.00994
323.15	100000	.41	.0082
323.15	124800	.3393	.006786
323.15	150900	.2785	.00557
323.15	175100	.2325	.00465
323.15	201300	.1919	.003838
323.15	225200	.1608	.003216
323.15	250800	.1332	.002664
323.16	98100	.4019	.008038
323.16	196100	.1979	.003958
323.17	122600	.335	.0067
348.13	49000	1.0378	.020756
348.14	147100	.5901	.011802
348.14	100	1.3873	.027746
348.14	73500	.8979	.017958
348.14	150600	.6048	.012096
348.15	98100	.7803	.015606
348.15	100	1.62	.0324
348.15	1750	1.599	.03198
348.15	3120	1.585	.0317
348.15	5030	1.564	.03128
348.15	9860	1.512	.03024
348.15	15090	1.46	.0292
348.15	19940	1.411	.02822
348.15	25380	1.358	.02716
348.15	30090	1.314	.02628
348.15	39780	1.233	.02466
348.15	49820	1.152	.02304
348.15	74900	.9792	.019584
348.15	100500	.8301	.016602
348.15	125100	.7104	.014208
348.15	175100	.5234	.010468
348.15	200700	.449	.00898
348.15	225500	.3874	.007748
348.15	250300	.3344	.006688
348.16	24500	1.1927	.023854
348.16	1080	1.611	.03222
348.16	122600	.6748	.013496
348.17	171900	.5128	.010256
348.17	196100	.4453	.008906
