Measured thermophysical data. Phase Equilibrium Behavior for Methoxymethane + Pentaerythritol Tetraheptanoate and Methoxymethane + Pentaerythritol Tetranonanoate Systems
Source: J. Chem. Eng. Data, 2016, 10.1021/acs.jced.6b00412
Compound 1: methoxymethane, C2H6O, purity 99.95%
Compound 2: pentaerythritol tetraheptanoate, C33H60O8, purity 98%
Compound 3: pentaerythritol tetranonanoate, C41H76O8, purity 98%

System: methoxymethane + pentaerythritol tetraheptanoate; phases: Liquid, Gas
Property: Vapor or sublimation pressure, kPa (Liquid); method: Closed cell (Static) method
Temperature, K	Mole fraction of methoxymethane	Vapor or sublimation pressure, kPa	uncertainty
293.15	.2926	74	
293.15	.509	153	
293.15	.6647	239	
293.15	.7624	311	
293.15	.8222	363	
293.15	.8633	401	
293.15	.9034	439	
293.15	.9345	467	
303.15	.2673	87	
303.15	.4842	182	
303.15	.6387	295	
303.15	.7425	391	
303.15	.8077	464	
303.15	.8531	520	
303.15	.8976	576	
303.15	.9316	618	
313.15	.2427	99	
313.15	.4482	216	
313.15	.6096	351	
313.15	.7188	476	
313.15	.7895	575	
313.15	.8399	654	
313.15	.8898	738	
313.15	.9278	801	
323.15	.2192	112	
323.15	.4162	247	
323.15	.5782	407	
323.15	.6915	561	
323.15	.7674	691	
323.15	.8228	801	
323.15	.8793	923	
323.15	.9226	1016	
333.15	.1969	124	
333.15	.3852	276	
333.15	.5457	460	
333.15	.6618	645	
333.15	.7418	807	
333.15	.8021	952	
333.15	.8655	1124	
333.15	.9155	1264	
343.15	.1765	135	
343.15	.3558	304	
343.15	.513	511	
343.15	.6305	724	
343.15	.7136	919	
343.15	.7778	1102	
343.15	.848	1333	
343.15	.9057	1539	
348.15	.1575	147	
348.15	.3278	330	
348.15	.481	559	
348.15	.5988	799	
348.15	.6839	1025	
348.15	.7511	1244	
348.15	.8268	1539	
348.15	.8925	1831	

System: methoxymethane + pentaerythritol tetranonanoate; phases: Liquid, Gas
Property: Vapor or sublimation pressure, kPa (Liquid); method: Closed cell (Static) method
Temperature, K	Mole fraction of methoxymethane	Vapor or sublimation pressure, kPa	uncertainty
293.15	.3426	78	
293.15	.5638	159	
293.15	.68	225	
293.15	.797	317	
293.15	.8566	374	
293.15	.8965	416	
293.15	.9329	454	
293.15	.9535	474	
303.15	.3133	92	
303.15	.5321	191	
303.15	.6521	274	
303.15	.7774	396	
303.15	.8433	479	
303.15	.888	541	
303.15	.9288	599	
303.15	.9515	629	
313.15	.2856	105	
313.15	.499	221	
313.15	.6211	323	
313.15	.7538	478	
313.15	.8263	592	
313.15	.8768	684	
313.15	.9233	771	
313.15	.9488	816	
323.15	.2578	117	
323.15	.4658	250	
323.15	.588	370	
323.15	.7268	560	
323.15	.8053	710	
323.15	.862	838	
323.15	.9158	970	
323.15	.9451	1039	
333.15	.2323	127	
333.15	.4325	279	
333.15	.5545	414	
333.15	.6972	639	
333.15	.7809	825	
333.15	.8435	998	
333.15	.9055	1190	
333.15	.94	1298	
343.15	.2084	138	
343.15	.4004	305	
343.15	.5209	446	
343.15	.6661	702	
343.15	.7537	936	
343.15	.8214	1154	
343.15	.8918	1422	
343.15	.9329	1588	
348.15	.1863	149	
348.15	.3701	330	
348.15	.4881	486	
348.15	.6344	772	
348.15	.7251	1038	
348.15	.7967	1300	
348.15	.8745	1652	
348.15	.9228	1897	
