Measured thermophysical data. Measurement and Correlation of the Solubility of Antioxidant 626 in Alcohols
Source: J. Chem. Eng. Data, 2016, 10.1021/acs.jced.5b00823
Compound 1: 3,9-bis(2,4-di-tert-butylphenoxy)-2,4,8,10-tetraoxa-3,9-diphosphaspiro[5.5]undecane, C33H50O6P2, purity 95.0%
Compound 2: methanol, CH4O, purity 99.9%
Compound 3: ethanol, C2H6O, purity 99.9%
Compound 4: 2-propanol, C3H8O, purity 99.7%
Compound 5: n-propanol, C3H8O, purity 99.8%
Compound 6: tert-butyl alcohol, C4H10O, purity 99.7%

System: 3,9-bis(2,4-di-tert-butylphenoxy)-2,4,8,10-tetraoxa-3,9-diphosphaspiro[5.5]undecane; phases: Crystal, Liquid, Air at 1 atmosphere
Property: Molar enthalpy of transition or fusion, kJ/mol (Crystal); method: DSC
Molar enthalpy of transition or fusion, kJ/mol	uncertainty
41.51	2.0755

System: 3,9-bis(2,4-di-tert-butylphenoxy)-2,4,8,10-tetraoxa-3,9-diphosphaspiro[5.5]undecane; phases: Crystal, Liquid
Property: Solid-liquid equilibrium temperature, K (Crystal); method: DSC/DTA
Pressure, kPa	Solid-liquid equilibrium temperature, K	uncertainty
101.3	448.15	

System: methanol + 3,9-bis(2,4-di-tert-butylphenoxy)-2,4,8,10-tetraoxa-3,9-diphosphaspiro[5.5]undecane; phases: Liquid, Crystal
Fixed: Pressure, kPa = 100
Property: Mole fraction of 3,9-bis(2,4-di-tert-butylphenoxy)-2,4,8,10-tetraoxa-3,9-diphosphaspiro[5.5]undecane (Liquid); method: UV spectroscopy
Temperature, K	Mole fraction of 3,9-bis(2,4-di-tert-butylphenoxy)-2,4,8,10-tetraoxa-3,9-diphosphaspiro[5.5]undecane	uncertainty
304.65	.00005049	
308.25	.00005838	
312.95	.00007838	
318.15	.0001186	
322.65	.0001543	

System: ethanol + 3,9-bis(2,4-di-tert-butylphenoxy)-2,4,8,10-tetraoxa-3,9-diphosphaspiro[5.5]undecane; phases: Liquid, Crystal
Fixed: Pressure, kPa = 100
Property: Mole fraction of 3,9-bis(2,4-di-tert-butylphenoxy)-2,4,8,10-tetraoxa-3,9-diphosphaspiro[5.5]undecane (Liquid); method: UV spectroscopy
Temperature, K	Mole fraction of 3,9-bis(2,4-di-tert-butylphenoxy)-2,4,8,10-tetraoxa-3,9-diphosphaspiro[5.5]undecane	uncertainty
303.25	.0001852	
308.15	.000249	
312.85	.0003239	
318.15	.0003653	
322.95	.0004256	
328.15	.0005341	
332.15	.0006692	

System: 2-propanol + 3,9-bis(2,4-di-tert-butylphenoxy)-2,4,8,10-tetraoxa-3,9-diphosphaspiro[5.5]undecane; phases: Liquid, Crystal
Fixed: Pressure, kPa = 100
Property: Mole fraction of 3,9-bis(2,4-di-tert-butylphenoxy)-2,4,8,10-tetraoxa-3,9-diphosphaspiro[5.5]undecane (Liquid); method: UV spectroscopy
Temperature, K	Mole fraction of 3,9-bis(2,4-di-tert-butylphenoxy)-2,4,8,10-tetraoxa-3,9-diphosphaspiro[5.5]undecane	uncertainty
304.15	.0002965	
308.35	.0003712	
313.15	.0004733	
318.25	.0006571	
323.15	.0007517	
327.95	.001126	
333.35	.00163	

System: n-propanol + 3,9-bis(2,4-di-tert-butylphenoxy)-2,4,8,10-tetraoxa-3,9-diphosphaspiro[5.5]undecane; phases: Liquid, Crystal
Fixed: Pressure, kPa = 100
Property: Mole fraction of 3,9-bis(2,4-di-tert-butylphenoxy)-2,4,8,10-tetraoxa-3,9-diphosphaspiro[5.5]undecane (Liquid); method: UV spectroscopy
Temperature, K	Mole fraction of 3,9-bis(2,4-di-tert-butylphenoxy)-2,4,8,10-tetraoxa-3,9-diphosphaspiro[5.5]undecane	uncertainty
303.15	.0004771	
308.15	.0005819	
313.05	.0007345	
318.25	.0009255	
322.75	.001132	
327.95	.00146	
333.15	.001821	

System: tert-butyl alcohol + 3,9-bis(2,4-di-tert-butylphenoxy)-2,4,8,10-tetraoxa-3,9-diphosphaspiro[5.5]undecane; phases: Liquid, Crystal
Fixed: Pressure, kPa = 100
Property: Mole fraction of 3,9-bis(2,4-di-tert-butylphenoxy)-2,4,8,10-tetraoxa-3,9-diphosphaspiro[5.5]undecane (Liquid); method: UV spectroscopy
Temperature, K	Mole fraction of 3,9-bis(2,4-di-tert-butylphenoxy)-2,4,8,10-tetraoxa-3,9-diphosphaspiro[5.5]undecane	uncertainty
302.95	.0006737	
308.05	.0008535	
313.15	.001198	
318.45	.00157	
323.05	.002217	
328.45	.003021	
332.95	.003788	
