Measured thermophysical data. Determination and Correlation for the Solubility of Glutaric Acid in Cyclohexane + Cyclohexanol + Cyclohexanone Solvent Mixtures
Source: J. Chem. Eng. Data, 2016, 10.1021/acs.jced.6b00325
Compound 1: glutaric acid, C5H8O4, purity 99.0%
Compound 2: cyclohexane, C6H12, purity 99.0%
Compound 3: cyclohexanol, C6H12O, purity 97.0%
Compound 4: cyclohexanone, C6H10O, purity 99.5%
Compound 5: water, H2O, purity 99.9%

System: glutaric acid + water; phases: Liquid, Crystal
Fixed: Pressure, kPa = 101.3
Property: Mole fraction of glutaric acid (Liquid); method: visual
Temperature, K	Mole fraction of glutaric acid	uncertainty
298.65	.1789	
302.75	.2	
306.15	.2206	
310.35	.2439	
313.75	.2665	
317.85	.2954	
322.05	.3276	
326.55	.3663	
331.05	.4092	
335.35	.4515	

System: cyclohexanol + glutaric acid; phases: Liquid, Crystal
Fixed: Pressure, kPa = 101.3
Property: Mole fraction of glutaric acid (Liquid); method: visual
Temperature, K	Mole fraction of glutaric acid	uncertainty
306.25	.2456	
310.85	.2704	
314.55	.2943	
317.85	.3174	
322.85	.3586	
327.55	.397	
331.05	.4309	
336.75	.4839	
340.65	.5275	
343.65	.5646	

System: cyclohexanone + glutaric acid; phases: Liquid, Crystal
Fixed: Pressure, kPa = 101.3
Property: Mole fraction of glutaric acid (Liquid); method: visual
Temperature, K	Mole fraction of glutaric acid	uncertainty
299.75	.213	
303.95	.2379	
307.75	.2618	
312.55	.2946	
316.85	.3244	
321.95	.3687	
326.85	.4077	
332.25	.4605	
336.55	.5048	
340.65	.5512	

System: cyclohexanol + cyclohexane + glutaric acid; phases: Liquid, Crystal
Fixed: Pressure, kPa = 101.3
Property: Mole fraction of glutaric acid (Liquid); method: visual
Temperature, K	Solvent: Mass fraction of cyclohexane	Mole fraction of glutaric acid	uncertainty
306.25	0	.2456	
310.85	0	.2704	
314.55	0	.2943	
317.85	0	.3174	
322.85	0	.3586	
327.55	0	.397	
331.05	0	.4309	
336.75	0	.4839	
340.65	0	.5275	
343.65	0	.5646	
298.05	.2	.1581	
303.25	.2	.1773	
307.85	.2	.1964	
311.55	.2	.2147	
314.75	.2	.2323	
319.15	.2	.2556	
323.05	.2	.2773	
327.95	.2	.309	
332.55	.2	.3461	
336.35	.2	.3794	
301.15	.4	.1149	
307.3	.4	.1336	
312.35	.4	.1518	
316.55	.4	.1694	
321.45	.4	.1928	
325.25	.4	.2151	
329.65	.4	.2445	
333.65	.4	.2718	
337.65	.4	.3036	
302.7	.6	.0681	
306.85	.6	.0755	
310.35	.6	.0828	
313.45	.6	.0899	
318.45	.6	.1024	
322.15	.6	.1146	
326.95	.6	.1323	
330.95	.6	.1505	
334.45	.6	.1701	
337.45	.6	.1886	
299.75	.8	.0237	
306.25	.8	.0276	
311.45	.8	.0313	
315.65	.8	.035	
319.45	.8	.0388	
322.65	.8	.0425	
325.45	.8	.0463	
328.45	.8	.0503	
331.05	.8	.0546	

System: cyclohexanone + cyclohexane + glutaric acid; phases: Liquid, Crystal
Fixed: Pressure, kPa = 101.3
Property: Mole fraction of glutaric acid (Liquid); method: visual
Temperature, K	Solvent: Mass fraction of cyclohexane	Mole fraction of glutaric acid	uncertainty
299.75	0	.213	
303.95	0	.2379	
307.75	0	.2618	
312.55	0	.2946	
316.85	0	.3244	
321.95	0	.3687	
326.85	0	.4077	
332.25	0	.4605	
336.55	0	.5048	
340.65	0	.5512	
302.3	.2	.1465	
306.2	.2	.1668	
309.35	.2	.1865	
313.35	.2	.2127	
317.65	.2	.2464	
322.55	.2	.2903	
326.45	.2	.3293	
330.55	.2	.3713	
333.8	.2	.4089	
336.95	.2	.4484	
301.55	.4	.0672	
305.45	.4	.0798	
308.65	.4	.0917	
311.65	.4	.1033	
315.25	.4	.1204	
318.2	.4	.1368	
321.25	.4	.1572	
325.45	.4	.1865	
328.55	.4	.2183	
331.95	.4	.2531	
304.25	.6	.0232	
307.95	.6	.0275	
311.45	.6	.0322	
315.25	.6	.0387	
318.65	.6	.0457	
322.45	.6	.0561	
325.95	.6	.0666	
328.45	.6	.0768	
331.45	.6	.0905	
299.1	.8	.0026	
302.85	.8	.0031	
306.35	.8	.0036	
309.55	.8	.0041	
313.25	.8	.0048	
317.05	.8	.0057	
320.65	.8	.0068	
324.55	.8	.0084	
327.95	.8	.0101	
331.95	.8	.0124	

System: cyclohexanol + cyclohexanone + glutaric acid; phases: Liquid, Crystal
Fixed: Pressure, kPa = 101.3
Property: Mole fraction of glutaric acid (Liquid); method: VISUAL
Temperature, K	Solvent: Mass fraction of cyclohexanone	Mole fraction of glutaric acid	uncertainty
306.25	0	.2456	
310.85	0	.2704	
314.55	0	.2943	
317.85	0	.3174	
322.85	0	.3586	
327.55	0	.397	
331.05	0	.4309	
336.75	0	.4839	
340.65	0	.5275	
343.65	0	.5646	
301.65	.2	.2391	
307.35	.2	.2676	
312.15	.2	.2945	
315.85	.2	.3192	
321.45	.2	.3585	
325.95	.2	.3936	
330.15	.2	.4331	
335.05	.2	.4828	
338.75	.2	.5247	
342.25	.2	.5658	
302.25	.4	.2524	
308	.4	.2814	
312.65	.4	.308	
316.6	.4	.3333	
321.65	.4	.3701	
325.95	.4	.4034	
330.45	.4	.445	
334.05	.4	.4814	
337.15	.4	.5131	
340.25	.4	.5462	
300.8	.6	.2458	
306.3	.6	.2739	
310.9	.6	.2995	
314.7	.6	.3236	
319.9	.6	.3614	
324.25	.6	.3954	
328.85	.6	.4379	
332.6	.6	.4748	
336.35	.6	.513	
340.25	.6	.5525	
302.55	.8	.2484	
307.5	.8	.2759	
311.75	.8	.3012	
315.25	.8	.3255	
320.45	.8	.3636	
324.55	.8	.3983	
329.25	.8	.441	
332.95	.8	.4781	
336.85	.8	.5172	
341.15	.8	.5634	
299.75	1	.213	
303.95	1	.2379	
307.75	1	.2618	
312.55	1	.2946	
316.85	1	.3244	
321.95	1	.3687	
326.85	1	.4077	
332.25	1	.4605	
336.55	1	.5048	
340.65	1	.5512	
