Measured thermophysical data. Viscosities of Fatty Acid Methyl and Ethyl Esters under High Pressure: Methyl Myristate and Ethyl Myristate
Source: J. Chem. Eng. Data, 2016, 10.1021/acs.jced.5b00612
Compound 1: methyl myristate, C15H30O2, purity 99%
Compound 2: ethyl myristate, C16H32O2, purity 99%

System: methyl myristate; phases: Liquid
Property: Viscosity, Pa*s (Liquid); method: Falling or rolling sphere viscometry
Temperature, K	Pressure, kPa	Viscosity, Pa*s	uncertainty
303.15	101.3	.00351	.0000702
303.15	20000	.00443	.0000886
303.15	40000	.00551	.0001102
313.15	101.3	.0028	.000056
313.15	20000	.0035	.00007
313.15	40000	.00431	.0000862
313.15	60000	.00524	.0001048
313.15	80000	.00631	.0001262
313.15	100000	.00754	.0001508
333.15	101.3	.00191	.0000382
333.15	20000	.00237	.0000474
333.15	40000	.00289	.0000578
333.15	60000	.00347	.0000694
333.15	80000	.00411	.0000822
333.15	100000	.00482	.0000964
353.15	101.3	.0014	.000028
353.15	20000	.00172	.0000344
353.15	40000	.00208	.0000416
353.15	60000	.00247	.0000494
353.15	80000	.0029	.000058
353.15	100000	.00338	.0000676

System: methyl myristate; phases: Liquid
Property: Viscosity, Pa*s (Liquid); method: quartz crystal resonator
Temperature, K	Pressure, kPa	Viscosity, Pa*s	uncertainty
303.15	101.3	.00351	.0000702
303.15	10000	.00395	.000079
303.15	20000	.00445	.000089
303.15	30000	.00495	.000099
303.15	40000	.00553	.0001106
303.15	50000	.00611	.0001222
303.15	60000	.00679	.0001358
313.15	101.3	.0028	.000056
313.15	10000	.00315	.000063
313.15	20000	.0035	.00007
313.15	30000	.00391	.0000782
313.15	40000	.00433	.0000866
313.15	50000	.00479	.0000958
313.15	60000	.00526	.0001052
313.15	70000	.00574	.0001148
313.15	80000	.00629	.0001258
333.15	101.3	.00191	.0000382
333.15	10000	.00214	.0000428
333.15	20000	.00237	.0000474
333.15	30000	.00261	.0000522
333.15	40000	.00288	.0000576
333.15	50000	.00316	.0000632
333.15	60000	.00346	.0000692
333.15	70000	.00376	.0000752
333.15	80000	.00408	.0000816
333.15	90000	.00446	.0000892
333.15	100000	.00481	.0000962
353.15	101.3	.0014	.000028
353.15	10000	.00157	.0000314
353.15	20000	.00174	.0000348
353.15	30000	.00192	.0000384
353.15	40000	.00211	.0000422
353.15	50000	.00229	.0000458
353.15	60000	.0025	.00005
353.15	70000	.00271	.0000542
353.15	80000	.00292	.0000584
353.15	90000	.00314	.0000628
353.15	100000	.0034	.000068

System: ethyl myristate; phases: Liquid
Property: Viscosity, Pa*s (Liquid); method: Falling or rolling sphere viscometry
Temperature, K	Pressure, kPa	Viscosity, Pa*s	uncertainty
293.15	101.3	.00473	.0000946
293.15	20000	.0061	.000122
293.15	40000	.00768	.0001536
313.15	101.3	.00296	.0000592
313.15	20000	.00374	.0000748
313.15	40000	.00464	.0000928
313.15	60000	.00567	.0001134
313.15	80000	.00686	.0001372
313.15	100000	.00823	.0001646
333.15	101.3	.00203	.0000406
333.15	20000	.00253	.0000506
333.15	40000	.00309	.0000618
333.15	60000	.00373	.0000746
333.15	80000	.00446	.0000892
333.15	100000	.00527	.0001054
353.15	101.3	.00148	.0000296
353.15	20000	.00183	.0000366
353.15	40000	.00222	.0000444
353.15	60000	.00266	.0000532
353.15	80000	.00316	.0000632
353.15	100000	.00371	.0000742

System: ethyl myristate; phases: Liquid
Property: Viscosity, Pa*s (Liquid); method: quartz crystal resonator
Temperature, K	Pressure, kPa	Viscosity, Pa*s	uncertainty
293.15	101.3	.00473	.0000946
293.15	10000	.00536	.0001072
293.15	20000	.00608	.0001216
293.15	30000	.00683	.0001366
293.15	40000	.00768	.0001536
313.15	101.3	.00296	.0000592
313.15	10000	.00334	.0000668
313.15	20000	.00371	.0000742
313.15	30000	.00415	.000083
313.15	40000	.00463	.0000926
313.15	50000	.0051	.000102
313.15	60000	.00567	.0001134
313.15	70000	.00622	.0001244
313.15	80000	.00689	.0001378
313.15	90000	.00756	.0001512
313.15	100000	.00814	.0001628
333.15	101.3	.00203	.0000406
333.15	10000	.0023	.000046
333.15	20000	.00254	.0000508
333.15	30000	.00282	.0000564
333.15	40000	.00313	.0000626
333.15	50000	.00344	.0000688
333.15	60000	.00376	.0000752
333.15	70000	.00408	.0000816
333.15	80000	.00448	.0000896
333.15	90000	.00486	.0000972
333.15	100000	.00525	.000105
353.15	101.3	.00148	.0000296
353.15	10000	.00165	.000033
353.15	20000	.00184	.0000368
353.15	30000	.00203	.0000406
353.15	40000	.00224	.0000448
353.15	50000	.00244	.0000488
353.15	60000	.00266	.0000532
353.15	70000	.00291	.0000582
353.15	80000	.00314	.0000628
353.15	90000	.00341	.0000682
353.15	100000	.00366	.0000732
