Measured thermophysical data. Dissociation Constants and Solubilities of Dalbergin and Nordalbergin in Different Solvents
Source: J. Chem. Eng. Data, 2015, 10.1021/acs.jced.5b00098
Compound 1: 6-hydroxy-7-methoxy-4-phenyl-2H-chromen-2-one, C16H12O4
Compound 2: 6,7-dihydroxy-4-phenyl-2H-chromen-2-one, C15H10O4
Compound 3: methanol, CH4O, purity 99.8%
Compound 4: trichloromethane, CHCl3, purity 99.7%
Compound 5: ethyl ethanoate, C4H8O2, purity 99.8%
Compound 6: propanone, C3H6O, purity 99.5%
Compound 7: hexane, C6H14, purity 97%
Compound 8: water, H2O, purity 99.9%

System: 6-hydroxy-7-methoxy-4-phenyl-2H-chromen-2-one; phases: Crystal, Liquid, Air at 1 atmosphere
Property: Normal melting temperature, K (Crystal); method: Visual observation
Normal melting temperature, K	uncertainty
484.65	

System: 6,7-dihydroxy-4-phenyl-2H-chromen-2-one; phases: Crystal, Liquid, Air at 1 atmosphere
Property: Normal melting temperature, K (Crystal); method: Visual observation
Normal melting temperature, K	uncertainty
542.65	

System: 6-hydroxy-7-methoxy-4-phenyl-2H-chromen-2-one + water; phases: Liquid, Crystal 2
Fixed: Pressure, kPa = 100
Property: Mole fraction of 6-hydroxy-7-methoxy-4-phenyl-2H-chromen-2-one (Liquid); method: UV-spectroscopy
Temperature, K	Mole fraction of 6-hydroxy-7-methoxy-4-phenyl-2H-chromen-2-one	uncertainty
283.2	.00000010295	.000000010295
288.2	.00000011239	.000000011239
293.2	.00000011068	.000000011068
299.2	.00000011239	.000000011239
303.2	.00000014416	.000000014416
308.2	.00000016391	.000000016391

System: methanol + 6-hydroxy-7-methoxy-4-phenyl-2H-chromen-2-one; phases: Liquid, Crystal
Fixed: Pressure, kPa = 100
Property: Mole fraction of 6-hydroxy-7-methoxy-4-phenyl-2H-chromen-2-one (Liquid); method: UV-spectroscopy
Temperature, K	Mole fraction of 6-hydroxy-7-methoxy-4-phenyl-2H-chromen-2-one	uncertainty
283.2	.00050401	.000050401
288.2	.00051556	.000051556
293.2	.00054214	.000054214
299.2	.00064613	.000064613
303.2	.00072238	.000072238
308.2	.00083515	.000083515

System: propanone + 6-hydroxy-7-methoxy-4-phenyl-2H-chromen-2-one; phases: Liquid, Crystal
Fixed: Pressure, kPa = 100
Property: Mole fraction of 6-hydroxy-7-methoxy-4-phenyl-2H-chromen-2-one (Liquid); method: UV-spectroscopy
Temperature, K	Mole fraction of 6-hydroxy-7-methoxy-4-phenyl-2H-chromen-2-one	uncertainty
283.2	.0022923	.00022923
288.2	.0023667	.00023667
293.2	.0025588	.00025588
299.2	.0027013	.00027013
303.2	.0032585	.00032585
308.2	.0036976	.00036976

System: ethyl ethanoate + 6-hydroxy-7-methoxy-4-phenyl-2H-chromen-2-one; phases: Liquid, Crystal
Fixed: Pressure, kPa = 100
Property: Mole fraction of 6-hydroxy-7-methoxy-4-phenyl-2H-chromen-2-one (Liquid); method: UV-spectroscopy
Temperature, K	Mole fraction of 6-hydroxy-7-methoxy-4-phenyl-2H-chromen-2-one	uncertainty
283.2	.0013975	.00013975
288.2	.0015259	.00015259
293.2	.0016515	.00016515
299.2	.0019294	.00019294
303.2	.002041	.0002041
308.2	.0022342	.00022342

System: trichloromethane + 6-hydroxy-7-methoxy-4-phenyl-2H-chromen-2-one; phases: Liquid, Crystal
Fixed: Pressure, kPa = 100
Property: Mole fraction of 6-hydroxy-7-methoxy-4-phenyl-2H-chromen-2-one (Liquid); method: UV-spectroscopy
Temperature, K	Mole fraction of 6-hydroxy-7-methoxy-4-phenyl-2H-chromen-2-one	uncertainty
283.2	.0031308	.00031308
288.2	.0036094	.00036094
293.2	.0037433	.00037433
299.2	.0041353	.00041353
303.2	.0045748	.00045748
308.2	.0059003	.00059003

System: hexane + 6-hydroxy-7-methoxy-4-phenyl-2H-chromen-2-one; phases: Liquid, Crystal
Fixed: Pressure, kPa = 100
Property: Mole fraction of 6-hydroxy-7-methoxy-4-phenyl-2H-chromen-2-one (Liquid); method: UV-spectroscopy
Temperature, K	Mole fraction of 6-hydroxy-7-methoxy-4-phenyl-2H-chromen-2-one	uncertainty
283.2	.0000038809	.00000038809
288.2	.0000040303	.00000040303
293.2	.0000040863	.00000040863
299.2	.0000044783	.00000044783
303.2	.0000047583	.00000047583
308.2	.0000053556	.00000053556

System: 6,7-dihydroxy-4-phenyl-2H-chromen-2-one + water; phases: Liquid, Crystal
Fixed: Pressure, kPa = 100
Property: Mole fraction of 6,7-dihydroxy-4-phenyl-2H-chromen-2-one (Liquid); method: UV-spectroscopy
Temperature, K	Mole fraction of 6,7-dihydroxy-4-phenyl-2H-chromen-2-one	uncertainty
283.2	.00000007944	.000000007944
288.2	.00000013875	.000000013875
293.2	.00000019182	.000000019182
299.2	.00000023864	.000000023864
303.2	.00000025113	.000000025113
308.2	.00000035726	.000000035726

System: methanol + 6,7-dihydroxy-4-phenyl-2H-chromen-2-one; phases: Liquid, Crystal
Fixed: Pressure, kPa = 100
Property: Mole fraction of 6,7-dihydroxy-4-phenyl-2H-chromen-2-one (Liquid); method: UV-spectroscopy
Temperature, K	Mole fraction of 6,7-dihydroxy-4-phenyl-2H-chromen-2-one	uncertainty
283.2	.000986	.0000986
288.2	.0010206	.00010206
293.2	.0011024	.00011024
299.2	.0012912	.00012912
303.2	.0014705	.00014705
308.2	.0017922	.00017922

System: propanone + 6,7-dihydroxy-4-phenyl-2H-chromen-2-one; phases: Liquid, Crystal
Fixed: Pressure, kPa = 100
Property: Mole fraction of 6,7-dihydroxy-4-phenyl-2H-chromen-2-one (Liquid); method: UV-spectroscopy
Temperature, K	Mole fraction of 6,7-dihydroxy-4-phenyl-2H-chromen-2-one	uncertainty
283.2	.002198	.0002198
288.2	.0022781	.00022781
293.2	.0023683	.00023683
299.2	.0024584	.00024584
303.2	.0026587	.00026587
308.2	.0029889	.00029889

System: ethyl ethanoate + 6,7-dihydroxy-4-phenyl-2H-chromen-2-one; phases: Liquid, Crystal
Fixed: Pressure, kPa = 100
Property: Mole fraction of 6,7-dihydroxy-4-phenyl-2H-chromen-2-one (Liquid); method: UV-spectroscopy
Temperature, K	Mole fraction of 6,7-dihydroxy-4-phenyl-2H-chromen-2-one	uncertainty
283.2	.0005529	.00005529
288.2	.000572	.0000572
293.2	.0006164	.00006164
299.2	.0009276	.00009276
303.2	.001008	.0001008
308.2	.0013888	.00013888

System: trichloromethane + 6,7-dihydroxy-4-phenyl-2H-chromen-2-one; phases: Liquid, Crystal
Fixed: Pressure, kPa = 100
Property: Mole fraction of 6,7-dihydroxy-4-phenyl-2H-chromen-2-one (Liquid); method: UV-spectroscopy
Temperature, K	Mole fraction of 6,7-dihydroxy-4-phenyl-2H-chromen-2-one	uncertainty
283.2	.00000003745	.000000003745
288.2	.00000004161	.000000004161
293.2	.00000005926	.000000005926
299.2	.0000000709	.00000000709
303.2	.00000010433	.000000010433
308.2	.00000017094	.000000017094

System: hexane + 6,7-dihydroxy-4-phenyl-2H-chromen-2-one; phases: Liquid, Crystal
Fixed: Pressure, kPa = 100
Property: Mole fraction of 6,7-dihydroxy-4-phenyl-2H-chromen-2-one (Liquid); method: UV-spectroscopy
Temperature, K	Mole fraction of 6,7-dihydroxy-4-phenyl-2H-chromen-2-one	uncertainty
283.2	.00000002036	.000000002036
288.2	.00000004298	.000000004298
293.2	.00000005599	.000000005599
299.2	.00000007861	.000000007861
303.2	.00000008427	.000000008427
308.2	.00000013516	.000000013516
