Measured thermophysical data. Vapor Liquid Equilibrium between (278.15 and 323.15) K and Excess Functions at T = 298.15 K for 1-Bromobutane with 2-Methyl-1-propanol or 2-Butanol
Source: J. Chem. Eng. Data, 2003, 10.1021/je020110g
Compound 1: 1-bromobutane, C4H9Br
Compound 2: 2-butanol, dl-, C4H10O
Compound 3: 2-methyl-1-propanol, C4H10O

System: 1-bromobutane; phases: Liquid, Gas
Property: Vapor or sublimation pressure, kPa (Liquid); method: Closed cell (Static) method
Temperature, K	Vapor or sublimation pressure, kPa	uncertainty
278.15	1.86	
283.15	2.48	
288.15	3.265	
293.15	4.261	
298.15	5.506	
303.15	7.039	
308.15	8.899	
313.15	11.148	
318.15	13.872	
323.15	17.092	

System: 2-butanol, dl-; phases: Liquid, Gas
Property: Vapor or sublimation pressure, kPa (Liquid); method: Closed cell (Static) method
Temperature, K	Vapor or sublimation pressure, kPa	uncertainty
278.15	.519	
283.15	.78	
288.15	1.137	
293.15	1.648	
298.15	2.324	
303.15	3.256	
308.15	4.462	
313.15	6.048	
318.15	8.105	
323.15	10.706	

System: 2-methyl-1-propanol; phases: Liquid, Gas
Property: Vapor or sublimation pressure, kPa (Liquid); method: Closed cell (Static) method
Temperature, K	Vapor or sublimation pressure, kPa	uncertainty
278.15	.335	
283.15	.505	
288.15	.739	
293.15	1.057	
298.15	1.501	
303.15	2.133	
308.15	2.956	
313.15	4.026	
318.15	5.444	
323.15	7.237	

System: 2-methyl-1-propanol + 1-bromobutane; phases: Liquid, Gas
Property: Vapor or sublimation pressure, kPa (Liquid); method: Closed cell (Static) method
Temperature, K	Mole fraction of 2-methyl-1-propanol	Vapor or sublimation pressure, kPa	uncertainty
278.15	.0513	1.944	
278.15	.1003	1.967	
278.15	.1992	1.933	
278.15	.3031	1.901	
278.15	.3865	1.857	
278.15	.4782	1.817	
278.15	.5834	1.731	
278.15	.6959	1.615	
278.15	.7947	1.387	
278.15	.8393	1.28	
278.15	.9219	.877	
283.15	.0513	2.606	
283.15	.1003	2.642	
283.15	.1992	2.606	
283.15	.3031	2.56	
283.15	.3865	2.513	
283.15	.4783	2.44	
283.15	.5835	2.333	
283.15	.6959	2.172	
283.15	.7948	1.883	
283.15	.8394	1.689	
283.15	.9219	1.219	
288.15	.0512	3.44	
288.15	.1003	3.498	
288.15	.1993	3.452	
288.15	.3031	3.397	
288.15	.3866	3.326	
288.15	.4783	3.232	
288.15	.5835	3.09	
288.15	.696	2.888	
288.15	.7949	2.513	
288.15	.8394	2.246	
288.15	.922	1.652	
293.15	.0512	4.496	
293.15	.1003	4.576	
293.15	.1993	4.514	
293.15	.3031	4.437	
293.15	.3866	4.36	
293.15	.4784	4.246	
293.15	.5836	4.06	
293.15	.6961	3.802	
293.15	.7949	3.318	
293.15	.8395	2.989	
293.15	.922	2.221	
298.15	.0512	5.818	
298.15	.1003	5.933	
298.15	.1993	5.872	
298.15	.3032	5.774	
298.15	.3867	5.666	
298.15	.4784	5.521	
298.15	.5837	5.285	
298.15	.6962	4.938	
298.15	.795	4.337	
298.15	.8396	3.921	
298.15	.9221	2.981	
303.15	.0511	7.461	
303.15	.1003	7.629	
303.15	.1993	7.554	
303.15	.3032	7.459	
303.15	.3867	7.311	
303.15	.4785	7.118	
303.15	.5838	6.823	
303.15	.6964	6.385	
303.15	.7952	5.625	
303.15	.8397	5.113	
303.15	.9222	3.934	
308.15	.051	9.47	
308.15	.1002	9.685	
308.15	.1993	9.627	
308.15	.3033	9.507	
308.15	.3868	9.346	
308.15	.4786	9.133	
308.15	.584	8.721	
308.15	.6965	8.177	
308.15	.7953	7.225	
308.15	.8398	6.498	
308.15	.9222	5.15	
313.15	.0509	11.899	
313.15	.1002	12.204	
313.15	.1993	12.148	
313.15	.3033	12.015	
313.15	.3869	11.814	
313.15	.4788	11.576	
313.15	.5841	11.055	
313.15	.6968	10.383	
313.15	.7955	9.206	
313.15	.84	8.423	
313.15	.9224	6.681	
318.15	.0508	14.784	
318.15	.1001	15.225	
318.15	.1992	15.204	
318.15	.3034	15.177	
318.15	.387	14.824	
318.15	.479	14.536	
318.15	.5844	13.891	
318.15	.6971	13.072	
318.15	.7958	11.619	
318.15	.8402	10.691	
318.15	.9225	8.595	
323.15	.0506	18.24	
323.15	.1001	18.809	
323.15	.1992	18.876	
323.15	.3034	18.708	
323.15	.3872	18.441	
323.15	.4792	18.003	
323.15	.5847	17.311	
323.15	.6975	16.28	
323.15	.7961	14.613	
323.15	.8405	13.484	
323.15	.9227	10.975	

System: 2-methyl-1-propanol + 1-bromobutane; phases: Liquid
Fixed: Temperature, K = 298.15
Fixed: Pressure, kPa = 101.3
Property: Excess molar enthalpy (molar enthalpy of mixing), kJ/mol (Liquid); method: Flow calorimetry
Mole fraction of 2-methyl-1-propanol	Excess molar enthalpy (molar enthalpy of mixing), kJ/mol	uncertainty
.0421	.53	
.0942	.851	
.1932	1.125	
.2938	1.248	
.3468	1.271	
.3957	1.272	
.4476	1.245	
.499	1.207	
.6	1.081	
.7021	.891	
.8052	.636	
.906	.33	
.9587	.159	

System: 2-methyl-1-propanol + 1-bromobutane; phases: Liquid
Fixed: Temperature, K = 298.15
Fixed: Pressure, kPa = 101.3
Property: Excess molar volume, m3/mol (Liquid); method: Calculated with densities of this investigation
Mole fraction of 2-methyl-1-propanol	Excess molar volume, m3/mol	uncertainty
.0576	.000000077	
.1063	.000000124	
.1475	.000000146	
.2348	.00000019	
.2586	.000000198	
.391	.000000221	
.4368	.000000219	
.5451	.000000198	
.5655	.000000186	
.6332	.000000157	
.6772	.000000126	
.716	.000000102	
.821	.000000051	
.8385	.000000044	
.869	.000000025	
.9469	.000000007	

System: 2-methyl-1-propanol + 1-bromobutane; phases: Liquid, Gas
Property: Azeotropic pressure, kPa (Liquid); method: By P(X) extreme
Temperature, K	Azeotropic pressure, kPa	uncertainty
278.15	1.937	
283.15	2.606	
288.15	3.449	
293.15	4.514	
298.15	5.859	
303.15	7.545	
308.15	9.62	
313.15	12.138	
318.15	15.207	
323.15	18.827	

System: 2-methyl-1-propanol + 1-bromobutane; phases: Liquid, Gas
Property: Azeotropic composition: mole fraction of 2-methyl-1-propanol (Liquid); method: By T or P extreme
Temperature, K	Azeotropic composition: mole fraction of 2-methyl-1-propanol	uncertainty
278.15	.0869	
283.15	.099	
288.15	.1092	
293.15	.1187	
298.15	.1293	
303.15	.1425	
308.15	.1549	
313.15	.1687	
318.15	.1816	
323.15	.1951	

System: 2-butanol, dl- + 1-bromobutane; phases: Liquid, Gas
Property: Vapor or sublimation pressure, kPa (Liquid); method: Closed cell (Static) method
Temperature, K	Mole fraction of 2-butanol, dl-	Vapor or sublimation pressure, kPa	uncertainty
278.15	.0953	2.068	
278.15	.0976	2.066	
278.15	.15	2.061	
278.15	.2111	2.056	
278.15	.3087	2.048	
278.15	.3852	2.02	
278.15	.4889	1.953	
278.15	.4926	1.948	
278.15	.6049	1.868	
278.15	.7247	1.703	
278.15	.7997	1.54	
278.15	.9024	1.217	
283.15	.0952	2.788	
283.15	.0976	2.774	
283.15	.15	2.782	
283.15	.2111	2.781	
283.15	.3087	2.772	
283.15	.3852	2.742	
283.15	.4889	2.657	
283.15	.4927	2.641	
283.15	.605	2.529	
283.15	.7247	2.314	
283.15	.7997	2.1	
283.15	.9024	1.62	
288.15	.0952	3.7	
288.15	.0975	3.668	
288.15	.15	3.698	
288.15	.2111	3.69	
288.15	.3087	3.674	
288.15	.3852	3.645	
288.15	.4889	3.533	
288.15	.4927	3.526	
288.15	.6051	3.372	
288.15	.7248	3.093	
288.15	.7998	2.813	
288.15	.9025	2.196	
293.15	.0952	4.838	
293.15	.0975	4.824	
293.15	.1499	4.846	
293.15	.2111	4.858	
293.15	.3087	4.85	
293.15	.3853	4.825	
293.15	.4889	4.668	
293.15	.4928	4.649	
293.15	.6051	4.454	
293.15	.7249	4.092	
293.15	.7998	3.733	
293.15	.9025	2.953	
298.15	.0951	6.271	
298.15	.0975	6.274	
298.15	.1499	6.305	
298.15	.2111	6.325	
298.15	.3087	6.33	
298.15	.3853	6.285	
298.15	.4889	6.098	
298.15	.4928	6.07	
298.15	.6052	5.826	
298.15	.725	5.368	
298.15	.7999	4.91	
298.15	.9026	3.941	
303.15	.095	8.061	
303.15	.0974	8.053	
303.15	.1499	8.123	
303.15	.2111	8.161	
303.15	.3087	8.186	
303.15	.3854	8.141	
303.15	.4889	7.921	
303.15	.4929	7.879	
303.15	.6053	7.553	
303.15	.7252	6.969	
303.15	.8	6.415	
303.15	.9027	5.188	
308.15	.0949	10.23	
308.15	.0973	10.212	
308.15	.1498	10.339	
308.15	.211	10.414	
308.15	.3087	10.467	
308.15	.3854	10.427	
308.15	.489	10.139	
308.15	.493	10.111	
308.15	.6055	9.735	
308.15	.7254	8.989	
308.15	.8002	8.29	
308.15	.9028	6.827	
313.15	.0947	12.851	
313.15	.0972	12.847	
313.15	.1497	13.055	
313.15	.2109	13.174	
313.15	.3087	13.264	
313.15	.3855	13.228	
313.15	.489	12.883	
313.15	.4931	12.843	
313.15	.6057	12.382	
313.15	.7256	11.432	
313.15	.8004	10.623	
313.15	.9029	8.877	
318.15	.0948	16.045	
318.15	.0973	16.048	
318.15	.1497	16.356	
318.15	.211	16.531	
318.15	.3087	16.663	
318.15	.3853	16.641	
318.15	.4889	16.273	
318.15	.4929	16.183	
318.15	.6055	15.556	
318.15	.7259	14.531	
318.15	.8006	13.526	
318.15	.9031	11.43	
323.15	.0945	19.857	
323.15	.0971	19.836	
323.15	.1496	20.257	
323.15	.2108	20.52	
323.15	.3086	20.76	
323.15	.3854	20.777	
323.15	.489	20.302	
323.15	.493	20.246	
323.15	.6057	19.593	
323.15	.7255	18.288	
323.15	.8009	17.064	
323.15	.9033	14.621	

System: 2-butanol, dl- + 1-bromobutane; phases: Liquid
Fixed: Temperature, K = 298.15
Fixed: Pressure, kPa = 101.3
Property: Excess molar enthalpy (molar enthalpy of mixing), kJ/mol (Liquid); method: Flow calorimetry
Mole fraction of 2-butanol, dl-	Excess molar enthalpy (molar enthalpy of mixing), kJ/mol	uncertainty
.0424	.52	
.0948	.924	
.1942	1.282	
.2951	1.465	
.3482	1.519	
.3973	1.542	
.4492	1.532	
.5006	1.508	
.6015	1.395	
.7035	1.191	
.8062	.887	
.9066	.489	
.959	.246	

System: 2-butanol, dl- + 1-bromobutane; phases: Liquid
Fixed: Temperature, K = 298.15
Fixed: Pressure, kPa = 101.3
Property: Excess molar volume, m3/mol (Liquid); method: Calculated with densities of this investigation
Mole fraction of 2-butanol, dl-	Excess molar volume, m3/mol	uncertainty
.0408	.000000151	
.0848	.000000223	
.1407	.000000293	
.2281	.000000374	
.2864	.000000408	
.3642	.00000044	
.3923	.000000448	
.4098	.000000451	
.4148	.000000448	
.514	.000000449	
.5484	.00000044	
.6292	.000000397	
.645	.000000382	
.7188	.000000325	
.7739	.00000026	
.8388	.000000186	
.8639	.00000015	
.9284	.000000076	

System: 2-butanol, dl- + 1-bromobutane; phases: Liquid, Gas
Property: Azeotropic pressure, kPa (Liquid); method: By P(X) extreme
Temperature, K	Azeotropic pressure, kPa	uncertainty
278.15	2.052	
283.15	2.778	
288.15	3.689	
293.15	4.857	
298.15	6.327	
303.15	8.173	
308.15	10.435	
313.15	13.205	
318.15	16.587	
323.15	20.659	

System: 2-butanol, dl- + 1-bromobutane; phases: Liquid, Gas
Property: Azeotropic composition: mole fraction of 2-butanol, dl- (Liquid); method: By T or P extreme
Temperature, K	Azeotropic composition: mole fraction of 2-butanol, dl-	uncertainty
278.15	.1488	
283.15	.1631	
288.15	.1776	
293.15	.193	
298.15	.2076	
303.15	.2232	
308.15	.2407	
313.15	.2573	
318.15	.2743	
323.15	.2931	
