Measured thermophysical data. Solubility of Imidazoles in Ethers
Source: J. Chem. Eng. Data, 2003, 10.1021/je020113t
Compound 1: dipropyl ether, C6H14O, purity 99%
Compound 2: dibutyl ether, C8H18O, purity 99%
Compound 3: dipentyl ether, C10H22O, purity 99%
Compound 4: methyl tert-butyl ether, C5H12O, purity 99.5%
Compound 5: tert-amyl methyl ether, C6H14O, purity 99%
Compound 6: 1H-imidazole, C3H4N2, purity 99%
Compound 7: 2-methylimidazole, C4H6N2, purity 99%
Compound 8: 1,2-dimethylimidazole, C5H8N2, purity 98%

System: 1H-imidazole; phases: Liquid, Crystal 1
Property: Solid-liquid equilibrium temperature, K (Liquid); method: Visual observation
Pressure, kPa	Solid-liquid equilibrium temperature, K	uncertainty
101.3	362.25	

System: 2-methylimidazole; phases: Liquid, Crystal 1
Property: Solid-liquid equilibrium temperature, K (Liquid); method: Visual observation
Pressure, kPa	Solid-liquid equilibrium temperature, K	uncertainty
101.3	419	

System: 1,2-dimethylimidazole; phases: Liquid, Crystal
Property: Solid-liquid equilibrium temperature, K (Liquid); method: Visual observation
Pressure, kPa	Solid-liquid equilibrium temperature, K	uncertainty
101.3	311.5	

System: dipropyl ether + 1H-imidazole; phases: Liquid, Crystal
Fixed: Pressure, kPa = 101.3
Property: Solid-liquid equilibrium temperature, K (Liquid); method: Visual observation
Mole fraction of 1H-imidazole	Solid-liquid equilibrium temperature, K	uncertainty
.1048	290.36	
.1464	300.07	
.1901	309.33	
.1984	310.6	
.242	316.3	
.2991	321.7	
.3162	322.89	
.3907	327.57	
.411	328.7	
.4869	332.89	
.5477	335.47	
.5977	338.5	
.623	340.45	
.6838	346.1	
.7517	348.5	
.8297	353.56	
.8873	357.75	
.9489	360.01	
1	362.25	

System: dibutyl ether + 1H-imidazole; phases: Liquid, Crystal
Fixed: Pressure, kPa = 101.3
Property: Solid-liquid equilibrium temperature, K (Liquid); method: Visual observation
Mole fraction of 1H-imidazole	Solid-liquid equilibrium temperature, K	uncertainty
.0196	322.65	
.0288	328.25	
.0361	338.69	
.053	342.63	
.0854	346.12	
.0868	346.15	
.1122	346.6	
.1389	347.21	
.1638	347.69	
.195	348.02	
.2331	348.41	
.3027	348.85	
.3398	349.1	
.3726	349.21	
.5155	349.37	
.566	349.31	
.6121	349.61	
.6624	349.66	
.7125	350.07	
.7837	350.74	
.8289	352.74	
.8707	354.71	
.9011	356.1	
.9301	357.72	
.9678	359.61	
1	362.25	

System: dibutyl ether + 1H-imidazole; phases: Liquid mixture 2, Liquid mixture 1
Fixed: Pressure, kPa = 101.3
Property: Liquid-liquid equilibrium temperature, K (Liquid mixture 2); method: Visual observation
Mole fraction of 1H-imidazole	Liquid-liquid equilibrium temperature, K	uncertainty
.5532	415.03	
.5842	410.35	
.6108	400.95	
.632	386.82	
.648	376.05	
.6495	362.2	
.6624	349.7	

System: 1H-imidazole + dipentyl ether; phases: Liquid, Crystal
Fixed: Pressure, kPa = 101.3
Property: Solid-liquid equilibrium temperature, K (Liquid); method: Visual observation
Mole fraction of 1H-imidazole	Solid-liquid equilibrium temperature, K	uncertainty
.0252	341.95	
.0299	343.45	
.0344	344.15	
.0409	346.22	
.0477	347.85	
.0611	348.29	
.076	349.36	
.0925	350.07	
.1067	350.52	
.1336	351.2	
.1554	351.55	
.2366	352.48	
.2769	352.42	
.3291	352.68	
.358	352.9	
.3861	353.06	
.4169	353.09	
.4573	353.25	
.5036	353.62	
.5884	353.76	
.6424	354.25	
.7398	354.37	
.8	354.31	
.8447	354.4	
.8865	355.18	
.9186	356.4	
.9507	357.99	
.958	359.25	
.9811	360.27	
1	362.25	

System: 1H-imidazole + dipentyl ether; phases: Liquid mixture 2, Liquid mixture 1
Fixed: Pressure, kPa = 101.3
Property: Liquid-liquid equilibrium temperature, K (Liquid mixture 2); method: Visual observation
Mole fraction of 1H-imidazole	Liquid-liquid equilibrium temperature, K	uncertainty
.705	462.25	
.7205	455.05	
.7372	445.05	
.745	436.1	
.7852	416.5	
.7984	400.15	
.8193	381	

System: 1H-imidazole + methyl tert-butyl ether; phases: Liquid, Crystal
Fixed: Pressure, kPa = 101.3
Property: Solid-liquid equilibrium temperature, K (Liquid); method: Visual observation
Mole fraction of 1H-imidazole	Solid-liquid equilibrium temperature, K	uncertainty
.0568	316.25	
.082	318.72	
.1214	321.87	
.1702	324.7	
.3173	327.59	
1	362.25	

System: 1H-imidazole + tert-amyl methyl ether; phases: Liquid, Crystal
Fixed: Pressure, kPa = 101.3
Property: Solid-liquid equilibrium temperature, K (Liquid); method: Visual observation
Mole fraction of 1H-imidazole	Solid-liquid equilibrium temperature, K	uncertainty
.0404	321.91	
.0529	323.91	
.0723	326.34	
.1091	328.33	
.1548	329.99	
.2183	331.66	
.3302	334.21	
.3807	335.27	
.433	336.69	
.477	338.47	
.5411	340.67	
.6117	344.86	
.6745	348.37	
.7586	352.3	
.8559	357.58	
.9145	359.69	
.9245	359.84	
1	362.25	

System: dipropyl ether + 2-methylimidazole; phases: Liquid, Crystal 2
Fixed: Pressure, kPa = 101.3
Property: Solid-liquid equilibrium temperature, K (Liquid); method: Visual observation
Mole fraction of 2-methylimidazole	Solid-liquid equilibrium temperature, K	uncertainty
.0017	290.43	
.0022	305.64	
.0029	310.04	
.0035	312.43	
.0041	314.81	
.0048	319.26	
.0057	321.61	
.0064	324.89	
.0073	327.28	
.0094	332.23	
.0148	344.6	
.0183	349.19	
.0216	352.83	
.0251	354.41	
.0277	355.63	
.0302	356.87	

System: dipropyl ether + 2-methylimidazole; phases: Liquid, Crystal 1
Fixed: Pressure, kPa = 101.3
Property: Solid-liquid equilibrium temperature, K (Liquid); method: Visual observation
Mole fraction of 2-methylimidazole	Solid-liquid equilibrium temperature, K	uncertainty
1	419	

System: dibutyl ether + 2-methylimidazole; phases: Liquid, Crystal 2
Fixed: Pressure, kPa = 101.3
Property: Solid-liquid equilibrium temperature, K (Liquid); method: Visual observation
Mole fraction of 2-methylimidazole	Solid-liquid equilibrium temperature, K	uncertainty
.0012	278.61	
.0015	286.25	
.0018	292.48	
.0021	297.46	
.0023	301.71	
.0027	306.14	
.003	310.01	
.0032	312.52	
.0037	320.84	
.0042	323.35	
.0047	324.32	
.0052	327.45	
.0061	331.56	
.0072	336.4	
.0088	340.96	
.0104	340.2	
.0118	343.03	
.0135	347.95	
.0156	351.63	
.0182	354.33	
.0212	357.13	
.025	360.09	
.0281	362.37	
.0309	364.28	
.0328	365.63	
.0342	366.79	

System: dibutyl ether + 2-methylimidazole; phases: Liquid, Crystal 1
Fixed: Pressure, kPa = 101.3
Property: Solid-liquid equilibrium temperature, K (Liquid); method: Visual observation
Mole fraction of 2-methylimidazole	Solid-liquid equilibrium temperature, K	uncertainty
.0364	367.33	
.038	368.28	
.0389	368.96	
.0587	371.53	
.0796	374.11	
.0995	376.98	
.1227	379.65	
.1454	381.23	
.1676	382.12	
.1915	383.2	
.2227	384.52	
.2494	385.6	
.2839	386.69	
.3179	387.04	
.3582	388.04	
.3993	388.72	
.4408	390.31	
.4824	391.77	
.5214	392.72	
.5568	394.08	
.5888	394.93	
.6214	396.31	
.65	397.23	
.6803	397.6	
.7059	398.03	
.7328	400.41	
.7717	401.68	
.8021	404.24	
.8394	406.79	
.8725	410.72	
1	419	

System: dipentyl ether + 2-methylimidazole; phases: Liquid, Crystal 2
Fixed: Pressure, kPa = 101.3
Property: Solid-liquid equilibrium temperature, K (Liquid); method: Visual observation
Mole fraction of 2-methylimidazole	Solid-liquid equilibrium temperature, K	uncertainty
.0024	321.49	
.0033	329.2	
.0044	337.77	
.0056	342.55	
.0068	345.64	
.0082	349.34	
.0092	351.43	
.0102	355.34	
.0136	361.9	

System: dipentyl ether + 2-methylimidazole; phases: Liquid, Crystal 1
Fixed: Pressure, kPa = 101.3
Property: Solid-liquid equilibrium temperature, K (Liquid); method: Visual observation
Mole fraction of 2-methylimidazole	Solid-liquid equilibrium temperature, K	uncertainty
.0185	367.03	
.0237	371.93	
.0314	375.3	
.0391	378	
.0493	380.61	
.0764	386.02	
.092	387.99	
.1093	388.97	
.1247	389.76	
.1643	391.42	
.1813	391.94	
.2142	392.53	
.2363	392.73	
.2481	392.86	
.2694	393.03	
.292	393.13	
.3128	393.6	
.3316	393.93	
.3532	394.67	
.3744	394.81	
.3943	395.09	
.4287	395.87	
.4492	396.24	
.4682	396.59	
.4864	397.13	
.5043	397.21	
.5231	397.48	
.5336	397.82	
.5641	398.08	
.5806	398.09	
.5972	398.12	
.6126	398.13	
.6304	398.42	
.648	398.6	
.6827	399.22	
.7007	399.81	
.7206	400.67	
.7401	401.38	
.7583	402.19	
.7677	402.57	
.7964	404.02	
.8186	405.4	
.8369	406.36	
.8541	407.63	
.8761	409.12	
.9111	411.78	
.9305	413.13	
.9514	414.87	
.9718	416.24	
.9847	417.51	
1	419	

System: 2-methylimidazole + methyl tert-butyl ether; phases: Liquid, Crystal 2
Fixed: Pressure, kPa = 101.3
Property: Solid-liquid equilibrium temperature, K (Liquid); method: Visual observation
Mole fraction of 2-methylimidazole	Solid-liquid equilibrium temperature, K	uncertainty
.0025	281.84	
.003	287.07	
.0038	296.06	
.0047	301.9	
.0057	307.63	
.0067	310.83	
.0081	315.57	
.01	320.18	

System: 2-methylimidazole + methyl tert-butyl ether; phases: Liquid, Crystal 1
Fixed: Pressure, kPa = 101.3
Property: Solid-liquid equilibrium temperature, K (Liquid); method: Visual observation
Mole fraction of 2-methylimidazole	Solid-liquid equilibrium temperature, K	uncertainty
1	419	

System: 2-methylimidazole + tert-amyl methyl ether; phases: Liquid, Crystal 2
Fixed: Pressure, kPa = 101.3
Property: Solid-liquid equilibrium temperature, K (Liquid); method: Visual observation
Mole fraction of 2-methylimidazole	Solid-liquid equilibrium temperature, K	uncertainty
.0018	281.3	
.0024	289.56	
.0028	294.64	
.004	302.1	
.0051	308.34	
.0064	312.5	
.0079	317.33	
.0102	325.02	
.0132	330.06	
.017	335.01	
.0231	341.98	
.0294	345.8	
.035	348.43	
.041	350.56	
.047	352.45	
.05	353.58	

System: 2-methylimidazole + tert-amyl methyl ether; phases: Liquid, Crystal 1
Fixed: Pressure, kPa = 101.3
Property: Solid-liquid equilibrium temperature, K (Liquid); method: Visual observation
Mole fraction of 2-methylimidazole	Solid-liquid equilibrium temperature, K	uncertainty
1	419	

System: dipropyl ether + 1,2-dimethylimidazole; phases: Liquid, Crystal
Fixed: Pressure, kPa = 101.3
Property: Solid-liquid equilibrium temperature, K (Liquid); method: Visual observation
Mole fraction of 1,2-dimethylimidazole	Solid-liquid equilibrium temperature, K	uncertainty
.3112	274.62	
.3602	277.38	
.3948	279.87	
.422	281.96	
.4615	284.8	
.4934	286.63	
.5231	288.57	
.5539	290.24	
.5789	291.29	
.6128	293.01	
.6492	294.27	
.6908	296.2	
.7117	297.33	
.7431	298.76	
.776	300.05	
.8081	301.39	
.8463	303.08	
.9032	306.31	
.9473	309.11	
1	311.5	

System: dibutyl ether + 1,2-dimethylimidazole; phases: Liquid, Crystal
Fixed: Pressure, kPa = 101.3
Property: Solid-liquid equilibrium temperature, K (Liquid); method: Visual observation
Mole fraction of 1,2-dimethylimidazole	Solid-liquid equilibrium temperature, K	uncertainty
.1521	290.63	
.1809	292.65	
.2052	294.65	
.241	298.23	
.7342	303.83	
.7889	304.37	
.869	306.04	
1	311.5	

System: dibutyl ether + 1,2-dimethylimidazole; phases: Liquid mixture 1, Crystal, Liquid mixture 2
Property: Solid-liquid equilibrium temperature, K (Liquid mixture 1); method: Visual observation
Pressure, kPa	Solid-liquid equilibrium temperature, K	uncertainty
101.3	303.17	

System: dibutyl ether + 1,2-dimethylimidazole; phases: Liquid mixture 1, Liquid mixture 2
Fixed: Pressure, kPa = 101.3
Property: Liquid-liquid equilibrium temperature, K (Liquid mixture 1); method: Visual observation
Mole fraction of 1,2-dimethylimidazole	Liquid-liquid equilibrium temperature, K	uncertainty
.2823	305.4	
.3221	307.33	
.3555	307.77	
.3907	307.18	
.4392	306.42	
.4853	305.31	
.5288	304.23	
.5687	303.44	
.615	303.35	
.6675	303.27	

System: dipentyl ether + 1,2-dimethylimidazole; phases: Liquid, Crystal
Fixed: Pressure, kPa = 101.3
Property: Solid-liquid equilibrium temperature, K (Liquid); method: Visual observation
Mole fraction of 1,2-dimethylimidazole	Solid-liquid equilibrium temperature, K	uncertainty
.0701	280.77	
.1452	289.8	
.1989	295.75	
.2562	301.6	
.862	308.34	
.9265	309.72	
.9741	310.65	
1	311.5	

System: dipentyl ether + 1,2-dimethylimidazole; phases: Liquid mixture 1, Crystal, Liquid mixture 2
Property: Solid-liquid equilibrium temperature, K (Liquid mixture 1); method: Visual observation
Pressure, kPa	Solid-liquid equilibrium temperature, K	uncertainty
101.3	307.49	

System: dipentyl ether + 1,2-dimethylimidazole; phases: Liquid mixture 1, Liquid mixture 2
Fixed: Pressure, kPa = 101.3
Property: Liquid-liquid equilibrium temperature, K (Liquid mixture 1); method: Visual observation
Mole fraction of 1,2-dimethylimidazole	Liquid-liquid equilibrium temperature, K	uncertainty
.3021	307.01	
.3198	308.43	
.3457	310.18	
.378	311.57	
.4052	312.52	
.4321	313.04	
.4559	313.31	
.4909	313.98	
.534	314.1	
.5622	314.01	
.6056	313.8	
.6487	313.4	
.7	313.01	
.7462	312.24	
.8028	310.24	

System: methyl tert-butyl ether + 1,2-dimethylimidazole; phases: Liquid, Crystal
Fixed: Pressure, kPa = 101.3
Property: Solid-liquid equilibrium temperature, K (Liquid); method: Visual observation
Mole fraction of 1,2-dimethylimidazole	Solid-liquid equilibrium temperature, K	uncertainty
.1462	277.04	
.2008	281.97	
.2661	286.35	
.3314	289.41	
.4018	291.22	
.445	292.37	
.5319	294.34	
.5957	295.68	
.6574	297.24	
.754	300.56	
.8482	303.21	
.9401	307.26	
1	311.5	

System: tert-amyl methyl ether + 1,2-dimethylimidazole; phases: Liquid, Crystal
Fixed: Pressure, kPa = 101.3
Property: Solid-liquid equilibrium temperature, K (Liquid); method: Visual observation
Mole fraction of 1,2-dimethylimidazole	Solid-liquid equilibrium temperature, K	uncertainty
.17	281.13	
.1991	283.12	
.2357	285.36	
.2736	287.79	
.3142	289.67	
.3602	291.12	
.4218	292.69	
.4699	293.57	
.531	295.11	
.6091	297.25	
.7222	300.44	
.7898	302.81	
.8603	304.95	
.9308	307.75	
1	311.5	
