Measured thermophysical data. Vapor Liquid Equilibria for Ethanol + 2,4,4-Trimethyl-1-pentene and 2-Propanol + 2,4,4-Trimethyl-1-pentene at 101 kPa
Source: J. Chem. Eng. Data, 2003, 10.1021/je020105c
Compound 1: ethanol, C2H6O
Compound 2: 2,4,4-trimethyl-1-pentene, C8H16
Compound 3: 2-propanol, C3H8O

System: ethanol; phases: Liquid, Gas
Property: Boiling temperature at pressure P, K (Liquid); method: Ebulliometric method (Recirculating still)
Pressure, kPa	Boiling temperature at pressure P, K	uncertainty
100.9	351.43	

System: ethanol; phases: Liquid, Gas
Property: Boiling temperature at pressure P, K (Liquid); method: Ebulliometric method (Recirculating still)
Pressure, kPa	Boiling temperature at pressure P, K	uncertainty
101.2	351.36	

System: 2,4,4-trimethyl-1-pentene; phases: Liquid, Gas
Property: Boiling temperature at pressure P, K (Liquid); method: Ebulliometric method (Recirculating still)
Pressure, kPa	Boiling temperature at pressure P, K	uncertainty
101.2	374.5	

System: 2,4,4-trimethyl-1-pentene; phases: Liquid, Gas
Property: Boiling temperature at pressure P, K (Liquid); method: Ebulliometric method (Recirculating still)
Pressure, kPa	Boiling temperature at pressure P, K	uncertainty
97.6	373.11	

System: 2,4,4-trimethyl-1-pentene; phases: Liquid, Gas
Property: Boiling temperature at pressure P, K (Liquid); method: Ebulliometric method (Recirculating still)
Pressure, kPa	Boiling temperature at pressure P, K	uncertainty
100.1	374.05	

System: 2,4,4-trimethyl-1-pentene; phases: Liquid, Gas
Property: Boiling temperature at pressure P, K (Liquid); method: Ebulliometric method (Recirculating still)
Pressure, kPa	Boiling temperature at pressure P, K	uncertainty
100.6	374.33	

System: 2-propanol; phases: Liquid, Gas
Property: Boiling temperature at pressure P, K (Liquid); method: Ebulliometric method (Recirculating still)
Pressure, kPa	Boiling temperature at pressure P, K	uncertainty
101.3	355.37	

System: ethanol + 2,4,4-trimethyl-1-pentene; phases: Liquid, Gas
Property: Boiling temperature at pressure P, K (Liquid); method: Ebulliometric method (Recirculating still)
Mole fraction of ethanol	Pressure, kPa	Boiling temperature at pressure P, K	uncertainty
0	101.2	374.5	
.0218	100.4	364.14	
.043	100.4	357.73	
.0727	100.4	353.08	
.1475	100.4	348.92	
.2186	100.4	347.49	
.2806	100.4	346.92	
.3321	100.4	346.47	
.3866	100.4	346.18	
.4345	100.5	346	
.486	100.5	345.84	
.5233	101.3	345.92	
.533	100.5	345.73	
.5763	100.5	345.66	
.6065	101.3	345.8	
.6475	101.3	345.78	
.6828	101.3	345.78	
.7462	101.3	345.87	
.7893	101.3	346	
.8275	101.3	346.22	
.858	101.3	346.51	
.8852	101.3	346.87	
.9102	101.3	347.37	
.9327	101.3	347.94	
.9747	101.5	349.7	
1	100.9	351.43	

System: ethanol + 2,4,4-trimethyl-1-pentene; phases: Gas, Liquid
Property: Mole fraction of ethanol (Gas); method: Chromatography
Mole fraction of ethanol	Pressure, kPa	Mole fraction of ethanol	uncertainty
0	101.2	0	
.0218	100.4	.2413	
.043	100.4	.3824	
.0727	100.4	.4723	
.1475	100.4	.5537	
.2186	100.4	.5843	
.2806	100.4	.6037	
.3321	100.4	.6135	
.3866	100.4	.627	
.4345	100.5	.6328	
.486	100.5	.6402	
.5233	101.3	.6476	
.533	100.5	.649	
.5763	100.5	.6549	
.6065	101.3	.6613	
.6475	101.3	.6693	
.6828	101.3	.6777	
.7462	101.3	.6937	
.7893	101.3	.7069	
.8275	101.3	.7234	
.858	101.3	.7395	
.8852	101.3	.756	
.9102	101.3	.7859	
.9327	101.3	.8108	
.9747	101.5	.8971	
1	100.9	1	

System: ethanol + 2,4,4-trimethyl-1-pentene; phases: Liquid, Gas
Property: Boiling temperature at pressure P, K (Liquid); method: Ebulliometric method (Recirculating still)
Mole fraction of ethanol	Pressure, kPa	Boiling temperature at pressure P, K	uncertainty
0	97.6	373.11	
.0901	98.2	350.23	
.256	98.3	346.56	
.3852	98.4	345.68	
.5085	98.6	345.3	
.5521	99.3	345.32	
.6241	99.3	345.25	
.7004	99.3	345.25	
.7704	99.2	345.34	
.8164	99.2	345.55	
.8559	99.2	345.87	
1	101.2	351.36	

System: ethanol + 2,4,4-trimethyl-1-pentene; phases: Gas, Liquid
Property: Mole fraction of ethanol (Gas); method: Other
Mole fraction of ethanol	Pressure, kPa	Mole fraction of ethanol	uncertainty
0	97.6	0	
.0901	98.2	.537	
.256	98.3	.6123	
.3852	98.4	.638	
.5085	98.6	.6572	
.5521	99.3	.6495	
.6241	99.3	.6636	
.7004	99.3	.6848	
.7704	99.2	.7073	
.8164	99.2	.7276	
.8559	99.2	.7512	
1	101.2	1	

System: ethanol + 2,4,4-trimethyl-1-pentene; phases: Liquid, Gas
Property: Azeotropic composition: mole fraction of ethanol (Liquid); method: By X=Y
Pressure, kPa	Azeotropic composition: mole fraction of ethanol	uncertainty
101	.676	
101	.661	

System: ethanol + 2,4,4-trimethyl-1-pentene; phases: Liquid, Gas
Property: Azeotropic temperature, K (Liquid); method: By T(X) extreme
Pressure, kPa	Azeotropic temperature, K	uncertainty
101	345.78	
101	345.25	

System: 2-propanol + 2,4,4-trimethyl-1-pentene; phases: Liquid, Gas
Property: Boiling temperature at pressure P, K (Liquid); method: Ebulliometric method (Recirculating still)
Mole fraction of 2-propanol	Pressure, kPa	Boiling temperature at pressure P, K	uncertainty
0	100.1	374.05	
.0213	100	368.33	
.0473	99.5	362.87	
.0964	99.5	357.98	
.1496	101.9	354.22	
.22	101.9	353.17	
.3664	99.3	351.65	
.4092	101.8	352.07	
.464	101.8	351.74	
.4696	99.4	351.03	
.5037	101.6	351.47	
.5592	101.6	351.34	
.6226	101.6	351.34	
.6809	101.6	351.12	
.7373	101.6	351.19	
.7883	101.7	351.38	
.8321	101.7	351.67	
.8824	101.7	352.24	
.9189	101.7	352.88	
.9556	101.7	353.81	
.9756	101.7	354.46	
.9889	101.8	354.98	
.9948	101.7	355.24	
1	101.3	355.37	

System: 2-propanol + 2,4,4-trimethyl-1-pentene; phases: Gas, Liquid
Property: Mole fraction of 2-propanol (Gas); method: Chromatography
Mole fraction of 2-propanol	Pressure, kPa	Mole fraction of 2-propanol	uncertainty
0	100.1	0	
.0213	100	.1618	
.0473	99.5	.2953	
.0964	99.5	.4023	
.1496	101.9	.4707	
.22	101.9	.5206	
.3664	99.3	.5665	
.4092	101.8	.5879	
.464	101.8	.6059	
.4696	99.4	.6016	
.5037	101.6	.6167	
.5592	101.6	.6331	
.6226	101.6	.6541	
.6809	101.6	.6747	
.7373	101.6	.6995	
.7883	101.7	.7265	
.8321	101.7	.7558	
.8824	101.7	.7969	
.9189	101.7	.8401	
.9556	101.7	.8985	
.9756	101.7	.9394	
.9889	101.8	.9709	
.9948	101.7	.986	
1	101.3	1	

System: 2-propanol + 2,4,4-trimethyl-1-pentene; phases: Liquid, Gas
Property: Boiling temperature at pressure P, K (Liquid); method: Ebulliometric method (Recirculating still)
Mole fraction of 2-propanol	Pressure, kPa	Boiling temperature at pressure P, K	uncertainty
0	100.6	374.33	
.0049	100.7	371.64	
.0058	100.7	371.6	
.0154	100.7	368.71	
.0153	100.7	368.66	
.0369	100.7	364.16	
.0351	100.7	364.24	
.5556	100.7	351.06	
.5569	100.7	351.06	
.7498	100	350.64	
.7549	100	350.63	
.9334	99.9	352.77	
.9341	99.9	352.77	
.962	99.8	353.54	
.9621	99.9	353.54	
.9831	99.8	354.28	
.9832	99.8	354.28	
1	101.3	355.37	

System: 2-propanol + 2,4,4-trimethyl-1-pentene; phases: Gas, Liquid
Property: Mole fraction of 2-propanol (Gas); method: Other
Mole fraction of 2-propanol	Pressure, kPa	Mole fraction of 2-propanol	uncertainty
0	100.6	0	
.0049	100.7	.0635	
.0058	100.7	.0663	
.0154	100.7	.1365	
.0153	100.7	.1389	
.0369	100.7	.2831	
.0351	100.7	.2784	
.5556	100.7	.6357	
.5569	100.7	.633	
.7498	100	.6993	
.7549	100	.7027	
.9334	99.9	.8695	
.9341	99.9	.8697	
.962	99.8	.9185	
.9621	99.9	.9181	
.9831	99.8	.9568	
.9832	99.8	.9559	
1	101.3	1	

System: 2-propanol + 2,4,4-trimethyl-1-pentene; phases: Liquid, Gas
Property: Azeotropic composition: mole fraction of 2-propanol (Liquid); method: By X=Y
Pressure, kPa	Azeotropic composition: mole fraction of 2-propanol	uncertainty
101	.67	
101	.672	

System: 2-propanol + 2,4,4-trimethyl-1-pentene; phases: Liquid, Gas
Property: Azeotropic temperature, K (Liquid); method: By T(X) extreme
Pressure, kPa	Azeotropic temperature, K	uncertainty
101	351.12	
101	350.63	
