Measured thermophysical data. Vapor-Liquid Equilibrium Data for the Azeotropic Difluoromethane + Propane System at Temperatures from 294.83 to 343.26 K and Pressures up to 5.4 MPa
Source: J. Chem. Eng. Data, 2003, 10.1021/je020115d
Compound 1: propane, C3H8
Compound 2: difluoromethane, CH2F2

System: propane; phases: Liquid, Gas
Property: Vapor or sublimation pressure, kPa (Liquid); method: Closed cell (Static) method
Temperature, K	Vapor or sublimation pressure, kPa	uncertainty
277.17	536	
283.22	638	
288.26	734	
293.27	838	
298.3	955	
302.27	1055	
308.8	1236	
311.8	1326	
313.24	1370	
318.22	1537	
323.22	1716	
328.26	1911	
333.29	2120	
338.31	2346	
343.26	2591	
348.31	2852	
353.41	3134	
278.1	553	
294.83	874	

System: difluoromethane; phases: Liquid, Gas
Property: Vapor or sublimation pressure, kPa (Liquid); method: Closed cell (Static) method
Temperature, K	Vapor or sublimation pressure, kPa	uncertainty
283.19	1111	
288.21	1286	
293.24	1481	
298.26	1697	
303.27	1935	
308.28	2197	
313.3	2485	
318.28	2801	
323.3	3147	
328.31	3526	
343.26	4892	
278.1	956	
294.83	1547	
303.23	1937	
313.26	2491	

System: propane + difluoromethane; phases: Liquid, Gas
Property: Vapor or sublimation pressure, kPa (Liquid); method: Closed cell (Static) method
Mole fraction of difluoromethane	Temperature, K	Vapor or sublimation pressure, kPa	uncertainty
0	278.1	553	
.043	278.1	727	
.124	278.1	936	
.262	278.1	1109	
.424	278.1	1189	
.474	278.1	1201	
.516	278.1	1209	
.563	278.1	1215	
.583	278.1	1218	
.608	278.1	1220	
.628	278.1	1221	
.673	278.1	1222	
.68	278.1	1221	
.756	278.1	1214	
.791	278.1	1205	
.909	278.1	1131	
.975	278.1	1023	
1	278.1	956	
0	294.83	874	
.008	294.83	926	
.046	294.83	1123	
.064	294.83	1206	
.123	294.83	1406	
.264	294.83	1693	
.439	294.83	1840	
.599	294.83	1897	
.618	294.83	1900	
.694	294.83	1906	
.731	294.83	1903	
.759	294.83	1897	
.802	294.83	1880	
.941	294.83	1715	
.957	294.83	1677	
1	294.83	1547	
.027	303.23	1255	
.073	303.23	1492	
.165	303.23	1824	
.287	303.23	2076	
.456	303.23	2262	
.535	303.23	2311	
.564	303.23	2317	
.646	303.23	2336	
.694	303.23	2340	
.705	303.23	2345	
.794	303.23	2318	
.89	303.23	2226	
.953	303.23	2094	
1	303.23	1937	
.017	313.26	1496	
.034	313.26	1608	
.198	313.26	2344	
.272	313.26	2540	
.367	313.26	2720	
.468	313.26	2844	
.582	313.26	2931	
.605	313.26	2940	
.622	313.26	2952	
.71	313.26	2964	
.799	313.26	2923	
.844	313.26	2880	
.947	313.26	2685	
1	313.26	2491	
0	343.26	2591	
.065	343.26	3139	
.113	343.26	3499	
.188	343.26	3964	
.237	343.26	4222	
.282	343.26	4442	
.345	343.26	4702	
.432	343.26	5009	
.457	343.26	5077	
.858	343.26	5451	
.876	343.26	5413	
.911	343.26	5308	
.924	343.26	5259	
.939	343.26	5201	
.972	343.26	5049	
.992	343.26	4940	
1	343.26	4892	

System: propane + difluoromethane; phases: Gas, Liquid
Property: Mole fraction of difluoromethane (Gas); method: Chromatography
Mole fraction of difluoromethane	Temperature, K	Mole fraction of difluoromethane	uncertainty
0	278.1	0	
.043	278.1	.236	
.124	278.1	.419	
.262	278.1	.526	
.424	278.1	.596	
.474	278.1	.61	
.516	278.1	.622	
.563	278.1	.634	
.583	278.1	.639	
.608	278.1	.646	
.628	278.1	.651	
.673	278.1	.664	
.68	278.1	.666	
.756	278.1	.693	
.791	278.1	.711	
.909	278.1	.805	
.975	278.1	.921	
1	278.1	1	
0	294.83	0	
.008	294.83	.049	
.046	294.83	.206	
.064	294.83	.261	
.123	294.83	.37	
.264	294.83	.508	
.439	294.83	.584	
.599	294.83	.645	
.618	294.83	.65	
.694	294.83	.684	
.731	294.83	.699	
.759	294.83	.713	
.802	294.83	.746	
.941	294.83	.877	
.957	294.83	.903	
1	294.83	1	
.027	303.23	.126	
.073	303.23	.258	
.165	303.23	.404	
.287	303.23	.503	
.456	303.23	.59	
.535	303.23	.615	
.564	303.23	.63	
.646	303.23	.665	
.694	303.23	.689	
.705	303.23	.695	
.794	303.23	.747	
.89	303.23	.824	
.953	303.23	.916	
1	303.23	1	
.017	313.26	.075	
.034	313.26	.133	
.198	313.26	.412	
.272	313.26	.475	
.367	313.26	.53	
.468	313.26	.583	
.582	313.26	.639	
.605	313.26	.649	
.622	313.26	.658	
.71	313.26	.705	
.799	313.26	.761	
.844	313.26	.797	
.947	313.26	.901	
1	313.26	1	
0	343.26	0	
.065	343.26	.146	
.113	343.26	.226	
.188	343.26	.31	
.237	343.26	.345	
.282	343.26	.375	
.345	343.26	.42	
.432	343.26	.472	
.457	343.26	.48	
.858	343.26	.849	
.876	343.26	.866	
.911	343.26	.901	
.924	343.26	.915	
.939	343.26	.93	
.972	343.26	.965	
.992	343.26	.989	
1	343.26	1	

System: propane + difluoromethane; phases: Liquid, Gas
Property: Vapor or sublimation pressure, kPa (Liquid); method: Other
Temperature, K	Mole fraction of difluoromethane	Vapor or sublimation pressure, kPa	uncertainty
287.53	.439	1533	
295.38	.465	1869	
303.67	.465	2278	
313.02	.465	2817	
323.16	.866	3572	
323.25	.439	3455	
323.35	.465	3497	
332.75	.866	4404	
333.04	.439	4186	
333.17	.465	4251	
333.49	.388	4090	
333.49	.406	4129	
337.85	.465	4629	
340.42	.465	4739	
342.15	.406	4874	
343.1	.173	3876	
343.18	.388	4821	

System: propane + difluoromethane; phases: Liquid, Gas
Property: Azeotropic pressure, kPa (Liquid); method: By P(X) extreme
Temperature, K	Azeotropic pressure, kPa	uncertainty
278.1	1221	
294.83	1906	
303.23	2342	
313.26	2961	

System: propane + difluoromethane; phases: Liquid, Gas
Property: Azeotropic composition: mole fraction of difluoromethane (Liquid); method: By T or P extreme
Temperature, K	Azeotropic composition: mole fraction of difluoromethane	uncertainty
278.1	.663	
294.83	.679	
303.23	.683	
313.26	.702	

System: propane + difluoromethane; phases: Liquid, Gas
Property: Critical temperature, K (Liquid); method: Visual observation in an unstirred cell
Mole fraction of difluoromethane	Critical temperature, K	uncertainty
.527	342.5	
.866	344	

System: propane + difluoromethane; phases: Liquid, Gas
Property: Critical pressure, kPa (Liquid); method: Direct measurement
Mole fraction of difluoromethane	Critical pressure, kPa	uncertainty
.527	5210	
.866	5532	
