Measured thermophysical data. Isobaric Vapor-Liquid Equilibria of the Ternary System Toluene + Ethylbenzene + Amyl Acetate
Source: J. Chem. Eng. Data, 2004, 10.1021/je0301850
Compound 1: toluene, C7H8, purity 99.5%
Compound 2: pentyl ethanoate, C7H14O2, purity 99.5%
Compound 3: ethylbenzene, C8H10, purity 99.5%

System: toluene; phases: Liquid, Gas
Property: Vapor or sublimation pressure, kPa (Liquid); method: Ebulliometric method (Recirculating still)
Temperature, K	Vapor or sublimation pressure, kPa	uncertainty
342.65	26.66	
362.63	53.33	
375.66	79.99	

System: pentyl ethanoate; phases: Liquid, Gas
Property: Vapor or sublimation pressure, kPa (Liquid); method: Ebulliometric method (Recirculating still)
Temperature, K	Vapor or sublimation pressure, kPa	uncertainty
380.05	26.66	
400.72	53.33	
414.2	79.99	

System: ethylbenzene; phases: Liquid, Gas
Property: Vapor or sublimation pressure, kPa (Liquid); method: Ebulliometric method (Recirculating still)
Temperature, K	Vapor or sublimation pressure, kPa	uncertainty
365.86	26.66	
386.94	53.33	
400.7	79.99	

System: toluene + pentyl ethanoate; phases: Liquid, Gas
Property: Boiling temperature at pressure P, K (Liquid); method: Ebulliometric method (Recirculating still)
Pressure, kPa	Mole fraction of toluene	Boiling temperature at pressure P, K	uncertainty
26.66	0	380.05	
26.66	.219	369.47	
26.66	.292	366.18	
26.66	.35	363.16	
26.66	.411	360.77	
26.66	.491	357.67	
26.66	.699	350.58	
26.66	.859	346.02	
26.66	1	342.65	
53.33	0	400.72	
53.33	.219	390.07	
53.33	.292	387.15	
53.33	.35	384.33	
53.33	.411	381.58	
53.33	.491	378.28	
53.33	.699	370.96	
53.33	.859	366.14	
53.33	1	362.63	
79.99	0	414.2	
79.99	.219	404.15	
79.99	.292	400.83	
79.99	.35	398.04	
79.99	.411	395.21	
79.99	.491	391.86	
79.99	.699	384.25	
79.99	.859	379.31	
79.99	1	375.66	

System: ethylbenzene + pentyl ethanoate; phases: Liquid, Gas
Property: Boiling temperature at pressure P, K (Liquid); method: Ebulliometric method (Recirculating still)
Pressure, kPa	Mole fraction of ethylbenzene	Boiling temperature at pressure P, K	uncertainty
26.66	0	380.05	
26.66	.251	376.09	
26.66	.346	374.69	
26.66	.496	372.35	
26.66	.668	370.02	
26.66	.792	368.39	
26.66	.902	367.03	
26.66	1	365.86	
53.33	0	400.72	
53.33	.251	396.93	
53.33	.346	395.57	
53.33	.496	393.34	
53.33	.668	391.05	
53.33	.792	389.45	
53.33	.902	388.16	
53.33	1	386.94	
79.99	0	414.2	
79.99	.251	410.43	
79.99	.346	409.28	
79.99	.496	407.03	
79.99	.668	404.83	
79.99	.792	403.22	
79.99	.902	401.9	
79.99	1	400.7	

System: ethylbenzene + toluene + pentyl ethanoate; phases: Liquid, Gas
Property: Boiling temperature at pressure P, K (Liquid); method: Ebulliometric method (Recirculating still)
Pressure, kPa	Mole fraction of toluene	Mole fraction of ethylbenzene	Boiling temperature at pressure P, K	uncertainty
79.99	.562	.219	387	
79.99	.74	.13	381.66	
79.99	.242	.379	397.67	
79.99	.646	.236	384.05	
79.99	.42	.387	390.54	
79.99	.209	.527	397.46	
79.99	.622	.126	385.77	
79.99	.442	.186	392.08	
79.99	.387	.204	393.96	
79.99	.222	.259	400.07	
53.33	.562	.219	373.62	
53.33	.74	.13	368.45	
53.33	.242	.379	383.93	
53.33	.646	.236	370.73	
53.33	.42	.387	377.25	
53.33	.209	.527	383.55	
53.33	.622	.126	372.43	
53.33	.442	.186	378.41	
53.33	.387	.204	380.35	
53.33	.222	.259	386.22	
26.66	.562	.219	353.12	
26.66	.74	.13	348.35	
26.66	.242	.379	363.11	
26.66	.646	.236	350.31	
26.66	.42	.387	356.42	
26.66	.209	.527	362.46	
26.66	.622	.126	351.7	
26.66	.442	.186	357.5	
26.66	.387	.204	360.28	
26.66	.222	.259	365.41	
