Measured thermophysical data. High-Pressure Vapor-Liquid Equilibrium Data and Modeling of Propane + Methanol and Propane + Ethanol Systems
Source: J. Chem. Eng. Data, 2004, 10.1021/je0340506
Compound 1: propane, C3H8, purity 99.9%
Compound 2: methanol, CH4O, purity 99.9%
Compound 3: ethanol, C2H6O, purity 99.9%

System: ethanol + propane; phases: Liquid, Gas
Property: Vapor or sublimation pressure, kPa (Liquid); method: Closed cell (Static) method
Mole fraction of propane	Temperature, K	Vapor or sublimation pressure, kPa	uncertainty
.09	313.58	480	
.1843	313.58	840	
.271	313.58	1030	
.5432	313.58	1280	
.8203	313.58	1320	
.8997	313.58	1340	
.0415	333.99	370	
.0925	333.99	720	
.1536	333.99	1050	
.2346	333.99	1390	
.3724	333.99	1740	
.6556	333.99	1970	
.8587	333.99	2080	
.9699	333.99	969.9	
.975	333.99	975	
.0373	349.78	470	
.0653	349.78	720	
.1026	349.78	1030	
.1552	349.78	1390	
.2146	349.78	1700	
.2968	349.78	2030	
.405	349.78	2330	
.7101	349.78	2660	
.91	349.78	2830	

System: ethanol + propane; phases: Gas, Liquid
Property: Mole fraction of propane (Gas); method: Chromatography
Mole fraction of propane	Temperature, K	Mole fraction of propane	uncertainty
.09	313.58	.9651	
.1843	313.58	.9781	
.271	313.58	.982	
.5432	313.58	.9868	
.8203	313.58	.9892	
.8997	313.58	.9902	
.0415	333.99	.8012	
.0925	333.99	.9269	
.1536	333.99	.9486	
.2346	333.99	.962	
.3724	333.99	.9699	
.6556	333.99	.975	
.8587	333.99	.979	
.9699	333.99	.9699	
.975	333.99	.975	
.0373	349.78	.7646	
.0653	349.78	.8533	
.1026	349.78	.8914	
.1552	349.78	.9244	
.2146	349.78	.934	
.2968	349.78	.9457	
.405	349.78	.9525	
.7101	349.78	.9613	
.91	349.78	.97	

System: methanol + propane; phases: Liquid, Gas
Property: Vapor or sublimation pressure, kPa (Liquid); method: Closed cell (Static) method
Mole fraction of propane	Temperature, K	Vapor or sublimation pressure, kPa	uncertainty
.024	313.55	280	
.0313	313.55	350	
.0512	313.55	520	
.0514	313.55	530	
.0931	313.55	770	
.159	313.55	1050	
.2146	313.55	1150	
.3575	313.55	1310	
.5235	313.55	1340	
.8181	313.55	1380	
.9753	313.55	1390	
.0192	327.95	350	
.0493	327.95	660	
.0791	327.95	940	
.1102	327.95	1170	
.1697	327.95	1460	
.2946	327.95	1750	
.4059	327.95	1830	
.5083	327.95	1880	
.7414	327.95	1900	
.0143	343.21	400	
.0374	343.21	740	
.0684	343.21	1130	
.1006	343.21	1460	
.1468	343.21	1790	
.2068	343.21	2300	
.2455	343.21	2230	
.3187	343.21	2360	
.4068	343.21	2480	
.6108	343.21	2540	
.7627	343.21	2580	

System: methanol + propane; phases: Gas, Liquid
Property: Mole fraction of propane (Gas); method: Chromatography
Mole fraction of propane	Temperature, K	Mole fraction of propane	uncertainty
.024	313.55	.83	
.0313	313.55	.8615	
.0512	313.55	.9112	
.0514	313.55	.8989	
.0931	313.55	.929	
.159	313.55	.9525	
.2146	313.55	.9639	
.3575	313.55	.9606	
.5235	313.55	.9629	
.8181	313.55	.9656	
.9753	313.55	.9792	
.0192	327.95	.7501	
.0493	327.95	.8721	
.0791	327.95	.9085	
.1102	327.95	.9165	
.1697	327.95	.9402	
.2946	327.95	.9518	
.4059	327.95	.954	
.5083	327.95	.9549	
.7414	327.95	.9566	
.0143	343.21	.638	
.0374	343.21	.7864	
.0684	343.21	.861	
.1006	343.21	.8933	
.1468	343.21	.9112	
.2068	343.21	.9253	
.2455	343.21	.9333	
.3187	343.21	.9363	
.4068	343.21	.9387	
.6108	343.21	.9367	
.7627	343.21	.9455	
