Measured thermophysical data. Speed of Sound in Binary Mixtures of Pentafluoroethane and 1,1-Difluoroethane at 243.15 K to 333.15 K and Pressures up to 30 MPa
Source: J. Chem. Eng. Data, 2004
Compound 1: ethane, pentafluoro-, C2HF5
Compound 2: 1,1-difluoroethane, C2H4F2

System: 1,1-difluoroethane + ethane, pentafluoro-; phases: Liquid mixture 1
Property: Speed of sound, m/s (Liquid mixture 1); method: Sing-around technique in a fixed-path interferometer
Mole fraction of 1,1-difluoroethane	Temperature, K	Pressure, kPa	Speed of sound, m/s	uncertainty
.3806	243.15	849	694.6	1.3892
.3806	243.15	1143	696.8	1.3936
.3806	243.15	2057	703.5	1.407
.3806	243.15	2504	706.8	1.4136
.3806	243.15	3065	710.8	1.4216
.3806	243.15	3853	716.4	1.4328
.3806	243.15	4353	719.9	1.4398
.3806	243.15	4792	723.2	1.4464
.3806	243.15	5795	730	1.46
.3806	243.15	6848	737	1.474
.3806	243.15	7670	742.3	1.4846
.3806	243.15	9360	753.3	1.5066
.3806	243.15	9798	755.8	1.5116
.3806	243.15	11210	764.5	1.529
.3806	243.15	13082	775.7	1.5514
.3806	243.15	14603	784.5	1.569
.3806	243.15	16045	792.8	1.5856
.3806	243.15	17589	801.3	1.6026
.3806	243.15	20328	816.1	1.6322
.3806	243.15	22539	827.6	1.6552
.3806	243.15	24924	839.7	1.6794
.3806	243.15	26426	847.1	1.6942
.3806	243.15	27580	852.8	1.7056
.3806	243.15	28855	858.8	1.7176
.3806	243.15	30081	864.6	1.7292
.3806	263.15	731	599	1.198
.3806	263.15	1346	604.7	1.2094
.3806	263.15	2085	611.5	1.223
.3806	263.15	2569	615.8	1.2316
.3806	263.15	3223	621.5	1.243
.3806	263.15	3948	627.7	1.2554
.3806	263.15	5047	637.2	1.2744
.3806	263.15	6407	648.1	1.2962
.3806	263.15	7113	653.6	1.3072
.3806	263.15	8109	661.2	1.3224
.3806	263.15	9270	669.8	1.3396
.3806	263.15	10463	678.4	1.3568
.3806	263.15	11784	687.7	1.3754
.3806	263.15	13475	699.2	1.3984
.3806	263.15	14962	709	1.418
.3806	263.15	16234	717.2	1.4344
.3806	263.15	17843	728.4	1.4568
.3806	263.15	19506	737.4	1.4748
.3806	263.15	20822	745.1	1.4902
.3806	263.15	22909	757.2	1.5144
.3806	263.15	25169	769.9	1.5398
.3806	263.15	27432	782.1	1.5642
.3806	263.15	31025	800.8	1.6016
.3806	283.15	1165	506.2	1.0124
.3806	283.15	2084	517	1.034
.3806	283.15	2739	524.4	1.0488
.3806	283.15	3671	534.6	1.0692
.3806	283.15	4734	545.7	1.0914
.3806	283.15	5010	549.1	1.0982
.3806	283.15	6095	559.8	1.1196
.3806	283.15	7077	569.1	1.1382
.3806	283.15	7980	577.3	1.1546
.3806	283.15	9001	586.3	1.1726
.3806	283.15	10748	600.9	1.2018
.3806	283.15	11656	608.7	1.2174
.3806	283.15	13069	619.9	1.2398
.3806	283.15	14456	630.5	1.261
.3806	283.15	16233	643.6	1.2872
.3806	283.15	17920	655.6	1.3112
.3806	283.15	19606	667.1	1.3342
.3806	283.15	21023	676.5	1.353
.3806	283.15	23040	689.2	1.3784
.3806	283.15	25292	703.4	1.4068
.3806	283.15	28176	720.4	1.4408
.3806	283.15	30688	734.7	1.4694
.3806	298.15	1751	439.5	.879
.3806	298.15	2398	448.6	.8972
.3806	298.15	2750	452.9	.9058
.3806	298.15	3231	459.4	.9188
.3806	298.15	3779	466.7	.9334
.3806	298.15	4476	475.5	.951
.3806	298.15	4957	482.1	.9642
.3806	298.15	5895	493.2	.9864
.3806	298.15	6805	503.4	1.0068
.3806	298.15	7987	516	1.032
.3806	298.15	8969	526.1	1.0522
.3806	298.15	10058	536.8	1.0736
.3806	298.15	11638	551.6	1.1032
.3806	298.15	13410	567.3	1.1346
.3806	298.15	14591	577.3	1.1546
.3806	298.15	16078	589.4	1.1788
.3806	298.15	16113	589.7	1.1794
.3806	298.15	17471	600.3	1.2006
.3806	298.15	19527	615.8	1.2316
.3806	298.15	21216	627.9	1.2558
.3806	298.15	23675	645	1.29
.3806	298.15	25425	656.5	1.313
.3806	298.15	27784	671.5	1.343
.3806	298.15	29753	683.6	1.3672
.3806	313.15	4630	408.2	.8164
.3806	313.15	5780	426.2	.8524
.3806	313.15	6939	441.9	.8838
.3806	313.15	8402	460.1	.9202
.3806	313.15	9082	468.1	.9362
.3806	313.15	10234	481.1	.9622
.3806	313.15	11441	494	.988
.3806	313.15	13375	513.3	1.0266
.3806	313.15	14531	524.3	1.0486
.3806	313.15	15914	536.8	1.0736
.3806	313.15	17496	550.6	1.1012
.3806	313.15	19343	565.7	1.1314
.3806	313.15	20693	576.5	1.153
.3806	313.15	22891	593	1.186
.3806	313.15	25423	611.1	1.2222
.3806	313.15	27167	623	1.246
.3806	313.15	30606	645.4	1.2908
.3806	333.15	6951	358.4	.7168
.3806	333.15	7777	372.1	.7442
.3806	333.15	8980	390.4	.7808
.3806	333.15	10088	405.8	.8116
.3806	333.15	11575	425	.85
.3806	333.15	13295	445.3	.8906
.3806	333.15	14976	463.6	.9272
.3806	333.15	16159	475.7	.9514
.3806	333.15	17408	487.9	.9758
.3806	333.15	19293	505.4	1.0108
.3806	333.15	20699	517.8	1.0356
.3806	333.15	22481	532.7	1.0654
.3806	333.15	24872	551.7	1.1034
.3806	333.15	28145	575.6	1.1512
.3806	333.15	30230	590.4	1.1808
.6445	243.15	131	770.5	1.541
.6445	243.15	590	773.8	1.5476
.6445	243.15	1519	780.5	1.561
.6445	243.15	2201	785.2	1.5704
.6445	243.15	2893	790	1.58
.6445	243.15	3970	797.2	1.5944
.6445	243.15	4453	800.7	1.6014
.6445	243.15	5247	805.8	1.6116
.6445	243.15	5885	810.1	1.6202
.6445	243.15	7149	818.2	1.6364
.6445	243.15	8305	825.4	1.6508
.6445	243.15	9034	829.9	1.6598
.6445	243.15	10045	836	1.672
.6445	243.15	11288	843.5	1.687
.6445	243.15	13302	855.2	1.7104
.6445	243.15	14612	862.6	1.7252
.6445	243.15	16209	871.5	1.743
.6445	243.15	17503	878.6	1.7572
.6445	243.15	19137	887.4	1.7748
.6445	243.15	20440	894.2	1.7884
.6445	243.15	22797	906.3	1.8126
.6445	243.15	24718	915.9	1.8318
.6445	243.15	27342	928.7	1.8574
.6445	243.15	30052	941.6	1.8832
.6445	263.15	978	680.5	1.361
.6445	263.15	1595	686.1	1.3722
.6445	263.15	2318	692.2	1.3844
.6445	263.15	3120	698.9	1.3978
.6445	263.15	3464	701.7	1.4034
.6445	263.15	4708	711.6	1.4232
.6445	263.15	4853	712.8	1.4256
.6445	263.15	5994	721.5	1.443
.6445	263.15	7152	730.2	1.4604
.6445	263.15	8204	737.9	1.4758
.6445	263.15	9521	747.3	1.4946
.6445	263.15	10190	751.9	1.5038
.6445	263.15	11537	761.1	1.5222
.6445	263.15	13175	772	1.544
.6445	263.15	14682	781.8	1.5636
.6445	263.15	16384	792.5	1.585
.6445	263.15	19206	809.7	1.6194
.6445	263.15	20843	819.1	1.6382
.6445	263.15	23102	832.7	1.6654
.6445	263.15	25688	846.3	1.6926
.6445	263.15	27663	857	1.714
.6445	263.15	30160	869.9	1.7398
.6445	283.15	700	581.1	1.1622
.6445	283.15	1440	589.4	1.1788
.6445	283.15	2486	600.4	1.2008
.6445	283.15	3463	610.3	1.2206
.6445	283.15	4278	618.3	1.2366
.6445	283.15	5224	627.5	1.255
.6445	283.15	6116	635.9	1.2718
.6445	283.15	7115	644.7	1.2894
.6445	283.15	7905	651.6	1.3032
.6445	283.15	9035	661.2	1.3224
.6445	283.15	9763	667.2	1.3344
.6445	283.15	11680	682.4	1.3648
.6445	283.15	13068	693	1.386
.6445	283.15	14382	702.8	1.4056
.6445	283.15	16127	715.3	1.4306
.6445	283.15	17891	727.5	1.455
.6445	283.15	19460	738.1	1.4762
.6445	283.15	20596	745.5	1.491
.6445	283.15	22995	760.7	1.5214
.6445	283.15	24859	772.1	1.5442
.6445	283.15	27228	786.2	1.5724
.6445	283.15	30171	802.9	1.6058
.6445	298.15	1165	512.1	1.0242
.6445	298.15	1589	517.7	1.0354
.6445	298.15	2304	526.9	1.0538
.6445	298.15	2507	529.4	1.0588
.6445	298.15	3244	538.4	1.0768
.6445	298.15	3845	545.6	1.0912
.6445	298.15	4467	552.7	1.1054
.6445	298.15	4832	556.8	1.1136
.6445	298.15	5991	570.3	1.1406
.6445	298.15	7217	582.9	1.1658
.6445	298.15	8142	592.1	1.1842
.6445	298.15	8983	600.1	1.2002
.6445	298.15	10088	610.3	1.2206
.6445	298.15	11702	624.7	1.2494
.6445	298.15	13473	639.6	1.2792
.6445	298.15	15303	654.3	1.3086
.6445	298.15	16039	660	1.32
.6445	298.15	17544	671.5	1.343
.6445	298.15	17618	672	1.344
.6445	298.15	19588	686.4	1.3728
.6445	298.15	20540	693.1	1.3862
.6445	298.15	22556	707	1.414
.6445	298.15	24987	723.1	1.4462
.6445	298.15	28133	742.9	1.4858
.6445	298.15	29909	753.5	1.507
.6445	313.15	3246	465.4	.9308
.6445	313.15	3794	473.4	.9468
.6445	313.15	4325	480.9	.9618
.6445	313.15	4844	488.3	.9766
.6445	313.15	5970	501.9	1.0038
.6445	313.15	7083	516.5	1.033
.6445	313.15	8110	528.4	1.0568
.6445	313.15	9289	541.4	1.0828
.6445	313.15	10104	550	1.1
.6445	313.15	12272	571.6	1.1432
.6445	313.15	13532	583.5	1.167
.6445	313.15	13976	587.8	1.1756
.6445	313.15	15978	605.5	1.211
.6445	313.15	17421	617.5	1.235
.6445	313.15	18704	627.9	1.2558
.6445	313.15	20200	639.7	1.2794
.6445	313.15	23251	662.5	1.325
.6445	313.15	25257	676.6	1.3532
.6445	313.15	26989	688.5	1.377
.6445	313.15	29218	703.1	1.4062
.6445	333.15	4329	382	.764
.6445	333.15	4950	394.5	.789
.6445	333.15	5967	412.2	.8244
.6445	333.15	6850	427	.854
.6445	333.15	7985	443	.886
.6445	333.15	9292	461	.922
.6445	333.15	10267	473.5	.947
.6445	333.15	12031	494.7	.9894
.6445	333.15	13489	510.9	1.0218
.6445	333.15	14661	523.2	1.0464
.6445	333.15	16197	538.7	1.0774
.6445	333.15	17857	554.4	1.1088
.6445	333.15	19141	566	1.132
.6445	333.15	20733	579.8	1.1596
.6445	333.15	22689	596.2	1.1924
.6445	333.15	24987	614.2	1.2284
.6445	333.15	27535	633.2	1.2664
.6445	333.15	30141	651.6	1.3032
.8447	243.15	608	847.8	1.6956
.8447	243.15	1200	855.8	1.7116
.8447	243.15	3903	873.5	1.747
.8447	243.15	4610	878.2	1.7564
.8447	243.15	4860	879.7	1.7594
.8447	243.15	5295	882.4	1.7648
.8447	243.15	5787	885.5	1.771
.8447	243.15	7333	894.9	1.7898
.8447	243.15	7754	897.4	1.7948
.8447	243.15	8051	899.2	1.7984
.8447	243.15	8895	904.2	1.8084
.8447	243.15	9610	908.5	1.817
.8447	243.15	10318	912.6	1.8252
.8447	243.15	11377	918.7	1.8374
.8447	243.15	12970	927.8	1.8556
.8447	243.15	14873	938.2	1.8764
.8447	243.15	15678	942.6	1.8852
.8447	243.15	17428	952.1	1.9042
.8447	243.15	18512	957.7	1.9154
.8447	243.15	21064	970.7	1.9414
.8447	243.15	22893	979.8	1.9596
.8447	243.15	25259	991.5	1.983
.8447	243.15	25879	994.5	1.989
.8447	243.15	27520	1002.3	2.0046
.8447	243.15	29588	1011.8	2.0236
.8447	263.15	789	756.5	1.513
.8447	263.15	1224	760	1.52
.8447	263.15	2043	766.6	1.5332
.8447	263.15	2121	767.1	1.5342
.8447	263.15	2670	771.4	1.5428
.8447	263.15	3477	777.7	1.5554
.8447	263.15	4779	787.6	1.5752
.8447	263.15	5814	795.2	1.5904
.8447	263.15	6885	802.9	1.6058
.8447	263.15	7714	808.7	1.6174
.8447	263.15	9092	818.2	1.6364
.8447	263.15	10032	824.5	1.649
.8447	263.15	11532	834.4	1.6688
.8447	263.15	12798	842.6	1.6852
.8447	263.15	14397	852.7	1.7054
.8447	263.15	16107	863.1	1.7262
.8447	263.15	17489	871.4	1.7428
.8447	263.15	18878	879.4	1.7588
.8447	263.15	20631	889.5	1.779
.8447	263.15	22443	899.7	1.7994
.8447	263.15	24671	911.8	1.8236
.8447	263.15	27284	925.6	1.8512
.8447	263.15	28519	932	1.864
.8447	283.15	669	654.8	1.3096
.8447	283.15	1427	662.5	1.325
.8447	283.15	2050	668.6	1.3372
.8447	283.15	2779	675.7	1.3514
.8447	283.15	3467	682.1	1.3642
.8447	283.15	4269	689.8	1.3796
.8447	283.15	5280	698.8	1.3976
.8447	283.15	6065	705.6	1.4112
.8447	283.15	6969	713.3	1.4266
.8447	283.15	7885	720.9	1.4418
.8447	283.15	8938	729.5	1.459
.8447	283.15	9891	737	1.474
.8447	283.15	11763	751.4	1.5028
.8447	283.15	13245	762.4	1.5248
.8447	283.15	14722	773	1.546
.8447	283.15	16184	783.3	1.5666
.8447	283.15	18997	802.2	1.6044
.8447	283.15	20575	812.3	1.6246
.8447	283.15	21292	816.9	1.6338
.8447	283.15	22098	822	1.644
.8447	283.15	25556	842.9	1.6858
.8447	283.15	27251	852.8	1.7056
.8447	283.15	29452	865.3	1.7306
.8447	298.15	739	579.8	1.1596
.8447	298.15	1564	589.7	1.1794
.8447	298.15	2198	597.2	1.1944
.8447	298.15	2768	603.7	1.2074
.8447	298.15	3564	612.6	1.2252
.8447	298.15	4223	620.1	1.2402
.8447	298.15	6218	640.4	1.2808
.8447	298.15	7197	649.9	1.2998
.8447	298.15	7884	656.4	1.3128
.8447	298.15	9990	675.5	1.351
.8447	298.15	11473	688.4	1.3768
.8447	298.15	13029	701.2	1.4024
.8447	298.15	14581	713.6	1.4272
.8447	298.15	15914	723.9	1.4478
.8447	298.15	17482	735.6	1.4712
.8447	298.15	19039	746.9	1.4938
.8447	298.15	20402	756.4	1.5128
.8447	298.15	22337	769.6	1.5392
.8447	298.15	24801	785.9	1.5718
.8447	298.15	27617	803.6	1.6072
.8447	298.15	29954	817.7	1.6354
.8447	313.15	1615	512.8	1.0256
.8447	313.15	1939	517.6	1.0352
.8447	313.15	2814	530.1	1.0602
.8447	313.15	3704	542.1	1.0842
.8447	313.15	4213	549	1.098
.8447	313.15	4857	557	1.114
.8447	313.15	5886	569.4	1.1388
.8447	313.15	6971	581.9	1.1638
.8447	313.15	8090	594.1	1.1882
.8447	313.15	9296	606.7	1.2134
.8447	313.15	10105	614.9	1.2298
.8447	313.15	11429	627.8	1.2556
.8447	313.15	13561	646.4	1.2928
.8447	313.15	14550	656.2	1.3124
.8447	313.15	15873	667.5	1.335
.8447	313.15	17446	680.4	1.3608
.8447	313.15	18923	692.2	1.3844
.8447	313.15	20526	704.5	1.409
.8447	313.15	22223	717	1.434
.8447	313.15	24954	736.3	1.4726
.8447	313.15	27283	752.1	1.5042
.8447	313.15	30365	772.1	1.5442
.8447	333.15	3684	439.8	.8796
.8447	333.15	4592	455.6	.9112
.8447	333.15	5795	474.2	.9484
.8447	333.15	7461	497.6	.9952
.8447	333.15	8046	505.6	1.0112
.8447	333.15	9076	520.7	1.0414
.8447	333.15	10006	532.2	1.0644
.8447	333.15	11555	550.2	1.1004
.8447	333.15	13341	569.5	1.139
.8447	333.15	14550	581.9	1.1638
.8447	333.15	16194	598.1	1.1962
.8447	333.15	17594	611.1	1.2222
.8447	333.15	19315	626.6	1.2532
.8447	333.15	20475	636.5	1.273
.8447	333.15	22643	654.8	1.3096
.8447	333.15	24834	671.5	1.343
.8447	333.15	27523	691.4	1.3828
.8447	333.15	29932	708.3	1.4166
