Measured thermophysical data. Liquid-Liquid Equilibrium for the System Heptane + o-Xylene + Diethylene Glycol over the Temperature
			Range of 288.15 K to 318.15 K
Source: J. Chem. Eng. Data, 2005, 10.1021/je049601m
Compound 1: bis(2-hydroxyethyl) ether, C4H10O3, purity 98%
Compound 2: heptane, C7H16, purity 99%
Compound 3: 1,2-dimethylbenzene, C8H10, purity 99%

System: 1,2-dimethylbenzene + bis(2-hydroxyethyl) ether + heptane; phases: Liquid mixture 1, Liquid mixture 2
Fixed: Pressure, kPa = 101
Property: Mole fraction of bis(2-hydroxyethyl) ether (Liquid mixture 1); method: Chromatography
Property: Mole fraction of 1,2-dimethylbenzene (Liquid mixture 2); method: Chromatography
Property: Mole fraction of bis(2-hydroxyethyl) ether (Liquid mixture 2); method: Chromatography
Temperature, K	Mole fraction of 1,2-dimethylbenzene	Mole fraction of bis(2-hydroxyethyl) ether	uncertainty	Mole fraction of 1,2-dimethylbenzene	uncertainty	Mole fraction of bis(2-hydroxyethyl) ether	uncertainty
288.15	0	.0004		0		.995	
288.15	.1066	.0012		.01		.985	
288.15	.1867	.001		.0175		.9776	
288.15	.3344	.0015		.029		.9665	
288.15	.4266	.002		.0373		.9581	
288.15	.498	.0023		.0431		.9527	
288.15	.5641	.0028		.049		.9471	
298.15	0	.0024		0		.9946	
298.15	.1018	.003		.0097		.9852	
298.15	.1953	.0038		.0174		.9777	
298.15	.3529	.0044		.0297		.9658	
298.15	.4048	.0049		.0385		.9566	
298.15	.538	.0052		.0479		.9474	
298.15	.5282	.0054		.0475		.9472	
298.15	.5747	.0053		.0515		.9441	
308.15	0	.0048		0		.9928	
308.15	.0992	.0053		.0098		.9834	
308.15	.1787	.0058		.0183		.9742	
308.15	.3112	.0061		.0302		.9629	
308.15	.3997	.0081		.0422		.9504	
308.15	.475	.0088		.0509		.9418	
318.15	0	.0051		0		.9926	
318.15	.1024	.0065		.0097		.9827	
318.15	.1827	.0053		.0175		.9752	
318.15	.3162	.0055		.0293		.9637	
318.15	.4083	.006		.04		.953	
318.15	.4606	.006		.048		.9451	

System: bis(2-hydroxyethyl) ether + heptane; phases: Liquid mixture 1, Liquid mixture 2
Property: Mole fraction of bis(2-hydroxyethyl) ether (Liquid mixture 1); method: Chromatography
Temperature, K	Pressure, kPa	Mole fraction of bis(2-hydroxyethyl) ether	uncertainty
288.15	101	.0004	
298.15	101	.0024	
308.15	101	.0048	
318.15	101	.0051	

System: bis(2-hydroxyethyl) ether + heptane; phases: Liquid mixture 2, Liquid mixture 1
Property: Mole fraction of bis(2-hydroxyethyl) ether (Liquid mixture 2); method: Chromatography
Temperature, K	Pressure, kPa	Mole fraction of bis(2-hydroxyethyl) ether	uncertainty
288.15	101	.995	
298.15	101	.9946	
308.15	101	.9928	
318.15	101	.9926	
