Measured thermophysical data. Volumetric Properties and Viscosities for Aqueous NFM Solutions from 25 C to 70 C
Source: J. Chem. Eng. Data, 2004, 10.1021/je0498208
Compound 1: water, H2O
Compound 2: N-formylmorpholine, C5H9NO2, purity 98%

System: water; phases: Liquid
Property: Mass density, kg/m3 (Liquid); method: Vibrating tube method
Temperature, K	Pressure, kPa	Mass density, kg/m3	uncertainty
298.15	101.3	997.04	.05
303.15	101.3	995.65	.05
313.15	101.3	992.21	.05
323.15	101.3	988.04	.05
333.15	101.3	983.12	.05
343.15	101.3	977.77	.05

System: water; phases: Liquid
Property: Viscosity, Pa*s (Liquid); method: Capillary tube (Ostwald; Ubbelohde) method
Temperature, K	Pressure, kPa	Viscosity, Pa*s	uncertainty
298.15	101	.00089	.0000089
303.15	101	.0007976	.000007976
313.15	101	.0006531	.000006531
323.15	101	.000547	.00000547
333.15	101	.000466	.00000466
343.15	101	.0004049	.000004049

System: N-formylmorpholine; phases: Liquid
Property: Mass density, kg/m3 (Liquid); method: Vibrating tube method
Temperature, K	Pressure, kPa	Mass density, kg/m3	uncertainty
298.15	101.3	1146.62	.05
303.15	101.3	1142.26	.05
313.15	101.3	1133.53	.05
323.15	101.3	1124.82	.05
333.15	101.3	1116.11	.05
343.15	101.3	1107.39	.05

System: N-formylmorpholine; phases: Liquid
Property: Viscosity, Pa*s (Liquid); method: Capillary tube (Ostwald; Ubbelohde) method
Temperature, K	Pressure, kPa	Viscosity, Pa*s	uncertainty
298.15	101	.00787	.0000787
303.15	101	.00675	.0000675
313.15	101	.00513	.0000513
323.15	101	.00403	.0000403
333.15	101	.00325	.0000325
343.15	101	.00268	.0000268

System: N-formylmorpholine + water; phases: Liquid
Fixed: Pressure, kPa = 101.3
Property: Mass density, kg/m3 (Liquid); method: Vibrating tube method
Temperature, K	Mole fraction of N-formylmorpholine	Mass density, kg/m3	uncertainty
298.15	0	997.04	.05
298.15	.0499	1038.7	.05
298.15	.1007	1067.03	.05
298.15	.1976	1099.55	.05
298.15	.3006	1117.88	.05
298.15	.3917	1127.34	.05
298.15	.5001	1134.34	.05
298.15	.5834	1137.94	.05
298.15	.6969	1141.28	.05
298.15	.7942	1143.43	.05
298.15	.9047	1145.19	.05
298.15	.9493	1145.97	.05
298.15	1	1146.62	.05
303.15	0	995.65	.05
303.15	.0499	1036.24	.05
303.15	.1007	1063.95	.05
303.15	.1976	1095.78	.05
303.15	.3006	1113.82	.05
303.15	.3917	1123.11	.05
303.15	.5001	1130.03	.05
303.15	.5834	1133.6	.05
303.15	.6969	1136.91	.05
303.15	.7942	1139.05	.05
303.15	.9047	1140.81	.05
303.15	.9493	1141.6	.05
303.15	1	1142.26	.05
313.15	0	992.21	.05
313.15	.0499	1030.93	.05
313.15	.1007	1057.44	.05
313.15	.1976	1088.06	.05
313.15	.3006	1105.52	.05
313.15	.3917	1114.62	.05
313.15	.5001	1121.35	.05
313.15	.5834	1124.87	.05
313.15	.6969	1128.16	.05
313.15	.7942	1130.3	.05
313.15	.9047	1132.07	.05
313.15	.9493	1132.87	.05
313.15	1	1133.53	.05
323.15	0	988.04	.05
323.15	.0499	1025.15	.05
323.15	.1007	1050.64	.05
323.15	.1976	1080.16	.05
323.15	.3006	1097.1	.05
323.15	.3917	1105.98	.05
323.15	.5001	1114.62	.05
323.15	.5834	1116.08	.05
323.15	.6969	1119.37	.05
323.15	.7942	1121.52	.05
323.15	.9047	1123.33	.05
323.15	.9493	1124.14	.05
323.15	1	1124.82	.05
333.15	0	983.12	.05
333.15	.0499	1018.01	.05
333.15	.1007	1043.55	.05
333.15	.1976	1072.05	.05
333.15	.3006	1088.55	.05
333.15	.3917	1097.24	.05
333.15	.5001	1103.8	.05
333.15	.5834	1107.26	.05
333.15	.6969	1110.55	.05
333.15	.7942	1112.72	.05
333.15	.9047	1114.57	.05
333.15	.9493	1115.4	.05
333.15	1	1116.11	.05
343.15	0	977.77	.05
343.15	.0499	1011.38	.05
343.15	.1007	1036.08	.05
343.15	.1976	1063.72	.05
343.15	.3006	1079.83	.05
343.15	.3917	1088.36	.05
343.15	.5001	1094.88	.05
343.15	.5834	1098.33	.05
343.15	.6969	1101.67	.05
343.15	.7942	1103.88	.05
343.15	.9047	1105.79	.05
343.15	.9493	1106.66	.05
343.15	1	1107.39	.05

System: N-formylmorpholine + water; phases: Liquid
Fixed: Pressure, kPa = 101
Property: Viscosity, Pa*s (Liquid); method: Capillary tube (Ostwald; Ubbelohde) method
Temperature, K	Mole fraction of N-formylmorpholine	Viscosity, Pa*s	uncertainty
298.15	0	.00089	.0000089
298.15	.0499	.00145	.0000145
298.15	.1007	.00222	.0000222
298.15	.1976	.00382	.0000382
298.15	.3006	.00505	.0000505
298.15	.3917	.00595	.0000595
298.15	.5001	.00653	.0000653
298.15	.5834	.00681	.0000681
298.15	.6969	.00725	.0000725
298.15	.7942	.00727	.0000727
298.15	.9047	.00753	.0000753
298.15	.9493	.0077	.000077
298.15	1	.00787	.0000787
303.15	0	.0007976	.000007976
303.15	.0499	.00129	.0000129
303.15	.1007	.00185	.0000185
303.15	.1976	.00333	.0000333
303.15	.3006	.00431	.0000431
303.15	.3917	.00504	.0000504
303.15	.5001	.00554	.0000554
303.15	.5834	.00579	.0000579
303.15	.6969	.00602	.0000602
303.15	.7942	.00621	.0000621
303.15	.9047	.00646	.0000646
303.15	.9493	.00662	.0000662
303.15	1	.00675	.0000675
313.15	0	.0006531	.000006531
313.15	.0499	.001038	.00001038
313.15	.1007	.00152	.0000152
313.15	.1976	.00244	.0000244
313.15	.3006	.00323	.0000323
313.15	.3917	.00377	.0000377
313.15	.5001	.00419	.0000419
313.15	.5834	.00433	.0000433
313.15	.6969	.00455	.0000455
313.15	.7942	.0047	.000047
313.15	.9047	.0049	.000049
313.15	.9493	.00503	.0000503
313.15	1	.00513	.0000513
323.15	0	.000547	.00000547
323.15	.0499	.000854	.00000854
323.15	.1007	.00123	.0000123
323.15	.1976	.00195	.0000195
323.15	.3006	.0025	.000025
323.15	.3917	.00288	.0000288
323.15	.5001	.00321	.0000321
323.15	.5834	.00335	.0000335
323.15	.6969	.00353	.0000353
323.15	.7942	.00367	.0000367
323.15	.9047	.00386	.0000386
323.15	.9493	.00401	.0000401
323.15	1	.00403	.0000403
333.15	0	.000466	.00000466
333.15	.0499	.000715	.00000715
333.15	.1007	.001018	.00001018
333.15	.1976	.00157	.0000157
333.15	.3006	.0021	.000021
333.15	.3917	.00241	.0000241
333.15	.5001	.00265	.0000265
333.15	.5834	.00273	.0000273
333.15	.6969	.00284	.0000284
333.15	.7942	.00296	.0000296
333.15	.9047	.0032	.000032
333.15	.9493	.00321	.0000321
333.15	1	.00325	.0000325
343.15	0	.0004049	.000004049
343.15	.0499	.00067	.0000067
343.15	.1007	.000857	.00000857
343.15	.1976	.00127	.0000127
343.15	.3006	.0018	.000018
343.15	.3917	.00205	.0000205
343.15	.5001	.00226	.0000226
343.15	.5834	.00233	.0000233
343.15	.6969	.00237	.0000237
343.15	.7942	.00252	.0000252
343.15	.9047	.00267	.0000267
343.15	.9493	.00267	.0000267
343.15	1	.00268	.0000268
