Measured thermophysical data. (Liquid + Liquid) Equilibria of Oxygenate Fuel Additives with Water: (Water + Diisopropyl Ether + 2,2,4-Trimethylpentane + Ethanol) and (Water + Diisopropyl Ether + 2,2,4-Trimethylpentane +
			2-Propanol)
Source: J. Chem. Eng. Data, 2006, 10.1021/je050541+
Compound 1: 2,2,4-trimethylpentane, C8H18, purity 99%
Compound 2: 2-propanol, C3H8O, purity 99.7%
Compound 3: water, H2O

System: 2-propanol + 2,2,4-trimethylpentane + water; phases: Liquid mixture 1, Liquid mixture 2
Fixed: Temperature, K = 298.15
Fixed: Pressure, kPa = 101
Property: Mole fraction of water (Liquid mixture 1); method: Chromatography
Property: Mole fraction of 2-propanol (Liquid mixture 2); method: Chromatography
Property: Mole fraction of water (Liquid mixture 2); method: Chromatography
Mole fraction of 2-propanol	Mole fraction of water	uncertainty	Mole fraction of 2-propanol	uncertainty	Mole fraction of water	uncertainty
.0023	.0049	.001	.0153	.001	.9847	.001
.0077	.0049	.001	.0326	.001	.9674	.001
.0202	.0086	.001	.0518	.001	.9482	.001
.0383	.0073	.001	.0664	.001	.9336	.001
.0605	.0101	.001	.0795	.001	.9205	.001
.0805	.014	.001	.0937	.001	.9063	.001
.101	.0219	.001	.1084	.001	.8916	.001
.1067	.0287	.001	.1206	.001	.8794	.001
.1294	.0495	.001	.1391	.001	.8609	.001
.1433	.0479	.001	.1519	.001	.8481	.001
.153	.0497	.001	.1617	.001	.8383	.001
