Measured thermophysical data. Excess Molar Enthalpies of the Binary Carbon Dioxide + Dimethyl Carbonate System at Temperatures of (298.15 to 308.15) K and Pressures of (5.0 to 7.5) MPa
Source: J. Chem. Eng. Data, 2005, 10.1021/je050089u
Compound 1: dimethyl carbonate, C3H6O3
Compound 2: carbon dioxide, CO2

System: carbon dioxide + dimethyl carbonate; phases: Fluid (supercritical or subcritical phases)
Property: Excess molar enthalpy (molar enthalpy of mixing), kJ/mol (Fluid (supercritical or subcritical phases)); method: Flow calorimetry
Temperature, K	Pressure, kPa	Mole fraction of carbon dioxide	Excess molar enthalpy (molar enthalpy of mixing), kJ/mol	uncertainty
298.15	5000	.0793	-.865	.008
298.15	5000	.1538	-1.787	.008
298.15	5000	.224	-2.659	.008
298.15	5000	.2902	-3.48	.008
298.15	5000	.3528	-4.257	.008
298.15	5000	.4121	-4.806	.008
298.15	5000	.4683	-5.56	.008
298.15	5000	.5216	-6.179	.008
298.15	5000	.5723	-6.663	.008
298.15	5000	.6206	-7.173	.008
298.15	5000	.6666	-7.625	.008
298.15	5000	.7104	-8.014	.008
298.15	5000	.7523	-8.345	.008
298.15	5000	.7924	-8.669	.008
298.15	5000	.8307	-8.924	.008
298.15	5000	.8382	-8.756	.008
298.15	5000	.8674	-7.087	.008
298.15	5000	.9026	-5.29	.008
298.15	5000	.9364	-3.285	.008
298.15	5000	.9688	-1.605	.008
298.15	5000	.9969	.064	.008
298.15	5500	.1548	-1.675	.008
298.15	5500	.2253	-2.584	.008
298.15	5500	.2918	-3.321	.008
298.15	5500	.3546	-4.045	.008
298.15	5500	.4139	-4.706	.008
298.15	5500	.4702	-5.301	.008
298.15	5500	.5235	-5.874	.008
298.15	5500	.5742	-6.378	.008
298.15	5500	.6223	-6.757	.008
298.15	5500	.6682	-7.244	.008
298.15	5500	.712	-7.618	.008
298.15	5500	.7537	-7.993	.008
298.15	5500	.7936	-8.288	.008
298.15	5500	.8318	-8.453	.008
298.15	5500	.8683	-8.521	.008
298.15	5500	.9033	-8.502	.008
298.15	5500	.9368	-6.314	.008
298.15	5500	.9691	-3.208	.008
298.15	6000	.1557	-1.626	.008
298.15	6000	.2265	-2.335	.008
298.15	6000	.2932	-3.334	.008
298.15	6000	.3561	-3.788	.008
298.15	6000	.4156	-4.343	.008
298.15	6000	.4718	-4.974	.008
298.15	6000	.5252	-5.395	.008
298.15	6000	.5758	-5.869	.008
298.15	6000	.6239	-6.342	.008
298.15	6000	.6697	-6.759	.008
298.15	6000	.7134	-7.051	.008
298.15	6000	.755	-7.255	.008
298.15	6000	.7947	-7.515	.008
298.15	6000	.8327	-7.755	.008
298.15	6000	.8691	-7.833	.008
298.15	6000	.9039	-7.913	.008
298.15	6000	.9502	-7.801	.008
298.15	6000	.9693	-7.458	.008
298.15	6000	.9817	-3.615	.008
303.15	5000	.0793	-.992	.008
303.15	5000	.1538	-1.865	.008
303.15	5000	.224	-2.683	.008
303.15	5000	.2902	-3.485	.008
303.15	5000	.3528	-4.229	.008
303.15	5000	.4121	-4.975	.008
303.15	5000	.4683	-5.574	.008
303.15	5000	.5216	-6.199	.008
303.15	5000	.5723	-6.715	.008
303.15	5000	.6206	-7.161	.008
303.15	5000	.6666	-7.663	.008
303.15	5000	.7104	-8.075	.008
303.15	5000	.7523	-8.394	.008
303.15	5000	.7686	-8.518	.008
303.15	5000	.7766	-8.53	.008
303.15	5000	.8307	-6.211	.008
303.15	5000	.8674	-4.826	.008
303.15	5000	.9026	-3.82	.008
303.15	5000	.9364	-2.391	.008
303.15	5000	.9688	-1.063	.008
303.15	5500	.0798	-.896	.008
303.15	5500	.1548	-1.834	.008
303.15	5500	.2253	-2.591	.008
303.15	5500	.2918	-3.339	.008
303.15	5500	.3546	-4.139	.008
303.15	5500	.4139	-4.821	.008
303.15	5500	.4702	-5.437	.008
303.15	5500	.5235	-5.913	.008
303.15	5500	.5742	-6.431	.008
303.15	5500	.6223	-6.87	.008
303.15	5500	.6682	-7.338	.008
303.15	5500	.712	-7.732	.008
303.15	5500	.7537	-8.042	.008
303.15	5500	.7936	-8.269	.008
303.15	5500	.8318	-8.461	.008
303.15	5500	.8392	-8.422	.008
303.15	5500	.8466	-7.9	.008
303.15	5500	.8683	-6.765	.008
303.15	5500	.9033	-4.92	.008
303.15	5500	.9368	-3.067	.008
303.15	5500	.9691	-1.383	.008
303.15	6000	.0803	-.846	.008
303.15	6000	.1557	-1.717	.008
303.15	6000	.2265	-2.512	.008
303.15	6000	.2932	-3.262	.008
303.15	6000	.3561	-3.861	.008
303.15	6000	.4156	-4.615	.008
303.15	6000	.4718	-5.147	.008
303.15	6000	.5252	-5.706	.008
303.15	6000	.5758	-6.164	.008
303.15	6000	.6239	-6.608	.008
303.15	6000	.6697	-6.973	.008
303.15	6000	.7134	-7.37	.008
303.15	6000	.755	-7.622	.008
303.15	6000	.7947	-7.934	.008
303.15	6000	.8327	-8.087	.008
303.15	6000	.8691	-8.19	.008
303.15	6000	.8901	-8.171	.008
303.15	6000	.897	-8.108	.008
303.15	6000	.9039	-7.633	.008
303.15	6000	.9372	-4.94	.008
303.15	6000	.9693	-2.289	.008
308.15	5000	.1537	-1.967	.008
308.15	5000	.2239	-2.761	.008
308.15	5000	.2901	-3.576	.008
308.15	5000	.412	-5.003	.008
308.15	5000	.4682	-5.674	.008
308.15	5000	.5215	-6.236	.008
308.15	5000	.6205	-7.259	.008
308.15	5000	.7103	-8.064	.008
308.15	5000	.7189	-8.095	.008
308.15	5000	.7273	-7.874	.008
308.15	5000	.7923	-5.842	.008
308.15	5000	.8674	-3.575	.008
308.15	5000	.9364	-1.634	.008
308.15	5000	.9877	-.022	.008
308.15	5000	.9939	.112	.008
308.15	5500	.1547	-1.843	.008
308.15	5500	.2917	-3.497	.008
308.15	5500	.3544	-4.281	.008
308.15	5500	.4138	-4.856	.008
308.15	5500	.47	-5.497	.008
308.15	5500	.5234	-6.06	.008
308.15	5500	.574	-6.563	.008
308.15	5500	.6222	-7.061	.008
308.15	5500	.6681	-7.438	.008
308.15	5500	.7119	-7.909	.008
308.15	5500	.7536	-8.107	.008
308.15	5500	.7698	-8.208	.008
308.15	5500	.7935	-7.473	.008
308.15	5500	.8317	-6.094	.008
308.15	5500	.8682	-4.675	.008
308.15	5500	.9368	-2.083	.008
308.15	6000	.1556	-1.782	.008
308.15	6000	.2931	-3.307	.008
308.15	6000	.4154	-4.696	.008
308.15	6000	.4717	-5.228	.008
308.15	6000	.5757	-6.267	.008
308.15	6000	.6238	-6.714	.008
308.15	6000	.7132	-7.404	.008
308.15	6000	.7549	-7.713	.008
308.15	6000	.7946	-7.982	.008
308.15	6000	.8326	-8.094	.008
308.15	6000	.869	-6.291	.008
308.15	6000	.9372	-2.992	.008
308.15	6000	.9692	-1.153	.008
308.15	6500	.0807	-.916	.008
308.15	6500	.1564	-1.691	.008
308.15	6500	.2275	-2.435	.008
308.15	6500	.2944	-3.142	.008
308.15	7000	.0812	-.87	.008
308.15	7000	.1572	-1.626	.008
308.15	7000	.2285	-2.304	.008
308.15	7000	.2956	-3.02	.008
308.15	7500	.0816	-.744	.008
308.15	7500	.1579	-1.415	.008
308.15	7500	.2294	-2.087	.008
308.15	7500	.2967	-2.648	.008
308.15	6500	.3574	-3.884	.008
308.15	6500	.4169	-4.398	.008
308.15	6500	.4733	-5.011	.008
308.15	6500	.5266	-5.463	.008
308.15	7000	.3587	-3.592	.008
308.15	7000	.4184	-4.19	.008
308.15	7000	.4747	-4.626	.008
308.15	7000	.528	-5.143	.008
308.15	7500	.36	-3.227	.008
308.15	7500	.4197	-3.702	.008
308.15	7500	.476	-4.167	.008
308.15	7500	.5294	-4.554	.008
308.15	6500	.5772	-5.907	.008
308.15	6500	.6253	-6.339	.008
308.15	6500	.671	-6.744	.008
308.15	7000	.5786	-5.515	.008
308.15	7000	.6266	-5.933	.008
308.15	7000	.6723	-6.252	.008
308.15	7000	.7157	-6.527	.008
308.15	7500	.5799	-4.905	.008
308.15	7500	.6279	-5.205	.008
308.15	7500	.6734	-5.509	.008
308.15	6500	.7145	-7.004	.008
308.15	6500	.756	-7.329	.008
308.15	6500	.7956	-7.544	.008
308.15	7000	.7571	-6.76	.008
308.15	7000	.7966	-6.911	.008
308.15	7000	.8343	-7.053	.008
308.15	7500	.7168	-5.744	.008
308.15	7500	.7581	-5.943	.008
308.15	7500	.7974	-6.011	.008
308.15	6500	.8335	-7.647	.008
308.15	6500	.8697	-7.73	.008
308.15	6500	.8837	-7.711	.008
308.15	7000	.8703	-7.136	.008
308.15	7000	.9049	-7.049	.008
308.15	7000	.9249	-6.953	.008
308.15	7500	.835	-6.117	.008
308.15	7500	.871	-6.161	.008
308.15	7500	.9053	-6.174	.008
308.15	6500	.9044	-6.718	.008
308.15	6500	.9376	-4.285	.008
308.15	6500	.9694	-1.967	.008
308.15	7000	.9443	-5.649	.008
308.15	7000	.9507	-5.19	.008
308.15	7000	.9697	-3.208	.008
308.15	7500	.9382	-5.938	.008
308.15	7500	.9698	-5.205	.008
308.15	7500	.9759	-4.288	.008
