Measured thermophysical data. Ternary Liquid-Liquid Equilibria for Systems of (Sulfolane + Toluene or Chloronaphthalene + Octane)
Source: J. Chem. Eng. Data, 2006, 10.1021/je0601210
Compound 1: sulfolane, C4H8O2S
Compound 2: toluene, C7H8
Compound 3: chloronaphthalene, C10H7Cl
Compound 4: octane, C8H18

System: toluene + octane + sulfolane; phases: Liquid mixture 1, Liquid mixture 2
Fixed: Pressure, kPa = 101
Property: Mass fraction of toluene (Liquid mixture 1); method: Chromatography
Property: Mass fraction of sulfolane (Liquid mixture 2); method: Chromatography
Property: Mass fraction of toluene (Liquid mixture 2); method: Chromatography
Temperature, K	Mass fraction of sulfolane	Mass fraction of toluene	uncertainty	Mass fraction of sulfolane	uncertainty	Mass fraction of toluene	uncertainty
303.15	.283	.565	.005	.413	.005	.497	.005
303.15	.045	.593	.005	.673	.005	.298	.005
303.15	.025	.504	.005	.76	.005	.22	.005
303.15	.011	.422	.005	.81	.005	.174	.005
313.15	.275	.567	.005	.435	.005	.475	.005
313.15	.075	.576	.005	.667	.005	.304	.005
313.15	.033	.494	.005	.733	.005	.241	.005
313.15	.02	.425	.005	.804	.005	.177	.005

System: octane + sulfolane + chloronaphthalene; phases: Liquid mixture 1, Liquid mixture 2
Fixed: Pressure, kPa = 101
Property: Mass fraction of sulfolane (Liquid mixture 1); method: Chromatography
Property: Mass fraction of chloronaphthalene (Liquid mixture 2); method: Chromatography
Property: Mass fraction of sulfolane (Liquid mixture 2); method: Chromatography
Temperature, K	Mass fraction of chloronaphthalene	Mass fraction of sulfolane	uncertainty	Mass fraction of chloronaphthalene	uncertainty	Mass fraction of sulfolane	uncertainty
298.15	.516	.054	.005	.504	.005	.419	.005
298.15	.462	.044	.005	.483	.005	.452	.005
298.15	.431	.024	.005	.427	.005	.523	.005
298.15	.392	.023	.005	.385	.005	.575	.005
303.15	.516	.065	.005	.502	.005	.412	.005
303.15	.463	.059	.005	.478	.005	.442	.005
303.15	.407	.028	.005	.44	.005	.501	.005
303.15	.386	.02	.005	.398	.005	.552	.005
