Measured thermophysical data. Density and Viscosity of Aqueous Solutions of 2-Piperidineethanol, (2-Piperidineethanol + Monoethanolamine), and (2-Piperidineethanol + Diethanolamine) from (288 to
			333) K
Source: J. Chem. Eng. Data, 2006, 10.1021/je060108f
Compound 1: 2-piperidineethanol, C7H15NO
Compound 2: 2-aminoethanol, C2H7NO
Compound 3: diethanolamine, C4H11NO2
Compound 4: water, H2O
Compound 5: N-methyldiethanolamine, C5H13NO2

System: N-methyldiethanolamine; phases: Liquid
Property: Mass density, kg/m3 (Liquid); method: Pycnometric method
Temperature, K	Pressure, kPa	Mass density, kg/m3	uncertainty
288	101	1044.1	.62646
313	101	1027.2	.61632
333	101	1012.6	.60756

System: N-methyldiethanolamine; phases: Liquid
Property: Viscosity, Pa*s (Liquid); method: Capillary tube (Ostwald; Ubbelohde) method
Temperature, K	Pressure, kPa	Viscosity, Pa*s	uncertainty
288	101	.14202	.000979938
313	101	.03473	.000239637
333	101	.01466	.000101154

System: N-methyldiethanolamine + water; phases: Liquid
Fixed: Pressure, kPa = 101
Property: Mass density, kg/m3 (Liquid); method: Pycnometric method
Temperature, K	Mass fraction of N-methyldiethanolamine	Mass density, kg/m3	uncertainty
288	1	1044.1	.62646
313	1	1027.2	.61632
333	1	1012.6	.60756
288	.1	1007.9	.60474
313	.1	1000.4	.60024
333	.1	990.2	.59412
288	.2	1016.7	.61002
313	.2	1008.6	.60516
333	.2	999.5	.5997
288	.3	1030.7	.61842
313	.3	1019.3	.61158
333	.3	1007.1	.60426

System: N-methyldiethanolamine + water; phases: Liquid
Fixed: Pressure, kPa = 101
Property: Viscosity, Pa*s (Liquid); method: Capillary tube (Ostwald; Ubbelohde) method
Temperature, K	Mass fraction of N-methyldiethanolamine	Viscosity, Pa*s	uncertainty
288	1	.14202	.000979938
313	1	.03473	.000239637
333	1	.01466	.000101154
288	.1	.001703	.0000117507
313	.1	.000899	.0000062031
333	.1	.00063	.000004347
288	.2	.002624	.0000181056
313	.2	.001305	.0000090045
333	.2	.00086	.000005934
288	.3	.004399	.0000303531
313	.3	.001929	.0000133101
333	.3	.001218	.0000084042

System: 2-piperidineethanol + water; phases: Liquid
Fixed: Pressure, kPa = 101
Property: Mass density, kg/m3 (Liquid); method: Pycnometric method
Temperature, K	Mass fraction of 2-piperidineethanol	Mass density, kg/m3	uncertainty
288	.05	1001.8	.60108
293	.05	1000.1	.60006
298	.05	998.9	.59934
303	.05	997.6	.59856
308	.05	996	.5976
313	.05	994.3	.59658
318	.05	992.4	.59544
323	.05	990.3	.59418
328	.05	987.7	.59262
333	.05	983.5	.5901
288	.1	1004.7	.60282
293	.1	1002.3	.60138
298	.1	1001.6	.60096
303	.1	999.6	.59976
308	.1	997.4	.59844
313	.1	996.5	.5979
318	.1	994.2	.59652
323	.1	991.7	.59502
328	.1	988.7	.59322
333	.1	985.9	.59154
288	.15	1005	.603
293	.15	1003.2	.60192
298	.15	1002.4	.60144
303	.15	1001.4	.60084
308	.15	998.9	.59934
313	.15	997.9	.59874
318	.15	995.5	.5973
323	.15	993.5	.5961
328	.15	990.6	.59436
333	.15	987.9	.59274
288	.2	1011.1	.60666
293	.2	1008.3	.60498
298	.2	1005.9	.60354
303	.2	1003.7	.60222
308	.2	1001.7	.60102
313	.2	999.3	.59958
318	.2	996.7	.59802
323	.2	994.7	.59682
328	.2	991.9	.59514
333	.2	988.7	.59322
288	.25	1014.5	.6087
293	.25	1012.5	.6075
298	.25	1010.1	.60606
303	.25	1007.5	.6045
308	.25	1003.1	.60186
313	.25	999.9	.59994
318	.25	998.8	.59928
323	.25	996.1	.59766
328	.25	993	.5958
333	.25	990.3	.59418
288	.3	1017.3	.61038
293	.3	1014.9	.60894
298	.3	1012.7	.60762
303	.3	1009.6	.60576
308	.3	1006.4	.60384
313	.3	1001.8	.60108
318	.3	1000.2	.60012
323	.3	997.3	.59838
328	.3	994.3	.59658
333	.3	991.3	.59478

System: 2-piperidineethanol + water; phases: Liquid
Fixed: Pressure, kPa = 101
Property: Viscosity, Pa*s (Liquid); method: Capillary tube (Ostwald; Ubbelohde) method
Temperature, K	Mass fraction of 2-piperidineethanol	Viscosity, Pa*s	uncertainty
288	.05	.001364	.0000094116
293	.05	.001298	.0000089562
298	.05	.001116	.0000077004
303	.05	.001064	.0000073416
308	.05	.000959	.0000066171
313	.05	.000828	.0000057132
318	.05	.000776	.0000053544
323	.05	.000684	.0000047196
328	.05	.000651	.0000044919
333	.05	.000585	.0000040365
288	.1	.001775	.0000122475
293	.1	.001655	.0000114195
298	.1	.001423	.0000098187
303	.1	.001316	.0000090804
308	.1	.001216	.0000083904
313	.1	.001015	.0000070035
318	.1	.000965	.0000066585
323	.1	.000828	.0000057132
328	.1	.000778	.0000053682
333	.1	.000695	.0000047955
288	.15	.002313	.0000159597
293	.15	.002097	.0000144693
298	.15	.001762	.0000121578
303	.15	.001599	.0000110331
308	.15	.001489	.0000102741
313	.15	.001253	.0000086457
318	.15	.001156	.0000079764
323	.15	.000995	.0000068655
328	.15	.000975	.0000067275
333	.15	.000837	.0000057753
288	.2	.002935	.0000202515
293	.2	.002696	.0000186024
298	.2	.002289	.0000157941
303	.2	.002037	.0000140553
308	.2	.001869	.0000128961
313	.2	.001511	.0000104259
318	.2	.001429	.0000098601
323	.2	.001193	.0000082317
328	.2	.001173	.0000080937
333	.2	.001013	.0000069897
288	.25	.003921	.0000270549
293	.25	.003506	.0000241914
298	.25	.002968	.0000204792
303	.25	.002603	.0000179607
308	.25	.002382	.0000164358
313	.25	.001938	.0000133722
318	.25	.001795	.0000123855
323	.25	.001523	.0000105087
328	.25	.00139	.000009591
333	.25	.001229	.0000084801
288	.3	.005218	.0000360042
293	.3	.004697	.0000324093
298	.3	.003858	.0000266202
303	.3	.003429	.0000236601
308	.3	.003069	.0000211761
313	.3	.002468	.0000170292
318	.3	.002229	.0000153801
323	.3	.001891	.0000130479
328	.3	.001769	.0000122061
333	.3	.001536	.0000105984

System: 2-aminoethanol + 2-piperidineethanol + water; phases: Liquid
Fixed: Pressure, kPa = 101
Property: Mass density, kg/m3 (Liquid); method: Pycnometric method
Temperature, K	Mass fraction of 2-piperidineethanol	Mass fraction of 2-aminoethanol	Mass density, kg/m3	uncertainty
288	.03	.27	1016.3	.60978
293	.03	.27	1013.9	.60834
298	.03	.27	1010.8	.60648
303	.03	.27	1008.7	.60522
308	.03	.27	1006.1	.60366
313	.03	.27	1003.5	.6021
318	.03	.27	1001	.6006
323	.03	.27	998.1	.59886
328	.03	.27	995.2	.59712
333	.03	.27	992.4	.59544
288	.06	.24	1015.9	.60954
293	.06	.24	1013.6	.60816
298	.06	.24	1010.3	.60618
303	.06	.24	1008.4	.60504
308	.06	.24	1005.9	.60354
313	.06	.24	1003.3	.60198
318	.06	.24	1000.7	.60042
323	.06	.24	997.8	.59868
328	.06	.24	994.9	.59694
333	.06	.24	992	.5952
288	.09	.21	1015.7	.60942
293	.09	.21	1013.3	.60798
298	.09	.21	1010	.606
303	.09	.21	1008	.6048
308	.09	.21	1005.6	.60336
313	.09	.21	1003.1	.60186
318	.09	.21	1000.4	.60024
323	.09	.21	997.3	.59838
328	.09	.21	994.7	.59682
333	.09	.21	991.8	.59508
288	.12	.18	1015.5	.6093
293	.12	.18	1013	.6078
298	.12	.18	1009.8	.60588
303	.12	.18	1007.9	.60474
308	.12	.18	1005.1	.60306
313	.12	.18	1003	.6018
318	.12	.18	1000.2	.60012
323	.12	.18	997	.5982
328	.12	.18	994.5	.5967
333	.12	.18	991.6	.59496
288	.15	.15	1015.2	.60912
293	.15	.15	1012.8	.60768
298	.15	.15	1009.6	.60576
303	.15	.15	1007.8	.60468
308	.15	.15	1004.9	.60294
313	.15	.15	1002.8	.60168
318	.15	.15	1000	.6
323	.15	.15	996.7	.59802
328	.15	.15	994.2	.59652
333	.15	.15	991.3	.59478
288	.18	.12	1015.1	.60906
293	.18	.12	1012.6	.60756
298	.18	.12	1009.2	.60552
303	.18	.12	1007.6	.60456
308	.18	.12	1004.7	.60282
313	.18	.12	1002.5	.6015
318	.18	.12	999.6	.59976
323	.18	.12	996.5	.5979
328	.18	.12	993.7	.59622
333	.18	.12	990.7	.59442
288	.21	.09	1014.9	.60894
293	.21	.09	1012.3	.60738
298	.21	.09	1008.9	.60534
303	.21	.09	1007.4	.60444
308	.21	.09	1004.5	.6027
313	.21	.09	1002.2	.60132
318	.21	.09	999.4	.59964
323	.21	.09	996.2	.59772
328	.21	.09	993.4	.59604
333	.21	.09	990.1	.59406
288	.24	.06	1014.7	.60882
293	.24	.06	1012	.6072
298	.24	.06	1008.5	.6051
303	.24	.06	1007.2	.60432
308	.24	.06	1004.3	.60258
313	.24	.06	1001.9	.60114
318	.24	.06	998.7	.59922
323	.24	.06	995.8	.59748
328	.24	.06	993.1	.59586
333	.24	.06	989.5	.5937
288	.27	.03	1014.4	.60864
293	.27	.03	1010	.606
298	.27	.03	1008.1	.60486
303	.27	.03	1006.7	.60402
308	.27	.03	1004.1	.60246
313	.27	.03	1001.4	.60084
318	.27	.03	998.5	.5991
323	.27	.03	995.5	.5973
328	.27	.03	992.6	.59556
333	.27	.03	989.3	.59358

System: 2-aminoethanol + 2-piperidineethanol + water; phases: Liquid
Fixed: Pressure, kPa = 101
Property: Viscosity, Pa*s (Liquid); method: Capillary tube (Ostwald; Ubbelohde) method
Temperature, K	Mass fraction of 2-piperidineethanol	Mass fraction of 2-aminoethanol	Viscosity, Pa*s	uncertainty
288	.03	.27	.003566	.0000246054
293	.03	.27	.003074	.0000212106
298	.03	.27	.002608	.0000179952
303	.03	.27	.002184	.0000150696
308	.03	.27	.001893	.0000130617
313	.03	.27	.001631	.0000112539
318	.03	.27	.001514	.0000104466
323	.03	.27	.001304	.0000089976
328	.03	.27	.001169	.0000080661
333	.03	.27	.001052	.0000072588
288	.06	.24	.003686	.0000254334
293	.06	.24	.003102	.0000214038
298	.06	.24	.00261	.000018009
303	.06	.24	.002252	.0000155388
308	.06	.24	.001926	.0000132894
313	.06	.24	.001676	.0000115644
318	.06	.24	.001537	.0000106053
323	.06	.24	.001315	.0000090735
328	.06	.24	.001174	.0000081006
333	.06	.24	.001067	.0000073623
288	.09	.21	.003749	.0000258681
293	.09	.21	.003185	.0000219765
298	.09	.21	.002716	.0000187404
303	.09	.21	.002326	.0000160494
308	.09	.21	.00194	.000013386
313	.09	.21	.001739	.0000119991
318	.09	.21	.001559	.0000107571
323	.09	.21	.001329	.0000091701
328	.09	.21	.001186	.0000081834
333	.09	.21	.001089	.0000075141
288	.12	.18	.004045	.0000279105
293	.12	.18	.003319	.0000229011
298	.12	.18	.002744	.0000189336
303	.12	.18	.002404	.0000165876
308	.12	.18	.001982	.0000136758
313	.12	.18	.001791	.0000123579
318	.12	.18	.00157	.000010833
323	.12	.18	.001359	.0000093771
328	.12	.18	.001204	.0000083076
333	.12	.18	.001104	.0000076176
288	.15	.15	.004129	.0000284901
293	.15	.15	.003385	.0000233565
298	.15	.15	.002853	.0000196857
303	.15	.15	.002479	.0000171051
308	.15	.15	.002108	.0000145452
313	.15	.15	.001836	.0000126684
318	.15	.15	.001605	.0000110745
323	.15	.15	.001409	.0000097221
328	.15	.15	.001239	.0000085491
333	.15	.15	.00111	.000007659
288	.18	.12	.004165	.0000287385
293	.18	.12	.003574	.0000246606
298	.18	.12	.002967	.0000204723
303	.18	.12	.002557	.0000176433
308	.18	.12	.002215	.0000152835
313	.18	.12	.001895	.0000130755
318	.18	.12	.001642	.0000113298
323	.18	.12	.001436	.0000099084
328	.18	.12	.001282	.0000088458
333	.18	.12	.001152	.0000079488
288	.21	.09	.004182	.0000288558
293	.21	.09	.003583	.0000247227
298	.21	.09	.003031	.0000209139
303	.21	.09	.002645	.0000182505
308	.21	.09	.002288	.0000157872
313	.21	.09	.001958	.0000135102
318	.21	.09	.00171	.000011799
323	.21	.09	.001493	.0000103017
328	.21	.09	.001335	.0000092115
333	.21	.09	.001188	.0000081972
288	.24	.06	.004539	.0000313191
293	.24	.06	.003851	.0000265719
298	.24	.06	.003193	.0000220317
303	.24	.06	.00275	.000018975
308	.24	.06	.002395	.0000165255
313	.24	.06	.002017	.0000139173
318	.24	.06	.001819	.0000125511
323	.24	.06	.001544	.0000106536
328	.24	.06	.001395	.0000096255
333	.24	.06	.001246	.0000085974
288	.27	.03	.004671	.0000322299
293	.27	.03	.003876	.0000267444
298	.27	.03	.003201	.0000220869
303	.27	.03	.002851	.0000196719
308	.27	.03	.002477	.0000170913
313	.27	.03	.00217	.000014973
318	.27	.03	.001945	.0000134205
323	.27	.03	.001645	.0000113505
328	.27	.03	.001473	.0000101637
333	.27	.03	.001317	.0000090873

System: diethanolamine + 2-piperidineethanol + water; phases: Liquid
Fixed: Pressure, kPa = 101
Property: Mass density, kg/m3 (Liquid); method: Pycnometric method
Temperature, K	Mass fraction of 2-piperidineethanol	Mass fraction of diethanolamine	Mass density, kg/m3	uncertainty
288	.03	.27	1030.7	.61842
293	.03	.27	1028.7	.61722
298	.03	.27	1026.7	.61602
303	.03	.27	1024.5	.6147
308	.03	.27	1022.6	.61356
313	.03	.27	1020.5	.6123
318	.03	.27	1018	.6108
323	.03	.27	1015.3	.60918
328	.03	.27	1012.9	.60774
333	.03	.27	1009	.6054
288	.06	.24	1029.3	.61758
293	.06	.24	1027.2	.61632
298	.06	.24	1025.4	.61524
303	.06	.24	1023.4	.61404
308	.06	.24	1021.3	.61278
313	.06	.24	1018.8	.61128
318	.06	.24	1016.7	.61002
323	.06	.24	1013.8	.60828
328	.06	.24	1011.3	.60678
333	.06	.24	1008.1	.60486
288	.09	.21	1027.4	.61644
293	.09	.21	1025.1	.61506
298	.09	.21	1023.2	.61392
303	.09	.21	1021	.6126
308	.09	.21	1019.1	.61146
313	.09	.21	1016.7	.61002
318	.09	.21	1014	.6084
323	.09	.21	1011.5	.6069
328	.09	.21	1008.7	.60522
333	.09	.21	1005.6	.60336
288	.12	.18	1025.8	.61548
293	.12	.18	1023.8	.61428
298	.12	.18	1021.6	.61296
303	.12	.18	1019.3	.61158
308	.12	.18	1017.4	.61044
313	.12	.18	1015	.609
318	.12	.18	1012.1	.60726
323	.12	.18	1009.5	.6057
328	.12	.18	1006.7	.60402
333	.12	.18	1003.2	.60192
288	.15	.15	1023.8	.61428
293	.15	.15	1021.6	.61296
298	.15	.15	1019.7	.61182
303	.15	.15	1017.3	.61038
308	.15	.15	1015.1	.60906
313	.15	.15	1012.7	.60762
318	.15	.15	1009.9	.60594
323	.15	.15	1007.2	.60432
328	.15	.15	1004.1	.60246
333	.15	.15	1001.3	.60078
288	.18	.12	1022.5	.6135
293	.18	.12	1019.7	.61182
298	.18	.12	1017.7	.61062
303	.18	.12	1015.5	.6093
308	.18	.12	1012.9	.60774
313	.18	.12	1010.2	.60612
318	.18	.12	1007.8	.60468
323	.18	.12	1005.1	.60306
328	.18	.12	1002.2	.60132
333	.18	.12	999	.5994
288	.21	.09	1020.1	.61206
293	.21	.09	1017.9	.61074
298	.21	.09	1015.3	.60918
303	.21	.09	1013.3	.60798
308	.21	.09	1010.9	.60654
313	.21	.09	1008	.6048
318	.21	.09	1005.2	.60312
323	.21	.09	1002.5	.6015
328	.21	.09	998.7	.59922
333	.21	.09	996.3	.59778
288	.24	.06	1018	.6108
293	.24	.06	1015.1	.60906
298	.24	.06	1013.4	.60804
303	.24	.06	1010.6	.60636
308	.24	.06	1008.4	.60504
313	.24	.06	1005.9	.60354
318	.24	.06	1002.7	.60162
323	.24	.06	999.9	.59994
328	.24	.06	996.8	.59808
333	.24	.06	993.8	.59628
288	.27	.03	1016.9	.61014
293	.27	.03	1014.2	.60852
298	.27	.03	1011.7	.60702
303	.27	.03	1009	.6054
308	.27	.03	1006.7	.60402
313	.27	.03	1003.6	.60216
318	.27	.03	1000.7	.60042
323	.27	.03	997.8	.59868
328	.27	.03	994.2	.59652
333	.27	.03	991.8	.59508

System: diethanolamine + 2-piperidineethanol + water; phases: Liquid
Fixed: Pressure, kPa = 101
Property: Viscosity, Pa*s (Liquid); method: Capillary tube (Ostwald; Ubbelohde) method
Temperature, K	Mass fraction of 2-piperidineethanol	Mass fraction of diethanolamine	Viscosity, Pa*s	uncertainty
288	.03	.27	.003902	.0000269238
293	.03	.27	.003523	.0000243087
298	.03	.27	.002909	.0000200721
303	.03	.27	.002653	.0000183057
308	.03	.27	.002365	.0000163185
313	.03	.27	.002012	.0000138828
318	.03	.27	.001778	.0000122682
323	.03	.27	.00161	.000011109
328	.03	.27	.00165	.000011385
333	.03	.27	.001518	.0000104742
288	.06	.24	.004003	.0000276207
293	.06	.24	.003552	.0000245088
298	.06	.24	.002928	.0000202032
303	.06	.24	.002673	.0000184437
308	.06	.24	.002409	.0000166221
313	.06	.24	.002073	.0000143037
318	.06	.24	.00179	.000012351
323	.06	.24	.001645	.0000113505
328	.06	.24	.001651	.0000113919
333	.06	.24	.00152	.000010488
288	.09	.21	.004273	.0000294837
293	.09	.21	.003576	.0000246744
298	.09	.21	.002979	.0000205551
303	.09	.21	.002685	.0000185265
308	.09	.21	.002448	.0000168912
313	.09	.21	.002137	.0000147453
318	.09	.21	.001841	.0000127029
323	.09	.21	.001686	.0000116334
328	.09	.21	.001654	.0000114126
333	.09	.21	.001521	.0000104949
288	.12	.18	.004302	.0000296838
293	.12	.18	.003582	.0000247158
298	.12	.18	.00303	.000020907
303	.12	.18	.002703	.0000186507
308	.12	.18	.002455	.0000169395
313	.12	.18	.002146	.0000148074
318	.12	.18	.001876	.0000129444
323	.12	.18	.001701	.0000117369
328	.12	.18	.001656	.0000114264
333	.12	.18	.001528	.0000105432
288	.15	.15	.004473	.0000308637
293	.15	.15	.003607	.0000248883
298	.15	.15	.003059	.0000211071
303	.15	.15	.002715	.0000187335
308	.15	.15	.002467	.0000170223
313	.15	.15	.002167	.0000149523
318	.15	.15	.001919	.0000132411
323	.15	.15	.001715	.0000118335
328	.15	.15	.001661	.0000114609
333	.15	.15	.00153	.000010557
288	.18	.12	.004512	.0000311328
293	.18	.12	.003813	.0000263097
298	.18	.12	.003154	.0000217626
303	.18	.12	.002797	.0000192993
308	.18	.12	.002483	.0000171327
313	.18	.12	.002169	.0000149661
318	.18	.12	.001923	.0000132687
323	.18	.12	.00172	.000011868
328	.18	.12	.001666	.0000114954
333	.18	.12	.001544	.0000106536
288	.21	.09	.004679	.0000322851
293	.21	.09	.003853	.0000265857
298	.21	.09	.003185	.0000219765
303	.21	.09	.002819	.0000194511
308	.21	.09	.002511	.0000173259
313	.21	.09	.002174	.0000150006
318	.21	.09	.001926	.0000132894
323	.21	.09	.001734	.0000119646
328	.21	.09	.001672	.0000115368
333	.21	.09	.001563	.0000107847
288	.24	.06	.004703	.0000324507
293	.24	.06	.003895	.0000268755
298	.24	.06	.003225	.0000222525
303	.24	.06	.002911	.0000200859
308	.24	.06	.002549	.0000175881
313	.24	.06	.002195	.0000151455
318	.24	.06	.001936	.0000133584
323	.24	.06	.001747	.0000120543
328	.24	.06	.001687	.0000116403
333	.24	.06	.001589	.0000109641
288	.27	.03	.004801	.0000331269
293	.27	.03	.004046	.0000279174
298	.27	.03	.003303	.0000227907
303	.27	.03	.002962	.0000204378
308	.27	.03	.002592	.0000178848
313	.27	.03	.002271	.0000156699
318	.27	.03	.001941	.0000133929
323	.27	.03	.001757	.0000121233
328	.27	.03	.001707	.0000117783
333	.27	.03	.00162	.000011178
