Measured thermophysical data. Physical Properties of Binary Mixtures of the Ionic Liquid 1-Methyl-3-octylimidazolium Chloride with Methanol, Ethanol, and 1-Propanol at T = (298.15, 313.15, and
			328.15) K and at P ) 0.1 MPa
Source: J. Chem. Eng. Data, 2006, 10.1021/je060123k
Compound 1: 1-methyl-3-octylimidazolium chloride, C12H23ClN2
Compound 2: methanol, CH4O, purity 99%
Compound 3: ethanol, C2H6O, purity 99.8%
Compound 4: 1-propanol, C3H8O, purity 99.8%

System: 1-methyl-3-octylimidazolium chloride; phases: Liquid
Property: Mass density, kg/m3 (Liquid); method: Vibrating tube method
Temperature, K	Pressure, kPa	Mass density, kg/m3	uncertainty
298.15	101	1008.82	
313.15	101	1000.2	
328.15	101	991.67	

System: 1-methyl-3-octylimidazolium chloride; phases: Liquid
Property: Speed of sound, m/s (Liquid); method: Sing-around technique in a fixed-path interferometer
Temperature, K	Pressure, kPa	Speed of sound, m/s	uncertainty
298.15	101	1721	
313.15	101	1624	
328.15	101	1560	

System: 1-methyl-3-octylimidazolium chloride; phases: Liquid
Fixed: Pressure, kPa = 101.325
Property: Refractive index (Na D-line) (Liquid); method: Standard Abbe refractometry
Temperature, K	Refractive index (Na D-line)	uncertainty
298.15	1.51051	.00004

System: 1-methyl-3-octylimidazolium chloride; phases: Liquid
Property: Viscosity, Pa*s (Liquid); method: Capillary tube (Ostwald; Ubbelohde) method
Temperature, K	Pressure, kPa	Viscosity, Pa*s	uncertainty
298.15	101	20.868	
313.15	101	4.062	
328.15	101	1.091	

System: methanol; phases: Liquid
Property: Mass density, kg/m3 (Liquid); method: Vibrating tube method
Temperature, K	Pressure, kPa	Mass density, kg/m3	uncertainty
298.15	101	786.64	
313.15	101	772.38	
328.15	101	757.85	

System: methanol; phases: Liquid
Property: Speed of sound, m/s (Liquid); method: Sing-around technique in a fixed-path interferometer
Temperature, K	Pressure, kPa	Speed of sound, m/s	uncertainty
298.15	101	1103	
313.15	101	1054	
328.15	101	1008	

System: methanol; phases: Liquid
Fixed: Pressure, kPa = 101.325
Property: Refractive index (Na D-line) (Liquid); method: Standard Abbe refractometry
Temperature, K	Refractive index (Na D-line)	uncertainty
298.15	1.32687	.00004

System: methanol; phases: Liquid
Property: Viscosity, Pa*s (Liquid); method: Capillary tube (Ostwald; Ubbelohde) method
Temperature, K	Pressure, kPa	Viscosity, Pa*s	uncertainty
298.15	101	.000543	
313.15	101	.000444	
328.15	101	.000369	

System: ethanol; phases: Liquid
Property: Mass density, kg/m3 (Liquid); method: Vibrating tube method
Temperature, K	Pressure, kPa	Mass density, kg/m3	uncertainty
298.15	101	785.11	
313.15	101	772.07	
328.15	101	758.61	

System: ethanol; phases: Liquid
Property: Speed of sound, m/s (Liquid); method: Sing-around technique in a fixed-path interferometer
Temperature, K	Pressure, kPa	Speed of sound, m/s	uncertainty
298.15	101	1143	
313.15	101	1093	
328.15	101	1043	

System: ethanol; phases: Liquid
Fixed: Pressure, kPa = 101.325
Property: Refractive index (Na D-line) (Liquid); method: Standard Abbe refractometry
Temperature, K	Refractive index (Na D-line)	uncertainty
298.15	1.3596	.00004

System: ethanol; phases: Liquid
Property: Viscosity, Pa*s (Liquid); method: Capillary tube (Ostwald; Ubbelohde) method
Temperature, K	Pressure, kPa	Viscosity, Pa*s	uncertainty
298.15	101	.001085	
313.15	101	.000826	
328.15	101	.000641	

System: 1-propanol; phases: Liquid
Property: Mass density, kg/m3 (Liquid); method: Vibrating tube method
Temperature, K	Pressure, kPa	Mass density, kg/m3	uncertainty
298.15	101	799.48	
313.15	101	787.28	
328.15	101	774.64	

System: 1-propanol; phases: Liquid
Property: Speed of sound, m/s (Liquid); method: Sing-around technique in a fixed-path interferometer
Temperature, K	Pressure, kPa	Speed of sound, m/s	uncertainty
298.15	101	1205	
313.15	101	1155	
328.15	101	1105	

System: 1-propanol; phases: Liquid
Fixed: Pressure, kPa = 101.325
Property: Refractive index (Na D-line) (Liquid); method: Standard Abbe refractometry
Temperature, K	Refractive index (Na D-line)	uncertainty
298.15	1.38302	.00004

System: 1-propanol; phases: Liquid
Property: Viscosity, Pa*s (Liquid); method: Capillary tube (Ostwald; Ubbelohde) method
Temperature, K	Pressure, kPa	Viscosity, Pa*s	uncertainty
298.15	101	.001951	
313.15	101	.001383	
328.15	101	.001007	

System: methanol + 1-methyl-3-octylimidazolium chloride; phases: Liquid
Fixed: Pressure, kPa = 101
Property: Mass density, kg/m3 (Liquid); method: Vibrating tube method
Temperature, K	Mole fraction of methanol	Mass density, kg/m3	uncertainty
298.15	0	1008.82	
298.15	.0565	1006.93	
298.15	.1686	1002.42	
298.15	.2638	997.72	
298.15	.3525	992.06	
298.15	.4395	985.37	
298.15	.5589	973.32	
298.15	.7536	939.25	
298.15	.8231	918.05	
298.15	.8713	897.37	
298.15	.8813	892.18	
298.15	.9236	866.28	
298.15	.9436	850.42	
298.15	.9803	813.47	
298.15	1	786.64	
313.15	0	1000.2	
313.15	.0565	998.27	
313.15	.1686	993.68	
313.15	.2638	988.89	
313.15	.3525	983.19	
313.15	.4395	976.46	
313.15	.5589	964.07	
313.15	.7536	929.18	
313.15	.8231	907.5	
313.15	.8713	886.32	
313.15	.8813	881	
313.15	.9236	854.44	
313.15	.9436	838.16	
313.15	.9803	800.13	
313.15	1	772.38	
328.15	0	991.67	
328.15	.0565	989.71	
328.15	.1686	985.04	
328.15	.2638	980.25	
328.15	.3525	974.48	
328.15	.4395	967.51	
328.15	.5589	954.87	
328.15	.7536	919.17	
328.15	.8231	896.97	
328.15	.8713	875.26	
328.15	.8813	869.8	
328.15	.9236	842.52	
328.15	.9436	825.78	
328.15	.9803	786.58	
328.15	1	757.85	

System: methanol + 1-methyl-3-octylimidazolium chloride; phases: Liquid
Fixed: Pressure, kPa = 101
Property: Speed of sound, m/s (Liquid); method: Sing-around technique in a fixed-path interferometer
Temperature, K	Mole fraction of methanol	Speed of sound, m/s	uncertainty
298.15	0	1721	
298.15	.0565	1683	
298.15	.1686	1638	
298.15	.2638	1608	
298.15	.3525	1581	
298.15	.4395	1559	
298.15	.5589	1526	
298.15	.7536	1447	
298.15	.8231	1397	
298.15	.8713	1348	
298.15	.8813	1335	
298.15	.9236	1274	
298.15	.9436	1237	
298.15	.9803	1157	
298.15	1	1103	
313.15	0	1624	
313.15	.0565	1602	
313.15	.1686	1578	
313.15	.2638	1558	
313.15	.3525	1536	
313.15	.4395	1518	
313.15	.5589	1486	
313.15	.7536	1406	
313.15	.8231	1354	
313.15	.8713	1304	
313.15	.8813	1292	
313.15	.9236	1229	
313.15	.9436	1192	
313.15	.9803	1110	
313.15	1	1054	
328.15	0	1560	
328.15	.0565	1548	
328.15	.1686	1531	
328.15	.2638	1514	
328.15	.3525	1496	
328.15	.4395	1478	
328.15	.5589	1447	
328.15	.7536	1365	
328.15	.8231	1313	
328.15	.8713	1263	
328.15	.8813	1250	
328.15	.9236	1186	
328.15	.9436	1147	
328.15	.9803	1070	
328.15	1	1008	

System: methanol + 1-methyl-3-octylimidazolium chloride; phases: Liquid
Fixed: Pressure, kPa = 101
Fixed: Temperature, K = 298.15
Property: Refractive index (Na D-line) (Liquid); method: Standard Abbe refractometry
Mole fraction of methanol	Refractive index (Na D-line)	uncertainty
0	1.51051	.00004
.0565	1.50817	.00004
.1686	1.50362	.00004
.2638	1.49975	.00004
.3525	1.49421	.00004
.4395	1.48828	.00004
.5589	1.47696	.00004
.7536	1.44786	.00004
.8231	1.43053	.00004
.8713	1.41277	.00004
.8813	1.4084	.00004
.9236	1.38754	.00004
.9436	1.37577	.00004
.9803	1.3468	.00004
1	1.32687	.00004

System: methanol + 1-methyl-3-octylimidazolium chloride; phases: Liquid
Fixed: Pressure, kPa = 101
Property: Viscosity, Pa*s (Liquid); method: Capillary tube (Ostwald; Ubbelohde) method
Temperature, K	Mole fraction of methanol	Viscosity, Pa*s	uncertainty
298.15	0	20.868	
298.15	.0565	10.353	
298.15	.1686	3.456	
298.15	.2638	1.489	
298.15	.3525	.534	
298.15	.4395	.23723	
298.15	.5589	.0641	
298.15	.7536	.008427	
298.15	.8231	.004193	
298.15	.8713	.00239	
298.15	.8813	.002205	
298.15	.9236	.001416	
298.15	.9436	.001135	
298.15	.9803	.000729	
298.15	1	.000543	
313.15	0	4.062	
313.15	.0565	2.45	
313.15	.1686	1.002	
313.15	.2638	.49991	
313.15	.3525	.21159	
313.15	.4395	.10668	
313.15	.5589	.034968	
313.15	.7536	.005817	
313.15	.8231	.00358	
313.15	.8713	.001854	
313.15	.8813	.001722	
313.15	.9236	.001133	
313.15	.9436	.000914	
313.15	.9803	.000594	
313.15	1	.000444	
328.15	0	1.091	
328.15	.0565	.757	
328.15	.1686	.36492	
328.15	.2638	.20549	
328.15	.3525	.09897	
328.15	.4395	.0552	
328.15	.5589	.021442	
328.15	.7536	.004388	
328.15	.8231	.002496	
328.15	.8713	.001491	
328.15	.8813	.001388	
328.15	.9236	.00093	
328.15	.9436	.000754	
328.15	.9803	.000497	
328.15	1	.000369	

System: ethanol + 1-methyl-3-octylimidazolium chloride; phases: Liquid
Fixed: Pressure, kPa = 101
Property: Mass density, kg/m3 (Liquid); method: Vibrating tube method
Temperature, K	Mole fraction of ethanol	Mass density, kg/m3	uncertainty
298.15	0	1008.82	
298.15	.0449	1006.27	
298.15	.1305	1000.97	
298.15	.2969	988.54	
298.15	.4753	969.79	
298.15	.6858	933.54	
298.15	.8809	868.64	
298.15	.917	849.07	
298.15	.955	824.08	
298.15	.9794	804.61	
298.15	1	785.11	
313.15	0	1000.2	
313.15	.0449	997.61	
313.15	.1305	992.24	
313.15	.2969	979.63	
313.15	.4753	960.76	
313.15	.6858	923.78	
313.15	.8809	857.66	
313.15	.917	837.68	
313.15	.955	812.12	
313.15	.9794	792.15	
313.15	1	772.07	
328.15	0	991.67	
328.15	.0449	989.05	
328.15	.1305	983.62	
328.15	.2969	970.96	
328.15	.4753	951.69	
328.15	.6858	914.05	
328.15	.8809	846.68	
328.15	.917	826.15	
328.15	.955	799.94	
328.15	.9794	779.38	
328.15	1	758.61	

System: ethanol + 1-methyl-3-octylimidazolium chloride; phases: Liquid
Fixed: Pressure, kPa = 101
Property: Speed of sound, m/s (Liquid); method: Sing-around technique in a fixed-path interferometer
Temperature, K	Mole fraction of ethanol	Speed of sound, m/s	uncertainty
298.15	0	1721	
298.15	.0449	1692	
298.15	.1305	1646	
298.15	.2969	1579	
298.15	.4753	1518	
298.15	.6858	1437	
298.15	.8809	1304	
298.15	.917	1264	
298.15	.955	1215	
298.15	.9794	1179	
298.15	1	1143	
313.15	0	1624	
313.15	.0449	1606	
313.15	.1305	1578	
313.15	.2969	1530	
313.15	.4753	1477	
313.15	.6858	1395	
313.15	.8809	1258	
313.15	.917	1218	
313.15	.955	1169	
313.15	.9794	1131	
313.15	1	1093	
328.15	0	1560	
328.15	.0449	1547	
328.15	.1305	1527	
328.15	.2969	1487	
328.15	.4753	1438	
328.15	.6858	1353	
328.15	.8809	1214	
328.15	.917	1175	
328.15	.955	1122	
328.15	.9794	1090	
328.15	1	1043	

System: ethanol + 1-methyl-3-octylimidazolium chloride; phases: Liquid
Fixed: Pressure, kPa = 101
Fixed: Temperature, K = 298.15
Property: Refractive index (Na D-line) (Liquid); method: Standard Abbe refractometry
Mole fraction of ethanol	Refractive index (Na D-line)	uncertainty
0	1.51051	.00004
.0449	1.50835	.00004
.1305	1.50474	.00004
.2969	1.49563	.00004
.4753	1.48233	.00004
.6858	1.45682	.00004
.8809	1.41305	.00004
.917	1.40102	.00004
.955	1.38404	.00004
.9794	1.37207	.00004
1	1.3596	.00004

System: ethanol + 1-methyl-3-octylimidazolium chloride; phases: Liquid
Fixed: Pressure, kPa = 101
Property: Viscosity, Pa*s (Liquid); method: Capillary tube (Ostwald; Ubbelohde) method
Temperature, K	Mole fraction of ethanol	Viscosity, Pa*s	uncertainty
298.15	0	20.868	
298.15	.0449	12.571	
298.15	.1305	5.426	
298.15	.2969	1.127	
298.15	.4753	.18558	
298.15	.6858	.021263	
298.15	.8809	.003501	
298.15	.917	.002551	
298.15	.955	.001754	
298.15	.9794	.001396	
298.15	1	.001085	
313.15	0	4.062	
313.15	.0449	2.717	
313.15	.1305	1.411	
313.15	.2969	.39363	
313.15	.4753	.08797	
313.15	.6858	.014598	
313.15	.8809	.002601	
313.15	.917	.001919	
313.15	.955	.001341	
313.15	.9794	.001061	
313.15	1	.000826	
328.15	0	1.091	
328.15	.0449	.827	
328.15	.1305	.48147	
328.15	.2969	.16499	
328.15	.4753	.045212	
328.15	.6858	.00912	
328.15	.8809	.001997	
328.15	.917	.001488	
328.15	.955	.001038	
328.15	.9794	.000819	
328.15	1	.000641	

System: 1-propanol + 1-methyl-3-octylimidazolium chloride; phases: Liquid
Fixed: Pressure, kPa = 101
Property: Mass density, kg/m3 (Liquid); method: Vibrating tube method
Temperature, K	Mole fraction of 1-propanol	Mass density, kg/m3	uncertainty
298.15	0	1008.82	
298.15	.1071	1001.1	
298.15	.2407	989.68	
298.15	.3036	983.57	
298.15	.407	971.62	
298.15	.4887	960.6	
298.15	.6209	938.12	
298.15	.7248	914.81	
298.15	.8516	875.63	
298.15	.9024	854.86	
298.15	.94	836.47	
298.15	.9729	817.8	
298.15	1	799.48	
313.15	0	1000.2	
313.15	.1071	992.42	
313.15	.2407	980.87	
313.15	.3036	974.7	
313.15	.407	962.54	
313.15	.4887	951.5	
313.15	.6209	928.61	
313.15	.7248	904.92	
313.15	.8516	865.08	
313.15	.9024	843.94	
313.15	.94	825.19	
313.15	.9729	806.09	
313.15	1	787.28	
328.15	0	991.67	
328.15	.1071	983.83	
328.15	.2407	972.1	
328.15	.3036	965.91	
328.15	.407	953.64	
328.15	.4887	942.4	
328.15	.6209	919.12	
328.15	.7248	895.05	
328.15	.8516	854.46	
328.15	.9024	832.87	
328.15	.94	813.68	
328.15	.9729	794.06	
328.15	1	774.64	

System: 1-propanol + 1-methyl-3-octylimidazolium chloride; phases: Liquid
Fixed: Pressure, kPa = 101
Property: Speed of sound, m/s (Liquid); method: Sing-around technique in a fixed-path interferometer
Temperature, K	Mole fraction of 1-propanol	Speed of sound, m/s	uncertainty
298.15	0	1721	
298.15	.1071	1659	
298.15	.2407	1593	
298.15	.3036	1566	
298.15	.407	1531	
298.15	.4887	1504	
298.15	.6209	1456	
298.15	.7248	1413	
298.15	.8516	1342	
298.15	.9024	1304	
298.15	.94	1271	
298.15	.9729	1238	
298.15	1	1205	
313.15	0	1624	
313.15	.1071	1584	
313.15	.2407	1539	
313.15	.3036	1517	
313.15	.407	1487	
313.15	.4887	1461	
313.15	.6209	1414	
313.15	.7248	1369	
313.15	.8516	1296	
313.15	.9024	1257	
313.15	.94	1223	
313.15	.9729	1188	
313.15	1	1155	
328.15	0	1560	
328.15	.1071	1531	
328.15	.2407	1494	
328.15	.3036	1475	
328.15	.407	1445	
328.15	.4887	1421	
328.15	.6209	1373	
328.15	.7248	1326	
328.15	.8516	1250	
328.15	.9024	1211	
328.15	.94	1175	
328.15	.9729	1140	
328.15	1	1105	

System: 1-propanol + 1-methyl-3-octylimidazolium chloride; phases: Liquid
Fixed: Pressure, kPa = 101
Fixed: Temperature, K = 298.15
Property: Refractive index (Na D-line) (Liquid); method: Standard Abbe refractometry
Mole fraction of 1-propanol	Refractive index (Na D-line)	uncertainty
0	1.51051	.00004
.1071	1.50524	.00004
.2407	1.4975	.00004
.3036	1.49364	.00004
.407	1.48636	.00004
.4887	1.47959	.00004
.6209	1.46578	.00004
.7248	1.45126	.00004
.8516	1.42753	.00004
.9024	1.41523	.00004
.94	1.40435	.00004
.9729	1.3935	.00004
1	1.38302	.00004

System: 1-propanol + 1-methyl-3-octylimidazolium chloride; phases: Liquid
Fixed: Pressure, kPa = 101
Property: Viscosity, Pa*s (Liquid); method: Capillary tube (Ostwald; Ubbelohde) method
Temperature, K	Mole fraction of 1-propanol	Viscosity, Pa*s	uncertainty
298.15	0	20.868	
298.15	.1071	7.238	
298.15	.2407	2.056	
298.15	.3036	.912	
298.15	.407	.38553	
298.15	.4887	.17851	
298.15	.6209	.05081	
298.15	.7248	.019246	
298.15	.8516	.006342	
298.15	.9024	.004597	
298.15	.94	.003238	
298.15	.9729	.002648	
298.15	1	.001951	
313.15	0	4.062	
313.15	.1071	1.72	
313.15	.2407	.649	
313.15	.3036	.33446	
313.15	.407	.15963	
313.15	.4887	.0841	
313.15	.6209	.028813	
313.15	.7248	.012215	
313.15	.8516	.004401	
313.15	.9024	.00323	
313.15	.94	.002293	
313.15	.9729	.001878	
313.15	1	.001383	
328.15	0	1.091	
328.15	.1071	.561	
328.15	.2407	.23072	
328.15	.3036	.14413	
328.15	.407	.07739	
328.15	.4887	.04272	
328.15	.6209	.017726	
328.15	.7248	.008254	
328.15	.8516	.003189	
328.15	.9024	.002352	
328.15	.94	.001679	
328.15	.9729	.001372	
328.15	1	.001007	
