Measured thermophysical data. Separation of Benzene from Linear Alkanes (C6-C9) Using 1-Ethyl-3-Methylimidazolium Ethylsulfate at T = 298.15 K
Source: J. Chem. Eng. Data, 2010, 10.1021/je1001544
Compound 1: n-hexane, C6H14
Compound 2: nonane, C9H20
Compound 3: benzene, C6H6
Compound 4: heptane, C7H16
Compound 5: octane, C8H18
Compound 6: 1-ethyl-3-methylimidazolium ethyl sulfate, C8H16N2O4S

System: n-hexane; phases: Liquid
Fixed: Pressure, kPa = 101.325
Property: Mass density, kg/m3 (Liquid); method: Vibrating tube method
Temperature, K	Mass density, kg/m3	uncertainty
298.15	655.19	.03

System: n-hexane; phases: Liquid
Fixed: Pressure, kPa = 101.325
Property: Refractive index (Na D-line) (Liquid); method: Standard Abbe refractometry
Temperature, K	Refractive index (Na D-line)	uncertainty
298.15	1.37234	.00004

System: nonane; phases: Liquid
Fixed: Pressure, kPa = 101.325
Property: Mass density, kg/m3 (Liquid); method: Vibrating tube method
Temperature, K	Mass density, kg/m3	uncertainty
298.15	713.99	.03

System: nonane; phases: Liquid
Fixed: Pressure, kPa = 101.325
Property: Refractive index (Na D-line) (Liquid); method: Standard Abbe refractometry
Temperature, K	Refractive index (Na D-line)	uncertainty
298.15	1.40326	.00004

System: benzene; phases: Liquid
Fixed: Pressure, kPa = 101.325
Property: Mass density, kg/m3 (Liquid); method: Vibrating tube method
Temperature, K	Mass density, kg/m3	uncertainty
298.15	873.57	.03

System: benzene; phases: Liquid
Fixed: Pressure, kPa = 101.325
Property: Refractive index (Na D-line) (Liquid); method: Standard Abbe refractometry
Temperature, K	Refractive index (Na D-line)	uncertainty
298.15	1.49774	.00004

System: heptane; phases: Liquid
Fixed: Pressure, kPa = 101.325
Property: Mass density, kg/m3 (Liquid); method: Vibrating tube method
Temperature, K	Mass density, kg/m3	uncertainty
298.15	679.56	.03

System: heptane; phases: Liquid
Fixed: Pressure, kPa = 101.325
Property: Refractive index (Na D-line) (Liquid); method: Standard Abbe refractometry
Temperature, K	Refractive index (Na D-line)	uncertainty
298.15	1.38515	.00004

System: octane; phases: Liquid
Fixed: Pressure, kPa = 101.325
Property: Mass density, kg/m3 (Liquid); method: Vibrating tube method
Temperature, K	Mass density, kg/m3	uncertainty
298.15	698.6	.03

System: octane; phases: Liquid
Fixed: Pressure, kPa = 101.325
Property: Refractive index (Na D-line) (Liquid); method: Standard Abbe refractometry
Temperature, K	Refractive index (Na D-line)	uncertainty
298.15	1.39519	.00004

System: 1-ethyl-3-methylimidazolium ethyl sulfate; phases: Liquid
Fixed: Pressure, kPa = 101.325
Property: Mass density, kg/m3 (Liquid); method: Vibrating tube method
Temperature, K	Mass density, kg/m3	uncertainty
298.15	1237.23	.03

System: 1-ethyl-3-methylimidazolium ethyl sulfate; phases: Liquid
Fixed: Pressure, kPa = 101.325
Property: Refractive index (Na D-line) (Liquid); method: Standard Abbe refractometry
Temperature, K	Refractive index (Na D-line)	uncertainty
298.15	1.4791	.00004

System: benzene + n-hexane + 1-ethyl-3-methylimidazolium ethyl sulfate; phases: Liquid mixture 1, Liquid mixture 2
Fixed: Pressure, kPa = 101.325
Fixed: Temperature, K = 298.15
Property: Mole fraction of n-hexane (Liquid mixture 1); method: Titration method
Mole fraction of benzene	Mole fraction of n-hexane	uncertainty
0	.015	.007
.044	.014	.007
.093	.009	.007
.138	.009	.007
.19	.008	.007
.236	.008	.007
.284	.006	.007
.338	.005	.007
.393	.004	.007
.461	0	.007

System: benzene + n-hexane + 1-ethyl-3-methylimidazolium ethyl sulfate; phases: Liquid mixture 1, Liquid mixture 2
Fixed: Pressure, kPa = 101.325
Fixed: Temperature, K = 298.15
Property: Mass density, kg/m3 (Liquid mixture 1); method: Vibrating tube method
Mole fraction of benzene	Mass density, kg/m3	uncertainty
0	1234.45	.03
.044	1227.84	.03
.093	1220.98	.03
.138	1213.68	.03
.19	1205.38	.03
.236	1196.17	.03
.284	1187.59	.03
.338	1176.22	.03
.393	1165.17	.03
.461	1147.13	.03

System: benzene + n-hexane + 1-ethyl-3-methylimidazolium ethyl sulfate; phases: Liquid mixture 1, Liquid mixture 2
Property: Mole fraction of n-hexane (Liquid mixture 1); method: Titration method
Property: Mole fraction of benzene (Liquid mixture 2); method: Titration method
Property: Mole fraction of n-hexane (Liquid mixture 2); method: Titration method
Temperature, K	Pressure, kPa	Mole fraction of benzene	Mole fraction of n-hexane	uncertainty	Mole fraction of benzene	uncertainty	Mole fraction of n-hexane	uncertainty
298.15	101.325	.051	.949	.007	.031	.007	.013	.007
298.15	101.325	.11	.89	.007	.066	.007	.011	.007
298.15	101.325	.167	.833	.007	.097	.007	.01	.007
298.15	101.325	.226	.774	.007	.128	.007	.009	.007
298.15	101.325	.343	.657	.007	.184	.007	.008	.007
298.15	101.325	.47	.53	.007	.238	.007	.007	.007
298.15	101.325	.602	.398	.007	.29	.007	.006	.007
298.15	101.325	.72	.28	.007	.336	.007	.005	.007

System: benzene + heptane + 1-ethyl-3-methylimidazolium ethyl sulfate; phases: Liquid mixture 1, Liquid mixture 2
Fixed: Pressure, kPa = 101.325
Fixed: Temperature, K = 298.15
Property: Mole fraction of heptane (Liquid mixture 1); method: Titration method
Mole fraction of benzene	Mole fraction of heptane	uncertainty
0	.007	.007
.048	.007	.007
.097	.006	.007
.147	.006	.007
.191	.006	.007
.287	.006	.007
.337	.005	.007
.367	.002	.007
.461	0	.007

System: benzene + heptane + 1-ethyl-3-methylimidazolium ethyl sulfate; phases: Liquid mixture 1, Liquid mixture 2
Fixed: Pressure, kPa = 101.325
Fixed: Temperature, K = 298.15
Property: Mass density, kg/m3 (Liquid mixture 1); method: Vibrating tube method
Mole fraction of benzene	Mass density, kg/m3	uncertainty
0	1235.37	.03
.048	1228.35	.03
.097	1221.08	.03
.147	1213.09	.03
.191	1205.44	.03
.287	1187.15	.03
.337	1177.28	.03
.367	1169.54	.03
.461	1147.13	.03

System: benzene + heptane + 1-ethyl-3-methylimidazolium ethyl sulfate; phases: Liquid mixture 1, Liquid mixture 2
Property: Mole fraction of heptane (Liquid mixture 1); method: Titration method
Property: Mole fraction of benzene (Liquid mixture 2); method: Titration method
Property: Mole fraction of heptane (Liquid mixture 2); method: Titration method
Temperature, K	Pressure, kPa	Mole fraction of benzene	Mole fraction of heptane	uncertainty	Mole fraction of benzene	uncertainty	Mole fraction of heptane	uncertainty
298.15	101.325	.056	.944	.007	.031	.007	.007	.007
298.15	101.325	.11	.89	.007	.062	.007	.007	.007
298.15	101.325	.166	.834	.007	.097	.007	.007	.007
298.15	101.325	.227	.773	.007	.124	.007	.007	.007
298.15	101.325	.341	.659	.007	.178	.007	.006	.007
298.15	101.325	.462	.538	.007	.232	.007	.006	.007
298.15	101.325	.585	.415	.007	.28	.007	.006	.007
298.15	101.325	.716	.284	.007	.33	.007	.006	.007

System: benzene + octane + 1-ethyl-3-methylimidazolium ethyl sulfate; phases: Liquid mixture 1, Liquid mixture 2
Fixed: Pressure, kPa = 101.325
Fixed: Temperature, K = 298.15
Property: Mole fraction of octane (Liquid mixture 1); method: Titration method
Mole fraction of benzene	Mole fraction of octane	uncertainty
0	.003	.007
.044	.003	.007
.1	.002	.007
.146	.003	.007
.191	.003	.007
.29	.003	.007
.34	.003	.007
.386	.002	.007
.461	0	.007

System: benzene + octane + 1-ethyl-3-methylimidazolium ethyl sulfate; phases: Liquid mixture 1, Liquid mixture 2
Fixed: Pressure, kPa = 101.325
Fixed: Temperature, K = 298.15
Property: Mass density, kg/m3 (Liquid mixture 1); method: Vibrating tube method
Mole fraction of benzene	Mass density, kg/m3	uncertainty
0	1235.92	.03
.044	1229.56	.03
.1	1220.99	.03
.146	1213.44	.03
.191	1205.87	.03
.29	1186.74	.03
.34	1176.2	.03
.386	1166.18	.03
.461	1147.13	.03

System: benzene + octane + 1-ethyl-3-methylimidazolium ethyl sulfate; phases: Liquid mixture 1, Liquid mixture 2
Property: Mole fraction of octane (Liquid mixture 1); method: Titration method
Property: Mole fraction of benzene (Liquid mixture 2); method: Titration method
Property: Mole fraction of octane (Liquid mixture 2); method: Titration method
Temperature, K	Pressure, kPa	Mole fraction of benzene	Mole fraction of octane	uncertainty	Mole fraction of benzene	uncertainty	Mole fraction of octane	uncertainty
298.15	101.325	.066	.934	.007	.033	.007	.003	.007
298.15	101.325	.116	.884	.007	.06	.007	.003	.007
298.15	101.325	.175	.825	.007	.09	.007	.003	.007
298.15	101.325	.235	.765	.007	.109	.007	.002	.007
298.15	101.325	.345	.655	.007	.173	.007	.003	.007
298.15	101.325	.473	.527	.007	.229	.007	.003	.007
298.15	101.325	.591	.409	.007	.277	.007	.003	.007
298.15	101.325	.725	.275	.007	.331	.007	.002	.007
298.15	101.325	.861	.139	.007	.387	.007	.001	.007

System: benzene + nonane + 1-ethyl-3-methylimidazolium ethyl sulfate; phases: Liquid mixture 1, Liquid mixture 2
Fixed: Pressure, kPa = 101.325
Fixed: Temperature, K = 298.15
Property: Mole fraction of nonane (Liquid mixture 1); method: Titration method
Mole fraction of benzene	Mole fraction of nonane	uncertainty
0	.002	.007
.044	.002	.007
.099	.002	.007
.147	.001	.007
.189	.002	.007
.291	.002	.007
.332	.001	.007
.388	.001	.007
.461	0	.007

System: benzene + nonane + 1-ethyl-3-methylimidazolium ethyl sulfate; phases: Liquid mixture 1, Liquid mixture 2
Fixed: Pressure, kPa = 101.325
Fixed: Temperature, K = 298.15
Property: Mass density, kg/m3 (Liquid mixture 1); method: Vibrating tube method
Mole fraction of benzene	Mass density, kg/m3	uncertainty
0	1236.02	.03
.044	1230	.03
.099	1221.67	.03
.147	1214.04	.03
.189	1206.69	.03
.291	1187.11	.03
.332	1178.28	.03
.388	1165.66	.03
.461	1147.13	.03

System: benzene + nonane + 1-ethyl-3-methylimidazolium ethyl sulfate; phases: Liquid mixture 1, Liquid mixture 2
Property: Mole fraction of nonane (Liquid mixture 1); method: Titration method
Property: Mole fraction of benzene (Liquid mixture 2); method: Titration method
Property: Mole fraction of nonane (Liquid mixture 2); method: Titration method
Temperature, K	Pressure, kPa	Mole fraction of benzene	Mole fraction of nonane	uncertainty	Mole fraction of benzene	uncertainty	Mole fraction of nonane	uncertainty
298.15	101.325	.052	.948	.007	.028	.007	.002	.007
298.15	101.325	.115	.885	.007	.059	.007	.002	.007
298.15	101.325	.175	.825	.007	.089	.007	.002	.007
298.15	101.325	.229	.771	.007	.118	.007	.002	.007
298.15	101.325	.353	.647	.007	.175	.007	.002	.007
298.15	101.325	.475	.525	.007	.231	.007	.002	.007
298.15	101.325	.597	.403	.007	.278	.007	.002	.007
298.15	101.325	.723	.277	.007	.331	.007	.002	.007
298.15	101.325	.853	.147	.007	.385	.007	.001	.007
