Measured thermophysical data. Solubility of Genistein in Water, Methanol, Ethanol, Propan-2-ol, 1-Butanol, and Ethyl Acetate from (280 to 333) K
Source: J. Chem. Eng. Data, 2010, 10.1021/je100261w
Compound 1: water, H2O
Compound 2: methanol, CH4O
Compound 3: ethanol, C2H6O
Compound 4: 2-propanol, C3H8O
Compound 5: butan-1-ol, C4H10O
Compound 6: ethyl ethanoate, C4H8O2
Compound 7: genistein, C15H10O5, purity 99%

System: genistein + water; phases: Liquid, Crystal
Fixed: Pressure, kPa = 101.32
Property: Amount concentration (molarity), mol/dm3 of genistein (Liquid); method: UV Detection
Temperature, K	Amount concentration (molarity), mol/dm3 of genistein	uncertainty
280	.0000027	.000000027
290	.0000039	.000000039
298	.0000053	.000000053
303	.0000058	.000000058
308	.0000069	.000000069
313	.0000082	.000000082
323	.0000131	.000000131
333	.0000189	.000000189

System: methanol + genistein; phases: Liquid, Crystal
Fixed: Pressure, kPa = 101.32
Property: Amount concentration (molarity), mol/dm3 of genistein (Liquid); method: UV Detection
Temperature, K	Amount concentration (molarity), mol/dm3 of genistein	uncertainty
280	.02354	.0002354
290	.02778	.0002778
298	.03254	.0003254
303	.03593	.0003593
308	.04199	.0004199
313	.04554	.0004554
323	.05703	.0005703
333	.06902	.0006902

System: ethanol + genistein; phases: Liquid, Crystal
Fixed: Pressure, kPa = 101.32
Property: Amount concentration (molarity), mol/dm3 of genistein (Liquid); method: UV Detection
Temperature, K	Amount concentration (molarity), mol/dm3 of genistein	uncertainty
280	.02818	.0002818
290	.03216	.0003216
298	.0374	.000374
303	.04012	.0004012
308	.04344	.0004344
313	.04711	.0004711
323	.05607	.0005607
333	.06451	.0006451

System: 2-propanol + genistein; phases: Liquid, Crystal
Fixed: Pressure, kPa = 101.32
Property: Amount concentration (molarity), mol/dm3 of genistein (Liquid); method: UV Detection
Temperature, K	Amount concentration (molarity), mol/dm3 of genistein	uncertainty
280	.01362	.0001362
290	.01666	.0001666
298	.0209	.000209
303	.02446	.0002446
308	.02794	.0002794
313	.03125	.0003125
323	.03862	.0003862
333	.04689	.0004689

System: butan-1-ol + genistein; phases: Liquid, Crystal
Fixed: Pressure, kPa = 101.32
Property: Amount concentration (molarity), mol/dm3 of genistein (Liquid); method: UV Detection
Temperature, K	Amount concentration (molarity), mol/dm3 of genistein	uncertainty
280	.008579	.00008579
290	.0109	.000109
298	.01383	.0001383
303	.01687	.0001687
308	.01989	.0001989
313	.02229	.0002229
323	.02805	.0002805
333	.03614	.0003614

System: ethyl ethanoate + genistein; phases: Liquid, Crystal
Fixed: Pressure, kPa = 101.32
Property: Amount concentration (molarity), mol/dm3 of genistein (Liquid); method: UV Detection
Temperature, K	Amount concentration (molarity), mol/dm3 of genistein	uncertainty
280	.02738	.0002738
290	.02847	.0002847
298	.02962	.0002962
303	.0307	.000307
308	.03139	.0003139
313	.03243	.0003243
323	.03506	.0003506
333	.03769	.0003769
