Measured thermophysical data. Solid-Liquid Equilibria in Fatty Acid/Triglycerol Systems
Source: J. Chem. Eng. Data, 2011, 10.1021/je101092j
Compound 1: oleic acid, C18H34O2, purity 99%
Compound 2: 1,2,3-tri(cis-9-octadecenoyl)glycerol, C57H104O6, purity 99%
Compound 3: cis-9,cis-12-octadecadienoic acid, C18H32O2, purity 99%
Compound 4: trilinolein, C57H98O6, purity 99%
Compound 5: palmitic acid, C16H32O2, purity 99%
Compound 6: 1,2,3-propanetriyl tri(hexadecanoate), C51H98O6, purity 99%

System: oleic acid; phases: Crystal, Liquid, Air at 1 atmosphere
Property: Normal melting temperature, K (Crystal); method: DSC/DTA
Normal melting temperature, K	uncertainty
286.7	

System: 1,2,3-tri(cis-9-octadecenoyl)glycerol; phases: Crystal, Liquid, Air at 1 atmosphere
Property: Normal melting temperature, K (Crystal); method: DSC/DTA
Normal melting temperature, K	uncertainty
268.2	

System: cis-9,cis-12-octadecadienoic acid; phases: Crystal, Liquid, Air at 1 atmosphere
Property: Normal melting temperature, K (Crystal); method: DSC/DTA
Normal melting temperature, K	uncertainty
268.2	

System: trilinolein; phases: Crystal, Liquid, Air at 1 atmosphere
Property: Normal melting temperature, K (Crystal); method: DSC/DTA
Normal melting temperature, K	uncertainty
256	

System: palmitic acid; phases: Crystal, Liquid, Air at 1 atmosphere
Property: Normal melting temperature, K (Crystal); method: DSC/DTA
Normal melting temperature, K	uncertainty
336.7	

System: palmitic acid + oleic acid; phases: Liquid, Crystal, Crystal, Air at 1 atmosphere
Fixed: Pressure, kPa = 101.325
Property: Eutectic temperature, K (Liquid); method: DSC/DTA
Eutectic temperature, K	uncertainty
283.4	.5

System: palmitic acid + oleic acid; phases: Liquid, Crystal
Fixed: Pressure, kPa = 101
Property: Solid-liquid equilibrium temperature, K (Liquid); method: DSC/DTA
Mole fraction of palmitic acid	Solid-liquid equilibrium temperature, K	uncertainty
.108	298	.5
.301	315.3	.5
.519	324.5	.5
.725	331	.5
.894	334.8	.5

System: palmitic acid + 1,2,3-tri(cis-9-octadecenoyl)glycerol; phases: Liquid, Crystal, Crystal, Air at 1 atmosphere
Fixed: Pressure, kPa = 101.325
Property: Eutectic temperature, K (Liquid); method: DSC/DTA
Eutectic temperature, K	uncertainty
275.8	.5

System: palmitic acid + 1,2,3-tri(cis-9-octadecenoyl)glycerol; phases: Liquid, Crystal
Fixed: Pressure, kPa = 101
Property: Solid-liquid equilibrium temperature, K (Liquid); method: DSC/DTA
Mole fraction of palmitic acid	Solid-liquid equilibrium temperature, K	uncertainty
.047	290.7	.5
.101	306.3	.5
.29	316.9	.5
.501	327.6	.5
.707	331.8	.5
.888	335	.5

System: palmitic acid + cis-9,cis-12-octadecadienoic acid; phases: Liquid, Crystal, Crystal, Air at 1 atmosphere
Fixed: Pressure, kPa = 101.325
Property: Eutectic temperature, K (Liquid); method: DSC/DTA
Eutectic temperature, K	uncertainty
264.5	.5

System: palmitic acid + cis-9,cis-12-octadecadienoic acid; phases: Liquid, Crystal
Fixed: Pressure, kPa = 101
Property: Solid-liquid equilibrium temperature, K (Liquid); method: DSC/DTA
Mole fraction of palmitic acid	Solid-liquid equilibrium temperature, K	uncertainty
.095	300.7	.5
.305	315.6	.5
.497	325.3	.5
.687	332.4	.5
.901	335	.5

System: palmitic acid + trilinolein; phases: Liquid, Crystal, Crystal, Air at 1 atmosphere
Fixed: Pressure, kPa = 101.325
Property: Eutectic temperature, K (Liquid); method: DSC/DTA
Eutectic temperature, K	uncertainty
256.4	.5

System: palmitic acid + trilinolein; phases: Liquid, Crystal
Fixed: Pressure, kPa = 101
Property: Solid-liquid equilibrium temperature, K (Liquid); method: DSC/DTA
Mole fraction of palmitic acid	Solid-liquid equilibrium temperature, K	uncertainty
.105	307.3	.5
.291	317.3	.5
.5	326.5	.5
.702	331.2	.5
.9	334.7	.5

System: oleic acid + 1,2,3-propanetriyl tri(hexadecanoate); phases: Liquid, Crystal, Crystal, Air at 1 atmosphere
Fixed: Pressure, kPa = 101.325
Property: Eutectic temperature, K (Liquid); method: DSC/DTA
Eutectic temperature, K	uncertainty
283.9	.5

System: oleic acid + 1,2,3-propanetriyl tri(hexadecanoate); phases: Liquid, Crystal
Fixed: Pressure, kPa = 101
Property: Solid-liquid equilibrium temperature, K (Liquid); method: DSC/DTA
Mole fraction of 1,2,3-propanetriyl tri(hexadecanoate)	Solid-liquid equilibrium temperature, K	uncertainty
.095	328.5	.5
.291	333.5	.5
.509	336.6	.5
.736	338.7	.5
.885	339.4	.5

System: 1,2,3-tri(cis-9-octadecenoyl)glycerol + 1,2,3-propanetriyl tri(hexadecanoate); phases: Liquid, Crystal, Crystal, Air at 1 atmosphere
Fixed: Pressure, kPa = 101.325
Property: Eutectic temperature, K (Liquid); method: DSC/DTA
Eutectic temperature, K	uncertainty
277.9	.5

System: 1,2,3-tri(cis-9-octadecenoyl)glycerol + 1,2,3-propanetriyl tri(hexadecanoate); phases: Liquid, Crystal
Fixed: Pressure, kPa = 101
Property: Solid-liquid equilibrium temperature, K (Liquid); method: DSC/DTA
Mole fraction of 1,2,3-propanetriyl tri(hexadecanoate)	Solid-liquid equilibrium temperature, K	uncertainty
.157	328.3	.5
.255	331.7	.5
.497	335.3	.5
.702	336.8	.5
.862	338.1	.5

System: cis-9,cis-12-octadecadienoic acid + 1,2,3-propanetriyl tri(hexadecanoate); phases: Liquid, Crystal, Crystal, Air at 1 atmosphere
Fixed: Pressure, kPa = 101.325
Property: Eutectic temperature, K (Liquid); method: DSC/DTA
Eutectic temperature, K	uncertainty
262.9	.5

System: cis-9,cis-12-octadecadienoic acid + 1,2,3-propanetriyl tri(hexadecanoate); phases: Liquid, Crystal
Fixed: Pressure, kPa = 101
Property: Solid-liquid equilibrium temperature, K (Liquid); method: DSC/DTA
Mole fraction of 1,2,3-propanetriyl tri(hexadecanoate)	Solid-liquid equilibrium temperature, K	uncertainty
.101	327.6	.5
.297	333.2	.5
.507	336	.5
.717	337.7	.5
.812	337.9	.5

System: trilinolein + 1,2,3-propanetriyl tri(hexadecanoate); phases: Liquid, Crystal, Crystal, Air at 1 atmosphere
Fixed: Pressure, kPa = 101.325
Property: Eutectic temperature, K (Liquid); method: DSC/DTA
Eutectic temperature, K	uncertainty
252.7	.5

System: trilinolein + 1,2,3-propanetriyl tri(hexadecanoate); phases: Liquid, Crystal
Fixed: Pressure, kPa = 101
Property: Solid-liquid equilibrium temperature, K (Liquid); method: DSC/DTA
Mole fraction of 1,2,3-propanetriyl tri(hexadecanoate)	Solid-liquid equilibrium temperature, K	uncertainty
.097	325.5	.5
.297	332.2	.5
.472	334.4	.5
.653	336.7	.5
.885	338	.5
