Measured thermophysical data. Solid-Liquid Equilibria for Hexanedioic Acid + Benzoic Acid, Benzoic Acid + Pentanedioic Acid, and Hexanedioic Acid + Pentanedioic Acid
Source: J. Chem. Eng. Data, 2010, 10.1021/je100749m
Compound 1: 1,4-butanedicarboxylic acid, C6H10O4
Compound 2: phenylcarboxylic acid, C7H6O2
Compound 3: 1,3-propanedicarboxylic acid, C5H8O4

System: 1,4-butanedicarboxylic acid; phases: Crystal, Liquid, Air at 1 atmosphere
Property: Normal melting temperature, K (Crystal); method: DSC/DTA
Normal melting temperature, K	uncertainty
426.31	.2

System: 1,4-butanedicarboxylic acid; phases: Crystal, Liquid, Air at 1 atmosphere
Property: Molar enthalpy of transition or fusion, kJ/mol (Crystal); method: DSC/DTA
Molar enthalpy of transition or fusion, kJ/mol	uncertainty
35.39	

System: phenylcarboxylic acid; phases: Crystal, Liquid, Air at 1 atmosphere
Property: Normal melting temperature, K (Crystal); method: DSC/DTA
Normal melting temperature, K	uncertainty
396.08	.2

System: phenylcarboxylic acid; phases: Crystal, Liquid, Air at 1 atmosphere
Property: Molar enthalpy of transition or fusion, kJ/mol (Crystal); method: DSC/DTA
Molar enthalpy of transition or fusion, kJ/mol	uncertainty
18.05	

System: 1,3-propanedicarboxylic acid; phases: Crystal, Liquid, Air at 1 atmosphere
Property: Normal melting temperature, K (Crystal); method: DSC/DTA
Normal melting temperature, K	uncertainty
369.13	.2

System: 1,3-propanedicarboxylic acid; phases: Crystal, Liquid, Air at 1 atmosphere
Property: Molar enthalpy of transition or fusion, kJ/mol (Crystal); method: DSC/DTA
Molar enthalpy of transition or fusion, kJ/mol	uncertainty
20.9	

System: phenylcarboxylic acid + 1,4-butanedicarboxylic acid; phases: Crystal, Crystal, Liquid, Air at 1 atmosphere
Fixed: Pressure, kPa = 101.325
Property: Eutectic temperature, K (Crystal); method: DSC/DTA
Eutectic temperature, K	uncertainty
378	.2

System: phenylcarboxylic acid + 1,4-butanedicarboxylic acid; phases: Crystal, Crystal, Liquid, Air at 1 atmosphere
Fixed: Pressure, kPa = 101.325
Property: Eutectic composition: mole fraction of 1,4-butanedicarboxylic acid (Crystal); method: Derived from phase diagram analysis
Eutectic composition: mole fraction of 1,4-butanedicarboxylic acid	uncertainty
.234	.002

System: phenylcarboxylic acid + 1,4-butanedicarboxylic acid; phases: Liquid, Crystal
Fixed: Pressure, kPa = 101
Property: Solid-liquid equilibrium temperature, K (Liquid); method: DSC/DTA
Mole fraction of 1,4-butanedicarboxylic acid	Solid-liquid equilibrium temperature, K	uncertainty
0	396.08	.2
.0493	391.84	.2
.103	387.53	.2
.1529	384.07	.2

System: phenylcarboxylic acid + 1,4-butanedicarboxylic acid; phases: Liquid, Crystal
Fixed: Pressure, kPa = 101
Property: Solid-liquid equilibrium temperature, K (Liquid); method: DSC/DTA
Mole fraction of 1,4-butanedicarboxylic acid	Solid-liquid equilibrium temperature, K	uncertainty
.2978	382.85	.2
.354	389.04	.2
.3901	393.17	.2
.4492	397.05	.2
.5003	400.12	.2
.5562	402.99	.2
.5996	406.55	.2
.6495	408.33	.2
.6979	411.77	.2
.7514	414.34	.2
.8017	416.55	.2
.8529	419.34	.2
.8986	420.97	.2
.9504	423.94	.2
1	426.31	.2

System: phenylcarboxylic acid + 1,3-propanedicarboxylic acid; phases: Crystal, Crystal, Liquid, Air at 1 atmosphere
Fixed: Pressure, kPa = 101.325
Property: Eutectic temperature, K (Crystal); method: DSC/DTA
Eutectic temperature, K	uncertainty
344.69	.2

System: phenylcarboxylic acid + 1,3-propanedicarboxylic acid; phases: Crystal, Crystal, Liquid, Air at 1 atmosphere
Fixed: Pressure, kPa = 101.325
Property: Eutectic composition: mole fraction of phenylcarboxylic acid (Crystal); method: Derived from phase diagram analysis
Eutectic composition: mole fraction of phenylcarboxylic acid	uncertainty
.398	.002

System: phenylcarboxylic acid + 1,3-propanedicarboxylic acid; phases: Liquid, Crystal
Fixed: Pressure, kPa = 101
Property: Solid-liquid equilibrium temperature, K (Liquid); method: DSC/DTA
Mole fraction of phenylcarboxylic acid	Solid-liquid equilibrium temperature, K	uncertainty
0	369.13	.2
.0495	365.56	.2
.1011	362.89	.2
.1519	360.64	.2
.2055	356.64	.2
.2511	353.75	.2
.2997	350.94	.2
.3497	347.47	.2

System: phenylcarboxylic acid + 1,3-propanedicarboxylic acid; phases: Liquid, Crystal
Fixed: Pressure, kPa = 101
Property: Solid-liquid equilibrium temperature, K (Liquid); method: DSC/DTA
Mole fraction of phenylcarboxylic acid	Solid-liquid equilibrium temperature, K	uncertainty
.5009	353.98	.2
.5524	358.31	.2
.6058	363.85	.2
.6466	367.39	.2
.6975	371.93	.2
.7487	375.71	.2
.801	380.07	.2
.8512	384.15	.2
.8983	387.46	.2
.9483	391.63	.2
1	396.08	.2

System: 1,3-propanedicarboxylic acid + 1,4-butanedicarboxylic acid; phases: Crystal, Crystal, Liquid, Air at 1 atmosphere
Fixed: Pressure, kPa = 101.325
Property: Eutectic temperature, K (Crystal); method: DSC/DTA
Eutectic temperature, K	uncertainty
356.97	.2

System: 1,3-propanedicarboxylic acid + 1,4-butanedicarboxylic acid; phases: Crystal, Crystal, Liquid, Air at 1 atmosphere
Fixed: Pressure, kPa = 101.325
Property: Eutectic composition: mole fraction of 1,4-butanedicarboxylic acid (Crystal); method: Derived from phase diagram analysis
Eutectic composition: mole fraction of 1,4-butanedicarboxylic acid	uncertainty
.173	.002

System: 1,3-propanedicarboxylic acid + 1,4-butanedicarboxylic acid; phases: Liquid, Crystal
Fixed: Pressure, kPa = 101
Property: Solid-liquid equilibrium temperature, K (Liquid); method: DSC/DTA
Mole fraction of 1,4-butanedicarboxylic acid	Solid-liquid equilibrium temperature, K	uncertainty
0	369.13	.2
.0517	366.44	.2
.1015	363.18	.2

System: 1,3-propanedicarboxylic acid + 1,4-butanedicarboxylic acid; phases: Liquid, Crystal
Fixed: Pressure, kPa = 101
Property: Solid-liquid equilibrium temperature, K (Liquid); method: DSC/DTA
Mole fraction of 1,4-butanedicarboxylic acid	Solid-liquid equilibrium temperature, K	uncertainty
.2523	365.31	.2
.3	372.34	.2
.348	380.14	.2
.3985	387.14	.2
.4532	391.2	.2
.4915	395.08	.2
.5411	398.18	.2
.5972	403.23	.2
.6541	406.62	.2
.6998	409.6	.2
.749	412.3	.2
.8015	414.51	.2
.8497	418.23	.2
.8975	420.45	.2
.9497	423.55	.2
1	426.31	.2
