Measured thermophysical data. Measurement and Correlation for the Solubilities of Dihydrocapsaicin in n-Heptane, n-Hexane, n-Pentane, Ethyl Acetate, Acetone, Ethanol, and Water
Source: J. Chem. Eng. Data, 2011, 10.1021/je1011136
Compound 1: dihydrocapsaicin, C18H29NO3
Compound 2: water, H2O, purity 99.9%
Compound 3: ethanol, C2H6O, purity 99.7%
Compound 4: propanone, C3H6O, purity 99.5%
Compound 5: ethyl ethanoate, C4H8O2, purity 99.5%
Compound 6: pentane, C5H12, purity 99.6%
Compound 7: n-hexane, C6H14, purity 99.7%
Compound 8: heptane, C7H16, purity 99.6%

System: dihydrocapsaicin; phases: Crystal, Liquid, Air at 1 atmosphere
Property: Normal melting temperature, K (Crystal); method: DSC/DTA
Normal melting temperature, K	uncertainty
332.5	.5

System: dihydrocapsaicin; phases: Crystal, Liquid, Air at 1 atmosphere
Property: Molar enthalpy of transition or fusion, kJ/mol (Crystal); method: DSC/DTA
Molar enthalpy of transition or fusion, kJ/mol	uncertainty
19.002112318	

System: heptane + dihydrocapsaicin; phases: Liquid, Crystal
Fixed: Pressure, kPa = 101
Property: Mole fraction of dihydrocapsaicin (Liquid); method: Synthetic
Temperature, K	Mole fraction of dihydrocapsaicin	uncertainty
298.43	.0002286	.000001143
300.59	.0002604	.000001302
302.85	.0002986	.000001493
304.03	.0003176	.000001588
305.69	.0003494	.000001747
307.08	.000378	.00000189
308.84	.0004223	.0000021115
309.97	.0004508	.000002254
311.04	.0004795	.0000023975
313.41	.0005493	.0000027465
315.46	.0006223	.0000031115
317.55	.0007016	.000003508
318.84	.000765	.000003825
320.08	.0008222	.000004111
321.72	.0009077	.0000045385
323.23	.0009966	.000004983
325.05	.001127	.000005635
326.86	.001279	.000006395
328.37	.001405	.000007025
329.84	.001558	.00000779

System: n-hexane + dihydrocapsaicin; phases: Liquid, Crystal
Fixed: Pressure, kPa = 101
Property: Mole fraction of dihydrocapsaicin (Liquid); method: Synthetic
Temperature, K	Mole fraction of dihydrocapsaicin	uncertainty
296.14	.0001361	.0000008166
298.73	.0001587	.0000009522
300.87	.0001815	.000001089
301.98	.0001956	.0000011736
303.09	.0002098	.0000012588
305.04	.0002382	.0000014292
307.13	.0002693	.0000016158
309.25	.0003091	.0000018546
310.68	.0003402	.0000020412
312.02	.0003743	.0000022458
314.74	.0004451	.0000026706
316.54	.0005018	.0000030108
317.91	.0005556	.0000033336
319.95	.0006376	.0000038256
321.02	.0006887	.0000041322
322.07	.0007425	.000004455
324.02	.0008615	.000005169
325.18	.0009436	.0000056616
326.37	.001043	.000006258
327.57	.001153	.000006918

System: pentane + dihydrocapsaicin; phases: Liquid, Crystal
Fixed: Pressure, kPa = 101
Property: Mole fraction of dihydrocapsaicin (Liquid); method: Synthetic
Temperature, K	Mole fraction of dihydrocapsaicin	uncertainty
297.26	.000115	.000000575
298.19	.0001225	.0000006125
299.27	.00013	.00000065
300.43	.0001424	.000000712
301.54	.0001525	.0000007625
302.58	.0001649	.0000008245
303.63	.0001775	.0000008875
304.76	.0001899	.0000009495
305.61	.0002025	.0000010125
306.45	.0002149	.0000010745

System: ethyl ethanoate + dihydrocapsaicin; phases: Liquid, Crystal
Fixed: Pressure, kPa = 101
Property: Mole fraction of dihydrocapsaicin (Liquid); method: Synthetic
Temperature, K	Mole fraction of dihydrocapsaicin	uncertainty
302.07	.3069	.0024552
304.12	.3304	.0026432
305.29	.3424	.0027392
306.48	.354	.002832
307.69	.3686	.0029488
308.81	.3793	.0030344
310.65	.397	.003176
312.79	.4155	.003324
314.85	.431	.003448
317.08	.4476	.0035808
319.24	.4638	.0037104
321.58	.4804	.0038432
323.85	.4937	.0039496
325.04	.4969	.0039752
326.35	.5047	.0040376
327.58	.5086	.0040688

System: propanone + dihydrocapsaicin; phases: Liquid, Crystal
Fixed: Pressure, kPa = 101
Property: Mole fraction of dihydrocapsaicin (Liquid); method: Synthetic
Temperature, K	Mole fraction of dihydrocapsaicin	uncertainty
299.49	.1928	.0017352
300.47	.2026	.0018234
302.34	.2244	.0020196
303.46	.2361	.0021249
304.58	.2487	.0022383
305.69	.2564	.0023076
306.75	.2691	.0024219
308.78	.2874	.0025866
309.82	.2957	.0026613
310.89	.3042	.0027378
312.85	.3216	.0028944
314.88	.3364	.0030276
315.91	.3451	.0031059
316.95	.3519	.0031671
318.17	.3577	.0032193
319.77	.3665	.0032985

System: ethanol + dihydrocapsaicin; phases: Liquid, Crystal
Fixed: Pressure, kPa = 101
Property: Mole fraction of dihydrocapsaicin (Liquid); method: Synthetic
Temperature, K	Mole fraction of dihydrocapsaicin	uncertainty
301.79	.1841	.0012887
303.35	.1961	.0013727
305.54	.2132	.0014924
307.86	.2328	.0016296
309.95	.2492	.0017444
311.23	.258	.001806
312.98	.2678	.0018746
314.44	.2775	.0019425
316.25	.2869	.0020083
317.93	.297	.002079
319.62	.305	.002135
321.41	.3132	.0021924
323.25	.321	.002247
324.83	.3247	.0022729
326.47	.332	.002324
328.84	.3388	.0023716

System: water + dihydrocapsaicin; phases: Liquid, Crystal
Fixed: Pressure, kPa = 101
Property: Mole fraction of dihydrocapsaicin (Liquid); method: Synthetic
Temperature, K	Mole fraction of dihydrocapsaicin	uncertainty
324.67	.00004806	.0000004806
325.03	.00005237	.0000005237
325.66	.00006136	.0000006136
326.29	.0000719	.000000719
326.81	.00008167	.0000008167
327.37	.00009263	.0000009263
327.96	.000102	.00000102
328.53	.000109	.00000109
329.17	.0001141	.000001141
329.85	.0001172	.000001172
330.68	.0001204	.000001204
331.49	.0001219	.000001219
