Measured thermophysical data. Vapor-Liquid Equilibria of Binary Systems of Ethene Oxide + Dodecane, Ethene Oxide + 1-Decanol, and Ethene Oxide + 1-Dodecanol and Prediction with the Predictive Soave-Redlich-Kwong (PSRK) Equation of State
Source: J. Chem. Eng. Data, 2010, 10.1021/je100046a
Compound 1: epoxyethane, C2H4O
Compound 2: 1-decanol, C10H22O
Compound 3: 1-dodecanol, C12H26O
Compound 4: dodecane, C12H26

System: epoxyethane + dodecane; phases: Liquid, Gas
Property: Vapor or sublimation pressure, kPa (Liquid); method: Closed cell (Static) method
Temperature, K	Mole fraction of epoxyethane	Vapor or sublimation pressure, kPa	uncertainty
302.52	.2982	116.5	.5825
302.56	.3994	140.8	.704
302.63	.4994	155.6	.778
302.56	.5993	170.2	.851
302.63	.6993	182.2	.911
302.78	.7994	190	.95
333.72	.1961	170.2	.851
332.3	.2966	234.1	1.1705
332.8	.3978	294.8	1.474
332.66	.4979	343.2	1.716
332.78	.598	386.6	1.933
332.67	.6986	421.6	2.108
332.59	.7989	452.5	2.2625
361.17	.0964	143.8	.719
364.73	.1938	293.2	1.466
362.62	.2948	414.9	2.0745
363.18	.396	539.3	2.6965
362.98	.4961	648	3.24
363.09	.5964	752.5	3.7625
363.59	.6978	841.1	4.2055
395.18	.1916	447.5	2.2375
369.77	.2934	657.2	3.286
393.46	.3946	871.6	4.358
393.04	.4947	1069	5.345
391.17	.6975	1402.2	7.011

System: epoxyethane + 1-decanol; phases: Liquid, Gas
Property: Vapor or sublimation pressure, kPa (Liquid); method: Closed cell (Static) method
Temperature, K	Mole fraction of epoxyethane	Vapor or sublimation pressure, kPa	uncertainty
302.72	.1091	35.9	.1795
302.79	.2005	64.1	.3205
302.56	.2981	88	.44
302.54	.3991	112.1	.5605
302.71	.4963	132.3	.6615
303.24	.5991	151.7	.7585
302.56	.6995	164.2	.821
302.53	.7996	178.7	.8935
332.09	.1086	66.1	.3305
332.01	.1991	122.5	.6125
332.25	.2965	177.6	.888
332.67	.3979	233.2	1.166
332.44	.4952	281.9	1.4095
332.64	.6988	380.8	1.904
332.12	.7992	419.6	2.098
361.5	.108	107.4	.537
361.48	.1977	205.1	1.0255
362.21	.2947	310	1.55
362.85	.3966	415.6	2.078
361.87	.4939	516.6	2.583
362.62	.5968	630	3.15

System: epoxyethane + 1-dodecanol; phases: Liquid, Gas
Property: Vapor or sublimation pressure, kPa (Liquid); method: Closed cell (Static) method
Temperature, K	Mole fraction of epoxyethane	Vapor or sublimation pressure, kPa	uncertainty
313.06	.105	41.5	.2075
313.28	.1991	75.5	.3775
313.56	.4037	142.3	.7115
313.39	.6055	195.9	.9795
312.94	.811	242.8	1.214
353.53	.1043	86.9	.4345
353.62	.1982	162	.81
353.41	.4018	328.2	1.641
353.59	.6044	506	2.53
353.05	.8102	688.5	3.4425
393.32	.1038	151.8	.759
394.14	.1975	291.2	1.456
393.84	.3999	624.4	3.122
393.54	.6035	1051.9	5.2595
391.75	.8092	1504.4	7.522
432.38	.1036	224.9	1.1245
433.98	.1974	448.6	2.243
433.86	.3988	1047.3	5.2365
431.17	.6035	1859.3	9.2965
432.6	.8088	2898.6	14.493
