Measured thermophysical data. Isothermal Vapor-Liquid Equilibria for the Binary System of Carbon Dioxide (CO2) + 1,1,1,2,3,3,3-Heptafluoropropane (R-227ea)
Source: J. Chem. Eng. Data, 2010, 10.1021/je100583z
Compound 1: carbon dioxide, CO2
Compound 2: 2-hydroperfluoropropane, C3HF7

System: carbon dioxide; phases: Liquid, Gas
Property: Vapor or sublimation pressure, kPa (Liquid); method: Closed cell (Static) method
Temperature, K	Vapor or sublimation pressure, kPa	uncertainty
278.15	3960	
288.15	5080	
298.15	6425	

System: 2-hydroperfluoropropane; phases: Liquid, Gas
Property: Vapor or sublimation pressure, kPa (Liquid); method: Closed cell (Static) method
Temperature, K	Vapor or sublimation pressure, kPa	uncertainty
278.15	234	
288.15	327	
298.15	451	
308.15	611	
318.15	805	
328.15	1040	

System: carbon dioxide + 2-hydroperfluoropropane; phases: Liquid, Gas
Property: Vapor or sublimation pressure, kPa (Liquid); method: Closed cell (Static) method
Mole fraction of carbon dioxide	Temperature, K	Vapor or sublimation pressure, kPa	uncertainty
0	278.15	234	
.076	278.15	414	
.148	278.15	643	
.301	278.15	1112	
.419	278.15	1527	
.558	278.15	2003	
.656	278.15	2351	
.746	278.15	2710	
.834	278.15	3099	
.897	278.15	3396	
.928	278.15	3572	
.933	278.15	3613	
1	278.15	3960	
0	288.15	327	
.115	288.15	765	
.263	288.15	1310	
.414	288.15	1910	
.52	288.15	2351	
.609	288.15	2758	
.686	288.15	3103	
.757	288.15	3468	
.813	288.15	3785	
.883	288.15	4206	
.929	288.15	4557	
1	288.15	5080	
0	298.15	451	
.11	298.15	945	
.227	298.15	1448	
.326	298.15	1889	
.407	298.15	2282	
.537	298.15	2930	
.649	298.15	3544	
.741	298.15	4102	
.83	298.15	4737	
.905	298.15	5357	
.948	298.15	5785	
1	298.15	6425	
0	308.15	611	
.088	308.15	1014	
.242	308.15	1820	
.376	308.15	2551	
.506	308.15	3303	
.687	308.15	4482	
.745	308.15	4971	
.826	308.15	5661	
.873	308.15	6129	
0	318.15	805	
.108	318.15	1372	
.214	318.15	2013	
.336	318.15	2772	
.42	318.15	3344	
.487	318.15	3820	
.617	318.15	4799	
.693	318.15	5454	
.764	318.15	6095	
0	328.15	1040	
.105	328.15	1655	
.216	328.15	2399	
.314	328.15	3103	
.406	328.15	3799	
.481	328.15	4385	
.545	328.15	4930	
.631	328.15	5661	
.699	328.15	6281	

System: carbon dioxide + 2-hydroperfluoropropane; phases: Gas, Liquid
Property: Mole fraction of carbon dioxide (Gas); method: Chromatography
Mole fraction of carbon dioxide	Temperature, K	Mole fraction of carbon dioxide	uncertainty
0	278.15	0	.002
.076	278.15	.433	.002
.148	278.15	.638	.002
.301	278.15	.81	.002
.419	278.15	.874	.002
.558	278.15	.92	.002
.656	278.15	.944	.002
.746	278.15	.961	.002
.834	278.15	.976	.002
.897	278.15	.986	.002
.928	278.15	.991	.002
.933	278.15	.992	.002
1	278.15	1	.002
0	288.15	0	.002
.115	288.15	.538	.002
.263	288.15	.748	.002
.414	288.15	.847	.002
.52	288.15	.886	.002
.609	288.15	.911	.002
.686	288.15	.93	.002
.757	288.15	.947	.002
.813	288.15	.959	.002
.883	288.15	.973	.002
.929	288.15	.984	.002
1	288.15	1	.002
0	298.15	0	.002
.11	298.15	.47	.002
.227	298.15	.683	.002
.326	298.15	.78	.002
.407	298.15	.829	.002
.537	298.15	.882	.002
.649	298.15	.914	.002
.741	298.15	.931	.002
.83	298.15	.947	.002
.905	298.15	.967	.002
.948	298.15	.979	.002
1	298.15	1	.002
0	308.15	0	.002
.088	308.15	.421	.002
.242	308.15	.665	.002
.376	308.15	.768	.002
.506	308.15	.823	.002
.687	308.15	.885	.002
.745	308.15	.9	.002
.826	308.15	.916	.002
.873	308.15	.929	.002
0	318.15	0	.002
.108	318.15	.393	.002
.214	318.15	.589	.002
.336	318.15	.707	.002
.42	318.15	.754	.002
.487	318.15	.784	.002
.617	318.15	.824	.002
.693	318.15	.848	.002
.764	318.15	.863	.002
0	328.15	0	.002
.105	328.15	.345	.002
.216	328.15	.542	.002
.314	328.15	.648	.002
.406	328.15	.716	.002
.481	328.15	.745	.002
.545	328.15	.76	.002
.631	328.15	.774	.002
.699	328.15	.78	.002
