Measured thermophysical data. Densities and Excess Molar Volumes of the Ternary System N2O4 + H2O + HNO3 at 278.15 K, 283.15 K, 288.15 K, and 293.15 K
Source: J. Chem. Eng. Data, 2011, 10.1021/je101357s
Compound 1: nitric acid, HNO3, purity 99.8%
Compound 2: dinitrogen tetroxide, N2O4, purity 99.5%
Compound 3: water, H2O, purity 99.9%

System: nitric acid + water + dinitrogen tetroxide; phases: Liquid
Fixed: Pressure, kPa = 101
Property: Mass density, kg/m3 (Liquid); method: Vibrating tube method
Temperature, K	Mole fraction of dinitrogen tetroxide	Mole fraction of water	Mass density, kg/m3	uncertainty
278.15	.0021	.3096	1509.9	.1
283.15	.0021	.3096	1501.5	.1
288.15	.0021	.3096	1493.1	.1
293.15	.0021	.3096	1484.7	.1
278.15	.0021	.3096	1509.9	.1
283.15	.0021	.3096	1501.5	.1
288.15	.0021	.3096	1493.1	.1
293.15	.0021	.3096	1484.7	.1
278.15	.0024	.2844	1513.2	.1
283.15	.0024	.2844	1504.8	.1
288.15	.0024	.2844	1496.3	.1
293.15	.0024	.2844	1487.9	.1
278.15	.0025	.2615	1516.5	.1
283.15	.0025	.2615	1508	.1
288.15	.0025	.2615	1499.5	.1
293.15	.0025	.2615	1491.1	.1
278.15	.0026	.2474	1518.5	.1
283.15	.0026	.2474	1509.9	.1
288.15	.0026	.2474	1501.4	.1
293.15	.0026	.2474	1492.9	.1
278.15	.0029	.2167	1522.2	.1
283.15	.0029	.2167	1513.6	.1
288.15	.0029	.2167	1505.1	.1
293.15	.0029	.2167	1496.5	.1
278.15	.003	.1966	1524.2	.1
283.15	.003	.1966	1515.6	.1
288.15	.003	.1966	1507	.1
293.15	.003	.1966	1498.4	.1
278.15	.0034	.1557	1528.8	.1
283.15	.0034	.1557	1520.2	.1
288.15	.0034	.1557	1511.6	.1
293.15	.0034	.1557	1503	.1
278.15	.0036	.1297	1531.4	.1
283.15	.0036	.1297	1522.8	.1
288.15	.0036	.1297	1514.2	.1
293.15	.0036	.1297	1506.2	.1
278.15	.0038	.0917	1535.3	.1
293.15	.0038	.0917	1509.2	.1
283.15	.0038	.0917	1526.5	.1
283.15	.0038	.0917	1526.5	.1
288.15	.0038	.0917	1517.9	.1
288.15	.0038	.0917	1517.9	.1
293.15	.0038	.0917	1509.2	.1
278.15	.0038	.0917	1535.3	.1
293.15	.0038	.1065	1508.1	.1
283.15	.0038	.1065	1525.4	.1
288.15	.0038	.1065	1516.8	.1
278.15	.0038	.1065	1534.1	.1
278.15	.0082	.3102	1513.5	.1
283.15	.0082	.3102	1505	.1
288.15	.0082	.3102	1496.6	.1
293.15	.0082	.3102	1488.1	.1
293.15	.014	.1127	1515.5	.1
283.15	.014	.1127	1532.8	.1
278.15	.014	.1127	1541.5	.1
288.15	.014	.1127	1524.2	.1
278.15	.0148	.0931	1543.4	.1
283.15	.0148	.0931	1534.8	.1
288.15	.0148	.0931	1526.2	.1
293.15	.0148	.0931	1517.5	.1
278.15	.0158	.3111	1518.3	.1
283.15	.0158	.3111	1509.8	.1
288.15	.0158	.3111	1501.3	.1
293.15	.0158	.3111	1492.9	.1
288.15	.0165	.2869	1504.9	.1
283.15	.0165	.2869	1513.3	.1
278.15	.0165	.2869	1521.8	.1
293.15	.0165	.2869	1496.3	.1
293.15	.0207	.3118	1495.8	.1
283.15	.0207	.3118	1512.8	.1
288.15	.0207	.3118	1504.2	.1
278.15	.0207	.3118	1521.3	.1
278.15	.0231	.1318	1546.5	.1
288.15	.0231	.1318	1529.3	.1
293.15	.0231	.1318	1520.7	.1
283.15	.0231	.1318	1537.9	.1
293.15	.0239	.2752	1502.3	.1
288.15	.0239	.2752	1510.9	.1
278.15	.0239	.2752	1528	.1
283.15	.0239	.2752	1519.4	.1
278.15	.0251	.3122	1523.9	.1
283.15	.0251	.3122	1515.3	.1
288.15	.0251	.3122	1506.8	.1
293.15	.0251	.3122	1498.3	.1
278.15	.0266	.092	1551.7	.1
283.15	.0266	.092	1543	.1
288.15	.0266	.092	1534.5	.1
293.15	.0266	.092	1525.8	.1
278.15	.0321	.313	1527.8	.1
283.15	.0321	.313	1519.3	.1
288.15	.0321	.313	1510.7	.1
293.15	.0321	.313	1502.2	.1
293.15	.033	.1522	1525.4	.1
288.15	.033	.1522	1534	.1
283.15	.033	.1522	1542.6	.1
278.15	.033	.1522	1551.2	.1
278.15	.0373	.0912	1558.9	.1
283.15	.0373	.0912	1550.3	.1
288.15	.0373	.0912	1541.7	.1
293.15	.0373	.0912	1533.1	.1
288.15	.0375	.3135	1513.7	.1
293.15	.0375	.3135	1505.1	.1
278.15	.0375	.3135	1530.8	.1
283.15	.0375	.3135	1522.3	.1
283.15	.0396	.2502	1532.6	.1
293.15	.0396	.2502	1515.3	.1
288.15	.0396	.2502	1523.9	.1
278.15	.0396	.2502	1541.2	.1
288.15	.0448	.242	1527.6	.1
283.15	.0448	.242	1536.2	.1
293.15	.0448	.242	1518.9	.1
278.15	.0448	.242	1544.8	.1
278.15	.0449	.3144	1534.5	.1
283.15	.0449	.3144	1525.9	.1
288.15	.0449	.3144	1517.3	.1
293.15	.0449	.3144	1508.7	.1
293.15	.0462	.1796	1531.2	.1
278.15	.0462	.1796	1557	.1
288.15	.0462	.1796	1539.8	.1
283.15	.0462	.1796	1548.2	.1
283.15	.0486	.0905	1557.6	.1
288.15	.0486	.0905	1549.1	.1
278.15	.0486	.0905	1566.2	.1
293.15	.0486	.0905	1540.4	.1
283.15	.0496	.3151	1528.3	.1
278.15	.0496	.3151	1537	.1
288.15	.0496	.3151	1519.7	.1
293.15	.0496	.3151	1511	.1
288.15	.0509	.2322	1532.7	.1
293.15	.0509	.2322	1524	.1
283.15	.0509	.2322	1541.3	.1
278.15	.0509	.2322	1549.9	.1
278.15	.052	.1915	1558.8	.1
293.15	.052	.1915	1532.9	.1
288.15	.052	.1915	1541.6	.1
283.15	.052	.1915	1550.2	.1
283.15	.0568	.3156	1531.6	.1
288.15	.0568	.3156	1522.9	.1
278.15	.0568	.3156	1540.2	.1
293.15	.0568	.3156	1514.2	.1
278.15	.0577	.0899	1571.6	.1
288.15	.0577	.0899	1554.5	.1
293.15	.0577	.0899	1545.8	.1
283.15	.0577	.0899	1563.1	.1
283.15	.062	.3164	1534.1	.1
288.15	.062	.3164	1525.3	.1
293.15	.062	.3164	1516.6	.1
278.15	.062	.3164	1542.8	.1
288.15	.0629	.3018	1528.2	.1
293.15	.0629	.3018	1519.5	.1
278.15	.0629	.3018	1545.6	.1
283.15	.0629	.3018	1536.9	.1
278.15	.0644	.2777	1550.8	.1
283.15	.0644	.2777	1542.1	.1
288.15	.0644	.2777	1533.4	.1
293.15	.0644	.2777	1524.7	.1
288.15	.0649	.2099	1543	.1
293.15	.0649	.2099	1534.3	.1
283.15	.0649	.2099	1551.7	.1
278.15	.0649	.2099	1560.4	.1
278.15	.065	.268	1552.8	.1
283.15	.065	.268	1544.1	.1
288.15	.065	.268	1535.4	.1
293.15	.065	.268	1526.7	.1
278.15	.0661	.2478	1556.8	.1
283.15	.0661	.2478	1548.1	.1
288.15	.0661	.2478	1539.4	.1
293.15	.0661	.2478	1530.7	.1
293.15	.0661	.0893	1551	.1
278.15	.0661	.0893	1576.8	.1
283.15	.0661	.0893	1568.3	.1
288.15	.0661	.0893	1559.7	.1
278.15	.0686	.2097	1563.9	.1
283.15	.0686	.2097	1555.2	.1
288.15	.0686	.2097	1546.5	.1
293.15	.0686	.2097	1537.8	.1
278.15	.0707	.1744	1569.8	.1
283.15	.0707	.1744	1561.1	.1
288.15	.0707	.1744	1552.5	.1
293.15	.0707	.1744	1543.8	.1
278.15	.0718	.1569	1572.6	.1
283.15	.0718	.1569	1563.9	.1
288.15	.0718	.1569	1555.3	.1
293.15	.0718	.1569	1546.6	.1
278.15	.0725	.3174	1546.9	.1
288.15	.0725	.3174	1529.4	.1
283.15	.0725	.3174	1538.1	.1
293.15	.0725	.3174	1520.6	.1
278.15	.0728	.1383	1575.4	.1
283.15	.0728	.1383	1566.8	.1
288.15	.0728	.1383	1558.1	.1
293.15	.0728	.1383	1549.5	.1
278.15	.0743	.1137	1579.1	.1
283.15	.0743	.1137	1570.4	.1
288.15	.0743	.1137	1561.8	.1
293.15	.0743	.1137	1553.2	.1
283.15	.0759	.2411	1555.6	.1
293.15	.0759	.2411	1538.1	.1
278.15	.0759	.2411	1564.3	.1
288.15	.0759	.2411	1546.9	.1
288.15	.0759	.0886	1565	.1
278.15	.0759	.0886	1582.2	.1
293.15	.0759	.0886	1556.4	.1
283.15	.0759	.0886	1573.6	.1
288.15	.0766	.1914	1551.8	.1
283.15	.0766	.1914	1560.5	.1
278.15	.0766	.1914	1569.2	.1
293.15	.0766	.1914	1543.1	.1
283.15	.0816	.1836	1563.9	.1
278.15	.0816	.1836	1572.6	.1
293.15	.0816	.1836	1546.4	.1
288.15	.0816	.1836	1555.2	.1
288.15	.0851	.0877	1570.1	.1
293.15	.0851	.0877	1561.5	.1
283.15	.0851	.0877	1578.7	.1
278.15	.0851	.0877	1587.3	.1
278.15	.0867	.0879	1588.3	.1
288.15	.0867	.0879	1571.1	.1
283.15	.0867	.0879	1579.7	.1
293.15	.0867	.0879	1562.5	.1
283.15	.0895	.1707	1569.7	.1
278.15	.0895	.1707	1578.3	.1
288.15	.0895	.1707	1561	.1
293.15	.0895	.1707	1552.3	.1
288.15	.0908	.2719	1547.6	.1
283.15	.0908	.2719	1556.5	.1
293.15	.0908	.2719	1538.7	.1
278.15	.0908	.2719	1565.3	.1
278.15	.0909	.3193	1553.6	.1
293.15	.0909	.3193	1527	.1
283.15	.0909	.3193	1544.8	.1
288.15	.0909	.3193	1535.9	.1
293.15	.0981	.3203	1528.9	.1
283.15	.0981	.3203	1546.8	.1
288.15	.0981	.3203	1537.9	.1
278.15	.0981	.3203	1555.7	.1
278.15	.0984	.0867	1594.4	.1
283.15	.0984	.0867	1585.8	.1
293.15	.0984	.0867	1568.5	.1
288.15	.0984	.0867	1577.2	.1
293.15	.1027	.1499	1561.6	.1
283.15	.1027	.1499	1579	.1
288.15	.1027	.1499	1570.4	.1
278.15	.1027	.1499	1587.7	.1
278.15	.1041	.3	1563.4	.1
288.15	.1041	.3	1545.6	.1
293.15	.1041	.3	1536.5	.1
283.15	.1041	.3	1554.5	.1
293.15	.1063	.32	1530.9	.1
283.15	.1063	.32	1548.9	.1
288.15	.1063	.32	1539.9	.1
278.15	.1063	.32	1557.9	.1
283.15	.1088	.0861	1590.9	.1
293.15	.1088	.0861	1573.7	.1
278.15	.1088	.0861	1599.5	.1
288.15	.1088	.0861	1582.4	.1
283.15	.115	.3221	1551.2	.1
293.15	.115	.3221	1533	.1
288.15	.115	.3221	1542.1	.1
293.15	.115	.3221	1533	.1
278.15	.115	.3221	1560.3	.1
288.15	.115	.3221	1542.1	.1
293.15	.115	.3221	1533	.1
283.15	.115	.3221	1551.2	.1
283.15	.115	.3221	1551.2	.1
288.15	.115	.3221	1542.1	.1
278.15	.115	.3221	1560.2	.1
278.15	.115	.3221	1560.2	.1
293.15	.1168	.1276	1571.1	.1
283.15	.1168	.1276	1588.5	.1
288.15	.1168	.1276	1579.8	.1
278.15	.1168	.1276	1597.2	.1
288.15	.1181	.2976	1548.9	.1
278.15	.1181	.2976	1566.9	.1
283.15	.1181	.2976	1557.9	.1
293.15	.1181	.2976	1539.9	.1
288.15	.1195	.0855	1587.4	.1
283.15	.1195	.0855	1596	.1
278.15	.1195	.0855	1604.6	.1
293.15	.1195	.0855	1578.7	.1
288.15	.1201	.281	1554.1	.1
283.15	.1201	.281	1563.1	.1
278.15	.1201	.281	1572.1	.1
293.15	.1201	.281	1545	.1
288.15	.1213	.2714	1556.8	.1
283.15	.1213	.2714	1565.9	.1
278.15	.1213	.2714	1574.8	.1
293.15	.1213	.2714	1547.7	.1
288.15	.1236	.2526	1561.8	.1
283.15	.1236	.2526	1570.8	.1
278.15	.1236	.2526	1579.8	.1
293.15	.1236	.2526	1552.8	.1
283.15	.1254	.2381	1574.2	.1
278.15	.1254	.2381	1583	.1
293.15	.1254	.2381	1556.1	.1
288.15	.1254	.2381	1565.2	.1
288.15	.1288	.2113	1571.8	.1
283.15	.1288	.2113	1580.8	.1
293.15	.1288	.2113	1562.9	.1
278.15	.1288	.2113	1589.6	.1
293.15	.1332	.0844	1584.7	.1
288.15	.1332	.0844	1593.5	.1
278.15	.1332	.0844	1610.7	.1
283.15	.1332	.0844	1602.1	.1
278.15	.1334	.1732	1598.2	.1
288.15	.1334	.1732	1580.6	.1
293.15	.1334	.1732	1571.6	.1
283.15	.1334	.1732	1589.4	.1
293.15	.1399	.1211	1581.9	.1
288.15	.1399	.1211	1590.8	.1
278.15	.1399	.1211	1608.2	.1
283.15	.1399	.1211	1599.5	.1
288.15	.1445	.0835	1598.3	.1
278.15	.1445	.0835	1615.6	.1
283.15	.1445	.0835	1607	.1
293.15	.1445	.0835	1589.8	.1
283.15	.1445	.0835	1607	.1
293.15	.1445	.0835	1589.6	.1
288.15	.1445	.0835	1598.3	.1
278.15	.1445	.0835	1615.6	.1
