Measured thermophysical data. Densities and Viscosities of [Bmim][PF6] and Binary Systems [Bmim][PF6] + Ethanol, [Bmim][PF6] + Benzene at Several Temperatures and Pressures: Determined by the Falling-Ball Method
Source: J. Chem. Eng. Data, 2011, 10.1021/je1012444
Compound 1: ethanol, C2H6O, purity 99.7%
Compound 2: benzene, C6H6, purity 99.5%
Compound 3: 1-butyl-3-methylimidazolium hexafluorophosphate, C8H15F6N2P, purity 99%

System: 1-butyl-3-methylimidazolium hexafluorophosphate; phases: Liquid
Property: Mass density, kg/m3 (Liquid); method: Pycnometric method
Temperature, K	Pressure, kPa	Mass density, kg/m3	uncertainty
313.2	25000	1372	1.5
313.2	20000	1371	1.5
313.2	15000	1368	1.5
313.2	10000	1366	1.5
313.2	5000	1363	1.5
313.2	100	1358	1.5
333.2	25000	1356	1.5
333.2	20000	1354	1.5
333.2	15000	1351	1.5
333.2	10000	1349	1.5
333.2	5000	1346	1.5
333.2	100	1340	1.5
353.2	25000	1340	1.5
353.2	20000	1337	1.5
353.2	15000	1335	1.5
353.2	10000	1332	1.5
353.2	5000	1329	1.5
353.2	100	1325	1.5
373.2	25000	1322	1.5
373.2	20000	1320	1.5
373.2	15000	1318	1.5
373.2	10000	1315	1.5
373.2	5000	1312	1.5
373.2	100	1309	1.5
393.2	25000	1307	1.5
393.2	20000	1304	1.5
393.2	15000	1302	1.5
393.2	10000	1299	1.5
393.2	5000	1295	1.5
393.2	100	1291	1.5
413.2	25000	1291	1.5
413.2	20000	1289	1.5
413.2	15000	1287	1.5
413.2	10000	1284	1.5
413.2	5000	1282	1.5
413.2	100	1276	1.5

System: 1-butyl-3-methylimidazolium hexafluorophosphate; phases: Liquid
Property: Viscosity, Pa*s (Liquid); method: Falling or rolling sphere viscometry
Temperature, K	Pressure, kPa	Viscosity, Pa*s	uncertainty
313.2	25000	.1323	.001323
313.2	20000	.1273	.001273
313.2	15000	.1243	.001243
313.2	10000	.118	.00118
313.2	5000	.113	.00113
313.2	100	.1092	.001092
333.2	25000	.0582	.000582
333.2	20000	.0564	.000564
333.2	15000	.0545	.000545
333.2	10000	.0496	.000496
333.2	5000	.047	.00047
333.2	100	.0452	.000452
353.2	25000	.0308	.000308
353.2	20000	.0296	.000296
353.2	15000	.029	.00029
353.2	10000	.0279	.000279
353.2	5000	.0262	.000262
353.2	100	.024	.00024
373.2	25000	.0183	.000183
373.2	20000	.0178	.000178
373.2	15000	.0166	.000166
373.2	10000	.0159	.000159
373.2	5000	.0153	.000153
373.2	100	.0148	.000148
393.2	25000	.0125	.000125
393.2	20000	.0119	.000119
393.2	15000	.0115	.000115
393.2	10000	.0109	.000109
393.2	5000	.0107	.000107
393.2	100	.0103	.000103
413.2	25000	.0092	.000092
413.2	20000	.0085	.000085
413.2	15000	.0079	.000079
413.2	10000	.0074	.000074
413.2	5000	.0072	.000072
413.2	100	.0071	.000071

System: ethanol + 1-butyl-3-methylimidazolium hexafluorophosphate; phases: Liquid
Property: Mass density, kg/m3 (Liquid); method: Pycnometric method
Pressure, kPa	Mole fraction of ethanol	Temperature, K	Mass density, kg/m3	uncertainty
25000	.1	313.2	1353	1.5
25000	.1	333.2	1335	1.5
25000	.1	353.2	1318	1.5
25000	.1	373.2	1302	1.5
25000	.1	393.2	1286	1.5
25000	.2	313.2	1329	1.5
25000	.2	333.2	1312	1.5
25000	.2	353.2	1295	1.5
25000	.2	373.2	1279	1.5
25000	.2892	313.2	1314	1.5
25000	.2892	333.2	1299	1.5
25000	.2892	353.2	1283	1.5
25000	.4035	313.2	1276	1.5
25000	.4035	333.2	1260	1.5
25000	.4959	313.2	1249	1.5
25000	.4959	333.2	1233	1.5
20000	.1	313.2	1352	1.5
20000	.1	333.2	1333	1.5
20000	.1	353.2	1316	1.5
20000	.1	373.2	1300	1.5
20000	.1	393.2	1284	1.5
20000	.2	313.2	1327	1.5
20000	.2	333.2	1310	1.5
20000	.2	353.2	1293	1.5
20000	.2	373.2	1277	1.5
20000	.2892	313.2	1312	1.5
20000	.2892	333.2	1296	1.5
20000	.2892	353.2	1280	1.5
20000	.4035	313.2	1274	1.5
20000	.4035	333.2	1257	1.5
20000	.4959	313.2	1247	1.5
20000	.4959	333.2	1231	1.5
15000	.1	313.2	1349	1.5
15000	.1	333.2	1330	1.5
15000	.1	353.2	1314	1.5
15000	.1	373.2	1297	1.5
15000	.1	393.2	1281	1.5
15000	.2	313.2	1325	1.5
15000	.2	333.2	1307	1.5
15000	.2	353.2	1291	1.5
15000	.2	373.2	1275	1.5
15000	.2892	313.2	1310	1.5
15000	.2892	333.2	1294	1.5
15000	.2892	353.2	1278	1.5
15000	.4035	313.2	1272	1.5
15000	.4035	333.2	1255	1.5
15000	.4959	313.2	1245	1.5
15000	.4959	333.2	1228	1.5
10000	.1	313.2	1346	1.5
10000	.1	333.2	1328	1.5
10000	.1	353.2	1311	1.5
10000	.1	373.2	1295	1.5
10000	.1	393.2	1278	1.5
10000	.2	313.2	1322	1.5
10000	.2	333.2	1305	1.5
10000	.2	353.2	1288	1.5
10000	.2	373.2	1272	1.5
10000	.2892	313.2	1308	1.5
10000	.2892	333.2	1291	1.5
10000	.2892	353.2	1275	1.5
10000	.4035	313.2	1269	1.5
10000	.4035	333.2	1253	1.5
10000	.4959	313.2	1242	1.5
10000	.4959	333.2	1226	1.5
5000	.1	313.2	1343	1.5
5000	.1	333.2	1325	1.5
5000	.1	353.2	1308	1.5
5000	.1	373.2	1292	1.5
5000	.1	393.2	1275	1.5
5000	.2	313.2	1320	1.5
5000	.2	333.2	1302	1.5
5000	.2	353.2	1285	1.5
5000	.2	373.2	1269	1.5
5000	.2892	313.2	1305	1.5
5000	.2892	333.2	1288	1.5
5000	.2892	353.2	1272	1.5
5000	.4035	313.2	1267	1.5
5000	.4035	333.2	1250	1.5
5000	.4959	313.2	1240	1.5
5000	.4959	333.2	1223	1.5
100	.1	313.2	1340	1.5
100	.1	333.2	1320	1.5
100	.2	313.2	1315	1.5
100	.2	333.2	1298	1.5
100	.2892	313.2	1300	1.5
100	.2892	333.2	1284	1.5
100	.4035	313.2	1262	1.5
100	.4035	333.2	1246	1.5
100	.4959	313.2	1235	1.5
100	.4959	333.2	1219	1.5

System: ethanol + 1-butyl-3-methylimidazolium hexafluorophosphate; phases: Liquid
Property: Viscosity, Pa*s (Liquid); method: Falling or rolling sphere viscometry
Pressure, kPa	Mole fraction of ethanol	Temperature, K	Viscosity, Pa*s	uncertainty
.000025	.1	313.2	.0774	.000774
.000025	.1	333.2	.04	.0004
.000025	.1	353.2	.0216	.000216
.000025	.1	373.2	.0124	.000124
.000025	.1	393.2	.0079	.000079
.000025	.2	313.2	.0571	.000571
.000025	.2	333.2	.0281	.000281
.000025	.2	353.2	.0154	.000154
.000025	.2	373.2	.008	.00008
.000025	.2892	313.2	.0298	.000298
.000025	.2892	333.2	.0173	.000173
.000025	.2892	353.2	.0093	.000093
.000025	.4035	313.2	.0207	.000207
.000025	.4035	333.2	.0108	.000108
.000025	.4959	313.2	.0174	.000174
.000025	.4959	333.2	.0091	.000091
.00002	.1	313.2	.0756	.000756
.00002	.1	333.2	.038	.00038
.00002	.1	353.2	.0198	.000198
.00002	.1	373.2	.0118	.000118
.00002	.1	393.2	.0076	.000076
.00002	.2	313.2	.054	.00054
.00002	.2	333.2	.0268	.000268
.00002	.2	353.2	.0148	.000148
.00002	.2	373.2	.0077	.000077
.00002	.2892	313.2	.0288	.000288
.00002	.2892	333.2	.0164	.000164
.00002	.2892	353.2	.0088	.000088
.00002	.4035	313.2	.0191	.000191
.00002	.4035	333.2	.0102	.000102
.00002	.4959	313.2	.0163	.000163
.00002	.4959	333.2	.0089	.000089
.000015	.1	313.2	.0746	.000746
.000015	.1	333.2	.0369	.000369
.000015	.1	353.2	.0189	.000189
.000015	.1	373.2	.0115	.000115
.000015	.1	393.2	.007	.00007
.000015	.2	313.2	.0524	.000524
.000015	.2	333.2	.026	.00026
.000015	.2	353.2	.0142	.000142
.000015	.2	373.2	.0075	.000075
.000015	.2892	313.2	.0274	.000274
.000015	.2892	333.2	.0153	.000153
.000015	.2892	353.2	.0082	.000082
.000015	.4035	313.2	.0189	.000189
.000015	.4035	333.2	.0095	.000095
.000015	.4959	313.2	.0156	.000156
.000015	.4959	333.2	.0081	.000081
.00001	.1	313.2	.073	.00073
.00001	.1	333.2	.0349	.000349
.00001	.1	353.2	.0183	.000183
.00001	.1	373.2	.011	.00011
.00001	.1	393.2	.0068	.000068
.00001	.2	313.2	.0491	.000491
.00001	.2	333.2	.0249	.000249
.00001	.2	353.2	.0138	.000138
.00001	.2	373.2	.0068	.000068
.00001	.2892	313.2	.0262	.000262
.00001	.2892	333.2	.0146	.000146
.00001	.2892	353.2	.0076	.000076
.00001	.4035	313.2	.0177	.000177
.00001	.4035	333.2	.0091	.000091
.00001	.4959	313.2	.0145	.000145
.00001	.4959	333.2	.0079	.000079
.000005	.1	313.2	.0706	.000706
.000005	.1	333.2	.0334	.000334
.000005	.1	353.2	.0174	.000174
.000005	.1	373.2	.0105	.000105
.000005	.1	393.2	.0067	.000067
.000005	.2	313.2	.0479	.000479
.000005	.2	333.2	.0242	.000242
.000005	.2	353.2	.0133	.000133
.000005	.2	373.2	.0065	.000065
.000005	.2892	313.2	.0258	.000258
.000005	.2892	333.2	.0142	.000142
.000005	.2892	353.2	.0073	.000073
.000005	.4035	313.2	.0171	.000171
.000005	.4035	333.2	.0087	.000087
.000005	.4959	313.2	.0139	.000139
.000005	.4959	333.2	.0077	.000077
.0000001	.1	313.2	.0685	.000685
.0000001	.1	333.2	.0311	.000311
.0000001	.2	313.2	.0466	.000466
.0000001	.2	333.2	.0231	.000231
.0000001	.2892	313.2	.0253	.000253
.0000001	.2892	333.2	.0126	.000126
.0000001	.4035	313.2	.0156	.000156
.0000001	.4035	333.2	.0082	.000082
.0000001	.4959	313.2	.0132	.000132
.0000001	.4959	333.2	.0073	.000073

System: benzene + 1-butyl-3-methylimidazolium hexafluorophosphate; phases: Liquid
Property: Mass density, kg/m3 (Liquid); method: Pycnometric method
Pressure, kPa	Mole fraction of benzene	Temperature, K	Mass density, kg/m3	uncertainty
25000	.0999	313.2	1347	1.5
25000	.0999	333.2	1330	1.5
25000	.0999	353.2	1312	1.5
25000	.0999	373.2	1296	1.5
25000	.0999	393.2	1281	1.5
25000	.0999	413.2	1266	1.5
25000	.2002	313.2	1325	1.5
25000	.2002	333.2	1309	1.5
25000	.2002	353.2	1292	1.5
25000	.3003	313.2	1302	1.5
25000	.3003	333.2	1285	1.5
25000	.3003	353.2	1268	1.5
25000	.3953	313.2	1274	1.5
25000	.3953	333.2	1256	1.5
25000	.3953	353.2	1240	1.5
25000	.5001	313.2	1239	1.5
25000	.5001	333.2	1223	1.5
25000	.6008	313.2	1200	1.5
25000	.6008	333.2	1184	1.5
25000	.6779	313.2	1162	1.5
20000	.0999	313.2	1346	1.5
20000	.0999	333.2	1328	1.5
20000	.0999	353.2	1310	1.5
20000	.0999	373.2	1294	1.5
20000	.0999	393.2	1278	1.5
20000	.0999	413.2	1263	1.5
20000	.2002	313.2	1324	1.5
20000	.2002	333.2	1307	1.5
20000	.2002	353.2	1290	1.5
20000	.3003	313.2	1300	1.5
20000	.3003	333.2	1283	1.5
20000	.3003	353.2	1267	1.5
20000	.3953	313.2	1272	1.5
20000	.3953	333.2	1254	1.5
20000	.3953	353.2	1238	1.5
20000	.5001	313.2	1237	1.5
20000	.5001	333.2	1221	1.5
20000	.6008	313.2	1198	1.5
20000	.6008	333.2	1182	1.5
20000	.6779	313.2	1160	1.5
15000	.0999	313.2	1344	1.5
15000	.0999	333.2	1326	1.5
15000	.0999	353.2	1308	1.5
15000	.0999	373.2	1292	1.5
15000	.0999	393.2	1277	1.5
15000	.0999	413.2	1261	1.5
15000	.2002	313.2	1322	1.5
15000	.2002	333.2	1305	1.5
15000	.2002	353.2	1288	1.5
15000	.3003	313.2	1298	1.5
15000	.3003	333.2	1281	1.5
15000	.3003	353.2	1265	1.5
15000	.3953	313.2	1270	1.5
15000	.3953	333.2	1253	1.5
15000	.3953	353.2	1236	1.5
15000	.5001	313.2	1236	1.5
15000	.5001	333.2	1219	1.5
15000	.6008	313.2	1196	1.5
15000	.6008	333.2	1179	1.5
15000	.6779	313.2	1158	1.5
10000	.0999	313.2	1342	1.5
10000	.0999	333.2	1324	1.5
10000	.0999	353.2	1306	1.5
10000	.0999	373.2	1290	1.5
10000	.0999	393.2	1274	1.5
10000	.0999	413.2	1259	1.5
10000	.2002	313.2	1320	1.5
10000	.2002	333.2	1303	1.5
10000	.2002	353.2	1286	1.5
10000	.3003	313.2	1296	1.5
10000	.3003	333.2	1279	1.5
10000	.3003	353.2	1262	1.5
10000	.3953	313.2	1268	1.5
10000	.3953	333.2	1250	1.5
10000	.3953	353.2	1233	1.5
10000	.5001	313.2	1233	1.5
10000	.5001	333.2	1216	1.5
10000	.6008	313.2	1193	1.5
10000	.6008	333.2	1177	1.5
10000	.6779	313.2	1156	1.5
5000	.0999	313.2	1339	1.5
5000	.0999	333.2	1321	1.5
5000	.0999	353.2	1304	1.5
5000	.0999	373.2	1287	1.5
5000	.0999	393.2	1271	1.5
5000	.0999	413.2	1256	1.5
5000	.2002	313.2	1318	1.5
5000	.2002	333.2	1300	1.5
5000	.2002	353.2	1284	1.5
5000	.3003	313.2	1293	1.5
5000	.3003	333.2	1276	1.5
5000	.3003	353.2	1260	1.5
5000	.3953	313.2	1265	1.5
5000	.3953	333.2	1247	1.5
5000	.3953	353.2	1231	1.5
5000	.5001	313.2	1231	1.5
5000	.5001	333.2	1213	1.5
5000	.6008	313.2	1190	1.5
5000	.6008	333.2	1174	1.5
5000	.6779	313.2	1153	1.5
100	.0999	313.2	1335	1.5
100	.0999	333.2	1317	1.5
100	.2002	313.2	1314	1.5
100	.2002	333.2	1296	1.5
100	.3003	313.2	1289	1.5
100	.3003	333.2	1272	1.5
100	.3953	313.2	1260	1.5
100	.3953	333.2	1242	1.5
100	.5001	313.2	1226	1.5
100	.5001	333.2	1210	1.5
100	.6008	313.2	1186	1.5
100	.6779	313.2	1149	1.5

System: benzene + 1-butyl-3-methylimidazolium hexafluorophosphate; phases: Liquid
Property: Viscosity, Pa*s (Liquid); method: Falling or rolling sphere viscometry
Pressure, kPa	Mole fraction of benzene	Temperature, K	Viscosity, Pa*s	uncertainty
25000	.0999	313.2	.0746	.000746
25000	.0999	333.2	.0356	.000356
25000	.0999	353.2	.0189	.000189
25000	.0999	373.2	.0122	.000122
25000	.0999	393.2	.0086	.000086
25000	.0999	413.2	.0069	.000069
20000	.0999	313.2	.069	.00069
20000	.0999	333.2	.0335	.000335
20000	.0999	353.2	.018	.00018
20000	.0999	373.2	.0118	.000118
20000	.0999	393.2	.0084	.000084
20000	.0999	413.2	.0067	.000067
15000	.0999	313.2	.0644	.000644
15000	.0999	333.2	.0311	.000311
15000	.0999	353.2	.0172	.000172
15000	.0999	373.2	.0115	.000115
15000	.0999	393.2	.0081	.000081
15000	.0999	413.2	.0065	.000065
10000	.0999	313.2	.0607	.000607
10000	.0999	333.2	.0291	.000291
10000	.0999	353.2	.0167	.000167
10000	.0999	373.2	.0113	.000113
10000	.0999	393.2	.0078	.000078
10000	.0999	413.2	.0063	.000063
5000	.0999	313.2	.058	.00058
5000	.0999	333.2	.0277	.000277
5000	.0999	353.2	.0164	.000164
5000	.0999	373.2	.011	.00011
5000	.0999	393.2	.0075	.000075
5000	.0999	413.2	.0061	.000061
100	.0999	313.2	.0548	.000548
100	.0999	333.2	.0269	.000269
15000	.2002	313.2	.0462	.000462
15000	.2002	333.2	.0252	.000252
15000	.2002	353.2	.0153	.000153
25000	.2002	313.2	.0507	.000507
25000	.2002	333.2	.0272	.000272
25000	.2002	353.2	.0166	.000166
10000	.2002	313.2	.0437	.000437
10000	.2002	333.2	.0243	.000243
10000	.2002	353.2	.0148	.000148
20000	.2002	313.2	.0483	.000483
20000	.2002	333.2	.026	.00026
20000	.2002	353.2	.0161	.000161
5000	.2002	313.2	.0422	.000422
5000	.2002	333.2	.023	.00023
5000	.2002	353.2	.0144	.000144
100	.2002	313.2	.0407	.000407
100	.2002	333.2	.022	.00022
15000	.3003	313.2	.0322	.000322
15000	.3003	333.2	.0181	.000181
15000	.3003	353.2	.01	.0001
25000	.3003	313.2	.035	.00035
10000	.3003	313.2	.0309	.000309
10000	.3003	333.2	.017	.00017
10000	.3003	353.2	.0096	.000096
25000	.3003	333.2	.0209	.000209
25000	.3003	353.2	.0113	.000113
20000	.3003	313.2	.0335	.000335
5000	.3003	313.2	.0298	.000298
5000	.3003	333.2	.016	.00016
5000	.3003	353.2	.009	.00009
20000	.3003	333.2	.0194	.000194
20000	.3003	353.2	.0105	.000105
100	.3003	313.2	.029	.00029
100	.3003	333.2	.0151	.000151
25000	.3953	313.2	.0232	.000232
15000	.3953	333.2	.0117	.000117
15000	.3953	353.2	.0073	.000073
10000	.3953	313.2	.0204	.000204
10000	.3953	333.2	.011	.00011
10000	.3953	353.2	.0068	.000068
25000	.3953	333.2	.0131	.000131
25000	.3953	353.2	.0081	.000081
20000	.3953	313.2	.0221	.000221
5000	.3953	313.2	.0191	.000191
5000	.3953	333.2	.0104	.000104
5000	.3953	353.2	.0065	.000065
20000	.3953	333.2	.0124	.000124
20000	.3953	353.2	.0078	.000078
15000	.3953	313.2	.0212	.000212
100	.3953	313.2	.0185	.000185
100	.3953	333.2	.0096	.000096
25000	.5001	313.2	.0153	.000153
25000	.5001	333.2	.0091	.000091
15000	.5001	313.2	.0129	.000129
10000	.5001	313.2	.0123	.000123
10000	.5001	333.2	.0081	.000081
5000	.5001	313.2	.0116	.000116
5000	.5001	333.2	.008	.00008
20000	.5001	313.2	.0142	.000142
20000	.5001	333.2	.0087	.000087
15000	.5001	333.2	.0084	.000084
100	.5001	313.2	.0112	.000112
100	.5001	333.2	.0076	.000076
15000	.6008	333.2	.0065	.000065
5000	.6008	313.2	.0086	.000086
25000	.6008	333.2	.0072	.000072
10000	.6008	333.2	.0061	.000061
20000	.6008	313.2	.0108	.000108
20000	.6008	333.2	.0068	.000068
15000	.6008	313.2	.01	.0001
25000	.6008	313.2	.0118	.000118
10000	.6008	313.2	.0092	.000092
100	.6008	313.2	.0077	.000077
5000	.6779	313.2	.0078	.000078
20000	.6779	313.2	.0098	.000098
10000	.6779	313.2	.0084	.000084
15000	.6779	313.2	.009	.00009
25000	.6779	313.2	.0103	.000103
100	.6779	313.2	.0072	.000072
