Measured thermophysical data. Solubility of NaBr, NaCl, and KBr in Surfactant Aqueous Solutions
Source: J. Chem. Eng. Data, 2011, 10.1021/je100905g
Compound 1: sodium bromide, BrNa
Compound 2: sodium chloride, ClNa
Compound 3: potassium bromide, BrK
Compound 4: sodium dodecyl sulfate, C12H25NaO4S
Compound 5: ammonium, trimethyltetradecyl-, bromide, C17H38BrN
Compound 6: water, H2O

System: ammonium, trimethyltetradecyl-, bromide + sodium bromide + water; phases: Liquid, Crystal
Fixed: Pressure, kPa = 101
Property: Mass fraction of sodium bromide (Liquid); method: Gravimetric
Temperature, K	Solvent: Amount concentration (molarity), mol/dm3 of ammonium, trimethyltetradecyl-, bromide	Mass fraction of sodium bromide	uncertainty
298.15	.001	.3232	.001616
303.15	.001	.4138	.002069
313.15	.001	.5077	.0025385
318.15	.001	.5221	.0026105
323.15	.001	.5294	.002647
328.15	.001	.5335	.0026675
333.15	.001	.5354	.002677
343.15	.001	.5586	.002793
348.15	.001	.5606	.002803
353.15	.001	.5611	.0028055
298.15	.02	.2991	.0014955
303.15	.02	.3398	.001699
313.15	.02	.4334	.002167
318.15	.02	.4834	.002417
323.15	.02	.5094	.002547
328.15	.02	.5275	.0026375
333.15	.02	.5292	.002646
343.15	.02	.5458	.002729
348.15	.02	.5516	.002758
353.15	.02	.5589	.0027945

System: ammonium, trimethyltetradecyl-, bromide + water + potassium bromide; phases: Liquid, Crystal
Fixed: Pressure, kPa = 101
Property: Mass fraction of potassium bromide (Liquid); method: Gravimetric
Temperature, K	Solvent: Amount concentration (molarity), mol/dm3 of ammonium, trimethyltetradecyl-, bromide	Mass fraction of potassium bromide	uncertainty
298.15	.001	.3549	.0017745
303.15	.001	.4029	.0020145
313.15	.001	.4379	.0021895
323.15	.001	.4573	.0022865
333.15	.001	.477	.002385
343.15	.001	.4878	.002439
348.15	.001	.496	.00248
353.15	.001	.5013	.0025065
298.15	.02	.3364	.001682
303.15	.02	.3832	.001916
313.15	.02	.4218	.002109
323.15	.02	.4386	.002193
333.15	.02	.4536	.002268
343.15	.02	.4689	.0023445
348.15	.02	.4884	.002442
353.15	.02	.4972	.002486

System: sodium dodecyl sulfate + sodium bromide + water; phases: Liquid, Crystal
Fixed: Pressure, kPa = 101
Property: Mass fraction of sodium bromide (Liquid); method: Gravimetric
Temperature, K	Solvent: Amount concentration (molarity), mol/dm3 of sodium dodecyl sulfate	Mass fraction of sodium bromide	uncertainty
298.15	.005	.0999	.0004995
303.15	.005	.1136	.000568
313.15	.005	.1411	.0007055
323.15	.005	.1538	.000769
333.15	.005	.1657	.0008285
343.15	.005	.1743	.0008715
348.15	.005	.1848	.000924
353.15	.005	.2004	.001002
298.15	.04	.0827	.0004135
303.15	.04	.0966	.000483
313.15	.04	.1196	.000598
323.15	.04	.1288	.000644
333.15	.04	.1359	.0006795
343.15	.04	.1464	.000732
348.15	.04	.1515	.0007575
353.15	.04	.1741	.0008705

System: sodium dodecyl sulfate + sodium chloride + water; phases: Liquid, Crystal
Fixed: Pressure, kPa = 101
Property: Mass fraction of sodium chloride (Liquid); method: Gravimetric
Temperature, K	Solvent: Amount concentration (molarity), mol/dm3 of sodium dodecyl sulfate	Mass fraction of sodium chloride	uncertainty
298.15	.005	.0524	.000262
303.15	.005	.0747	.0003735
313.15	.005	.1034	.000517
323.15	.005	.1164	.000582
333.15	.005	.1269	.0006345
343.15	.005	.1365	.0006825
348.15	.005	.14	.0007
353.15	.005	.1452	.000726
298.15	.04	.0431	.0002155
303.15	.04	.0638	.000319
313.15	.04	.0899	.0004495
323.15	.04	.1001	.0005005
333.15	.04	.1093	.0005465
343.15	.04	.1157	.0005785
348.15	.04	.1236	.000618
353.15	.04	.1345	.0006725
