Measured thermophysical data. Phase Equilibria for Reactive Distillation of Propyl Propanoate. Pure Component Property Data, Vapor-Liquid Equilibria, and Liquid-Liquid Equilibria
Source: J. Chem. Eng. Data, 2011, 10.1021/je101302p
Compound 1: propyl propanoate, C6H12O2
Compound 2: ethanecarboxylic acid, C3H6O2
Compound 3: propan-1-ol, C3H8O
Compound 4: water, H2O

System: propyl propanoate; phases: Liquid
Fixed: Pressure, kPa = 101.325
Property: Mass density, kg/m3 (Liquid); method: Vibrating tube method
Temperature, K	Mass density, kg/m3	uncertainty
298.15	881.619	

System: propyl propanoate; phases: Liquid, Gas
Property: Vapor or sublimation pressure, kPa (Liquid); method: Ebulliometric method (Recirculating still)
Temperature, K	Vapor or sublimation pressure, kPa	uncertainty
395.1	101.3	

System: ethanecarboxylic acid; phases: Liquid
Fixed: Pressure, kPa = 101.325
Property: Mass density, kg/m3 (Liquid); method: Vibrating tube method
Temperature, K	Mass density, kg/m3	uncertainty
298.15	993.722	

System: ethanecarboxylic acid; phases: Liquid, Gas
Property: Vapor or sublimation pressure, kPa (Liquid); method: Ebulliometric method (Recirculating still)
Temperature, K	Vapor or sublimation pressure, kPa	uncertainty
414.53	101.3	

System: propan-1-ol; phases: Liquid
Fixed: Pressure, kPa = 101.325
Property: Mass density, kg/m3 (Liquid); method: Vibrating tube method
Temperature, K	Mass density, kg/m3	uncertainty
298.15	804.269	

System: propan-1-ol; phases: Liquid, Gas
Property: Vapor or sublimation pressure, kPa (Liquid); method: Ebulliometric method (Recirculating still)
Temperature, K	Vapor or sublimation pressure, kPa	uncertainty
370.29	101.3	

System: propan-1-ol + ethanecarboxylic acid; phases: Liquid, Gas
Fixed: Pressure, kPa = 101.3
Property: Boiling temperature at pressure P, K (Liquid); method: Ebulliometric method (Recirculating still)
Mole fraction of propan-1-ol	Boiling temperature at pressure P, K	uncertainty
0	414.53	.01
.0025	413.55	.01
.0171	412.25	.01
.0385	411.25	.01
.0635	409.55	.01
.0854	408.15	.01
.1055	406.55	.01
.1474	404.15	.01
.2114	399.45	.01
.2559	396.71	.01
.2757	395.55	.01
.3229	393.25	.01
.3699	390.35	.01
.4547	386.35	.01
.5375	383.05	.01
.6093	380.45	.01
.6452	379.39	.01
.6796	378.3	.01
.725	377	.01
.7714	375.83	.01
.8477	374.21	.01
.8872	373.07	.01
.9232	372.23	.01
.9643	371.27	.01
1	370.29	.01

System: propan-1-ol + ethanecarboxylic acid; phases: Gas, Liquid
Fixed: Pressure, kPa = 101.3
Property: Mole fraction of propan-1-ol (Gas); method: Chromatography
Mole fraction of propan-1-ol	Mole fraction of propan-1-ol	uncertainty
0	0	.0045
.0025	.0031	.0045
.0171	.0432	.0045
.0385	.0919	.0045
.0635	.1432	.0045
.0854	.1824	.0045
.1055	.216	.0045
.1474	.3066	.0045
.2114	.4456	.0045
.2559	.531	.0045
.2757	.56	.0045
.3229	.6359	.0045
.3699	.7106	.0045
.4547	.7857	.0045
.5375	.8534	.0045
.6093	.894	.0045
.6452	.9139	.0045
.6796	.9306	.0045
.725	.9486	.0045
.7714	.9647	.0045
.8477	.98	.0045
.8872	.9879	.0045
.9232	.9926	.0045
.9643	.9965	.0045
1	1	.0045

System: propan-1-ol + propyl propanoate; phases: Liquid, Gas
Fixed: Pressure, kPa = 101.3
Property: Boiling temperature at pressure P, K (Liquid); method: Ebulliometric method (Recirculating still)
Mole fraction of propan-1-ol	Boiling temperature at pressure P, K	uncertainty
0	395.1	.01
.0298	390.85	.01
.0573	388.35	.01
.0945	386.25	.01
.1409	383.85	.01
.1685	382.5	.01
.1904	381.85	.01
.2352	380.15	.01
.2569	379.65	.01
.2758	379.05	.01
.2934	378.45	.01
.3221	377.8	.01
.3495	377.15	.01
.4519	374.7	.01
.5383	373.23	.01
.6365	372.21	.01
.6954	371.72	.01
.756	371.35	.01
.833	370.93	.01
.9084	370.55	.01
.9832	370.33	.01
1	370.29	.01

System: propan-1-ol + propyl propanoate; phases: Gas, Liquid
Fixed: Pressure, kPa = 101.3
Property: Mole fraction of propan-1-ol (Gas); method: Chromatography
Mole fraction of propan-1-ol	Mole fraction of propan-1-ol	uncertainty
0	0	.0045
.0298	.1	.0045
.0573	.2038	.0045
.0945	.2809	.0045
.1409	.3492	.0045
.1685	.3917	.0045
.1904	.4238	.0045
.2352	.4747	.0045
.2569	.5002	.0045
.2758	.5383	.0045
.2934	.5608	.0045
.3221	.5843	.0045
.3495	.6056	.0045
.4519	.6596	.0045
.5383	.7126	.0045
.6365	.7685	.0045
.6954	.802	.0045
.756	.8364	.0045
.833	.8805	.0045
.9084	.931	.0045
.9832	.9886	.0045
1	1	.0045

System: ethanecarboxylic acid + propyl propanoate; phases: Liquid, Gas
Fixed: Pressure, kPa = 101.3
Property: Boiling temperature at pressure P, K (Liquid); method: Ebulliometric method (Recirculating still)
Mole fraction of propyl propanoate	Boiling temperature at pressure P, K	uncertainty
0	414.53	.01
.0345	412.81	.01
.0693	411.54	.01
.1089	410.42	.01
.1692	408.83	.01
.2035	408.12	.01
.2277	407.44	.01
.2574	406.76	.01
.3115	405.54	.01
.3528	404.69	.01
.3816	404.14	.01
.4171	403.41	.01
.4444	402.65	.01
.4848	401.88	.01
.5253	401.05	.01
.5722	400.1	.01
.6208	399.36	.01
.6869	398.49	.01
.7529	397.49	.01
.8529	396.43	.01
1	395.1	.01

System: ethanecarboxylic acid + propyl propanoate; phases: Gas, Liquid
Fixed: Pressure, kPa = 101.3
Property: Mole fraction of propyl propanoate (Gas); method: Chromatography
Mole fraction of propyl propanoate	Mole fraction of propyl propanoate	uncertainty
0	0	.0045
.0345	.0594	.0045
.0693	.1182	.0045
.1089	.1733	.0045
.1692	.2735	.0045
.2035	.3002	.0045
.2277	.3325	.0045
.2574	.3727	.0045
.3115	.44	.0045
.3528	.4754	.0045
.3816	.5051	.0045
.4171	.5455	.0045
.4444	.5758	.0045
.4848	.6162	.0045
.5253	.6617	.0045
.5722	.7029	.0045
.6208	.7475	.0045
.6869	.7921	.0045
.7529	.8515	.0045
.8529	.9238	.0045
1	1	.0045

System: propyl propanoate + water; phases: Liquid, Gas
Fixed: Pressure, kPa = 101.3
Property: Boiling temperature at pressure P, K (Liquid); method: Ebulliometric method (Recirculating still)
Mole fraction of water	Boiling temperature at pressure P, K	uncertainty
0	395.1	.01
.0179	385	.01
.0281	375	.01
.0722	370	.01
.105	364.07	.01
.648	363.15	.01
.9934	363.36	.01
.9944	367	.01
.998	370	.01
1	373.26	.01
.9998	288.15	.01

System: propyl propanoate + water; phases: Gas, Liquid
Fixed: Pressure, kPa = 101.3
Property: Mole fraction of water (Gas); method: Chromatography
Mole fraction of water	Mole fraction of water	uncertainty
0	0	.0045
.0179	.185	.0045
.0281	.355	.0045
.0722	.5926	.0045
.105	.6474	.0045
.648	.648	.0045
.9934	.75	.0045
.9944	.83	.0045
.998	.93	.0045
1	1	.0045

System: propan-1-ol + propyl propanoate + water; phases: Liquid, Gas
Fixed: Pressure, kPa = 101.3
Fixed: Temperature, K = 288.15
Property: Mole fraction of water (Liquid); method: Chromatography
Property: Mole fraction of water (Gas); method: Chromatography
Property: Mole fraction of propan-1-ol (Gas); method: Chromatography
Mole fraction of propan-1-ol	Mole fraction of water	uncertainty	Mole fraction of water	uncertainty	Mole fraction of propan-1-ol	uncertainty
0	.9998	.0045	.1343	.0045	.1766	.0045
.02	.9795	.0045	.19	.0045	.26	.0045
.0446	.9544	.0045	.2585	.0045	.3435	.0045
.0465	.9521	.0045	.2745	.0045	.3489	.0045
.0865	.9097	.0045	.389	.0045	.3745	.0045
.165	.8186	.0045	.4695	.0045	.3573	.0045
.2463	.7182	.0045	.5168	.0045	.361	.0045
.3053	.6307	.0045	.5662	.0045	.3409	.0045
