Measured thermophysical data. Density and Viscosity of Clopidogrel Hydrogen Sulfate + Methanol and Clopidogrel Hydrogen Sulfate + Ethanol from (278.15 to 313.15) K
Source: J. Chem. Eng. Data, 2010, 10.1021/je1000796
Compound 1: clopidogrel hydrogen sulfate, C16H18ClNO6S2, purity 99%
Compound 2: methanol, CH4O, purity 99.5%
Compound 3: ethanol, C2H6O, purity 99.5%
Compound 4: water, H2O

System: methanol; phases: Liquid
Property: Viscosity, Pa*s (Liquid); method: Capillary tube (Ostwald; Ubbelohde) method
Temperature, K	Pressure, kPa	Viscosity, Pa*s	uncertainty
278.15	101	.0007418	.0000044508
283.15	101	.000689	.000004134
288.15	101	.000641	.000003846
293.15	101	.000599	.000003594
298.15	101	.0005585	.000003351
303.15	101	.0005199	.0000031194
308.15	101	.0004857	.0000029142
313.15	101	.0004559	.0000027354

System: methanol; phases: Liquid
Property: Mass density, kg/m3 (Liquid); method: Pycnometric method
Temperature, K	Pressure, kPa	Mass density, kg/m3	uncertainty
278.15	101	803	.2
283.15	101	798.9	.2
288.15	101	795.2	.2
293.15	101	792.1	.2
298.15	101	787.9	.2
303.15	101	783.7	.2
308.15	101	779.5	.2
313.15	101	775.2	.2

System: ethanol; phases: Liquid
Property: Viscosity, Pa*s (Liquid); method: Capillary tube (Ostwald; Ubbelohde) method
Temperature, K	Pressure, kPa	Viscosity, Pa*s	uncertainty
278.15	101	.0016292	.0000097752
283.15	101	.0014735	.000008841
288.15	101	.0013325	.000007995
293.15	101	.0012097	.0000072582
298.15	101	.001099	.000006594
303.15	101	.0009971	.0000059826
308.15	101	.0009083	.0000054498
313.15	101	.000828	.000004968

System: ethanol; phases: Liquid
Property: Mass density, kg/m3 (Liquid); method: Pycnometric method
Temperature, K	Pressure, kPa	Mass density, kg/m3	uncertainty
278.15	101	800.5	.2
283.15	101	797.8	.2
288.15	101	793.9	.2
293.15	101	790	.2
298.15	101	785.7	.2
303.15	101	780.9	.2
308.15	101	778	.2
313.15	101	773.3	.2

System: methanol + clopidogrel hydrogen sulfate; phases: Liquid
Fixed: Pressure, kPa = 101
Property: Mass density, kg/m3 (Liquid); method: Pycnometric method
Temperature, K	Molality, mol/kg of clopidogrel hydrogen sulfate	Mass density, kg/m3	uncertainty
278.15	0	803	.2
278.15	.001	803.1	.2
278.15	.003	803.5	.2
278.15	.005	804	.2
278.15	.007	804.4	.2
278.15	.009	804.8	.2
278.15	.011	805.2	.2
278.15	.013	805.9	.2
278.15	.015	806.4	.2
283.15	0	798.9	.2
283.15	.001	799.2	.2
283.15	.003	799.5	.2
283.15	.005	800.1	.2
283.15	.007	800.4	.2
283.15	.009	801.1	.2
283.15	.011	801.5	.2
283.15	.013	802	.2
283.15	.015	802.6	.2
288.15	0	795.2	.2
288.15	.001	795.4	.2
288.15	.003	795.8	.2
288.15	.005	796.2	.2
288.15	.007	796.4	.2
288.15	.009	797.1	.2
288.15	.011	797.5	.2
288.15	.013	798.2	.2
288.15	.015	799	.2
293.15	0	792.1	.2
293.15	.001	792.3	.2
293.15	.003	792.5	.2
293.15	.005	792.9	.2
293.15	.007	793.3	.2
293.15	.009	793.6	.2
293.15	.011	794	.2
293.15	.013	794.5	.2
293.15	.015	795.3	.2
298.15	0	787.9	.2
298.15	.001	788.1	.2
298.15	.003	788.2	.2
298.15	.005	788.4	.2
298.15	.007	788.7	.2
298.15	.009	789	.2
298.15	.011	789.3	.2
298.15	.013	790	.2
298.15	.015	790.8	.2
303.15	0	783.7	.2
303.15	.001	784	.2
303.15	.003	784.1	.2
303.15	.005	784.3	.2
303.15	.007	784.5	.2
303.15	.009	785	.2
303.15	.011	785.3	.2
303.15	.013	785.8	.2
303.15	.015	786.6	.2
308.15	0	779.5	.2
308.15	.001	779.7	.2
308.15	.003	779.8	.2
308.15	.005	780	.2
308.15	.007	780.3	.2
308.15	.009	780.7	.2
308.15	.011	781.1	.2
308.15	.013	781.5	.2
308.15	.015	782.3	.2
313.15	0	775.2	.2
313.15	.001	775.3	.2
313.15	.003	775.5	.2
313.15	.005	775.7	.2
313.15	.007	775.9	.2
313.15	.009	776	.2
313.15	.011	776.4	.2
313.15	.013	777	.2
313.15	.015	777.8	.2

System: methanol + clopidogrel hydrogen sulfate; phases: Liquid
Fixed: Pressure, kPa = 101
Property: Viscosity, Pa*s (Liquid); method: Capillary tube (Ostwald; Ubbelohde) method
Temperature, K	Molality, mol/kg of clopidogrel hydrogen sulfate	Viscosity, Pa*s	uncertainty
278.15	0	.0007418	.0000044508
278.15	.001	.0007441	.0000044646
278.15	.003	.000747	.000004482
278.15	.005	.0007487	.0000044922
278.15	.007	.0007505	.000004503
278.15	.009	.0007525	.000004515
278.15	.011	.0007529	.0000045174
278.15	.013	.0007577	.0000045462
278.15	.015	.0007582	.0000045492
283.15	0	.000689	.000004134
283.15	.001	.0006924	.0000041544
283.15	.003	.0006943	.0000041658
283.15	.005	.0006961	.0000041766
283.15	.007	.000698	.000004188
283.15	.009	.0006998	.0000041988
283.15	.011	.0007006	.0000042036
283.15	.013	.0007039	.0000042234
283.15	.015	.000705	.00000423
288.15	0	.000641	.000003846
288.15	.001	.0006416	.0000038496
288.15	.003	.0006446	.0000038676
288.15	.005	.0006475	.000003885
288.15	.007	.0006487	.0000038922
288.15	.009	.0006494	.0000038964
288.15	.011	.0006502	.0000039012
288.15	.013	.0006527	.0000039162
288.15	.015	.0006538	.0000039228
293.15	0	.000599	.000003594
293.15	.001	.0006006	.0000036036
293.15	.003	.0006022	.0000036132
293.15	.005	.0006042	.0000036252
293.15	.007	.0006049	.0000036294
293.15	.009	.000606	.000003636
293.15	.011	.0006077	.0000036462
293.15	.013	.0006096	.0000036576
293.15	.015	.0006111	.0000036666
298.15	0	.0005585	.000003351
298.15	.001	.0005596	.0000033576
298.15	.003	.000562	.000003372
298.15	.005	.0005631	.0000033786
298.15	.007	.0005638	.0000033828
298.15	.009	.0005652	.0000033912
298.15	.011	.0005661	.0000033966
298.15	.013	.0005684	.0000034104
298.15	.015	.0005694	.0000034164
303.15	0	.0005199	.0000031194
303.15	.001	.0005212	.0000031272
303.15	.003	.0005236	.0000031416
303.15	.005	.0005254	.0000031524
303.15	.007	.0005262	.0000031572
303.15	.009	.0005269	.0000031614
303.15	.011	.0005276	.0000031656
303.15	.013	.0005304	.0000031824
303.15	.015	.0005315	.000003189
308.15	0	.0004857	.0000029142
308.15	.001	.000487	.000002922
308.15	.003	.0004898	.0000029388
308.15	.005	.0004901	.0000029406
308.15	.007	.0004906	.0000029436
308.15	.009	.0004919	.0000029514
308.15	.011	.0004936	.0000029616
308.15	.013	.0004943	.0000029658
308.15	.015	.0004967	.0000029802
313.15	0	.0004559	.0000027354
313.15	.001	.0004567	.0000027402
313.15	.003	.0004589	.0000027534
313.15	.005	.0004595	.000002757
313.15	.007	.0004601	.0000027606
313.15	.009	.0004604	.0000027624
313.15	.011	.000462	.000002772
313.15	.013	.0004631	.0000027786
313.15	.015	.0004647	.0000027882

System: ethanol + clopidogrel hydrogen sulfate; phases: Liquid
Fixed: Pressure, kPa = 101
Property: Mass density, kg/m3 (Liquid); method: Pycnometric method
Temperature, K	Molality, mol/kg of clopidogrel hydrogen sulfate	Mass density, kg/m3	uncertainty
278.15	0	800.5	.2
278.15	.001	801	.2
278.15	.003	801.6	.2
278.15	.005	802.3	.2
278.15	.007	802.9	.2
278.15	.009	803.5	.2
278.15	.011	803.9	.2
278.15	.013	804.5	.2
278.15	.015	805	.2
283.15	0	797.8	.2
283.15	.001	798	.2
283.15	.003	798.4	.2
283.15	.005	798.9	.2
283.15	.007	799.3	.2
283.15	.009	799.8	.2
283.15	.011	800.1	.2
283.15	.013	800.6	.2
283.15	.015	800.9	.2
288.15	0	793.9	.2
288.15	.001	794.2	.2
288.15	.003	794.5	.2
288.15	.005	794.9	.2
288.15	.007	795.4	.2
288.15	.009	795.9	.2
288.15	.011	796.2	.2
288.15	.013	796.5	.2
288.15	.015	796.8	.2
293.15	0	790	.2
293.15	.001	790.4	.2
293.15	.003	790.8	.2
293.15	.005	791	.2
293.15	.007	791.4	.2
293.15	.009	791.8	.2
293.15	.011	792.2	.2
293.15	.013	792.8	.2
293.15	.015	793	.2
298.15	0	785.7	.2
298.15	.001	786.1	.2
298.15	.003	786.6	.2
298.15	.005	786.9	.2
298.15	.007	787.2	.2
298.15	.009	787.7	.2
298.15	.011	788	.2
298.15	.013	788.4	.2
298.15	.015	788.7	.2
303.15	0	780.9	.2
303.15	.001	781.2	.2
303.15	.003	781.8	.2
303.15	.005	782.1	.2
303.15	.007	782.5	.2
303.15	.009	782.9	.2
303.15	.011	783.2	.2
303.15	.013	783.4	.2
303.15	.015	783.9	.2
308.15	0	778	.2
308.15	.001	778.2	.2
308.15	.003	778.5	.2
308.15	.005	778.7	.2
308.15	.007	778.9	.2
308.15	.009	779.1	.2
308.15	.011	779.4	.2
308.15	.013	779.8	.2
308.15	.015	780.2	.2
313.15	0	773.3	.2
313.15	.001	773.7	.2
313.15	.003	773.9	.2
313.15	.005	774.2	.2
313.15	.007	774.5	.2
313.15	.009	774.8	.2
313.15	.011	775.2	.2
313.15	.013	775.7	.2
313.15	.015	776	.2

System: ethanol + clopidogrel hydrogen sulfate; phases: Liquid
Fixed: Pressure, kPa = 101
Property: Viscosity, Pa*s (Liquid); method: Capillary tube (Ostwald; Ubbelohde) method
Temperature, K	Molality, mol/kg of clopidogrel hydrogen sulfate	Viscosity, Pa*s	uncertainty
278.15	0	.0016292	.0000097752
278.15	.001	.0016324	.0000097944
278.15	.003	.0016377	.0000098262
278.15	.005	.0016455	.000009873
278.15	.007	.001665	.00000999
278.15	.009	.0016712	.0000100272
278.15	.011	.0016736	.0000100416
278.15	.013	.00168	.00001008
278.15	.015	.0016868	.0000101208
283.15	0	.0014735	.000008841
283.15	.001	.0014764	.0000088584
283.15	.003	.0014835	.000008901
283.15	.005	.0014887	.0000089322
283.15	.007	.0015022	.0000090132
283.15	.009	.0015053	.0000090318
283.15	.011	.0015081	.0000090486
283.15	.013	.0015137	.0000090822
283.15	.015	.0015235	.000009141
288.15	0	.0013325	.000007995
288.15	.001	.0013347	.0000080082
288.15	.003	.0013425	.000008055
288.15	.005	.0013456	.0000080736
288.15	.007	.0013586	.0000081516
288.15	.009	.00136	.00000816
288.15	.011	.0013605	.000008163
288.15	.013	.0013648	.0000081888
288.15	.015	.0013733	.0000082398
293.15	0	.0012097	.0000072582
293.15	.001	.0012106	.0000072636
293.15	.003	.0012137	.0000072822
293.15	.005	.0012234	.0000073404
293.15	.007	.0012347	.0000074082
293.15	.009	.0012365	.000007419
293.15	.011	.0012375	.000007425
293.15	.013	.0012428	.0000074568
293.15	.015	.0012502	.0000075012
298.15	0	.001099	.000006594
298.15	.001	.0011012	.0000066072
298.15	.003	.0011031	.0000066186
298.15	.005	.0011091	.0000066546
298.15	.007	.0011197	.0000067182
298.15	.009	.0011209	.0000067254
298.15	.011	.0011233	.0000067398
298.15	.013	.0011258	.0000067548
298.15	.015	.0011312	.0000067872
303.15	0	.0009971	.0000059826
303.15	.001	.0009985	.000005991
303.15	.003	.0010026	.0000060156
303.15	.005	.0010057	.0000060342
303.15	.007	.0010125	.000006075
303.15	.009	.0010155	.000006093
303.15	.011	.0010174	.0000061044
303.15	.013	.0010189	.0000061134
303.15	.015	.0010228	.0000061368
308.15	0	.0009083	.0000054498
308.15	.001	.0009134	.0000054804
308.15	.003	.0009149	.0000054894
308.15	.005	.0009166	.0000054996
308.15	.007	.0009224	.0000055344
308.15	.009	.0009236	.0000055416
308.15	.011	.0009256	.0000055536
308.15	.013	.000928	.000005568
308.15	.015	.0009307	.0000055842
313.15	0	.000828	.000004968
313.15	.001	.0008328	.0000049968
313.15	.003	.0008348	.0000050088
313.15	.005	.0008359	.0000050154
313.15	.007	.0008409	.0000050454
313.15	.009	.0008441	.0000050646
313.15	.011	.0008458	.0000050748
313.15	.013	.0008473	.0000050838
313.15	.015	.0008496	.0000050976
