Measured thermophysical data. Vapor Pressure of Ethyltriethoxysilane
Source: J. Chem. Eng. Data, 2010, 10.1021/je100605v
Compound 1: ethaneorthosiliconic acid, triethyl ester, C8H20O3Si, purity 99.5%

System: ethaneorthosiliconic acid, triethyl ester; phases: Liquid, Gas
Property: Vapor or sublimation pressure, kPa (Liquid); method: Closed cell (Static) method
Temperature, K	Vapor or sublimation pressure, kPa	uncertainty
335	.002325	.00002
340.8	.003325	.00002
346.2	.004325	.00002
350.4	.005325	.00002
359.9	.008325	.00002
367.1	.011325	.00002
372.9	.014325	.00002
377.7	.017325	.00002
382	.020325	.00002
385.8	.023325	.00002
389	.026325	.00002
392	.029325	.00002
394.8	.032325	.00002
397.4	.035325	.00002
399.9	.038325	.00002
402.2	.041325	.00002
404.1	.044325	.00002
405.5	.047325	.00002
407.6	.050325	.00002
410.1	.053325	.00002
411.9	.056325	.00002
413.7	.059325	.00002
415.4	.062325	.00002
416.8	.065325	.00002
418.3	.068325	.00002
419.4	.071325	.00002
420.6	.074325	.00002
421.8	.077325	.00002
423.7	.080325	.00002
425.4	.083325	.00002
426.7	.086325	.00002
427.9	.089325	.00002
429.1	.092325	.00002
430.2	.095325	.00002
431.3	.098325	.00002
432	.100325	.00002
