Measured thermophysical data. Solubilities of Triethanolamine Hydrochloride Ionic Liquid in Aqueous Hydrochloric Acid Solutions with Concentrations from (0 to 8.37) mol*kg-1
Source: J. Chem. Eng. Data, 2010, 10.1021/je100584w
Compound 1: triethanolamine hydrochloride, C6H16ClNO3, purity 98%
Compound 2: water, H2O
Compound 3: hydrogen chloride, ClH

System: triethanolamine hydrochloride + water; phases: Liquid, Crystal
Fixed: Pressure, kPa = 101
Property: Mole fraction of triethanolamine hydrochloride (Liquid); method: Chromatography
Temperature, K	Mole fraction of triethanolamine hydrochloride	uncertainty
285.7	.0335	
292.47	.0399	
298.37	.0462	
303.45	.0525	
308.65	.0587	
311.05	.063	
316.05	.0699	
318.35	.0747	
322	.0815	
326.65	.0884	
333.05	.0998	
339.25	.1108	
344.65	.1215	

System: triethanolamine hydrochloride + hydrogen chloride + water; phases: Liquid, Crystal
Fixed: Pressure, kPa = 101
Property: Mole fraction of triethanolamine hydrochloride (Liquid); method: Chromatography
Temperature, K	Solvent: Molality, mol/kg of hydrogen chloride	Mole fraction of triethanolamine hydrochloride	uncertainty
296.55	1.01	.0375	
301.3	1.01	.0435	
305.95	1.01	.0494	
310.65	1.01	.0552	
315	1.01	.061	
318	1.01	.0667	
321.3	1.01	.0723	
325.95	1.01	.0779	
329.05	1.01	.0834	
332.1	1.01	.0888	
335.35	1.01	.0941	
338.65	1.01	.0994	
296.35	2.12	.0305	
301.85	2.12	.0366	
306.85	2.12	.0427	
311.85	2.12	.0486	
316.05	2.12	.0545	
319.7	2.12	.0603	
324.55	2.12	.0661	
327.8	2.12	.0718	
331.35	2.12	.0774	
335.15	2.12	.084	
338.55	2.12	.0895	
289.15	3.23	.0192	
296.55	3.23	.0255	
302.65	3.23	.0317	
308.25	3.23	.0377	
313.15	3.23	.0438	
317.25	3.23	.0497	
321.3	3.23	.0556	
325.95	3.23	.0614	
329.65	3.23	.0671	
333.55	3.23	.0727	
336.65	3.23	.0783	
292.85	4.49	.0194	
300.25	4.49	.0257	
306.85	4.49	.032	
312.75	4.49	.0381	
317.6	4.49	.0442	
321.95	4.49	.0502	
326.35	4.49	.0561	
330.55	4.49	.0619	
334.35	4.49	.0677	
337.75	4.49	.0734	
295.75	5.85	.0212	
304.85	5.85	.0281	
311.1	5.85	.0349	
316.55	5.85	.0416	
321.95	5.85	.0482	
326.95	5.85	.0547	
331.35	5.85	.0611	
335.45	5.85	.0675	
339.05	5.85	.0737	
342.45	5.85	.0799	
345.25	7.31	.0792	
294.85	7.31	.0195	
303.57	7.31	.0258	
310.95	7.31	.032	
315.85	7.31	.0382	
320.95	7.31	.0443	
326.25	7.31	.0503	
330.35	7.31	.0562	
334.55	7.31	.062	
338.55	7.31	.0678	
341.75	7.31	.0735	
296.35	8.37	.0196	
304.9	8.37	.026	
311.55	8.37	.0323	
317.35	8.37	.0385	
322.9	8.37	.0447	
328.15	8.37	.0507	
332.55	8.37	.0567	
336.65	8.37	.0626	
340.45	8.37	.0684	
344.3	8.37	.0742	
