Measured thermophysical data. Partial Molar Volumes of Cyclic Ketones at Infinite Dilution in Water at Temperatures T = (278 to 373) K and Low Pressure
Source: J. Chem. Eng. Data, 2010, 10.1021/je100547a
Compound 1: cyclopentanone, C5H8O, purity 99%
Compound 2: cyclohexanone, C6H10O, purity 99.8%
Compound 3: cycloheptanone, C7H12O, purity 99%
Compound 4: 1,4-cyclohexanedione, C6H8O2, purity 98%
Compound 5: water, H2O

System: cyclopentanone + water; phases: Liquid
Property: Mass density, kg/m3 (Liquid); method: High Pressure Densimeter
Pressure, kPa	Temperature, K	Molality, mol/kg of cyclopentanone	Mass density, kg/m3	uncertainty
101.3	278.15	.106781	.1261	.0002522
101.3	278.15	.207773	.2731	.0005462
101.3	278.15	.307061	.4391	.0008782
101.3	278.15	.412404	.6281	.0012562
101.3	278.15	.520331	.8416	.0016832
101.3	278.15	.621649	1.0481	.0020962
101.3	283.15	.106781	.0759	.0001518
101.3	283.15	.207773	.1704	.0003408
101.3	283.15	.307061	.2839	.0005678
101.3	283.15	.412404	.4174	.0008348
101.3	283.15	.520331	.5689	.0011378
101.3	283.15	.621649	.7179	.0014358
101.3	288.15	.106781	.0328	.0000656
101.3	288.15	.207773	.0822	.0001644
101.3	288.15	.307061	.1467	.0002934
101.3	288.15	.412404	.2287	.0004574
101.3	288.15	.520331	.3257	.0006514
101.3	288.15	.621649	.4222	.0008444
101.3	293.15	.106781	-.0108	-.0000216
101.3	293.15	.207773	-.0038	-.0000076
101.3	293.15	.307061	.0177	.0000354
101.3	293.15	.412404	.0527	.0001054
101.3	293.15	.520331	.0977	.0001954
101.3	293.15	.621649	.1467	.0002934
101.3	298.15	.106781	-.0502	-.0001004
101.3	298.15	.207773	-.0827	-.0001654
101.3	298.15	.307061	-.1027	-.0002054
101.3	298.15	.412404	-.1137	-.0002274
101.3	298.15	.520331	-.1142	-.0002284
101.3	298.15	.621649	-.1107	-.0002214
101.3	308.15	.106781	-.1266	-.0002532
101.3	308.15	.207773	-.2336	-.0004672
101.3	308.15	.307061	-.3281	-.0006562
101.3	308.15	.412404	-.4201	-.0008402
101.3	308.15	.520331	-.5086	-.0010172
101.3	308.15	.621649	-.5866	-.0011732
101.3	318.15	.106781	-.1955	-.000391
101.3	318.15	.207773	-.372	-.000744
101.3	318.15	.307061	-.5365	-.001073
101.3	318.15	.373897	-.646	-.001292
101.3	318.15	.412404	-.706	-.001412
101.3	318.15	.520331	-.876	-.001752
101.3	318.15	.621649	-1.03	-.00206
520	298.17	.106781	-.0521	-.0001042
520	298.17	.106781	-.0519	-.0001038
520	298.17	.207773	-.0911	-.0001822
520	298.17	.207773	-.0862	-.0001724
520	298.17	.207773	-.0878	-.0001756
520	298.17	.307061	-.1104	-.0002208
520	298.17	.307061	-.1082	-.0002164
520	298.17	.307061	-.1068	-.0002136
520	298.17	.373897	-.1177	-.0002354
520	298.17	.373897	-.1185	-.000237
520	298.17	.373897	-.12	-.00024
520	298.17	.412404	-.1246	-.0002492
520	298.17	.412404	-.1232	-.0002464
520	298.17	.412404	-.12	-.00024
520	298.17	.520331	-.1256	-.0002512
520	298.17	.520331	-.1257	-.0002514
520	298.17	.520331	-.1253	-.0002506
520	298.17	.621649	-.1238	-.0002476
520	298.17	.621649	-.1268	-.0002536
520	298.17	.621649	-.125	-.00025
510	318.14	.106781	-.1989	-.0003978
510	318.14	.106781	-.1998	-.0003996
510	318.14	.106781	-.2004	-.0004008
510	318.14	.207773	-.3778	-.0007556
510	318.14	.207773	-.3794	-.0007588
510	318.14	.207773	-.3802	-.0007604
510	318.14	.307061	-.5469	-.0010938
510	318.14	.307061	-.5458	-.0010916
510	318.14	.307061	-.5459	-.0010918
510	318.14	.373897	-.6542	-.0013084
510	318.14	.373897	-.6542	-.0013084
510	318.14	.373897	-.6543	-.0013086
510	318.14	.412404	-.7174	-.0014348
510	318.14	.412404	-.7181	-.0014362
510	318.14	.412404	-.7183	-.0014366
510	318.14	.520331	-.8895	-.001779
510	318.14	.520331	-.8895	-.001779
510	318.14	.520331	-.8899	-.0017798
510	318.14	.621649	-1.0401	-.0020802
510	318.14	.621649	-1.0399	-.0020798
510	318.14	.621649	-1.0405	-.002081
510	338.18	.113428	-.3581	-.0007162
510	338.18	.113428	-.3531	-.0007062
510	338.18	.113428	-.3537	-.0007074
510	338.18	.211998	-.6528	-.0013056
510	338.18	.211998	-.6527	-.0013054
510	338.18	.211998	-.6569	-.0013138
510	338.18	.313434	-.9591	-.0019182
510	338.18	.313434	-.9582	-.0019164
510	338.18	.313434	-.9599	-.0019198
510	338.18	.367666	-1.1171	-.0022342
510	338.18	.367666	-1.1177	-.0022354
510	338.18	.367666	-1.123	-.002246
510	338.18	.442321	-1.3425	-.002685
510	338.18	.442321	-1.3431	-.0026862
510	338.18	.442321	-1.3435	-.002687
510	338.18	.528455	-1.5974	-.0031948
510	338.18	.528455	-1.5977	-.0031954
510	338.18	.528455	-1.5977	-.0031954
510	338.18	.641948	-1.9316	-.0038632
510	338.18	.641948	-1.9323	-.0038646
510	338.18	.641948	-1.9327	-.0038654
520	358.14	.113428	-.4887	-.0009774
520	358.14	.113428	-.49	-.00098
520	358.14	.113428	-.4901	-.0009802
520	358.14	.211998	-.9064	-.0018128
520	358.14	.211998	-.9074	-.0018148
520	358.14	.211998	-.9077	-.0018154
520	358.14	.313434	-1.3405	-.002681
520	358.14	.313434	-1.3416	-.0026832
520	358.14	.313434	-1.3423	-.0026846
520	358.14	.367666	-1.5644	-.0031288
520	358.14	.367666	-1.5647	-.0031294
520	358.14	.367666	-1.5661	-.0031322
520	358.14	.442321	-1.8852	-.0037704
520	358.14	.442321	-1.8865	-.003773
520	358.14	.442321	-1.8893	-.0037786
520	358.14	.528455	-2.2471	-.0044942
520	358.14	.528455	-2.249	-.004498
520	358.14	.528455	-2.2487	-.0044974
520	358.14	.641948	-2.7233	-.0054466
520	358.14	.641948	-2.724	-.005448
520	358.14	.641948	-2.7244	-.0054488
520	373.17	.097432	-.5082	-.0010164
520	373.17	.097432	-.5059	-.0010118
520	373.17	.097432	-.5061	-.0010122
520	373.17	.154323	-.8002	-.0016004
520	373.17	.154323	-.8003	-.0016006
520	373.17	.154323	-.8009	-.0016018
520	373.17	.215085	-1.1146	-.0022292
520	373.17	.215085	-1.1138	-.0022276
520	373.17	.215085	-1.1152	-.0022304
520	373.17	.307559	-1.5893	-.0031786
520	373.17	.307559	-1.5901	-.0031802
520	373.17	.307559	-1.5913	-.0031826
520	373.17	.426366	-2.1968	-.0043936
520	373.17	.426366	-2.1972	-.0043944
520	373.17	.426366	-2.1985	-.004397
520	373.17	.494555	-2.5419	-.0050838
520	373.17	.494555	-2.5421	-.0050842
520	373.17	.494555	-2.5429	-.0050858
520	373.17	.607864	-3.1169	-.0062338
520	373.17	.607864	-3.1175	-.006235
520	373.17	.607864	-3.1182	-.0062364

System: cyclohexanone + water; phases: Liquid
Property: Mass density, kg/m3 (Liquid); method: High Pressure Densimeter
Pressure, kPa	Temperature, K	Molality, mol/kg of cyclohexanone	Mass density, kg/m3	uncertainty
101.3	278.15	.101015	.1241	.0002482
101.3	278.15	.204323	.2891	.0005782
101.3	278.15	.299577	.4636	.0009272
101.3	278.15	.404296	.6736	.0013472
101.3	278.15	.509153	.8976	.0017952
101.3	283.15	.101015	.0599	.0001198
101.3	283.15	.204323	.1544	.0003088
101.3	283.15	.299577	.2639	.0005278
101.3	283.15	.404296	.3964	.0007928
101.3	283.15	.509153	.5439	.0010878
101.3	288.15	.101015	.0047	.0000094
101.3	288.15	.204323	.0377	.0000754
101.3	288.15	.299577	.0847	.0001694
101.3	288.15	.404296	.1518	.0003036
101.3	288.15	.509153	.2298	.0004596
101.3	293.15	.101015	-.0493	-.0000986
101.3	293.15	.204323	-.0743	-.0001486
101.3	293.15	.299577	-.0803	-.0001606
101.3	293.15	.404296	-.0743	-.0001486
101.3	293.15	.509153	-.0593	-.0001186
101.3	298.15	.101015	-.0962	-.0001924
101.3	298.15	.204323	-.1752	-.0003504
101.3	298.15	.299577	-.2307	-.0004614
101.3	298.15	.404296	-.2832	-.0005664
101.3	298.15	.509153	-.3272	-.0006544
101.3	308.15	.101015	-.1851	-.0003702
101.3	308.15	.204323	-.3586	-.0007172
101.3	308.15	.299577	-.5076	-.0010152
101.3	308.15	.404296	-.6636	-.0013272
101.3	308.15	.509153	-.8146	-.0016292
101.3	318.15	.101015	-.267	-.000534
101.3	318.15	.204323	-.5325	-.001065
101.3	318.15	.299577	-.762	-.001524
101.3	318.15	.365445	-.9205	-.001841
101.3	318.15	.404296	-1.009	-.002018
101.3	318.15	.509153	-1.258	-.002516
520	298.17	.101015	-.0983	-.0001966
520	298.17	.101015	-.0984	-.0001968
520	298.17	.101015	-.0994	-.0001988
520	298.17	.204323	-.1759	-.0003518
520	298.17	.204323	-.1782	-.0003564
520	298.17	.204323	-.1785	-.000357
520	298.17	.299577	-.2396	-.0004792
520	298.17	.299577	-.2373	-.0004746
520	298.17	.299577	-.2375	-.000475
520	298.17	.365445	-.2722	-.0005444
520	298.17	.365445	-.2719	-.0005438
520	298.17	.365445	-.2724	-.0005448
520	298.17	.404296	-.2909	-.0005818
520	298.17	.404296	-.2913	-.0005826
520	298.17	.404296	-.2924	-.0005848
520	298.17	.509153	-.3381	-.0006762
520	298.17	.509153	-.339	-.000678
520	298.17	.509153	-.3393	-.0006786
510	318.14	.101015	-.2693	-.0005386
510	318.14	.101015	-.2698	-.0005396
510	318.14	.101015	-.27	-.00054
510	318.14	.204323	-.5326	-.0010652
510	318.14	.204323	-.5318	-.0010636
510	318.14	.204323	-.5339	-.0010678
510	318.14	.299577	-.7677	-.0015354
510	318.14	.299577	-.7683	-.0015366
510	318.14	.299577	-.7685	-.001537
510	318.14	.365445	-.9251	-.0018502
510	318.14	.365445	-.9249	-.0018498
510	318.14	.365445	-.9261	-.0018522
510	318.14	.404296	-1.0193	-.0020386
510	318.14	.404296	-1.0196	-.0020392
510	318.14	.404296	-1.0201	-.0020402
510	318.14	.509153	-1.2689	-.0025378
510	318.14	.509153	-1.2691	-.0025382
510	318.14	.509153	-1.2701	-.0025402
510	338.18	.089777	-.373	-.000746
510	338.18	.089777	-.3744	-.0007488
510	338.18	.089777	-.3754	-.0007508
510	338.18	.203347	-.8407	-.0016814
510	338.18	.203347	-.8412	-.0016824
510	338.18	.203347	-.8426	-.0016852
510	338.18	.297257	-1.2199	-.0024398
510	338.18	.297257	-1.2207	-.0024414
510	338.18	.297257	-1.2207	-.0024414
510	338.18	.365445	-1.488	-.002976
510	338.18	.365445	-1.4892	-.0029784
510	338.18	.365445	-1.4895	-.002979
510	338.18	.406833	-1.6615	-.003323
510	338.18	.406833	-1.6624	-.0033248
510	338.18	.406833	-1.6624	-.0033248
510	338.18	.497774	-2.0264	-.0040528
510	338.18	.497774	-2.026	-.004052
510	338.18	.497774	-2.027	-.004054
520	358.14	.089777	-.4985	-.000997
520	358.14	.089777	-.5001	-.0010002
520	358.14	.089777	-.5007	-.0010014
520	358.14	.203347	-1.125	-.00225
520	358.14	.203347	-1.1267	-.0022534
520	358.14	.203347	-1.1282	-.0022564
520	358.14	.297257	-1.6365	-.003273
520	358.14	.297257	-1.638	-.003276
520	358.14	.297257	-1.6386	-.0032772
520	358.14	.35738	-1.9661	-.0039322
520	358.14	.35738	-1.9673	-.0039346
520	358.14	.35738	-1.9681	-.0039362
520	358.14	.406833	-2.2344	-.0044688
520	358.14	.406833	-2.2358	-.0044716
520	358.14	.406833	-2.2363	-.0044726
520	358.14	.497774	-2.7266	-.0054532
520	358.14	.497774	-2.7286	-.0054572
520	358.14	.497774	-2.7285	-.005457
520	373.17	.089777	-.587	-.001174
520	373.17	.089777	-.5889	-.0011778
520	373.17	.089777	-.5901	-.0011802
520	373.17	.203347	-1.3267	-.0026534
520	373.17	.203347	-1.3287	-.0026574
520	373.17	.203347	-1.3295	-.002659
520	373.17	.297257	-1.9294	-.0038588
520	373.17	.297257	-1.9314	-.0038628
520	373.17	.297257	-1.9323	-.0038646
520	373.17	.35738	-2.3177	-.0046354
520	373.17	.35738	-2.3197	-.0046394
520	373.17	.35738	-2.3205	-.004641
520	373.17	.406833	-2.6359	-.0052718
520	373.17	.406833	-2.6375	-.005275
520	373.17	.406833	-2.6382	-.0052764
520	373.17	.497774	-3.2125	-.006425
520	373.17	.497774	-3.2141	-.0064282
520	373.17	.497774	-3.2137	-.0064274

System: cycloheptanone + water; phases: Liquid
Property: Mass density, kg/m3 (Liquid); method: High Pressure Densimeter
Pressure, kPa	Temperature, K	Molality, mol/kg of cycloheptanone	Mass density, kg/m3	uncertainty
101.3	278.15	.050044	.0381	.0000762
101.3	278.15	.106687	.0956	.0001912
101.3	278.15	.155694	.1576	.0003152
101.3	278.15	.199982	.2256	.0004512
101.3	283.15	.050044	.0054	.0000108
101.3	283.15	.106687	.0264	.0000528
101.3	283.15	.155694	.0559	.0001118
101.3	283.15	.199982	.0914	.0001828
101.3	288.15	.050044	-.0208	-.0000416
101.3	288.15	.106687	-.0348	-.0000696
101.3	288.15	.155694	-.0322	-.0000644
101.3	288.15	.199982	-.0282	-.0000564
101.3	293.15	.050044	-.0468	-.0000936
101.3	293.15	.106687	-.0908	-.0001816
101.3	293.15	.155694	-.1173	-.0002346
101.3	293.15	.199982	-.1368	-.0002736
101.3	298.15	.050044	-.0709	-.0001418
101.3	298.15	.106687	-.1429	-.0002858
101.3	298.15	.155694	-.1949	-.0003898
101.3	298.15	.199982	-.2389	-.0004778
101.3	308.15	.050044	-.1141	-.0002282
101.3	308.15	.106687	-.2391	-.0004782
101.3	308.15	.155694	-.3366	-.0006732
101.3	308.15	.199982	-.4256	-.0008512
101.3	318.15	.050044	-.155	-.00031
101.3	318.15	.106687	-.328	-.000656
101.3	318.15	.134862	-.405	-.00081
101.3	318.15	.155694	-.4675	-.000935
101.3	318.15	.199982	-.602	-.001204
520	298.17	.050044	-.0726	-.0001452
520	298.17	.050044	-.0729	-.0001458
520	298.17	.050044	-.0737	-.0001474
520	298.17	.106687	-.1441	-.0002882
520	298.17	.106687	-.1438	-.0002876
520	298.17	.106687	-.1447	-.0002894
520	298.17	.134862	-.1654	-.0003308
520	298.17	.134862	-.1667	-.0003334
520	298.17	.134862	-.1671	-.0003342
520	298.17	.155694	-.1945	-.000389
520	298.17	.155694	-.1947	-.0003894
520	298.17	.155694	-.1955	-.000391
520	298.17	.199982	-.2391	-.0004782
520	298.17	.199982	-.2399	-.0004798
520	298.17	.199982	-.24	-.00048
510	318.14	.050044	-.1592	-.0003184
510	318.14	.050044	-.1603	-.0003206
510	318.14	.050044	-.1599	-.0003198
510	318.14	.106687	-.3327	-.0006654
510	318.14	.106687	-.3332	-.0006664
510	318.14	.106687	-.3339	-.0006678
510	318.14	.134862	-.4085	-.000817
510	318.14	.134862	-.4087	-.0008174
510	318.14	.134862	-.4093	-.0008186
510	318.14	.155694	-.4732	-.0009464
510	318.14	.155694	-.4736	-.0009472
510	318.14	.155694	-.4744	-.0009488
510	318.14	.199982	-.6053	-.0012106
510	318.14	.199982	-.6075	-.001215
510	318.14	.199982	-.6063	-.0012126
510	338.18	.052904	-.2484	-.0004968
510	338.18	.052904	-.2482	-.0004964
510	338.18	.052904	-.2492	-.0004984
510	338.18	.099597	-.4607	-.0009214
510	338.18	.099597	-.4619	-.0009238
510	338.18	.099597	-.4623	-.0009246
510	338.18	.134862	-.623	-.001246
510	338.18	.134862	-.6235	-.001247
510	338.18	.134862	-.6242	-.0012484
510	338.18	.145053	-.6676	-.0013352
510	338.18	.145053	-.6684	-.0013368
510	338.18	.145053	-.6688	-.0013376
510	338.18	.194592	-.8904	-.0017808
510	338.18	.194592	-.8912	-.0017824
510	338.18	.194592	-.8912	-.0017824
520	358.14	.0529	-.3285	-.000657
520	358.14	.0529	-.3281	-.0006562
520	358.14	.0529	-.3292	-.0006584
520	358.14	.0996	-.611	-.001222
520	358.14	.0996	-.6119	-.0012238
520	358.14	.0996	-.6126	-.0012252
520	358.14	.12777	-.7803	-.0015606
520	358.14	.12777	-.7814	-.0015628
520	358.14	.12777	-.7819	-.0015638
520	358.14	.14505	-.8868	-.0017736
520	358.14	.14505	-.8881	-.0017762
520	358.14	.14505	-.8885	-.001777
520	358.14	.19459	-1.1853	-.0023706
520	358.14	.19459	-1.1869	-.0023738
520	358.14	.19459	-1.1869	-.0023738
520	373.17	.052904	-.3849	-.0007698
520	373.17	.052904	-.3853	-.0007706
520	373.17	.052904	-.3854	-.0007708
520	373.17	.099597	-.7176	-.0014352
520	373.17	.099597	-.719	-.001438
520	373.17	.099597	-.7191	-.0014382
520	373.17	.12777	-.9184	-.0018368
520	373.17	.12777	-.9195	-.001839
520	373.17	.12777	-.9199	-.0018398
520	373.17	.145053	-1.044	-.002088
520	373.17	.145053	-1.0444	-.0020888
520	373.17	.145053	-1.0451	-.0020902
520	373.17	.194592	-1.3959	-.0027918
520	373.17	.194592	-1.3964	-.0027928
520	373.17	.194592	-1.3967	-.0027934

System: 1,4-cyclohexanedione + water; phases: Liquid
Property: Mass density, kg/m3 (Liquid); method: High Pressure Densimeter
Pressure, kPa	Temperature, K	Molality, mol/kg of 1,4-cyclohexanedione	Mass density, kg/m3	uncertainty
101.3	278.15	.0514	1.1876	.0023752
101.3	278.15	.079997	1.8436	.0036872
101.3	278.15	.124462	2.8596	.0057192
101.3	278.15	.163889	3.7556	.0075112
101.3	283.15	.079997	1.7719	.0035438
101.3	283.15	.124462	2.7489	.0054978
101.3	283.15	.163889	3.6129	.0072258
101.3	288.15	.0514	1.1008	.0022016
101.3	288.15	.079997	1.7073	.0034146
101.3	288.15	.124462	2.6467	.0052934
101.3	288.15	.163889	3.4708	.0069416
101.3	293.15	.0514	1.0577	.0021154
101.3	293.15	.079997	1.6382	.0032764
101.3	293.15	.124462	2.5392	.0050784
101.3	293.15	.163889	3.3322	.0066644
101.3	298.15	.0514	1.0196	.0020392
101.3	298.15	.079997	1.5781	.0031562
101.3	298.15	.124462	2.4441	.0048882
101.3	298.15	.163889	3.2046	.0064092
101.3	308.15	.0514	.9499	.0018998
101.3	308.15	.079997	1.4699	.0029398
101.3	308.15	.124462	2.2754	.0045508
101.3	308.15	.163889	2.9859	.0059718
101.3	318.15	.0514	.8905	.001781
101.3	318.15	.079997	1.3795	.002759
101.3	318.15	.107962	1.8495	.003699
101.3	318.15	.124462	2.1165	.004233
101.3	318.15	.163889	2.794	.005588
520	298.17	.0514	1.0204	.0020408
520	298.17	.0514	1.0232	.0020464
520	298.17	.0514	1.0189	.0020378
520	298.17	.079997	1.5784	.0031568
520	298.17	.079997	1.578	.003156
520	298.17	.079997	1.5799	.0031598
520	298.17	.107962	2.1238	.0042476
520	298.17	.107962	2.1254	.0042508
520	298.17	.107962	2.1268	.0042536
520	298.17	.124462	2.4418	.0048836
520	298.17	.124462	2.4418	.0048836
520	298.17	.124462	2.4415	.004883
520	298.17	.163889	3.2002	.0064004
520	298.17	.163889	3.1998	.0063996
520	298.17	.163889	3.1992	.0063984
510	318.14	.0514	.8841	.0017682
510	318.14	.0514	.8832	.0017664
510	318.14	.0514	.8837	.0017674
510	318.14	.079997	1.3696	.0027392
510	318.14	.079997	1.3701	.0027402
510	318.14	.079997	1.3689	.0027378
510	318.14	.107962	1.8467	.0036934
510	318.14	.107962	1.8448	.0036896
510	318.14	.107962	1.8448	.0036896
510	318.14	.124462	2.1217	.0042434
510	318.14	.124462	2.1215	.004243
510	318.14	.124462	2.1225	.004245
510	318.14	.160019	2.7226	.0054452
510	318.14	.160019	2.7214	.0054428
510	318.14	.160019	2.7216	.0054432
510	338.18	.026162	.4041	.0008082
510	338.18	.026162	.4045	.000809
510	338.18	.026162	.4035	.000807
510	338.18	.05778	.8905	.001781
510	338.18	.05778	.8907	.0017814
510	338.18	.05778	.8901	.0017802
510	338.18	.107962	1.6565	.003313
510	338.18	.107962	1.6582	.0033164
510	338.18	.107962	1.6563	.0033126
510	338.18	.113319	1.7356	.0034712
510	338.18	.113319	1.74	.00348
510	338.18	.113319	1.7419	.0034838
510	338.18	.160019	2.4467	.0048934
510	338.18	.160019	2.4431	.0048862
510	338.18	.160019	2.4409	.0048818
520	358.14	.026162	.3671	.0007342
520	358.14	.026162	.3662	.0007324
520	358.14	.026162	.3664	.0007328
520	358.14	.05778	.8106	.0016212
520	358.14	.05778	.8102	.0016204
520	358.14	.05778	.8106	.0016212
520	358.14	.09325	1.3011	.0026022
520	358.14	.09325	1.3006	.0026012
520	358.14	.09325	1.3006	.0026012
520	358.14	.113319	1.5813	.0031626
520	358.14	.113319	1.5814	.0031628
520	358.14	.113319	1.581	.003162
520	358.14	.160019	2.222	.004444
520	358.14	.160019	2.2213	.0044426
520	358.14	.160019	2.2217	.0044434
520	373.17	.026162	.3453	.0006906
520	373.17	.026162	.3451	.0006902
520	373.17	.026162	.3445	.000689
520	373.17	.05525	.7265	.001453
520	373.17	.05525	.7278	.0014556
520	373.17	.05525	.7274	.0014548
520	373.17	.09325	1.2258	.0024516
520	373.17	.09325	1.225	.00245
520	373.17	.09325	1.2252	.0024504
520	373.17	.113319	1.4851	.0029702
520	373.17	.113319	1.4847	.0029694
520	373.17	.113319	1.485	.00297
520	373.17	.155829	2.0316	.0040632
520	373.17	.155829	2.0299	.0040598
520	373.17	.155829	2.0306	.0040612
