Measured thermophysical data. Effect of KCl on the Micellization and Clouding Phenomenon of the Amphiphilic Phenothiazine Drug Promethazine Hydrochloride: Some Thermodynamic Properties
Source: J. Chem. Eng. Data, 2011, 10.1021/je101156d
Compound 1: promethazine hydrochloride, C17H21ClN2S, purity 98%
Compound 2: water, H2O, purity 99.9%
Compound 3: potassium chloride, ClK, purity 99.9%

System: water; phases: Liquid
Property: Electrical conductivity, S/m (Liquid); method: Dip Cell
Temperature, K	Pressure, kPa	Electrical conductivity, S/m	uncertainty
293.15	101.3	0	
303.15	101.3	0	
313.15	101.3	0	
323.15	101.3	0	

System: promethazine hydrochloride + potassium chloride + water; phases: Liquid
Fixed: Pressure, kPa = 101.3
Property: Electrical conductivity, S/m (Liquid); method: Dip Cell
Temperature, K	Molality, mol/kg of potassium chloride	Molality, mol/kg of promethazine hydrochloride	Electrical conductivity, S/m	uncertainty
293.15	0	0	0	
303.15	0	0	0	
313.15	0	0	0	
323.15	0	0	0	
303.15	.025	0	0	
293.15	.025	0	0	
313.15	.025	0	0	
323.15	.025	0	0	
313.15	.05	0	0	
303.15	.05	0	0	
323.15	.05	0	0	
293.15	.05	0	0	
313.15	.1	0	0	
323.15	.1	0	0	
303.15	.1	0	0	
293.15	.1	0	0	
313.15	.2	0	0	
323.15	.2	0	0	
303.15	.2	0	0	
293.15	.2	0	0	
303.15	0	.00484	.039	
293.15	0	.00484	.029	
313.15	0	.00484	.05	
323.15	0	.00484	.063	
303.15	.025	.00484	.035	
293.15	.025	.00484	.035	
313.15	.025	.00484	.03	
323.15	.025	.00484	.03	
293.15	.05	.00484	.02	
313.15	.05	.00484	.024	
303.15	.05	.00484	.02	
323.15	.05	.00484	.024	
313.15	.1	.00484	.03	
303.15	.1	.00484	.02	
293.15	.1	.00484	.02	
323.15	.1	.00484	.03	
303.15	.2	.00484	.02	
313.15	.2	.00484	.03	
323.15	.2	.00484	.03	
293.15	.2	.00484	.02	
313.15	0	.00938	.092	
293.15	0	.00938	.065	
323.15	0	.00938	.105	
303.15	.025	.00938	.063	
313.15	.025	.00938	.062	
323.15	.025	.00938	.062	
293.15	.025	.00938	.063	
313.15	.05	.00938	.048	
293.15	.05	.00938	.04	
303.15	.05	.00938	.04	
323.15	.05	.00938	.048	
293.15	.1	.00938	.05	
323.15	.1	.00938	.06	
303.15	.1	.00938	.05	
313.15	.1	.00938	.06	
303.15	0	.00938	.075	
303.15	.2	.00938	.04	
313.15	.2	.00938	.06	
323.15	.2	.00938	.06	
293.15	.2	.00938	.04	
313.15	0	.0136	.131	
323.15	0	.0136	.144	
293.15	0	.0136	.099	
303.15	0	.0136	.109	
303.15	.025	.0136	.091	
313.15	.025	.0136	.09	
323.15	.025	.0136	.09	
293.15	.025	.0136	.091	
313.15	.05	.0136	.072	
293.15	.05	.0136	.06	
323.15	.05	.0136	.072	
303.15	.05	.0136	.06	
323.15	.1	.0136	.09	
313.15	.1	.0136	.09	
303.15	.1	.0136	.08	
293.15	.1	.0136	.08	
293.15	.2	.0136	.06	
323.15	.2	.0136	.08	
313.15	.2	.0136	.08	
303.15	.2	.0136	.06	
323.15	0	.0176	.18	
313.15	0	.0176	.167	
293.15	.025	.0176	.119	
293.15	0	.0176	.13	
303.15	.025	.0176	.119	
313.15	.025	.0176	.121	
323.15	.025	.0176	.121	
313.15	.05	.0176	.096	
303.15	.05	.0176	.08	
303.15	0	.0176	.14	
323.15	.05	.0176	.096	
293.15	.05	.0176	.08	
313.15	.1	.0176	.11	
323.15	.1	.0176	.11	
303.15	.1	.0176	.11	
293.15	.1	.0176	.11	
303.15	.2	.0176	.08	
323.15	.2	.0176	.1	
293.15	.2	.0176	.08	
313.15	.2	.0176	.1	
323.15	0	.0214	.212	
293.15	.025	.0214	.141	
303.15	.025	.0214	.141	
293.15	0	.0214	.159	
313.15	.025	.0214	.148	
323.15	.025	.0214	.148	
313.15	.05	.0214	.12	
293.15	.05	.0214	.1	
303.15	.05	.0214	.1	
323.15	.05	.0214	.12	
293.15	.1	.0214	.14	
303.15	0	.0214	.169	
323.15	.1	.0214	.13	
313.15	0	.0214	.199	
313.15	.1	.0214	.13	
303.15	.1	.0214	.14	
303.15	.2	.0214	.1	
313.15	.2	.0214	.12	
293.15	.2	.0214	.1	
323.15	.2	.0214	.12	
303.15	.025	.025	.164	
293.15	.025	.025	.164	
293.15	0	.025	.184	
313.15	.025	.025	.172	
323.15	.025	.025	.172	
313.15	0	.025	.229	
293.15	.05	.025	.12	
313.15	.05	.025	.15	
303.15	.05	.025	.12	
323.15	.05	.025	.15	
323.15	0	.025	.242	
313.15	.1	.025	.15	
303.15	.1	.025	.16	
293.15	.1	.025	.16	
303.15	0	.025	.194	
323.15	.1	.025	.15	
323.15	.2	.025	.14	
313.15	.2	.025	.14	
303.15	.2	.025	.12	
293.15	.2	.025	.12	
293.15	.025	.0284	.184	
323.15	0	.0284	.27	
313.15	.025	.0284	.195	
323.15	.025	.0284	.195	
293.15	0	.0284	.208	
313.15	.05	.0284	.17	
293.15	.05	.0284	.14	
323.15	.05	.0284	.17	
303.15	.025	.0284	.184	
313.15	0	.0284	.257	
303.15	.05	.0284	.14	
293.15	.1	.0284	.18	
313.15	.1	.0284	.17	
303.15	.1	.0284	.18	
323.15	.1	.0284	.17	
303.15	0	.0284	.218	
313.15	.2	.0284	.16	
293.15	.2	.0284	.14	
303.15	.2	.0284	.14	
323.15	.2	.0284	.16	
313.15	.025	.0316	.22	
323.15	.025	.0316	.22	
303.15	.05	.0316	.16	
293.15	.05	.0316	.16	
293.15	0	.0316	.23	
313.15	.05	.0316	.19	
313.15	0	.0316	.285	
323.15	.05	.0316	.19	
303.15	.025	.0316	.206	
293.15	.025	.0316	.206	
323.15	.1	.0316	.19	
303.15	0	.0316	.24	
313.15	.1	.0316	.19	
303.15	.1	.0316	.21	
293.15	.1	.0316	.21	
313.15	.2	.0316	.18	
303.15	.2	.0316	.15	
293.15	.2	.0316	.15	
323.15	.2	.0316	.18	
323.15	0	.0316	.298	
293.15	.025	.0346	.224	
323.15	.025	.0346	.247	
313.15	.05	.0346	.21	
313.15	0	.0346	.309	
293.15	0	.0346	.251	
303.15	.05	.0346	.18	
293.15	.05	.0346	.18	
323.15	.05	.0346	.21	
303.15	.025	.0346	.224	
293.15	.1	.0346	.24	
323.15	0	.0346	.322	
323.15	.1	.0346	.21	
303.15	.1	.0346	.24	
313.15	.1	.0346	.21	
323.15	.2	.0346	.19	
303.15	.2	.0346	.16	
303.15	0	.0346	.261	
313.15	.025	.0346	.247	
293.15	.2	.0346	.16	
313.15	.2	.0346	.19	
323.15	.025	.0375	.261	
313.15	0	.0375	.332	
313.15	.05	.0375	.23	
293.15	.025	.0375	.242	
323.15	.05	.0375	.23	
293.15	0	.0375	.271	
303.15	.05	.0375	.2	
293.15	.05	.0375	.2	
293.15	.1	.0375	.26	
313.15	.025	.0375	.261	
303.15	.1	.0375	.26	
313.15	.1	.0375	.23	
303.15	.025	.0375	.242	
323.15	.1	.0375	.23	
303.15	.2	.0375	.17	
323.15	.2	.0375	.21	
293.15	.2	.0375	.17	
323.15	0	.0375	.345	
303.15	0	.0375	.281	
313.15	.2	.0375	.2	
323.15	.025	.0402	.279	
303.15	.05	.0402	.22	
293.15	.05	.0402	.22	
313.15	.05	.0402	.25	
313.15	0	.0402	.353	
323.15	.05	.0402	.25	
293.15	0	.0402	.289	
303.15	.1	.0402	.28	
293.15	.1	.0402	.28	
293.15	.025	.0402	.263	
323.15	0	.0402	.366	
303.15	.025	.0402	.263	
323.15	.1	.0402	.24	
313.15	.1	.0402	.25	
303.15	0	.0402	.299	
303.15	.2	.0402	.18	
293.15	.2	.0402	.18	
323.15	.2	.0402	.22	
313.15	.025	.0402	.279	
313.15	.2	.0402	.22	
293.15	.025	.0429	.279	
303.15	.05	.0429	.23	
293.15	.05	.0429	.23	
303.15	0	.0429	.317	
313.15	.05	.0429	.26	
313.15	.025	.0429	.295	
313.15	0	.0429	.376	
323.15	.05	.0429	.27	
313.15	.1	.0429	.26	
303.15	.1	.0429	.29	
293.15	.1	.0429	.29	
293.15	0	.0429	.307	
323.15	.1	.0429	.25	
323.15	.025	.0429	.297	
303.15	.025	.0429	.279	
303.15	.2	.0429	.19	
313.15	.2	.0429	.23	
293.15	.2	.0429	.19	
323.15	0	.0429	.389	
323.15	.2	.0429	.23	
313.15	.05	.0453	.27	
323.15	.05	.0453	.28	
303.15	.1	.0453	.3	
313.15	.1	.0453	.27	
323.15	.025	.0453	.308	
303.15	0	.0453	.337	
293.15	.1	.0453	.3	
313.15	0	.0453	.395	
313.15	.025	.0453	.306	
323.15	.1	.0453	.26	
293.15	0	.0453	.327	
313.15	.2	.0453	.24	
293.15	.05	.0453	.24	
303.15	.025	.0453	.292	
303.15	.05	.0453	.24	
293.15	.025	.0453	.292	
323.15	.2	.0453	.24	
303.15	.2	.0453	.2	
293.15	.2	.0453	.2	
323.15	0	.0453	.408	
303.15	.025	.0477	.304	
313.15	.05	.0477	.28	
323.15	.025	.0477	.322	
323.15	0	.0477	.426	
323.15	.05	.0477	.29	
303.15	.05	.0477	.25	
293.15	.1	.0477	.31	
303.15	.1	.0477	.31	
313.15	.1	.0477	.28	
313.15	0	.0477	.413	
313.15	.025	.0477	.318	
303.15	0	.0477	.346	
293.15	0	.0477	.336	
323.15	.1	.0477	.27	
293.15	.05	.0477	.25	
293.15	.2	.0477	.21	
323.15	.2	.0477	.25	
293.15	.025	.0477	.304	
313.15	.2	.0477	.25	
303.15	.2	.0477	.21	
323.15	.05	.05	.3	
293.15	.025	.05	.314	
303.15	0	.05	.357	
303.15	.025	.05	.314	
293.15	.05	.05	.26	
293.15	.1	.05	.32	
303.15	.05	.05	.26	
323.15	.025	.05	.336	
303.15	.1	.05	.32	
313.15	.1	.05	.29	
313.15	0	.05	.428	
323.15	.1	.05	.28	
313.15	.025	.05	.33	
293.15	0	.05	.347	
323.15	0	.05	.447	
313.15	.05	.05	.29	
313.15	.05	.0522	.3	
323.15	.05	.0522	.31	
313.15	.1	.0522	.3	
293.15	.1	.0522	.33	
323.15	.1	.0522	.29	
323.15	.025	.0522	.348	
303.15	.025	.0522	.324	
293.15	.025	.0522	.324	
303.15	.1	.0522	.33	
323.15	0	.0522	.457	
313.15	.025	.0522	.342	
323.15	.2	.0522	.26	
293.15	.05	.0522	.27	
293.15	0	.0522	.358	
293.15	.2	.0522	.22	
303.15	0	.0522	.368	
313.15	0	.0522	.44	
303.15	.2	.0522	.22	
303.15	.05	.0522	.27	
313.15	.2	.0522	.26	
303.15	.025	.0543	.332	
303.15	0	.0543	.379	
323.15	.025	.0543	.36	
303.15	.05	.0543	.28	
293.15	.05	.0543	.28	
293.15	.1	.0543	.34	
303.15	.1	.0543	.34	
313.15	.025	.0543	.352	
293.15	.025	.0543	.332	
293.15	0	.0543	.369	
323.15	0	.0543	.467	
313.15	0	.0543	.45	
323.15	0	.0563	.477	
313.15	.05	.0563	.31	
313.15	.1	.0563	.31	
323.15	.025	.0563	.372	
323.15	.1	.0563	.3	
303.15	.1	.0563	.35	
303.15	.05	.0563	.29	
293.15	.1	.0563	.35	
313.15	.2	.0563	.28	
293.15	.2	.0563	.24	
293.15	.025	.0563	.34	
293.15	0	.0563	.38	
323.15	.2	.0563	.28	
303.15	.025	.0563	.34	
303.15	0	.0563	.39	
293.15	.05	.0563	.29	
303.15	.2	.0563	.24	
323.15	.05	.0563	.32	
313.15	0	.0563	.46	
313.15	.025	.0563	.362	
293.15	.025	.0582	.348	
313.15	0	.0582	.47	
323.15	0	.0582	.487	
303.15	.025	.0582	.348	
303.15	.05	.0582	.3	
293.15	.05	.0582	.3	
293.15	0	.0582	.391	
313.15	.025	.0582	.372	
323.15	.025	.0582	.38	
303.15	0	.0582	.401	
323.15	0	.06	.497	
313.15	.1	.06	.33	
313.15	0	.06	.48	
313.15	.05	.06	.33	
303.15	0	.06	.412	
303.15	.1	.06	.36	
293.15	.1	.06	.36	
323.15	.05	.06	.34	
293.15	0	.06	.402	
303.15	.025	.06	.356	
313.15	.025	.06	.38	
303.15	.2	.06	.25	
323.15	.025	.06	.388	
323.15	.1	.06	.32	
313.15	.2	.06	.29	
323.15	.2	.06	.29	
293.15	.025	.06	.356	
293.15	.2	.06	.25	
303.15	0	.0618	.42	
303.15	.025	.0618	.364	
323.15	0	.0618	.505	
323.15	.025	.0618	.396	
293.15	.025	.0618	.364	
293.15	.05	.0618	.31	
313.15	.025	.0618	.388	
313.15	0	.0618	.488	
293.15	0	.0618	.41	
303.15	.05	.0618	.31	
313.15	.1	.0635	.34	
303.15	0	.0635	.427	
323.15	.025	.0635	.402	
313.15	.025	.0635	.396	
313.15	0	.0635	.496	
323.15	0	.0635	.513	
303.15	.1	.0635	.38	
293.15	.1	.0635	.38	
303.15	.025	.0635	.372	
293.15	.025	.0635	.372	
313.15	.05	.0635	.34	
293.15	.2	.0635	.27	
323.15	.2	.0635	.3	
293.15	0	.0635	.417	
323.15	.1	.0635	.33	
323.15	.05	.0635	.35	
303.15	.2	.0635	.27	
313.15	.2	.0635	.3	
303.15	.05	.0651	.32	
323.15	0	.0651	.52	
313.15	.025	.0651	.404	
303.15	0	.0651	.434	
293.15	0	.0651	.424	
323.15	.025	.0651	.408	
303.15	.025	.0651	.379	
293.15	.025	.0651	.379	
313.15	0	.0651	.504	
293.15	.05	.0651	.32	
303.15	.1	.0667	.39	
293.15	.1	.0667	.39	
323.15	.1	.0667	.34	
323.15	0	.0667	.527	
303.15	0	.0667	.441	
323.15	.025	.0667	.414	
293.15	.2	.0667	.28	
323.15	.05	.0667	.36	
313.15	.025	.0667	.41	
303.15	.2	.0667	.28	
293.15	0	.0667	.431	
313.15	0	.0667	.512	
313.15	.05	.0667	.35	
323.15	.2	.0667	.31	
303.15	.025	.0667	.386	
293.15	.025	.0667	.386	
313.15	.1	.0667	.36	
313.15	.2	.0667	.31	
303.15	0	.0682	.448	
293.15	.05	.0682	.33	
323.15	0	.0682	.534	
293.15	.025	.0682	.393	
303.15	.025	.0682	.393	
323.15	.025	.0682	.42	
313.15	0	.0682	.52	
293.15	0	.0682	.438	
303.15	.05	.0682	.33	
313.15	.025	.0682	.416	
313.15	.2	.0696	.32	
323.15	.2	.0696	.32	
303.15	.1	.0696	.4	
323.15	.025	.0696	.425	
323.15	.1	.0696	.35	
293.15	.1	.0696	.4	
293.15	.2	.0696	.29	
323.15	.05	.0696	.37	
293.15	0	.0696	.445	
313.15	0	.0696	.528	
303.15	0	.0696	.455	
313.15	.05	.0696	.36	
313.15	.1	.0696	.37	
323.15	0	.0696	.54	
313.15	.025	.0696	.422	
303.15	.2	.0696	.29	
303.15	.025	.0696	.4	
293.15	.025	.0696	.4	
293.15	.025	.0711	.407	
323.15	.025	.0711	.43	
303.15	.025	.0711	.407	
303.15	.05	.0711	.34	
303.15	0	.0711	.462	
323.15	0	.0711	.546	
313.15	.025	.0711	.428	
313.15	0	.0711	.536	
293.15	0	.0711	.452	
293.15	.05	.0711	.34	
303.15	.1	.0724	.41	
313.15	.2	.0724	.33	
323.15	.025	.0724	.435	
313.15	0	.0724	.542	
293.15	.025	.0724	.414	
293.15	.2	.0724	.3	
313.15	.05	.0724	.37	
313.15	.025	.0724	.434	
323.15	.1	.0724	.36	
323.15	0	.0724	.552	
313.15	.1	.0724	.38	
293.15	.1	.0724	.41	
303.15	.2	.0724	.3	
303.15	.025	.0724	.414	
293.15	0	.0724	.459	
323.15	.2	.0724	.33	
323.15	.05	.0724	.38	
303.15	0	.0724	.469	
293.15	.025	.0737	.421	
323.15	.025	.0737	.44	
323.15	0	.0737	.557	
293.15	0	.0737	.466	
293.15	.05	.0737	.35	
303.15	.05	.0737	.35	
313.15	0	.0737	.548	
303.15	0	.0737	.476	
313.15	.025	.0737	.44	
303.15	.025	.0737	.421	
313.15	.05	.075	.38	
313.15	.025	.075	.446	
303.15	.1	.075	.42	
323.15	.2	.075	.34	
293.15	.1	.075	.42	
323.15	.1	.075	.37	
303.15	.025	.075	.428	
303.15	0	.075	.483	
313.15	.2	.075	.34	
293.15	0	.075	.473	
313.15	.1	.075	.39	
323.15	0	.075	.562	
313.15	0	.075	.554	
323.15	.025	.075	.445	
323.15	.05	.075	.39	
303.15	.05	.075	.36	
293.15	.025	.075	.428	
293.15	.2	.075	.31	
303.15	.2	.075	.31	
293.15	.05	.075	.36	

System: promethazine hydrochloride + water; phases: Liquid
Property: Electrical conductivity, S/m (Liquid); method: Dip Cell
Temperature, K	Molality, mol/kg of promethazine hydrochloride	Pressure, kPa	Electrical conductivity, S/m	uncertainty
303.15	.00484	101.3	.039	
293.15	.00484	101.3	.029	
313.15	.00484	101.3	.05	
323.15	.00484	101.3	.063	
313.15	.00938	101.3	.092	
293.15	.00938	101.3	.065	
323.15	.00938	101.3	.105	
303.15	.00938	101.3	.075	
313.15	.0136	101.3	.131	
323.15	.0136	101.3	.144	
293.15	.0136	101.3	.099	
303.15	.0136	101.3	.109	
323.15	.0176	101.3	.18	
313.15	.0176	101.3	.167	
293.15	.0176	101.3	.13	
303.15	.0176	101.3	.14	
323.15	.0214	101.3	.212	
293.15	.0214	101.3	.159	
303.15	.0214	101.3	.169	
313.15	.0214	101.3	.199	
293.15	.025	101.3	.184	
313.15	.025	101.3	.229	
323.15	.025	101.3	.242	
303.15	.025	101.3	.194	
323.15	.0284	101.3	.27	
293.15	.0284	101.3	.208	
313.15	.0284	101.3	.257	
303.15	.0284	101.3	.218	
293.15	.0316	101.3	.23	
313.15	.0316	101.3	.285	
303.15	.0316	101.3	.24	
323.15	.0316	101.3	.298	
313.15	.0346	101.3	.309	
293.15	.0346	101.3	.251	
323.15	.0346	101.3	.322	
303.15	.0346	101.3	.261	
313.15	.0375	101.3	.332	
293.15	.0375	101.3	.271	
323.15	.0375	101.3	.345	
303.15	.0375	101.3	.281	
313.15	.0402	101.3	.353	
293.15	.0402	101.3	.289	
323.15	.0402	101.3	.366	
303.15	.0402	101.3	.299	
303.15	.0429	101.3	.317	
313.15	.0429	101.3	.376	
293.15	.0429	101.3	.307	
323.15	.0429	101.3	.389	
303.15	.0453	101.3	.337	
313.15	.0453	101.3	.395	
293.15	.0453	101.3	.327	
323.15	.0453	101.3	.408	
323.15	.0477	101.3	.426	
313.15	.0477	101.3	.413	
303.15	.0477	101.3	.346	
293.15	.0477	101.3	.336	
303.15	.05	101.3	.357	
313.15	.05	101.3	.428	
293.15	.05	101.3	.347	
323.15	.05	101.3	.447	
323.15	.0522	101.3	.457	
293.15	.0522	101.3	.358	
303.15	.0522	101.3	.368	
313.15	.0522	101.3	.44	
303.15	.0543	101.3	.379	
293.15	.0543	101.3	.369	
323.15	.0543	101.3	.467	
313.15	.0543	101.3	.45	
323.15	.0563	101.3	.477	
293.15	.0563	101.3	.38	
303.15	.0563	101.3	.39	
313.15	.0563	101.3	.46	
313.15	.0582	101.3	.47	
323.15	.0582	101.3	.487	
293.15	.0582	101.3	.391	
303.15	.0582	101.3	.401	
323.15	.06	101.3	.497	
313.15	.06	101.3	.48	
303.15	.06	101.3	.412	
293.15	.06	101.3	.402	
303.15	.0618	101.3	.42	
323.15	.0618	101.3	.505	
313.15	.0618	101.3	.488	
293.15	.0618	101.3	.41	
303.15	.0635	101.3	.427	
313.15	.0635	101.3	.496	
323.15	.0635	101.3	.513	
293.15	.0635	101.3	.417	
323.15	.0651	101.3	.52	
303.15	.0651	101.3	.434	
293.15	.0651	101.3	.424	
313.15	.0651	101.3	.504	
323.15	.0667	101.3	.527	
303.15	.0667	101.3	.441	
293.15	.0667	101.3	.431	
313.15	.0667	101.3	.512	
303.15	.0682	101.3	.448	
323.15	.0682	101.3	.534	
313.15	.0682	101.3	.52	
293.15	.0682	101.3	.438	
293.15	.0696	101.3	.445	
313.15	.0696	101.3	.528	
303.15	.0696	101.3	.455	
323.15	.0696	101.3	.54	
303.15	.0711	101.3	.462	
323.15	.0711	101.3	.546	
313.15	.0711	101.3	.536	
293.15	.0711	101.3	.452	
313.15	.0724	101.3	.542	
323.15	.0724	101.3	.552	
293.15	.0724	101.3	.459	
303.15	.0724	101.3	.469	
323.15	.0737	101.3	.557	
293.15	.0737	101.3	.466	
313.15	.0737	101.3	.548	
303.15	.0737	101.3	.476	
303.15	.075	101.3	.483	
293.15	.075	101.3	.473	
323.15	.075	101.3	.562	
313.15	.075	101.3	.554	
