Measured thermophysical data. Measurement and Correlation of Griseofulvin Solubility in Different Solvents at Temperatures from (281.95 to 357.60) K
Source: J. Chem. Eng. Data, 2010, 10.1021/je100030j
Compound 1: griseofulvin, C17H17ClO6, purity 99.2%
Compound 2: propanone, C3H6O, purity 99.5%
Compound 3: ethyl methyl ketone, C4H8O, purity 99.5%
Compound 4: ethylene chloride, C2H4Cl2, purity 99.5%
Compound 5: N,N-dimethylacetamide, C4H9NO, purity 99.5%
Compound 6: methyl sulfoxide, C2H6OS, purity 99.5%
Compound 7: N-methyl-2-pyrrolidone, C5H9NO, purity 99.5%

System: propanone + griseofulvin; phases: Liquid, Crystal
Fixed: Pressure, kPa = 101.325
Property: Mole fraction of griseofulvin (Liquid); method: Laser Observation
Temperature, K	Mole fraction of griseofulvin	uncertainty
281.95	.00648	.0000648
286.4	.0071	.000071
291.85	.00776	.0000776
296.4	.00853	.0000853
300.8	.00941	.0000941
305.05	.01021	.0001021
310.25	.0117	.000117
313.65	.01286	.0001286
317.05	.0143	.000143

System: ethyl methyl ketone + griseofulvin; phases: Liquid, Crystal
Fixed: Pressure, kPa = 101.325
Property: Mole fraction of griseofulvin (Liquid); method: Laser Observation
Temperature, K	Mole fraction of griseofulvin	uncertainty
289.65	.00826	.0000826
296.95	.00941	.0000941
302.95	.01035	.0001035
308.25	.01167	.0001167
315.05	.01281	.0001281
320.4	.01412	.0001412
325.45	.01508	.0001508
330.35	.01629	.0001629

System: ethylene chloride + griseofulvin; phases: Liquid, Crystal
Fixed: Pressure, kPa = 101.325
Property: Mole fraction of griseofulvin (Liquid); method: Laser Observation
Temperature, K	Mole fraction of griseofulvin	uncertainty
290.05	.01967	.0001967
294.3	.02087	.0002087
300.25	.02216	.0002216
305.55	.02361	.0002361
310.05	.02514	.0002514
315.65	.02682	.0002682
319.35	.02888	.0002888
324.05	.03105	.0003105
329.65	.03354	.0003354

System: griseofulvin + N,N-dimethylacetamide; phases: Liquid, Crystal
Fixed: Pressure, kPa = 101.325
Property: Mole fraction of griseofulvin (Liquid); method: Laser Observation
Temperature, K	Mole fraction of griseofulvin	uncertainty
296.2	.02521	.0002521
301.25	.02756	.0002756
305.75	.03032	.0003032
310.75	.0326	.000326
314.95	.03437	.0003437
319.25	.03695	.0003695
324.75	.03951	.0003951
330.05	.04223	.0004223
336.15	.04522	.0004522
340.25	.04878	.0004878
345.75	.05176	.0005176
350.55	.05485	.0005485
354.78	.05823	.0005823

System: methyl sulfoxide + griseofulvin; phases: Liquid, Crystal
Fixed: Pressure, kPa = 101.325
Property: Mole fraction of griseofulvin (Liquid); method: Laser Observation
Temperature, K	Mole fraction of griseofulvin	uncertainty
296.75	.01673	.0001673
301.15	.01855	.0001855
306.15	.02036	.0002036
310.85	.02177	.0002177
315.55	.02391	.0002391
320.55	.02599	.0002599
326.55	.02819	.0002819
331.95	.03019	.0003019
336.75	.03239	.0003239
341.05	.0345	.000345
346.25	.03683	.0003683
351.7	.03932	.0003932
357.6	.0415	.000415

System: griseofulvin + N-methyl-2-pyrrolidone; phases: Liquid, Crystal
Fixed: Pressure, kPa = 101.325
Property: Mole fraction of griseofulvin (Liquid); method: Laser Observation
Temperature, K	Mole fraction of griseofulvin	uncertainty
295.55	.04206	.0004206
300.65	.04511	.0004511
305.75	.04798	.0004798
310	.05114	.0005114
315.1	.05407	.0005407
320.6	.05695	.0005695
325.45	.06011	.0006011
330.45	.06312	.0006312
335.55	.0666	.000666
340.35	.0704	.000704
345.55	.07581	.0007581
350.35	.07954	.0007954
355.65	.08301	.0008301
