Measured thermophysical data. Mutual Solubilities for Water-o-Nitrotoluene System and Distribution Coefficients for Furfural and Acetic Acid in Water-o-Nitrotoluene System
Source: J. Chem. Eng. Data, 2010, 10.1021/je100706u
Compound 1: 2-furaldehyde, C5H4O2
Compound 2: ethanol, C2H6O
Compound 3: tetralin, C10H12
Compound 4: 1,2,4-trichlorobenzene, C6H3Cl3
Compound 5: 2-methyl-1-nitrobenzene, C7H7NO2
Compound 6: 2,4-dichlorotoluene, C7H6Cl2
Compound 7: naphthalene, decahydro-, C10H18
Compound 8: 3,5,5-trimethyl-2-cyclohexanone, C9H14O
Compound 9: 1-bromonaphthalene, C10H7Br
Compound 10: 1-chloronaphthalene, C10H7Cl
Compound 11: benzene, 1-methoxy-2-nitro-, C7H7NO3
Compound 12: 1,2-dibromobenzene, C6H4Br2
Compound 13: acetic acid, C2H4O2
Compound 14: water, H2O
Compound 15: 2-propanol, C3H8O, purity 99.99%

System: 2-methyl-1-nitrobenzene + water; phases: Liquid mixture 1, Liquid mixture 2
Property: Mass fraction of water (Liquid mixture 1); method: Chromatography
Temperature, K	Pressure, kPa	Mass fraction of water	uncertainty
383.15	2500	.007426	.000133668
393.15	2500	.009487	.000170766
403.15	2500	.011205	.00020169
413.15	2500	.013187	.000237366
423.15	2500	.015649	.000281682
433.15	2500	.018709	.000336762
443.15	2500	.022433	.000403794
453.15	2500	.027501	.000495018
463.15	2500	.033672	.000606096
473.15	2500	.041198	.000741564
483.15	2500	.051337	.000924066

System: 2-methyl-1-nitrobenzene + water; phases: Liquid mixture 2, Liquid mixture 1
Property: Mass fraction of 2-methyl-1-nitrobenzene (Liquid mixture 2); method: Chromatography
Temperature, K	Pressure, kPa	Mass fraction of 2-methyl-1-nitrobenzene	uncertainty
383.15	2500	.002617	.000054957
393.15	2500	.003118	.000065478
403.15	2500	.004104	.000086184
413.15	2500	.005133	.000107793
423.15	2500	.006507	.000136647
433.15	2500	.008651	.000181671
443.15	2500	.011562	.000242802
453.15	2500	.015489	.000325269
463.15	2500	.021013	.000441273
473.15	2500	.028031	.000588651
483.15	2500	.036702	.000770742

System: 2-furaldehyde + tetralin + water; phases: Liquid mixture 1, Liquid
Fixed: Pressure, kPa = 101
Fixed: Mass fraction of 2-furaldehyde = 0
Property: Mass fraction of 2-furaldehyde (Liquid mixture 1); method: Chromatography
Temperature, K	Mass fraction of 2-furaldehyde	uncertainty
303.15	2.06	.103

System: 2-furaldehyde + 1,2,4-trichlorobenzene + water; phases: Liquid mixture 1, Liquid
Fixed: Pressure, kPa = 101
Fixed: Mass fraction of 2-furaldehyde = 0
Property: Mass fraction of 2-furaldehyde (Liquid mixture 1); method: Chromatography
Temperature, K	Mass fraction of 2-furaldehyde	uncertainty
303.15	2.74	.137

System: 2-methyl-1-nitrobenzene + 2-furaldehyde + water; phases: Liquid mixture 1, Liquid
Fixed: Pressure, kPa = 101
Fixed: Mass fraction of 2-furaldehyde = 0
Property: Mass fraction of 2-furaldehyde (Liquid mixture 1); method: Chromatography
Temperature, K	Mass fraction of 2-furaldehyde	uncertainty
303.15	9.16	.458

System: 2-methyl-1-nitrobenzene + 2-furaldehyde + water; phases: Liquid mixture 1, Liquid
Fixed: Pressure, kPa = 101
Fixed: Mass fraction of 2-furaldehyde = 0
Property: Mass fraction of 2-furaldehyde (Liquid mixture 1); method: Chromatography
Temperature, K	Mass fraction of 2-furaldehyde	uncertainty
303.15	9.14	.3199
323.15	8.3	.2905
343.15	7.82	.2737
363.15	7.39	.25865
383.15	7.2	.252
403.15	6.81	.23835
423.15	6.46	.2261
443.15	6.33	.22155
463.15	6	.21
483.15	5.96	.2086

System: 2,4-dichlorotoluene + 2-furaldehyde + water; phases: Liquid mixture 1, Liquid
Fixed: Pressure, kPa = 101
Fixed: Mass fraction of 2-furaldehyde = 0
Property: Mass fraction of 2-furaldehyde (Liquid mixture 1); method: Chromatography
Temperature, K	Mass fraction of 2-furaldehyde	uncertainty
303.15	4.56	.228

System: naphthalene, decahydro- + 2-furaldehyde + water; phases: Liquid mixture 1, Liquid
Fixed: Pressure, kPa = 101
Fixed: Mass fraction of 2-furaldehyde = 0
Property: Mass fraction of 2-furaldehyde (Liquid mixture 1); method: Chromatography
Temperature, K	Mass fraction of 2-furaldehyde	uncertainty
303.15	.96	.048

System: 3,5,5-trimethyl-2-cyclohexanone + 2-furaldehyde + water; phases: Liquid mixture 1, Liquid
Fixed: Pressure, kPa = 101
Fixed: Mass fraction of 2-furaldehyde = 0
Property: Mass fraction of 2-furaldehyde (Liquid mixture 1); method: Chromatography
Temperature, K	Mass fraction of 2-furaldehyde	uncertainty
303.15	13.37	.6685

System: 1-bromonaphthalene + 2-furaldehyde + water; phases: Liquid mixture 1, Liquid
Fixed: Pressure, kPa = 101
Fixed: Mass fraction of 2-furaldehyde = 0
Property: Mass fraction of 2-furaldehyde (Liquid mixture 1); method: Chromatography
Temperature, K	Mass fraction of 2-furaldehyde	uncertainty
303.15	3.11	.1555

System: 1-chloronaphthalene + 2-furaldehyde + water; phases: Liquid mixture 1, Liquid
Fixed: Pressure, kPa = 101
Fixed: Mass fraction of 2-furaldehyde = 0
Property: Mass fraction of 2-furaldehyde (Liquid mixture 1); method: Chromatography
Temperature, K	Mass fraction of 2-furaldehyde	uncertainty
303.15	4.45	.2225

System: benzene, 1-methoxy-2-nitro- + 2-furaldehyde + water; phases: Liquid mixture 1, Liquid
Fixed: Pressure, kPa = 101
Fixed: Mass fraction of 2-furaldehyde = 0
Property: Mass fraction of 2-furaldehyde (Liquid mixture 1); method: Chromatography
Temperature, K	Mass fraction of 2-furaldehyde	uncertainty
303.15	10.69	.5345

System: 2-furaldehyde + 1,2-dibromobenzene + water; phases: Liquid mixture 1, Liquid
Fixed: Pressure, kPa = 101
Fixed: Mass fraction of 2-furaldehyde = 0
Property: Mass fraction of 2-furaldehyde (Liquid mixture 1); method: Chromatography
Temperature, K	Mass fraction of 2-furaldehyde	uncertainty
303.15	2.78	.139

System: acetic acid + 2-methyl-1-nitrobenzene + water; phases: Liquid mixture 1, Liquid
Fixed: Pressure, kPa = 101
Fixed: Mass fraction of acetic acid = 0
Property: Mass fraction of acetic acid (Liquid mixture 1); method: Chromatography
Temperature, K	Mass fraction of acetic acid	uncertainty
303.15	17.55	.82485
323.15	14.61	.68667
343.15	12.79	.60113
363.15	11.46	.53862
383.15	10.14	.47658
403.15	9.13	.42911
423.15	8.02	.37694
443.15	7.26	.34122
463.15	6.42	.30174
483.15	5.98	.28106
