Measured thermophysical data. Enthalpy of Solvation of Monoglyme, Diglyme, Triglyme, Tetraglyme, and Pentaglyme in Mixtures of Water with N,N-Dimethylformamide at 298.15 K
Source: J. Chem. Eng. Data, 2010, 10.1021/je100659q
Compound 1: dimethylglycol, C4H10O2, purity 99%
Compound 2: 2,5,8-trioxanonane, C6H14O3, purity 99%
Compound 3: triglyme, C8H18O4, purity 99%
Compound 4: dimethoxytetraglycol, C10H22O5, purity 99%
Compound 5: 2,5,8,11,14,17-hexaoxaoctadecane, C12H26O6, purity 99%
Compound 6: N,N-dimethylformamide, C3H7NO, purity 99%
Compound 7: water, H2O, purity 99.9%

System: N,N-dimethylformamide + dimethylglycol + water; phases: Liquid
Fixed: Temperature, K = 298.15
Fixed: Pressure, kPa = 101.3
Fixed: Molality, mol/kg of dimethylglycol = 0
Property: Molar enthalpy of solution, kJ/mol (Liquid); method: Isoperibol calorimetry
Solvent: Mole fraction of water	Molar enthalpy of solution, kJ/mol	uncertainty
0	-.38	.03
.1	.1	.04
.2	.62	.06
.3	1.11	.04
.4	1.84	.05
.5	2.19	.08
.6	1.84	.04
.7	.09	.03
.8	-4.42	.04
.9	-11.92	.04
.92	-13.61	.04
.94	-15.78	.03
.96	-17.92	.04
.98	-20.21	.04
1	-22.7	.04
1	-22.24	.06
1	-22.95	.03

System: N,N-dimethylformamide + 2,5,8-trioxanonane + water; phases: Liquid
Fixed: Temperature, K = 298.15
Fixed: Pressure, kPa = 101.3
Fixed: Molality, mol/kg of 2,5,8-trioxanonane = 0
Property: Molar enthalpy of solution, kJ/mol (Liquid); method: Isoperibol calorimetry
Solvent: Mole fraction of water	Molar enthalpy of solution, kJ/mol	uncertainty
0	-.9	.03
.1	-.35	.03
.2	.42	.08
.3	1.12	.03
.4	1.78	.04
.5	2.24	.05
.6	2.12	.04
.7	-.83	.03
.8	-6.33	.08
.9	-16.25	.08
.92	-18.32	.05
.94	-21.95	.08
.96	-23.6	.08
.98	-26.55	.08
1	-29.99	.08

System: N,N-dimethylformamide + triglyme + water; phases: Liquid
Fixed: Temperature, K = 298.15
Fixed: Pressure, kPa = 101.3
Fixed: Molality, mol/kg of triglyme = 0
Property: Molar enthalpy of solution, kJ/mol (Liquid); method: Isoperibol calorimetry
Solvent: Mole fraction of water	Molar enthalpy of solution, kJ/mol	uncertainty
0	-1.55	.08
.1	-.7	.05
.2	.13	.03
.3	1.04	.03
.4	1.93	.08
.5	2.06	.05
.6	1.15	.03
.7	-1.82	.04
.8	-8.2	.04
.9	-20.47	.08
.92	-23.32	.08
.94	-26.96	.06
.96	-30.71	.05
.98	-34.33	.04
1	-38.45	.04

System: N,N-dimethylformamide + dimethoxytetraglycol + water; phases: Liquid
Fixed: Temperature, K = 298.15
Fixed: Pressure, kPa = 101.3
Fixed: Molality, mol/kg of dimethoxytetraglycol = 0
Property: Molar enthalpy of solution, kJ/mol (Liquid); method: Isoperibol calorimetry
Solvent: Mole fraction of water	Molar enthalpy of solution, kJ/mol	uncertainty
0	-1.98	.04
.1	-1.06	.08
.2	-.17	.05
.3	.86	.03
.4	1.77	.03
.5	2.22	.03
.6	.93	.08
.7	-3.4	.03
.8	-12.39	.04
.9	-25.99	.08
.92	-29.04	.08
.94	-33.01	.06
.96	-37.05	.04
.98	-41.42	.06
1	-46.21	.06

System: N,N-dimethylformamide + 2,5,8,11,14,17-hexaoxaoctadecane + water; phases: Liquid
Fixed: Temperature, K = 298.15
Fixed: Pressure, kPa = 101.3
Fixed: Molality, mol/kg of 2,5,8,11,14,17-hexaoxaoctadecane = 0
Property: Molar enthalpy of solution, kJ/mol (Liquid); method: Isoperibol calorimetry
Solvent: Mole fraction of water	Molar enthalpy of solution, kJ/mol	uncertainty
0	-2.64	.04
.1	-1.36	.03
.2	-.32	.03
.3	1.18	.08
.4	2.2	.04
.5	2.93	.08
.6	1.36	.04
.7	-3.31	.06
.8	-14.14	.08
.9	-29.68	.06
.92	-33.47	.08
.94	-37.59	.06
.96	-41.59	.06
.98	-46.6	.04
1	-52.3	.08
