Measured thermophysical data. Liquid-Liquid Equilibria of Aqueous Biphasic Systems Composed of 1-Butyl-3-methyl Imidazolium Tetrafluoroborate + Sucrose/Maltose + Water
Source: J. Chem. Eng. Data, 2010, 10.1021/je100212p
Compound 1: 1-butyl-3-methylimidazolium tetrafluoroborate, C8H15BF4N2
Compound 2: saccharose, C12H22O11
Compound 3: maltose, C12H22O11
Compound 4: water, H2O

System: saccharose + water + 1-butyl-3-methylimidazolium tetrafluoroborate; phases: Liquid mixture 1, Liquid mixture 2
Fixed: Pressure, kPa = 101
Property: Mass fraction of saccharose (Liquid mixture 1); method: Titration method
Temperature, K	Mass fraction of 1-butyl-3-methylimidazolium tetrafluoroborate	Mass fraction of saccharose	uncertainty
278.15	.0238	.64	.001
278.15	.0289	.5872	.001
278.15	.0327	.5579	.001
278.15	.0395	.537	.001
278.15	.0406	.5129	.001
278.15	.0518	.4312	.001
278.15	.0536	.4225	.001
278.15	.0609	.3875	.001
278.15	.0621	.3618	.001
278.15	.069	.3404	.001
278.15	.0726	.3255	.001
278.15	.076	.308	.001
278.15	.0799	.264	.001
278.15	.0918	.2379	.001
278.15	.101	.212	.001
278.15	.1104	.1784	.001
278.15	.1503	.1173	.001
278.15	.1845	.0887	.001
278.15	.2112	.0679	.001
278.15	.2368	.0569	.001
278.15	.318	.0396	.001
278.15	.4334	.0232	.001
278.15	.5169	.0191	.001
278.15	.614	.0127	.001
278.15	.67	.009	.001
278.15	.7201	.0058	.001
278.15	.762	.0055	.001
278.15	.7893	.005	.001
278.15	.8226	.0033	.001
278.15	.859	.0032	.001
278.15	.9006	.002	.001
278.15	.945	.002	.001
288.15	.0283	.5902	.001
288.15	.0369	.5438	.001
288.15	.0397	.5255	.001
288.15	.0541	.4803	.001
288.15	.0573	.4411	.001
288.15	.0636	.4165	.001
288.15	.0753	.3898	.001
288.15	.1071	.317	.001
288.15	.12	.282	.001
288.15	.1204	.278	.001
288.15	.132	.236	.001
288.15	.1461	.2128	.001
288.15	.1614	.1878	.001
288.15	.194	.1448	.001
288.15	.2163	.1213	.001
288.15	.2656	.0867	.001
288.15	.3174	.0597	.001
288.15	.3576	.0525	.001
288.15	.3897	.045	.001
288.15	.4496	.0358	.001
288.15	.5311	.0173	.001
288.15	.6069	.0153	.001
288.15	.6511	.012	.001
288.15	.6597	.0115	.001
288.15	.6955	.0099	.001
288.15	.733	.0087	.001
288.15	.8344	.0056	.001
288.15	.8502	.0055	.001
288.15	.914	.005	.001
298.15	.0385	.5743	.001
298.15	.0501	.5271	.001
298.15	.0627	.4866	.001
298.15	.0655	.4513	.001
298.15	.0816	.4158	.001
298.15	.0893	.3799	.001
298.15	.1001	.36	.001
298.15	.116	.3294	.001
298.15	.127	.2933	.001
298.15	.1524	.2426	.001
298.15	.1704	.2159	.001
298.15	.174	.213	.001
298.15	.2024	.1833	.001
298.15	.2226	.1601	.001
298.15	.2376	.1492	.001
298.15	.2658	.1335	.001
298.15	.2833	.1203	.001
298.15	.3163	.1076	.001
298.15	.3527	.0978	.001
298.15	.3864	.085	.001
298.15	.441	.0689	.001
298.15	.4666	.0632	.001
298.15	.4857	.0569	.001
298.15	.5207	.05	.001
298.15	.526	.0483	.001
298.15	.5429	.0444	.001
298.15	.5738	.0364	.001
298.15	.6108	.0288	.001
298.15	.6346	.0261	.001
298.15	.6544	.024	.001
298.15	.6745	.0217	.001
298.15	.7013	.0179	.001
298.15	.731	.0151	.001
298.15	.7327	.0143	.001
298.15	.802	.0138	.001
298.15	.868	.0116	.001
308.15	.0515	.5388	.001
308.15	.0638	.4931	.001
308.15	.0717	.4483	.001
308.15	.0847	.4207	.001
308.15	.0917	.3966	.001
308.15	.1124	.3647	.001
308.15	.125	.337	.001
308.15	.1536	.3049	.001
308.15	.17	.2727	.001
308.15	.2107	.2242	.001
308.15	.2295	.212	.001
308.15	.2476	.1971	.001
308.15	.2657	.1859	.001
308.15	.2689	.1811	.001
308.15	.2994	.1585	.001
308.15	.3541	.1283	.001
308.15	.421	.1004	.001
308.15	.4509	.0898	.001
308.15	.4833	.0759	.001
308.15	.5419	.0589	.001
308.15	.5957	.0444	.001
308.15	.6346	.0331	.001
308.15	.6544	.029	.001
308.15	.658	.0287	.001
308.15	.6745	.0257	.001
308.15	.7013	.0219	.001
308.15	.719	.0183	.001
308.15	.7327	.0171	.001
308.15	.7591	.0151	.001
308.15	.808	.0138	.001
308.15	.908	.0116	.001

System: saccharose + water + 1-butyl-3-methylimidazolium tetrafluoroborate; phases: Liquid mixture 1, Liquid mixture 2
Fixed: Pressure, kPa = 101
Property: Mass fraction of saccharose (Liquid mixture 1); method: Chromatography
Property: Mass fraction of saccharose (Liquid mixture 2); method: Chromatography
Property: Mass fraction of 1-butyl-3-methylimidazolium tetrafluoroborate (Liquid mixture 2); method: Chromatography
Temperature, K	Mass fraction of 1-butyl-3-methylimidazolium tetrafluoroborate	Mass fraction of saccharose	uncertainty	Mass fraction of saccharose	uncertainty	Mass fraction of 1-butyl-3-methylimidazolium tetrafluoroborate	uncertainty
278.15	.6302	.0085	.001	.232	.001	.128	.001
278.15	.735	.0075	.001	.264	.001	.105	.001
278.15	.8191	.0063	.001	.308	.001	.088	.001
278.15	.889	.0032	.001	.3518	.001	.0721	.001
288.15	.6297	.012	.001	.2522	.001	.1323	.001
288.15	.7332	.0087	.001	.2963	.001	.1214	.001
288.15	.7884	.0073	.001	.3233	.001	.0986	.001
288.15	.8402	.0061	.001	.3798	.001	.0753	.001
298.15	.5263	.0483	.001	.224	.001	.1743	.001
298.15	.6272	.0248	.001	.2692	.001	.1402	.001
298.15	.7312	.0143	.001	.3294	.001	.1162	.001
298.15	.8023	.0138	.001	.3799	.001	.0893	.001
308.15	.6583	.0227	.001	.2827	.001	.1718	.001
308.15	.7352	.0163	.001	.347	.001	.1333	.001
308.15	.808	.0138	.001	.4207	.001	.0947	.001
308.15	.8883	.0116	.001	.5088	.001	.0615	.001

System: maltose + water + 1-butyl-3-methylimidazolium tetrafluoroborate; phases: Liquid mixture 1, Liquid mixture 2
Fixed: Pressure, kPa = 101
Property: Mass fraction of maltose (Liquid mixture 1); method: Titration method
Temperature, K	Mass fraction of 1-butyl-3-methylimidazolium tetrafluoroborate	Mass fraction of maltose	uncertainty
278.15	.082	.3598	.001
278.15	.087	.3414	.001
278.15	.0975	.2793	.001
278.15	.1007	.2508	.001
278.15	.1162	.2041	.001
278.15	.1354	.1769	.001
278.15	.168	.1195	.001
278.15	.1915	.0798	.001
278.15	.213	.0604	.001
278.15	.2439	.0396	.001
278.15	.2724	.028	.001
278.15	.3027	.0188	.001
278.15	.3657	.0072	.001
278.15	.3942	.0024	.001
278.15	.4916	.0004	.001
288.15	.1057	.327	.001
288.15	.11	.3112	.001
288.15	.1193	.2763	.001
288.15	.1295	.2361	.001
288.15	.1386	.2158	.001
288.15	.1541	.179	.001
288.15	.1908	.1352	.001
288.15	.2151	.1115	.001
288.15	.2578	.0816	.001
288.15	.2919	.071	.001
288.15	.3148	.0584	.001
288.15	.3371	.0536	.001
288.15	.4034	.0387	.001
288.15	.4813	.0273	.001
288.15	.5178	.0242	.001
288.15	.6056	.0164	.001
288.15	.6418	.0125	.001
288.15	.6594	.0118	.001
288.15	.702	.009	.001
288.15	.708	.008	.001
288.15	.7543	.0073	.001
298.15	.068	.4604	.001
298.15	.1261	.3015	.001
298.15	.1649	.2365	.001
298.15	.1962	.1937	.001
298.15	.2696	.1229	.001
298.15	.3287	.0957	.001
298.15	.3875	.0771	.001
298.15	.4452	.0606	.001
298.15	.495	.0458	.001
298.15	.5325	.0382	.001
298.15	.6017	.0253	.001
298.15	.6798	.0149	.001
308.15	.0782	.4326	.001
308.15	.0984	.3911	.001
308.15	.1292	.3307	.001
308.15	.1582	.2741	.001
308.15	.1985	.2276	.001
308.15	.235	.1872	.001
308.15	.2722	.1615	.001
308.15	.3587	.1207	.001
308.15	.4076	.1013	.001
308.15	.4304	.0909	.001
308.15	.4558	.0822	.001
308.15	.4803	.0707	.001
308.15	.5272	.0553	.001
308.15	.6037	.0365	.001
308.15	.6373	.0328	.001
308.15	.7299	.015	.001

System: maltose + water + 1-butyl-3-methylimidazolium tetrafluoroborate; phases: Liquid mixture 1, Liquid mixture 2
Fixed: Pressure, kPa = 101
Property: Mass fraction of maltose (Liquid mixture 1); method: Chromatography
Property: Mass fraction of maltose (Liquid mixture 2); method: Chromatography
Property: Mass fraction of 1-butyl-3-methylimidazolium tetrafluoroborate (Liquid mixture 2); method: Chromatography
Temperature, K	Mass fraction of 1-butyl-3-methylimidazolium tetrafluoroborate	Mass fraction of maltose	uncertainty	Mass fraction of maltose	uncertainty	Mass fraction of 1-butyl-3-methylimidazolium tetrafluoroborate	uncertainty
278.15	.5431	.0003	.001	.1955	.001	.1254	.001
278.15	.7191	.0003	.001	.2542	.001	.1011	.001
278.15	.8452	.0003	.001	.3063	.001	.0911	.001
278.15	.9033	.0003	.001	.3522	.001	.0827	.001
288.15	.6532	.0096	.001	.2514	.001	.1228	.001
288.15	.803	.0072	.001	.3149	.001	.1091	.001
288.15	.8693	.0069	.001	.3556	.001	.1025	.001
288.15	.9173	.0062	.001	.4084	.001	.1001	.001
298.15	.5511	.0328	.001	.2242	.001	.1725	.001
298.15	.6762	.0165	.001	.2753	.001	.1393	.001
298.15	.75	.0111	.001	.3192	.001	.1112	.001
298.15	.8283	.0104	.001	.3709	.001	.0933	.001
308.15	.5224	.0629	.001	.2462	.001	.1818	.001
308.15	.7023	.0201	.001	.3307	.001	.1314	.001
308.15	.8371	.0129	.001	.4301	.001	.08	.001
308.15	.8963	.012	.001	.5027	.001	.0657	.001
