Measured thermophysical data. Densities and Viscosities of Four Binary Diethyl Carbonate + 1-Alcohol Systems from (288.15 to 313.15) K
Source: J. Chem. Eng. Data, 2011, 10.1021/je1013476
Compound 1: diethyl carbonate, C5H10O3
Compound 2: ethanol, C2H6O
Compound 3: propan-1-ol, C3H8O
Compound 4: pentan-1-ol, C5H12O
Compound 5: 1-octanol, C8H18O

System: diethyl carbonate; phases: Liquid
Fixed: Pressure, kPa = 101.325
Property: Mass density, kg/m3 (Liquid); method: Vibrating tube method
Temperature, K	Mass density, kg/m3	uncertainty
288.15	980.39	.02
293.15	974.83	.02
298.15	969.15	.02
303.15	963.39	.02
313.15	952.1	.02

System: diethyl carbonate; phases: Liquid
Fixed: Pressure, kPa = 101.325
Property: Viscosity, Pa*s (Liquid); method: Capillary tube (Ostwald; Ubbelohde) method
Temperature, K	Viscosity, Pa*s	uncertainty
288.15	.000864	.000003456
293.15	.000803	.000003212
298.15	.000757	.000003028
303.15	.0007	.0000028
313.15	.000616	.000002464

System: ethanol; phases: Liquid
Fixed: Pressure, kPa = 101.325
Property: Viscosity, Pa*s (Liquid); method: Capillary tube (Ostwald; Ubbelohde) method
Temperature, K	Viscosity, Pa*s	uncertainty
288.15	.001313	.000005252
293.15	.001216	.000004864
298.15	.001132	.000004528
303.15	.00101	.00000404
313.15	.000824	.000003296

System: ethanol; phases: Liquid
Fixed: Pressure, kPa = 101.325
Property: Mass density, kg/m3 (Liquid); method: Vibrating tube method
Temperature, K	Mass density, kg/m3	uncertainty
288.15	793.65	.02
293.15	789.34	.02
298.15	785.07	.02
303.15	780.72	.02
313.15	771.97	.02

System: propan-1-ol; phases: Liquid
Fixed: Pressure, kPa = 101.325
Property: Viscosity, Pa*s (Liquid); method: Capillary tube (Ostwald; Ubbelohde) method
Temperature, K	Viscosity, Pa*s	uncertainty
288.15	.002507	.000010028
293.15	.002202	.000008808
298.15	.001973	.000007892
303.15	.001733	.000006932
313.15	.001381	.000005524

System: propan-1-ol; phases: Liquid
Fixed: Pressure, kPa = 101.325
Property: Mass density, kg/m3 (Liquid); method: Vibrating tube method
Temperature, K	Mass density, kg/m3	uncertainty
288.15	807.55	.02
293.15	803.52	.02
298.15	799.45	.02
303.15	795.47	.02
313.15	787.28	.02

System: pentan-1-ol; phases: Liquid
Fixed: Pressure, kPa = 101.325
Property: Viscosity, Pa*s (Liquid); method: Capillary tube (Ostwald; Ubbelohde) method
Temperature, K	Viscosity, Pa*s	uncertainty
288.15	.004682	.000018728
293.15	.004025	.0000161
298.15	.003497	.000013988
303.15	.003022	.000012088
313.15	.002312	.000009248

System: pentan-1-ol; phases: Liquid
Fixed: Pressure, kPa = 101.325
Property: Mass density, kg/m3 (Liquid); method: Vibrating tube method
Temperature, K	Mass density, kg/m3	uncertainty
288.15	818.32	.02
293.15	814.63	.02
298.15	810.96	.02
303.15	807.26	.02
313.15	799.78	.02

System: 1-octanol; phases: Liquid
Fixed: Pressure, kPa = 101.325
Property: Viscosity, Pa*s (Liquid); method: Capillary tube (Ostwald; Ubbelohde) method
Temperature, K	Viscosity, Pa*s	uncertainty
288.15	.01107	.00004428
293.15	.009161	.000036644
298.15	.007688	.000030752
303.15	.006404	.000025616
313.15	.00462	.00001848

System: 1-octanol; phases: Liquid
Fixed: Pressure, kPa = 101.325
Property: Mass density, kg/m3 (Liquid); method: Vibrating tube method
Temperature, K	Mass density, kg/m3	uncertainty
288.15	828.63	.02
293.15	825.2	.02
298.15	821.74	.02
303.15	818.23	.02
313.15	811.22	.02

System: ethanol + diethyl carbonate; phases: Liquid
Fixed: Pressure, kPa = 101
Property: Mass density, kg/m3 (Liquid); method: Vibrating tube method
Temperature, K	Mole fraction of diethyl carbonate	Mass density, kg/m3	uncertainty
288.15	.05544	813.88	.02
288.15	.10004	828.53	.02
288.15	.19696	856.33	.02
288.15	.29981	881.02	.02
288.15	.40616	902.55	.02
288.15	.50391	919.48	.02
288.15	.61305	935.91	.02
288.15	.69394	946.73	.02
288.15	.79421	958.83	.02
288.15	.8992	970.29	.02
288.15	.97442	977.89	.02
293.15	.05208	808.2	.02
293.15	.09645	822.76	.02
293.15	.19831	851.8	.02
293.15	.29306	874.46	.02
293.15	.40891	897.78	.02
293.15	.49447	912.58	.02
293.15	.61114	930.21	.02
293.15	.67868	939.26	.02
293.15	.7692	950.39	.02
293.15	.87673	962.34	.02
293.15	.94443	969.33	.02
303.15	.04589	797.14	.02
303.15	.09693	813.63	.02
303.15	.19432	840.98	.02
303.15	.28434	862.32	.02
303.15	.40976	887.33	.02
303.15	.51281	904.7	.02
303.15	.61756	920.01	.02
303.15	.69066	929.62	.02
303.15	.78961	941.46	.02
303.15	.8863	951.96	.02
303.15	.96759	960.23	.02
313.15	.04956	789.32	.02
313.15	.09649	804.16	.02
313.15	.20702	834.28	.02
313.15	.28474	852.21	.02
313.15	.39819	874.66	.02
313.15	.50486	892.56	.02
313.15	.60789	907.66	.02
313.15	.62272	909.67	.02
313.15	.68952	918.3	.02
313.15	.78264	929.4	.02
313.15	.89238	941.3	.02
313.15	.95634	947.79	.02

System: ethanol + diethyl carbonate; phases: Liquid
Fixed: Pressure, kPa = 101
Property: Viscosity, Pa*s (Liquid); method: Capillary tube (Ostwald; Ubbelohde) method
Temperature, K	Mole fraction of diethyl carbonate	Viscosity, Pa*s	uncertainty
288.15	.05544	.001181	.000004724
288.15	.10004	.001111	.000004444
288.15	.19696	.000996	.000003984
288.15	.29981	.000917	.000003668
288.15	.40616	.000864	.000003456
288.15	.50391	.000838	.000003352
288.15	.61305	.000821	.000003284
288.15	.69394	.000815	.00000326
288.15	.79421	.000819	.000003276
288.15	.8992	.000834	.000003336
288.15	.97442	.000856	.000003424
293.15	.05208	.001115	.00000446
293.15	.09645	.001045	.00000418
293.15	.19831	.00093	.00000372
293.15	.29306	.000867	.000003468
293.15	.40891	.000818	.000003272
293.15	.49447	.000794	.000003176
293.15	.61114	.000777	.000003108
293.15	.67868	.000771	.000003084
293.15	.7692	.00077	.00000308
293.15	.87673	.000779	.000003116
293.15	.94443	.000791	.000003164
303.15	.04589	.000937	.000003748
303.15	.09693	.00088	.00000352
303.15	.19432	.000799	.000003196
303.15	.28434	.000747	.000002988
303.15	.40976	.000703	.000002812
303.15	.51281	.000686	.000002744
303.15	.61756	.000678	.000002712
303.15	.69066	.000675	.0000027
303.15	.78961	.000675	.0000027
303.15	.8863	.000681	.000002724
303.15	.96759	.000694	.000002776
313.15	.04956	.000761	.000003044
313.15	.09649	.000715	.00000286
313.15	.20702	.000647	.000002588
313.15	.28474	.000618	.000002472
313.15	.39819	.000591	.000002364
313.15	.50486	.000578	.000002312
313.15	.60789	.000574	.000002296
313.15	.62272	.000573	.000002292
313.15	.68952	.000575	.0000023
313.15	.78264	.00058	.00000232
313.15	.89238	.000594	.000002376
313.15	.95634	.000606	.000002424

System: ethanol + diethyl carbonate; phases: Liquid
Fixed: Pressure, kPa = 101
Fixed: Temperature, K = 303.15
Property: Excess molar enthalpy (molar enthalpy of mixing), kJ/mol (Liquid); method: Calvet calorimetry
Mole fraction of diethyl carbonate	Excess molar enthalpy (molar enthalpy of mixing), kJ/mol	uncertainty
.06432	.3945	.003945
.11131	.6373	.006373
.1833	.9438	.009438
.24389	1.1547	.011547
.30342	1.3252	.013252
.37386	1.488	.01488
.42582	1.5806	.015806
.50663	1.6536	.016536
.54449	1.6519	.016519
.64	1.6299	.016299
.71338	1.5293	.015293
.76628	1.4031	.014031
.82433	1.1939	.011939
.89981	.7905	.007905
.95569	.3957	.003957

System: propan-1-ol + diethyl carbonate; phases: Liquid
Fixed: Pressure, kPa = 101
Property: Mass density, kg/m3 (Liquid); method: Vibrating tube method
Temperature, K	Mole fraction of diethyl carbonate	Mass density, kg/m3	uncertainty
288.15	.05124	821.17	.02
288.15	.07262	826.61	.02
288.15	.1063	834.89	.02
288.15	.15107	845.43	.02
288.15	.21218	858.98	.02
288.15	.26378	869.76	.02
288.15	.30997	878.92	.02
288.15	.40161	895.92	.02
288.15	.51471	915.01	.02
288.15	.59163	926.96	.02
288.15	.59935	928.13	.02
288.15	.69064	941.32	.02
288.15	.78869	954.53	.02
288.15	.86945	964.81	.02
288.15	.94284	973.71	.02
293.15	.04957	816.57	.02
293.15	.10011	829.1	.02
293.15	.21012	853.96	.02
293.15	.30742	873.57	.02
293.15	.40382	891.34	.02
293.15	.50972	909.09	.02
293.15	.60023	923.04	.02
293.15	.69628	936.76	.02
293.15	.80588	951.25	.02
293.15	.88171	960.76	.02
293.15	.94334	968.14	.02
303.15	.05148	808.69	.02
303.15	.10081	820.63	.02
303.15	.20436	843.53	.02
303.15	.31609	865.57	.02
303.15	.40483	881.45	.02
303.15	.44592	888.41	.02
303.15	.59996	912.35	.02
303.15	.68922	924.91	.02
303.15	.79204	938.39	.02
303.15	.88086	949.35	.02
303.15	.93635	955.95	.02
313.15	.04668	798.89	.02
313.15	.10085	811.63	.02
313.15	.21187	835.52	.02
313.15	.30748	854.04	.02
313.15	.41325	872.66	.02
313.15	.50186	886.95	.02
313.15	.59979	901.56	.02
313.15	.69131	914.21	.02
313.15	.79018	926.98	.02
313.15	.84555	933.82	.02
313.15	.8699	936.73	.02
313.15	.89033	939.21	.02
313.15	.94879	946.12	.02

System: propan-1-ol + diethyl carbonate; phases: Liquid
Fixed: Pressure, kPa = 101
Property: Viscosity, Pa*s (Liquid); method: Capillary tube (Ostwald; Ubbelohde) method
Temperature, K	Mole fraction of diethyl carbonate	Viscosity, Pa*s	uncertainty
288.15	.05124	.002135	.00000854
288.15	.07262	.002007	.000008028
288.15	.1063	.001833	.000007332
288.15	.15107	.001638	.000006552
288.15	.21218	.001459	.000005836
288.15	.26378	.00133	.00000532
288.15	.30997	.001248	.000004992
288.15	.40161	.001115	.00000446
288.15	.51471	.001	.000004
288.15	.59163	.000947	.000003788
288.15	.59935	.000937	.000003748
288.15	.69064	.000905	.00000362
288.15	.78869	.000871	.000003484
288.15	.86945	.000859	.000003436
288.15	.94284	.000865	.00000346
293.15	.04957	.001906	.000007624
293.15	.10011	.001657	.000006628
293.15	.21012	.001315	.00000526
293.15	.30742	.001132	.000004528
293.15	.40382	.00101	.00000404
293.15	.50972	.00092	.00000368
293.15	.60023	.000868	.000003472
293.15	.69628	.000829	.000003316
293.15	.80588	.000804	.000003216
293.15	.88171	.000796	.000003184
293.15	.94334	.000796	.000003184
303.15	.05148	.001495	.00000598
303.15	.10081	.001329	.000005316
303.15	.20436	.001087	.000004348
303.15	.31609	.00093	.00000372
303.15	.40483	.000847	.000003388
303.15	.44592	.000818	.000003272
303.15	.59996	.000743	.000002972
303.15	.68922	.000715	.00000286
303.15	.79204	.000697	.000002788
303.15	.88086	.000692	.000002768
303.15	.93635	.000692	.000002768
313.15	.04668	.001214	.000004856
313.15	.10085	.001071	.000004284
313.15	.21187	.000885	.00000354
313.15	.30748	.000783	.000003132
313.15	.41325	.00071	.00000284
313.15	.50186	.000668	.000002672
313.15	.59979	.000637	.000002548
313.15	.69131	.000618	.000002472
313.15	.79018	.000607	.000002428
313.15	.84555	.000608	.000002432
313.15	.8699	.000606	.000002424
313.15	.89033	.000607	.000002428
313.15	.94879	.00061	.00000244

System: propan-1-ol + diethyl carbonate; phases: Liquid
Fixed: Pressure, kPa = 101
Fixed: Temperature, K = 303.15
Property: Excess molar enthalpy (molar enthalpy of mixing), kJ/mol (Liquid); method: Calvet calorimetry
Mole fraction of diethyl carbonate	Excess molar enthalpy (molar enthalpy of mixing), kJ/mol	uncertainty
.05945	.4328	.004328
.12274	.8196	.008196
.19561	1.1749	.011749
.24982	1.3735	.013735
.26772	1.4376	.014376
.30176	1.5531	.015531
.37618	1.7578	.017578
.45692	1.8442	.018442
.49061	1.868	.01868
.56418	1.8851	.018851
.61817	1.8491	.018491
.69316	1.744	.01744
.74535	1.5911	.015911
.82396	1.3057	.013057
.87197	1.0376	.010376
.91679	.7269	.007269

System: pentan-1-ol + diethyl carbonate; phases: Liquid
Fixed: Pressure, kPa = 101
Property: Mass density, kg/m3 (Liquid); method: Vibrating tube method
Temperature, K	Mole fraction of diethyl carbonate	Mass density, kg/m3	uncertainty
288.15	.05026	826.9	.02
288.15	.10602	836.4	.02
288.15	.18806	850.28	.02
288.15	.28794	866.92	.02
288.15	.39597	884.69	.02
288.15	.49047	900.03	.02
288.15	.59171	916.28	.02
288.15	.71042	935.09	.02
288.15	.80674	950.23	.02
288.15	.89601	964.17	.02
288.15	.96065	974.25	.02
293.15	.04854	822.8	.02
293.15	.0572	824.25	.02
293.15	.10709	832.6	.02
293.15	.19882	847.85	.02
293.15	.29002	862.87	.02
293.15	.39801	880.41	.02
293.15	.49386	895.79	.02
293.15	.59983	912.55	.02
293.15	.69683	927.7	.02
293.15	.80091	943.91	.02
293.15	.89019	957.76	.02
293.15	.9604	968.66	.02
303.15	.06248	817.46	.02
303.15	.09976	823.53	.02
303.15	.20172	839.99	.02
303.15	.28975	854.09	.02
303.15	.39688	871	.02
303.15	.49223	885.91	.02
303.15	.59412	901.64	.02
303.15	.69875	917.65	.02
303.15	.80394	933.63	.02
303.15	.89966	948.13	.02
303.15	.96081	957.42	.02
313.15	.05411	808.37	.02
313.15	.10416	816.28	.02
313.15	.19393	830.39	.02
313.15	.28998	845.34	.02
313.15	.40599	863.19	.02
313.15	.4965	876.96	.02
313.15	.59569	891.9	.02
313.15	.74744	914.56	.02
313.15	.80299	922.81	.02
313.15	.89971	937.15	.02
313.15	.95818	945.86	.02

System: pentan-1-ol + diethyl carbonate; phases: Liquid
Fixed: Pressure, kPa = 101
Property: Viscosity, Pa*s (Liquid); method: Capillary tube (Ostwald; Ubbelohde) method
Temperature, K	Mole fraction of diethyl carbonate	Viscosity, Pa*s	uncertainty
288.15	.05026	.003879	.000015516
288.15	.10602	.003215	.00001286
288.15	.18806	.002529	.000010116
288.15	.28794	.001972	.000007888
288.15	.39597	.001595	.00000638
288.15	.49047	.001355	.00000542
288.15	.59171	.001182	.000004728
288.15	.71042	.00103	.00000412
288.15	.80674	.000948	.000003792
288.15	.89601	.000898	.000003592
288.15	.96065	.000871	.000003484
293.15	.04854	.003391	.000013564
293.15	.0572	.003292	.000013168
293.15	.10709	.002796	.000011184
293.15	.19882	.002138	.000008552
293.15	.29002	.001725	.0000069
293.15	.39801	.001402	.000005608
293.15	.49386	.001202	.000004808
293.15	.59983	.001049	.000004196
293.15	.69683	.000947	.000003788
293.15	.80091	.000869	.000003476
293.15	.89019	.000826	.000003304
293.15	.9604	.000808	.000003232
303.15	.06248	.002453	.000009812
303.15	.09976	.002195	.00000878
303.15	.20172	.001686	.000006744
303.15	.28975	.001395	.00000558
303.15	.39688	.001159	.000004636
303.15	.49223	.001013	.000004052
303.15	.59412	.000893	.000003572
303.15	.69875	.000808	.000003232
303.15	.80394	.00075	.000003
303.15	.89966	.000715	.00000286
303.15	.96081	.000703	.000002812
313.15	.05411	.001951	.000007804
313.15	.10416	.001705	.00000682
313.15	.19393	.001373	.000005492
313.15	.28998	.001139	.000004556
313.15	.40599	.00095	.0000038
313.15	.4965	.000847	.000003388
313.15	.59569	.000763	.000003052
313.15	.74744	.000675	.0000027
313.15	.80299	.000653	.000002612
313.15	.89971	.000628	.000002512
313.15	.95818	.00062	.00000248

System: pentan-1-ol + diethyl carbonate; phases: Liquid
Fixed: Temperature, K = 303.15
Fixed: Pressure, kPa = 101
Property: Excess molar enthalpy (molar enthalpy of mixing), kJ/mol (Liquid); method: Calvet calorimetry
Mole fraction of diethyl carbonate	Excess molar enthalpy (molar enthalpy of mixing), kJ/mol	uncertainty
.04842	.3831	.003831
.085	.6545	.006545
.15206	1.0515	.010515
.21215	1.3629	.013629
.26304	1.562	.01562
.31537	1.7473	.017473
.35923	1.8451	.018451
.43987	1.9942	.019942
.45808	1.9981	.019981
.54443	2.0553	.020553
.64003	1.9654	.019654
.69253	1.8203	.018203
.74154	1.7032	.017032
.79932	1.4949	.014949
.85191	1.2195	.012195
.91385	.7984	.007984

System: diethyl carbonate + 1-octanol; phases: Liquid
Fixed: Pressure, kPa = 101
Property: Mass density, kg/m3 (Liquid); method: Vibrating tube method
Temperature, K	Mole fraction of diethyl carbonate	Mass density, kg/m3	uncertainty
288.15	.05879	834.94	.02
288.15	.09178	838.6	.02
288.15	.18398	849.27	.02
288.15	.28395	861.63	.02
288.15	.40005	877.04	.02
288.15	.51087	892.89	.02
288.15	.59796	906.21	.02
288.15	.69268	921.66	.02
288.15	.80731	941.89	.02
288.15	.92747	965.14	.02
288.15	.95308	970.42	.02
293.15	.05259	830.75	.02
293.15	.10474	836.45	.02
293.15	.19672	847.03	.02
293.15	.29555	859.15	.02
293.15	.39636	872.38	.02
293.15	.50311	887.37	.02
293.15	.604	902.57	.02
293.15	.69951	918.01	.02
293.15	.81749	938.67	.02
293.15	.91237	956.76	.02
293.15	.95307	964.98	.02
303.15	.05353	823.7	.02
303.15	.10032	828.65	.02
303.15	.19024	838.63	.02
303.15	.30019	851.69	.02
303.15	.41121	865.89	.02
303.15	.50384	878.58	.02
303.15	.59342	891.62	.02
303.15	.69811	907.98	.02
303.15	.81508	927.85	.02
303.15	.91376	946.1	.02
303.15	.95476	954.16	.02
313.15	.05666	816.83	.02
313.15	.11088	822.42	.02
313.15	.19564	831.59	.02
313.15	.28933	842.35	.02
313.15	.40054	856.05	.02
313.15	.50674	870.12	.02
313.15	.6044	884.01	.02
313.15	.70378	899.18	.02
313.15	.80411	915.66	.02
313.15	.90916	934.43	.02
313.15	.95396	942.96	.02

System: diethyl carbonate + 1-octanol; phases: Liquid
Fixed: Pressure, kPa = 101
Property: Viscosity, Pa*s (Liquid); method: Capillary tube (Ostwald; Ubbelohde) method
Temperature, K	Mole fraction of diethyl carbonate	Viscosity, Pa*s	uncertainty
288.15	.05879	.008723	.000034892
288.15	.09178	.007678	.000030712
288.15	.18398	.005521	.000022084
288.15	.28395	.003992	.000015968
288.15	.40005	.002876	.000011504
288.15	.51087	.002157	.000008628
288.15	.59796	.001773	.000007092
288.15	.69268	.001441	.000005764
288.15	.80731	.001157	.000004628
288.15	.92747	.000953	.000003812
288.15	.95308	.000921	.000003684
293.15	.05259	.007441	.000029764
293.15	.10474	.006062	.000024248
293.15	.19672	.004538	.000018152
293.15	.29555	.003308	.000013232
293.15	.39636	.002544	.000010176
293.15	.50311	.001951	.000007804
293.15	.604	.001573	.000006292
293.15	.69951	.001285	.00000514
293.15	.81749	.001039	.000004156
293.15	.91237	.0009	.0000036
293.15	.95307	.000853	.000003412
303.15	.05353	.005282	.000021128
303.15	.10032	.004522	.000018088
303.15	.19024	.003432	.000013728
303.15	.30019	.002536	.000010144
303.15	.41121	.001928	.000007712
303.15	.50384	.001584	.000006336
303.15	.59342	.00132	.00000528
303.15	.69811	.001075	.0000043
303.15	.81508	.000884	.000003536
303.15	.91376	.000773	.000003092
303.15	.95476	.00074	.00000296
313.15	.05666	.003842	.000015368
313.15	.11088	.003267	.000013068
313.15	.19564	.00259	.00001036
313.15	.28933	.002054	.000008216
313.15	.40054	.001585	.00000634
313.15	.50674	.001273	.000005092
313.15	.6044	.001059	.000004236
313.15	.70378	.000893	.000003572
313.15	.80411	.000766	.000003064
313.15	.90916	.000672	.000002688
313.15	.95396	.000643	.000002572

System: diethyl carbonate + 1-octanol; phases: Liquid
Fixed: Temperature, K = 303.15
Fixed: Pressure, kPa = 101
Property: Excess molar enthalpy (molar enthalpy of mixing), kJ/mol (Liquid); method: Calvet calorimetry
Mole fraction of diethyl carbonate	Excess molar enthalpy (molar enthalpy of mixing), kJ/mol	uncertainty
.09134	.7356	.007356
.12764	.9861	.009861
.17644	1.2959	.012959
.24837	1.6483	.016483
.31555	1.9235	.019235
.37403	2.0935	.020935
.4304	2.2087	.022087
.49098	2.2772	.022772
.56994	2.2681	.022681
.62683	2.2141	.022141
.68952	2.0899	.020899
.74918	1.9028	.019028
.81111	1.6205	.016205
.87047	1.2454	.012454
.93567	.6981	.006981
