Measured thermophysical data. Liquid-Liquid(-Liquid) Equilibria in Ternary Systems of Aliphatic Hydrocarbons (Heptane or Octane) + Phenols + Water
Source: J. Chem. Eng. Data, 2011, 10.1021/je1007923
Compound 1: 2-methylphenol, C7H8O, purity 99%
Compound 2: 3-methylphenol, C7H8O, purity 99%
Compound 3: 4-methylphenol, C7H8O, purity 99%
Compound 4: octane, C8H18, purity 99%
Compound 5: heptane, C7H16, purity 99%
Compound 6: phenol, C6H6O, purity 99.5%
Compound 7: water, H2O

System: 2-methylphenol; phases: Liquid
Fixed: Pressure, kPa = 101.325
Property: Mass density, kg/m3 (Liquid); method: Vibrating tube method
Temperature, K	Mass density, kg/m3	uncertainty
308.15	1032.73	

System: 3-methylphenol; phases: Liquid
Fixed: Pressure, kPa = 101.325
Property: Mass density, kg/m3 (Liquid); method: Vibrating tube method
Temperature, K	Mass density, kg/m3	uncertainty
293.15	1033.85	

System: 4-methylphenol; phases: Liquid
Fixed: Pressure, kPa = 101.325
Property: Mass density, kg/m3 (Liquid); method: Vibrating tube method
Temperature, K	Mass density, kg/m3	uncertainty
313.15	1018.8	

System: octane; phases: Liquid
Fixed: Pressure, kPa = 101.325
Property: Mass density, kg/m3 (Liquid); method: Vibrating tube method
Temperature, K	Mass density, kg/m3	uncertainty
298.15	698.49	

System: heptane; phases: Liquid
Fixed: Pressure, kPa = 101.325
Property: Mass density, kg/m3 (Liquid); method: Vibrating tube method
Temperature, K	Mass density, kg/m3	uncertainty
298.15	679.43	

System: phenol; phases: Liquid
Fixed: Pressure, kPa = 101.325
Property: Mass density, kg/m3 (Liquid); method: Vibrating tube method
Temperature, K	Mass density, kg/m3	uncertainty
313.15	1058.3	

System: phenol + heptane; phases: Liquid mixture 1, Liquid mixture 2
Fixed: Pressure, kPa = 101
Property: Liquid-liquid equilibrium temperature, K (Liquid mixture 1); method: Visual observation
Mole fraction of heptane	Liquid-liquid equilibrium temperature, K	uncertainty
.1414	305.35	.1
.1551	308.05	.1
.1734	310.35	.1
.1987	314.21	.1
.2651	320.11	.1
.3236	323.05	.1
.3842	324.8	.1
.4038	325.12	.1
.4261	325.35	.1
.4481	325.5	.1
.4663	325.66	.1
.4726	325.75	.1
.4885	325.85	.1
.522	325.94	.1
.5375	325.9	.1
.5532	325.75	.1
.5653	325.65	.1
.5796	325.55	.1
.5933	325.47	.1
.6113	325.25	.1
.627	325.05	.1
.6506	324.7	.1
.6702	324.15	.1
.6949	323.05	.1
.7184	321.35	.1
.7465	318.75	.1
.7841	314.35	.1
.8001	311.55	.1

System: phenol + octane; phases: Liquid mixture 1, Liquid mixture 2
Fixed: Pressure, kPa = 101
Property: Liquid-liquid equilibrium temperature, K (Liquid mixture 1); method: Visual observation
Mole fraction of octane	Liquid-liquid equilibrium temperature, K	uncertainty
.1232	301.85	.1
.141	305.55	.1
.1534	307.9	.1
.168	310.05	.1
.1859	312.55	.1
.2036	314.85	.1
.2186	316.45	.1
.2361	318.2	.1
.2564	319.85	.1
.2959	323.45	.1
.3073	324.3	.1
.3629	327.3	.1
.3879	328.05	.1
.4174	328.7	.1
.453	329.2	.1
.4948	329.85	.1
.5256	330	.1
.5577	329.95	.1
.5908	329.8	.1
.6203	329.45	.1
.6501	329.05	.1
.6745	328.55	.1
.7022	327.65	.1
.7306	326.35	.1
.7493	325.45	.1
.7625	324.6	.1
.7808	322.35	.1
.8	319.75	.1
.8201	317.1	.1
.8352	313.45	.1
.8481	310.25	.1

System: phenol + heptane + water; phases: Liquid mixture 1, Liquid mixture 2
Fixed: Pressure, kPa = 101
Property: Mole fraction of phenol (Liquid mixture 1); method: Titration method
Temperature, K	Mole fraction of heptane	Mole fraction of phenol	uncertainty
313.15	0	.2755	.003
313.15	.0309	.4104	.003
313.15	.0376	.47	.003
313.15	.0467	.5309	.003
313.15	.0606	.62	.003
313.15	.0606	.62	.003
313.15	.0697	.6476	.003
313.15	.0975	.6901	.003
313.15	.1114	.7281	.003
313.15	.114	.7434	.003
313.15	.1162	.7346	.003
313.15	.1395	.7773	.003
313.15	.1587	.7855	.003
313.15	.1868	.7935	.003
313.15	.1909	.8091	.003
313.15	.7915	.2085	.003
313.15	.852	.1451	.003
313.15	.9318	.0615	.003
313.15	.9606	.0259	.003
333.15	0	.1932	.003
333.15	.0191	.3039	.003
333.15	.0266	.386	.003
333.15	.0354	.4443	.003
333.15	.0516	.5201	.003
333.15	.0516	.5201	.003
333.15	.0626	.5462	.003
333.15	.0735	.5753	.003
333.15	.0844	.5839	.003
333.15	.0893	.5921	.003
333.15	.0896	.6165	.003
333.15	.109	.6227	.003
333.15	.1322	.671	.003
333.15	.152	.7064	.003
333.15	.1913	.7124	.003
333.15	.2155	.7081	.003
333.15	.2888	.6726	.003
333.15	.3445	.627	.003
333.15	.3668	.616	.003
333.15	.4087	.5756	.003
333.15	.4643	.518	.003
333.15	.4858	.4946	.003
333.15	.5768	.4056	.003
333.15	.7514	.2321	.003
333.15	.7704	.2147	.003
333.15	.84	.1422	.003
333.15	.9206	.0652	.003

System: phenol + heptane + water; phases: Liquid mixture 1, Liquid mixture 3, Liquid mixture 2
Fixed: Pressure, kPa = 101
Property: Mole fraction of heptane (Liquid mixture 1); method: Titration method
Temperature, K	Mole fraction of heptane	uncertainty
313.15	.952	.005
333.15	.9249	.005

System: phenol + heptane + water; phases: Liquid mixture 2, Liquid mixture 3, Liquid mixture 1
Fixed: Pressure, kPa = 101
Property: Mole fraction of heptane (Liquid mixture 2); method: Titration method
Temperature, K	Mole fraction of heptane	uncertainty
313.15	.0101	.005
333.15	.0082	.005

System: phenol + heptane + water; phases: Liquid mixture 1, Liquid mixture 3, Liquid mixture 2
Fixed: Pressure, kPa = 101
Property: Mole fraction of phenol (Liquid mixture 1); method: Titration method
Temperature, K	Mole fraction of phenol	uncertainty
313.15	.023	.005
333.15	.0338	.005

System: phenol + heptane + water; phases: Liquid mixture 2, Liquid mixture 3, Liquid mixture 1
Fixed: Pressure, kPa = 101
Property: Mole fraction of phenol (Liquid mixture 2); method: Titration method
Temperature, K	Mole fraction of phenol	uncertainty
313.15	.3478	.005
333.15	.2659	.005

System: 2-methylphenol + heptane + water; phases: Liquid mixture 1, Liquid mixture 2
Fixed: Pressure, kPa = 101
Property: Mole fraction of 2-methylphenol (Liquid mixture 1); method: Titration method
Temperature, K	Mole fraction of heptane	Mole fraction of 2-methylphenol	uncertainty
298.15	0	.5093	.003
298.15	.0287	.5294	.003
298.15	.0469	.5327	.003
298.15	.0728	.5299	.003
298.15	.0924	.5286	.003
298.15	.1178	.5263	.003
298.15	.1208	.5242	.003
298.15	.1473	.5412	.003
298.15	.2045	.5496	.003
298.15	.2499	.5387	.003
298.15	.297	.5178	.003
298.15	.3596	.4818	.003
298.15	.4007	.4544	.003
298.15	.4518	.4223	.003
298.15	.5141	.3754	.003
298.15	.575	.3333	.003
298.15	.6531	.2765	.003
298.15	.732	.2123	.003
298.15	.7977	.1637	.003
298.15	.8629	.1125	.003
298.15	.9114	.0771	.003
323.15	0	.4917	.003
323.15	.0101	.5065	.003
323.15	.024	.5127	.003
323.15	.0525	.5182	.003
323.15	.0781	.5191	.003
323.15	.1129	.5131	.003
323.15	.1566	.5051	.003
323.15	.1874	.4934	.003
323.15	.2699	.4616	.003
323.15	.3556	.4293	.003
323.15	.4291	.3886	.003
323.15	.4984	.3498	.003
323.15	.5855	.3	.003
323.15	.663	.2495	.003
323.15	.7669	.1808	.003
323.15	.8506	.1169	.003
323.15	.9338	.0585	.003

System: 2-methylphenol + heptane + water; phases: Liquid mixture 1, Liquid mixture 3, Liquid mixture 2
Fixed: Pressure, kPa = 101
Property: Mole fraction of heptane (Liquid mixture 1); method: Titration method
Temperature, K	Mole fraction of heptane	uncertainty
298.15	.8724	.005
323.15	.7064	.005

System: 2-methylphenol + heptane + water; phases: Liquid mixture 1, Liquid mixture 3, Liquid mixture 2
Fixed: Pressure, kPa = 101
Property: Mole fraction of 2-methylphenol (Liquid mixture 1); method: Titration method
Temperature, K	Mole fraction of 2-methylphenol	uncertainty
298.15	.1004	.005
323.15	.2017	.005

System: 2-methylphenol + heptane + water; phases: Liquid mixture 2, Liquid mixture 3, Liquid mixture 1
Fixed: Pressure, kPa = 101
Property: Mole fraction of heptane (Liquid mixture 2); method: Titration method
Temperature, K	Mole fraction of heptane	uncertainty
298.15	.1205	.005
323.15	.1326	.005

System: 2-methylphenol + heptane + water; phases: Liquid mixture 2, Liquid mixture 3, Liquid mixture 1
Fixed: Pressure, kPa = 101
Property: Mole fraction of 2-methylphenol (Liquid mixture 2); method: Titration method
Temperature, K	Mole fraction of 2-methylphenol	uncertainty
298.15	.5111	.005
323.15	.4874	.005

System: 3-methylphenol + heptane + water; phases: Liquid mixture 2, Liquid mixture 1
Fixed: Pressure, kPa = 101
Property: Mole fraction of 3-methylphenol (Liquid mixture 2); method: Titration method
Temperature, K	Mole fraction of heptane	Mole fraction of 3-methylphenol	uncertainty
298.15	0	.5184	.003
298.15	.0731	.5252	.003
298.15	.0796	.526	.003
298.15	.1178	.5109	.003
298.15	.1336	.4993	.003
298.15	.157	.4999	.003
298.15	.1575	.5192	.003
298.15	.1579	.5394	.003
298.15	.1899	.5573	.003
298.15	.1942	.5557	.003
298.15	.2349	.56	.003
298.15	.2676	.5546	.003
298.15	.2789	.5515	.003
298.15	.3015	.5419	.003
298.15	.3185	.5349	.003
298.15	.3538	.5131	.003
298.15	.3649	.5046	.003
298.15	.398	.4837	.003
298.15	.517	.4016	.003
298.15	.6548	.2847	.003
298.15	.6773	.2663	.003
298.15	.7115	.2386	.003
298.15	.8558	.1182	.003
323.15	0	.4742	.003
323.15	.0617	.492	.003
323.15	.0692	.4918	.003
323.15	.0748	.492	.003
323.15	.0806	.4927	.003
323.15	.1179	.4403	.003
323.15	.1319	.4377	.003
323.15	.1538	.4298	.003
323.15	.1762	.4463	.003
323.15	.2138	.4863	.003
323.15	.238	.4831	.003
323.15	.2677	.4762	.003
323.15	.3171	.4496	.003
323.15	.3323	.443	.003
323.15	.3524	.4324	.003
323.15	.3846	.4176	.003
323.15	.5245	.3339	.003
323.15	.6682	.2405	.003
323.15	.7338	.1942	.003
323.15	.7733	.1679	.003

System: 3-methylphenol + heptane + water; phases: Liquid mixture 1, Liquid mixture 3, Liquid mixture 2
Fixed: Pressure, kPa = 101
Property: Mole fraction of heptane (Liquid mixture 1); method: Titration method
Temperature, K	Mole fraction of heptane	uncertainty
298.15	.9075	.005
323.15	.8485	.005

System: 3-methylphenol + heptane + water; phases: Liquid mixture 2, Liquid mixture 3, Liquid mixture 1
Fixed: Pressure, kPa = 101
Property: Mole fraction of heptane (Liquid mixture 2); method: Titration method
Temperature, K	Mole fraction of heptane	uncertainty
298.15	.141	.005
323.15	.1512	.005

System: 3-methylphenol + heptane + water; phases: Liquid mixture 1, Liquid mixture 3, Liquid mixture 2
Fixed: Pressure, kPa = 101
Property: Mole fraction of 3-methylphenol (Liquid mixture 1); method: Titration method
Temperature, K	Mole fraction of 3-methylphenol	uncertainty
298.15	.0701	.005
323.15	.1063	.005

System: 3-methylphenol + heptane + water; phases: Liquid mixture 2, Liquid mixture 3, Liquid mixture 1
Fixed: Pressure, kPa = 101
Property: Mole fraction of 3-methylphenol (Liquid mixture 2); method: Titration method
Temperature, K	Mole fraction of 3-methylphenol	uncertainty
298.15	.494	.005
323.15	.4325	.005

System: 4-methylphenol + heptane + water; phases: Liquid mixture 1, Liquid mixture 2
Fixed: Pressure, kPa = 101
Property: Mole fraction of 4-methylphenol (Liquid mixture 1); method: Titration method
Temperature, K	Mole fraction of heptane	Mole fraction of 4-methylphenol	uncertainty
298.15	0	.4814	.003
298.15	.0207	.485	.003
298.15	.0317	.4888	.003
298.15	.0347	.4857	.003
298.15	.0347	.4905	.003
298.15	.0509	.4853	.003
298.15	.074	.4796	.003
298.15	.0791	.4831	.003
298.15	.0968	.4781	.003
298.15	.1141	.4749	.003
298.15	.141	.5076	.003
298.15	.1482	.5121	.003
298.15	.1812	.535	.003
298.15	.1873	.5378	.003
298.15	.1902	.539	.003
298.15	.2182	.5456	.003
298.15	.2333	.5485	.003
298.15	.2695	.5408	.003
298.15	.2796	.534	.003
298.15	.3146	.5224	.003
298.15	.3338	.5092	.003
298.15	.383	.4812	.003
298.15	.4027	.466	.003
298.15	.4685	.4193	.003
298.15	.5387	.3667	.003
298.15	.6182	.3044	.003
298.15	.6979	.2405	.003
298.15	.7754	.1777	.003
298.15	.8151	.15	.003
298.15	.8577	.114	.003
298.15	.9364	.05	.003
323.15	0	.438	.003
323.15	.0623	.456	.003
323.15	.0872	.4548	.003
323.15	.1263	.4475	.003
323.15	.1594	.4392	.003
323.15	.1754	.439	.003
323.15	.1956	.4455	.003
323.15	.2108	.4584	.003
323.15	.222	.4512	.003
323.15	.2488	.4497	.003
323.15	.2615	.4529	.003
323.15	.2925	.445	.003
323.15	.3079	.4399	.003
323.15	.3419	.4122	.003
323.15	.3663	.4115	.003
323.15	.384	.4033	.003
323.15	.4219	.386	.003
323.15	.4577	.3604	.003
323.15	.5142	.3338	.003
323.15	.536	.3123	.003
323.15	.632	.2518	.003
323.15	.6848	.2195	.003
323.15	.7188	.192	.003
323.15	.7965	.1395	.003
323.15	.8749	.0928	.003
323.15	.9296	.0582	.003

System: 4-methylphenol + heptane + water; phases: Liquid mixture 1, Liquid mixture 3, Liquid mixture 2
Fixed: Pressure, kPa = 101
Property: Mole fraction of heptane (Liquid mixture 1); method: Titration method
Temperature, K	Mole fraction of heptane	uncertainty
298.15	.9229	.005
313.15	.8517	.005

System: 4-methylphenol + heptane + water; phases: Liquid mixture 2, Liquid mixture 3, Liquid mixture 1
Fixed: Pressure, kPa = 101
Property: Mole fraction of heptane (Liquid mixture 2); method: Titration method
Temperature, K	Mole fraction of heptane	uncertainty
298.15	.122	.005
313.15	.1523	.005

System: 4-methylphenol + heptane + water; phases: Liquid mixture 1, Liquid mixture 3, Liquid mixture 2
Fixed: Pressure, kPa = 101
Property: Mole fraction of 4-methylphenol (Liquid mixture 1); method: Titration method
Temperature, K	Mole fraction of 4-methylphenol	uncertainty
298.15	.0569	.005
313.15	.1025	.005

System: 4-methylphenol + heptane + water; phases: Liquid mixture 2, Liquid mixture 3, Liquid mixture 1
Fixed: Pressure, kPa = 101
Property: Mole fraction of 4-methylphenol (Liquid mixture 2); method: Titration method
Temperature, K	Mole fraction of 4-methylphenol	uncertainty
298.15	.4736	.005
313.15	.435	.005

System: phenol + octane + water; phases: Liquid mixture 1, Liquid mixture 2
Fixed: Pressure, kPa = 101
Property: Mole fraction of phenol (Liquid mixture 1); method: Titration method
Temperature, K	Mole fraction of octane	Mole fraction of phenol	uncertainty
298.15	0	.2755	.003
298.15	.0262	.5286	.003
298.15	.0321	.5738	.003
298.15	.0386	.6118	.003
298.15	.0471	.6532	.003
298.15	.0596	.6983	.003
298.15	.0783	.7481	.003
298.15	.0905	.7626	.003
298.15	.1029	.7833	.003
298.15	.1106	.7928	.003
298.15	.1207	.8028	.003
298.15	.1347	.8195	.003
298.15	.1417	.8231	.003
298.15	.1527	.83	.003
298.15	.1648	.8352	.003
323.15	0	.1932	.003
323.15	.0097	.2365	.003
323.15	.0119	.296	.003
323.15	.019	.4162	.003
323.15	.0256	.4695	.003
323.15	.0331	.4965	.003
323.15	.0447	.5859	.003
323.15	.0485	.6059	.003
323.15	.0682	.641	.003
323.15	.0828	.6692	.003
323.15	.092	.6852	.003
323.15	.1119	.7153	.003
323.15	.1225	.72	.003
323.15	.1245	.7223	.003
323.15	.1585	.7326	.003
323.15	.1678	.7343	.003
323.15	.184	.7359	.003
323.15	.2018	.7314	.003
323.15	.2234	.7227	.003
323.15	.2566	.7047	.003
323.15	.3011	.6704	.003
323.15	.3223	.654	.003
323.15	.3671	.6127	.003
323.15	.395	.5874	.003
323.15	.4532	.5318	.003
323.15	.8397	.1454	.003

System: phenol + octane + water; phases: Liquid mixture 1, Liquid mixture 3, Liquid mixture 2
Fixed: Pressure, kPa = 101
Property: Mole fraction of octane (Liquid mixture 1); method: Titration method
Temperature, K	Mole fraction of octane	uncertainty
313.15	.9697	.005
333.15	.9459	.005

System: phenol + octane + water; phases: Liquid mixture 2, Liquid mixture 3, Liquid mixture 1
Fixed: Pressure, kPa = 101
Property: Mole fraction of octane (Liquid mixture 2); method: Titration method
Temperature, K	Mole fraction of octane	uncertainty
313.15	.0074	.005
333.15	.0097	.005

System: phenol + octane + water; phases: Liquid mixture 3, Liquid mixture 2, Liquid mixture 1
Fixed: Pressure, kPa = 101
Property: Mole fraction of octane (Liquid mixture 3); method: Titration method
Temperature, K	Mole fraction of octane	uncertainty
313.15	.001	.005
333.15	.001	.005

System: phenol + octane + water; phases: Liquid mixture 1, Liquid mixture 3, Liquid mixture 2
Fixed: Pressure, kPa = 101
Property: Mole fraction of phenol (Liquid mixture 1); method: Titration method
Temperature, K	Mole fraction of phenol	uncertainty
313.15	.2065	.005
333.15	.0467	.005

System: phenol + octane + water; phases: Liquid mixture 2, Liquid mixture 3, Liquid mixture 1
Fixed: Pressure, kPa = 101
Property: Mole fraction of phenol (Liquid mixture 2); method: Titration method
Temperature, K	Mole fraction of phenol	uncertainty
313.15	.3106	.005
333.15	.2365	.005

System: phenol + octane + water; phases: Liquid mixture 3, Liquid mixture 2, Liquid mixture 1
Fixed: Pressure, kPa = 101
Property: Mole fraction of phenol (Liquid mixture 3); method: Titration method
Temperature, K	Mole fraction of phenol	uncertainty
313.15	.0236	.005
333.15	.0322	.005

System: 2-methylphenol + octane + water; phases: Liquid mixture 1, Liquid mixture 2
Fixed: Pressure, kPa = 101
Property: Mole fraction of 2-methylphenol (Liquid mixture 1); method: Titration method
Temperature, K	Mole fraction of octane	Mole fraction of 2-methylphenol	uncertainty
298.15	0	.5093	.003
298.15	.0142	.529	.003
298.15	.0334	.54	.003
298.15	.0409	.553	.003
298.15	.0593	.541	.003
298.15	.0634	.542	.003
298.15	.0907	.539	.003
298.15	.102	.555	.003
298.15	.108	.557	.003
298.15	.123	.57	.003
298.15	.126	.573	.003
298.15	.136	.578	.003
298.15	.137	.582	.003
298.15	.149	.582	.003
298.15	.153	.584	.003
298.15	.222	.59	.003
298.15	.268	.556	.003
298.15	.326	.523	.003
298.15	.382	.493	.003
298.15	.379	.486	.003
298.15	.435	.449	.003
298.15	.465	.439	.003
298.15	.62	.309	.003
298.15	.729	.225	.003
323.15	0	.4917	.003
323.15	.0119	.5092	.003
323.15	.1128	.5279	.003
323.15	.1299	.5179	.003
323.15	.1709	.5126	.003
323.15	.2428	.4928	.003
323.15	.2514	.4878	.003
323.15	.2987	.4666	.003
323.15	.4283	.4011	.003
323.15	.5282	.34	.003

System: 2-methylphenol + octane + water; phases: Liquid mixture 1, Liquid mixture 3, Liquid mixture 2
Fixed: Pressure, kPa = 101
Property: Mole fraction of octane (Liquid mixture 1); method: Titration method
Temperature, K	Mole fraction of octane	uncertainty
289.15	.911	.005
323.15	.7566	.005

System: 2-methylphenol + octane + water; phases: Liquid mixture 2, Liquid mixture 3, Liquid mixture 1
Fixed: Pressure, kPa = 101
Property: Mole fraction of octane (Liquid mixture 2); method: Titration method
Temperature, K	Mole fraction of octane	uncertainty
289.15	.0707	.005
323.15	.1109	.005

System: 2-methylphenol + octane + water; phases: Liquid mixture 1, Liquid mixture 3, Liquid mixture 2
Fixed: Pressure, kPa = 101
Property: Mole fraction of 2-methylphenol (Liquid mixture 1); method: Titration method
Temperature, K	Mole fraction of 2-methylphenol	uncertainty
289.15	.0593	.005
323.15	.1562	.005

System: 2-methylphenol + octane + water; phases: Liquid mixture 2, Liquid mixture 3, Liquid mixture 1
Fixed: Pressure, kPa = 101
Property: Mole fraction of 2-methylphenol (Liquid mixture 2); method: Titration method
Temperature, K	Mole fraction of 2-methylphenol	uncertainty
289.15	.517	.005
323.15	.5187	.005

System: 3-methylphenol + octane + water; phases: Liquid mixture 1, Liquid mixture 2
Fixed: Pressure, kPa = 101
Property: Mole fraction of 3-methylphenol (Liquid mixture 1); method: Titration method
Temperature, K	Mole fraction of octane	Mole fraction of 3-methylphenol	uncertainty
298.15	0	.5184	.003
298.15	.034	.5211	.003
298.15	.0462	.5227	.003
298.15	.1016	.5534	.003
298.15	.1057	.5598	.003
298.15	.1392	.5835	.003
298.15	.168	.6044	.003
298.15	.1749	.6074	.003
298.15	.1885	.6114	.003
298.15	.1989	.6079	.003
298.15	.2115	.6078	.003
298.15	.2225	.6084	.003
298.15	.2265	.6032	.003
298.15	.2609	.5914	.003
298.15	.2882	.5816	.003
298.15	.318	.5612	.003
298.15	.3549	.5308	.003
298.15	.4018	.5012	.003
298.15	.4053	.503	.003
298.15	.4163	.4886	.003
298.15	.5275	.4036	.003
298.15	.6151	.3227	.003
298.15	.6543	.2887	.003
298.15	.7793	.1872	.003
323.15	0	.4742	.003
323.15	.0299	.4842	.003
323.15	.1119	.4911	.003
323.15	.1324	.508	.003
323.15	.1677	.5213	.003
323.15	.1938	.5202	.003
323.15	.2401	.5138	.003
323.15	.244	.5139	.003
323.15	.2483	.5082	.003
323.15	.2809	.4952	.003
323.15	.3016	.4864	.003
323.15	.3021	.4885	.003
323.15	.3261	.4695	.003
323.15	.3609	.4534	.003
323.15	.4035	.4249	.003
323.15	.4503	.4032	.003
323.15	.4885	.3762	.003
323.15	.6479	.2651	.003

System: 3-methylphenol + octane + water; phases: Liquid mixture 1, Liquid mixture 3, Liquid mixture 2
Fixed: Pressure, kPa = 101
Property: Mole fraction of octane (Liquid mixture 1); method: Titration method
Temperature, K	Mole fraction of octane	uncertainty
289.15	.9193	.005
323.15	.7484	.005

System: 3-methylphenol + octane + water; phases: Liquid mixture 2, Liquid mixture 3, Liquid mixture 1
Fixed: Pressure, kPa = 101
Property: Mole fraction of octane (Liquid mixture 2); method: Titration method
Temperature, K	Mole fraction of octane	uncertainty
289.15	.0736	.005
323.15	.1109	.005

System: 3-methylphenol + octane + water; phases: Liquid mixture 1, Liquid mixture 3, Liquid mixture 2
Fixed: Pressure, kPa = 101
Property: Mole fraction of 3-methylphenol (Liquid mixture 1); method: Titration method
Temperature, K	Mole fraction of 3-methylphenol	uncertainty
289.15	.0647	.005
323.15	.1669	.005

System: 3-methylphenol + octane + water; phases: Liquid mixture 2, Liquid mixture 3, Liquid mixture 1
Fixed: Pressure, kPa = 101
Property: Mole fraction of 3-methylphenol (Liquid mixture 2); method: Titration method
Temperature, K	Mole fraction of 3-methylphenol	uncertainty
289.15	.4931	.005
323.15	.4552	.005

System: 4-methylphenol + octane + water; phases: Liquid mixture 1, Liquid mixture 2
Fixed: Pressure, kPa = 101
Property: Mole fraction of 4-methylphenol (Liquid mixture 1); method: Titration method
Temperature, K	Mole fraction of octane	Mole fraction of 4-methylphenol	uncertainty
298.15	0	.4814	.003
298.15	.0512	.4884	.003
298.15	.1049	.529	.003
298.15	.125	.5554	.003
298.15	.146	.5733	.003
298.15	.2117	.5874	.003
298.15	.2534	.5737	.003
298.15	.3096	.544	.003
298.15	.4157	.4682	.003
298.15	.4954	.4086	.003
298.15	.7373	.1953	.003
323.15	0	.438	.003
323.15	.0376	.4542	.003
323.15	.0532	.4595	.003
323.15	.1086	.4531	.003
323.15	.1598	.4917	.003
323.15	.1864	.4944	.003
323.15	.3087	.4548	.003
323.15	.407	.4063	.003
323.15	.4559	.3688	.003
323.15	.511	.3313	.003
323.15	.5575	.2879	.003

System: 4-methylphenol + octane + water; phases: Liquid mixture 1, Liquid mixture 3, Liquid mixture 2
Fixed: Pressure, kPa = 101
Property: Mole fraction of octane (Liquid mixture 1); method: Titration method
Temperature, K	Mole fraction of octane	uncertainty
289.15	.8815	.005
323.15	.7724	.005

System: 4-methylphenol + octane + water; phases: Liquid mixture 2, Liquid mixture 3, Liquid mixture 1
Fixed: Pressure, kPa = 101
Property: Mole fraction of octane (Liquid mixture 2); method: Titration method
Temperature, K	Mole fraction of octane	uncertainty
289.15	.0781	.005
323.15	.1664	.005

System: 4-methylphenol + octane + water; phases: Liquid mixture 1, Liquid mixture 3, Liquid mixture 2
Fixed: Pressure, kPa = 101
Property: Mole fraction of 4-methylphenol (Liquid mixture 1); method: Titration method
Temperature, K	Mole fraction of 4-methylphenol	uncertainty
289.15	.0539	.005
323.15	.1316	.005

System: 4-methylphenol + octane + water; phases: Liquid mixture 2, Liquid mixture 3, Liquid mixture 1
Fixed: Pressure, kPa = 101
Property: Mole fraction of 4-methylphenol (Liquid mixture 2); method: Titration method
Temperature, K	Mole fraction of 4-methylphenol	uncertainty
289.15	.4802	.005
323.15	.4514	.005
