Measured thermophysical data. Densities and Viscosities of Binary Solutions of Benzene-1,3-diol + Water, Ethanol, Propan-1-ol, and Butan-1-ol at T = (293.15 to 333.15) K
Source: J. Chem. Eng. Data, 2011, 10.1021/je101173w
Compound 1: 1,3-benzenediol, C6H6O2, purity 99.6%
Compound 2: ethanol, C2H6O, purity 99.7%
Compound 3: propan-1-ol, C3H8O, purity 99.5%
Compound 4: butan-1-ol, C4H10O, purity 99.5%
Compound 5: water, H2O

System: ethanol; phases: Liquid
Fixed: Pressure, kPa = 101.325
Property: Mass density, kg/m3 (Liquid); method: Vibrating tube method
Temperature, K	Mass density, kg/m3	uncertainty
293.15	790.08	.05
303.15	781	.05
313.15	772.31	.05
323.15	763.35	.05
333.15	754.2	.05

System: ethanol; phases: Liquid
Fixed: Pressure, kPa = 101.325
Property: Viscosity, Pa*s (Liquid); method: Capillary tube (Ostwald; Ubbelohde) method
Temperature, K	Viscosity, Pa*s	uncertainty
293.15	.0012107	.0000005
303.15	.0009977	.0000005
313.15	.0008319	.0000005
323.15	.0006876	.0000005
333.15	.0005806	.0000005

System: 1,3-benzenediol + water; phases: Liquid
Fixed: Pressure, kPa = 101
Property: Mass density, kg/m3 (Liquid); method: Vibrating tube method
Temperature, K	Molality, mol/kg of 1,3-benzenediol	Mass density, kg/m3	uncertainty
293.15	2.3605	1041.62	.05
293.15	4.819	1073.42	.05
293.15	7.5673	1099.32	.05
293.15	10.586	1120.13	.05
293.15	13.8995	1137.42	.05
303.15	2.3605	1037.63	.05
303.15	4.819	1068.64	.05
303.15	7.5673	1093.72	.05
303.15	10.586	1113.97	.05
303.15	13.8995	1130.96	.05
313.15	2.3605	1032.94	.05
313.15	4.819	1062.96	.05
313.15	7.5673	1087.57	.05
313.15	10.586	1107.55	.05
313.15	13.8995	1124.23	.05
323.15	2.3605	1027.74	.05
323.15	4.819	1057.26	.05
323.15	7.5673	1081.27	.05
323.15	10.586	1100.86	.05
323.15	13.8995	1117.62	.05
333.15	2.3605	1021.98	.05
333.15	4.819	1050.76	.05
333.15	7.5673	1074.55	.05
333.15	10.586	1094.26	.05
333.15	13.8995	1110.53	.05

System: 1,3-benzenediol + water; phases: Liquid
Fixed: Pressure, kPa = 101
Property: Viscosity, Pa*s (Liquid); method: Capillary tube (Ostwald; Ubbelohde) method
Temperature, K	Molality, mol/kg of 1,3-benzenediol	Viscosity, Pa*s	uncertainty
293.15	2.3605	.0016148	.0000005
293.15	4.819	.0024806	.0000005
293.15	7.5673	.0036806	.0000005
293.15	10.586	.0053471	.0000005
293.15	13.8995	.0076103	.0000005
303.15	2.3605	.0012503	.0000005
303.15	4.819	.0018738	.0000005
303.15	7.5673	.0027204	.0000005
303.15	10.586	.0038441	.0000005
303.15	13.8995	.0053597	.0000005
313.15	2.3605	.0010123	.0000005
313.15	4.819	.0014737	.0000005
313.15	7.5673	.0020887	.0000005
313.15	10.586	.0028675	.0000005
313.15	13.8995	.0038997	.0000005
323.15	2.3605	.0008329	.0000005
323.15	4.819	.0011806	.0000005
323.15	7.5673	.001629	.0000005
323.15	10.586	.0021929	.0000005
323.15	13.8995	.0029094	.0000005
333.15	2.3605	.0006974	.0000005
333.15	4.819	.0009741	.0000005
333.15	7.5673	.0013114	.0000005
333.15	10.586	.0017268	.0000005
333.15	13.8995	.002247	.0000005

System: ethanol + 1,3-benzenediol; phases: Liquid
Fixed: Pressure, kPa = 101
Property: Mass density, kg/m3 (Liquid); method: Vibrating tube method
Temperature, K	Molality, mol/kg of 1,3-benzenediol	Mass density, kg/m3	uncertainty
293.15	1.6338	847.02	.05
293.15	3.5365	897.16	.05
293.15	5.77	941.64	.05
293.15	8.4413	981.15	.05
293.15	11.693	1017.03	.05
303.15	1.6338	838.53	.05
303.15	3.5365	889.03	.05
303.15	5.77	933.72	.05
303.15	8.4413	973.42	.05
303.15	11.693	1007.47	.05
313.15	1.6338	830.12	.05
313.15	3.5365	880.71	.05
313.15	5.77	925.87	.05
313.15	8.4413	965.64	.05
313.15	11.693	1002.06	.05
323.15	1.6338	821.65	.05
323.15	3.5365	872.63	.05
323.15	5.77	918.18	.05
323.15	8.4413	957.95	.05
323.15	11.693	994.49	.05

System: ethanol + 1,3-benzenediol; phases: Liquid
Fixed: Pressure, kPa = 101
Property: Viscosity, Pa*s (Liquid); method: Capillary tube (Ostwald; Ubbelohde) method
Temperature, K	Molality, mol/kg of 1,3-benzenediol	Viscosity, Pa*s	uncertainty
293.15	1.6338	.0021357	.0000005
293.15	3.5365	.0037419	.0000005
293.15	5.77	.006373	.0000005
293.15	8.4413	.0113262	.0000005
293.15	11.693	.021332	.0000005
303.15	1.6338	.0017067	.0000005
303.15	3.5365	.0030779	.0000005
303.15	5.77	.0048719	.0000005
303.15	8.4413	.0084872	.0000005
303.15	11.693	.0155558	.0000005
313.15	1.6338	.0014212	.0000005
313.15	3.5365	.0022938	.0000005
313.15	5.77	.0036482	.0000005
313.15	8.4413	.0059395	.0000005
313.15	11.693	.0095045	.0000005
323.15	1.6338	.0012649	.0000005
323.15	3.5365	.0019473	.0000005
323.15	5.77	.0028643	.0000005
323.15	8.4413	.0042953	.0000005
323.15	11.693	.0065783	.0000005

System: propan-1-ol + 1,3-benzenediol; phases: Liquid
Fixed: Pressure, kPa = 101
Property: Mass density, kg/m3 (Liquid); method: Vibrating tube method
Temperature, K	Molality, mol/kg of 1,3-benzenediol	Mass density, kg/m3	uncertainty
293.15	1.2524	846.41	.05
293.15	2.7087	886.87	.05
293.15	4.423	924.61	.05
293.15	6.4707	960.5	.05
293.15	8.9594	994.1	.05
303.15	1.2524	838.23	.05
303.15	2.7087	878.7	.05
303.15	4.423	916.62	.05
303.15	6.4707	952.55	.05
303.15	8.9594	986.39	.05
313.15	1.2524	830.12	.05
313.15	2.7087	870.62	.05
313.15	4.423	908.69	.05
313.15	6.4707	944.74	.05
313.15	8.9594	978.72	.05
323.15	1.2524	821.85	.05
323.15	2.7087	862.49	.05
323.15	4.423	900.65	.05
323.15	6.4707	936.83	.05
323.15	8.9594	970.97	.05
333.15	1.2524	813.35	.05
333.15	2.7087	854.18	.05
333.15	4.423	892.48	.05
333.15	6.4707	928.84	.05
333.15	8.9594	963.1	.05

System: propan-1-ol + 1,3-benzenediol; phases: Liquid
Fixed: Pressure, kPa = 101
Property: Viscosity, Pa*s (Liquid); method: Capillary tube (Ostwald; Ubbelohde) method
Temperature, K	Molality, mol/kg of 1,3-benzenediol	Viscosity, Pa*s	uncertainty
293.15	1.2524	.0036047	.0000005
293.15	2.7087	.0060426	.0000005
293.15	4.423	.0103745	.0000005
293.15	6.4707	.018518	.0000005
293.15	8.9594	.0332215	.0000005
303.15	1.2524	.0027397	.0000005
303.15	2.7087	.0043752	.0000005
303.15	4.423	.0072248	.0000005
303.15	6.4707	.0120515	.0000005
303.15	8.9594	.020287	.0000005
313.15	1.2524	.0021326	.0000005
313.15	2.7087	.0032924	.0000005
313.15	4.423	.0051369	.0000005
313.15	6.4707	.0081792	.0000005
313.15	8.9594	.0128159	.0000005
323.15	1.2524	.0016748	.0000005
323.15	2.7087	.002465	.0000005
323.15	4.423	.003736	.0000005
323.15	6.4707	.0056959	.0000005
323.15	8.9594	.0081986	.0000005
333.15	1.2524	.0013741	.0000005
333.15	2.7087	.0019523	.0000005
333.15	4.423	.0028624	.0000005
333.15	6.4707	.0041946	.0000005
333.15	8.9594	.0064118	.0000005

System: butan-1-ol + 1,3-benzenediol; phases: Liquid
Fixed: Pressure, kPa = 101
Property: Mass density, kg/m3 (Liquid); method: Vibrating tube method
Temperature, K	Molality, mol/kg of 1,3-benzenediol	Mass density, kg/m3	uncertainty
293.15	1.0155	844.32	.05
293.15	2.1963	878.29	.05
293.15	3.5864	910.51	.05
293.15	5.2467	942.6	.05
293.15	7.2647	974.13	.05
303.15	1.0155	836.69	.05
303.15	2.1963	870.07	.05
303.15	3.5864	902.98	.05
303.15	5.2467	935.1	.05
303.15	7.2647	966.7	.05
313.15	1.0155	828.92	.05
313.15	2.1963	862.36	.05
313.15	3.5864	895.33	.05
313.15	5.2467	927.53	.05
313.15	7.2647	959.2	.05
323.15	1.0155	821.01	.05
323.15	2.1963	854.51	.05
323.15	3.5864	887.57	.05
323.15	5.2467	919.86	.05
323.15	7.2647	951.6	.05
333.15	1.0155	812.92	.05
333.15	2.1963	846.52	.05
333.15	3.5864	879.68	.05
333.15	5.2467	912.09	.05
333.15	7.2647	943.92	.05

System: butan-1-ol + 1,3-benzenediol; phases: Liquid
Fixed: Pressure, kPa = 101
Property: Viscosity, Pa*s (Liquid); method: Capillary tube (Ostwald; Ubbelohde) method
Temperature, K	Molality, mol/kg of 1,3-benzenediol	Viscosity, Pa*s	uncertainty
293.15	1.0155	.0045185	.0000005
293.15	2.1963	.0070066	.0000005
293.15	3.5864	.0115566	.0000005
293.15	5.2467	.0197454	.0000005
293.15	7.2647	.0343416	.0000005
303.15	1.0155	.0033566	.0000005
303.15	2.1963	.0050596	.0000005
303.15	3.5864	.0080205	.0000005
303.15	5.2467	.0126366	.0000005
303.15	7.2647	.0206915	.0000005
313.15	1.0155	.0025403	.0000005
313.15	2.1963	.0037104	.0000005
313.15	3.5864	.0055521	.0000005
313.15	5.2467	.0086014	.0000005
313.15	7.2647	.0131769	.0000005
323.15	1.0155	.0019718	.0000005
323.15	2.1963	.0028092	.0000005
323.15	3.5864	.0040909	.0000005
323.15	5.2467	.0060961	.0000005
323.15	7.2647	.008804	.0000005
333.15	1.0155	.001674	.0000005
333.15	2.1963	.0023298	.0000005
333.15	3.5864	.0032738	.0000005
333.15	5.2467	.0048402	.0000005
333.15	7.2647	.0066353	.0000005
