Measured thermophysical data. CO2 Absorption Rate into Concentrated Aqueous Monoethanolamine and Piperazine
Source: J. Chem. Eng. Data, 2011, 10.1021/je101234t
Compound 1: carbon dioxide, CO2, purity 99%
Compound 2: water, H2O, purity 99.8%
Compound 3: 2-aminoethanol, C2H7NO
Compound 4: hexahydro-1,4-diazine, C4H10N2

System: carbon dioxide + 2-aminoethanol + water; phases: Liquid, Gas
Property: Vapor or sublimation pressure, kPa (Liquid); method: Closed cell (Static) method
Temperature, K	Molality, mol/kg of carbon dioxide	Molality, mol/kg of 2-aminoethanol	Vapor or sublimation pressure, kPa	uncertainty
313.15	1.764	7	.0157	.000785
313.15	2.457	7	.077	.00385
313.15	3.024	7	.465	.02325
313.15	3.472	7	4.216	.2108
333.15	1.764	7	.109	.00545
333.15	2.457	7	.66	.033
333.15	3.024	7	3.434	.1717
333.15	3.472	7	16.157	.80785
353.15	1.897	7	1.053	.05265
353.15	2.562	7	4.443	.22215
373.15	1.897	7	5.297	.26485
373.15	2.562	7	19.008	.9504
313.15	2.079	9	.0104	.00052
313.15	2.916	9	.034	.0017
313.15	3.438	9	.107	.00535
313.15	3.969	9	.417	.02085
313.15	4.464	9	5.354	.2677
333.15	2.079	9	.061	.00305
333.15	2.916	9	.263	.01315
333.15	3.438	9	.892	.0446
333.15	3.969	9	2.862	.1431
333.15	4.464	9	21.249	1.06245
353.15	2.385	9	.979	.04895
353.15	3.204	9	4.797	.23985
373.15	2.385	9	4.94	.247
373.15	3.204	9	21.534	1.0767
313.15	2.871	11	.014	.0007
313.15	3.883	11	.067	.00335
313.15	4.708	11	.434	.0217
313.15	5.071	11	1.509	.07545
333.15	2.871	11	.096	.0048
333.15	3.883	11	.634	.0317
333.15	4.708	11	3.463	.17315
333.15	5.071	11	8.171	.40855
353.15	2.816	11	.86	.043
353.15	3.949	11	3.923	.19615
373.15	2.816	11	4.274	.2137
373.15	3.949	11	18.657	.93285
313.15	3.276	13	.0123	.000615
313.15	4.836	13	.084	.0042
313.15	5.655	13	.491	.02455
313.15	6.526	13	8.792	.4396
333.15	3.276	13	.1	.005
333.15	4.836	13	.694	.0347
333.15	5.655	13	3.859	.19295
333.15	6.526	13	29.427	1.47135
353.15	3.302	13	.873	.04365
353.15	4.615	13	3.964	.1982
373.15	3.302	13	3.876	.1938
373.15	4.615	13	18.406	.9203

System: hexahydro-1,4-diazine + carbon dioxide + water; phases: Liquid, Gas
Property: Vapor or sublimation pressure, kPa (Liquid); method: Closed cell (Static) method
Temperature, K	Molality, mol/kg of carbon dioxide	Molality, mol/kg of hexahydro-1,4-diazine	Vapor or sublimation pressure, kPa	uncertainty
313.15	.96	2	.096	.0048
313.15	1.264	2	.499	.02495
313.15	1.408	2	1.305	.06525
313.15	1.644	2	7.127	.35635
333.15	.96	2	.559	.02795
333.15	1.264	2	2.541	.12705
333.15	1.408	2	5.593	.27965
333.15	1.644	2	25.378	1.2689
353.15	.956	2	2.492	.1246
353.15	1.296	2	12.26	.613
373.15	.956	2	9.569	.47845
373.15	1.296	2	39.286	1.9643
313.15	2.26	5	.065	.00325
313.15	2.99	5	.346	.0173
313.15	3.54	5	1.12	.056
313.15	4.02	5	4.563	.22815
333.15	2.26	5	.385	.01925
333.15	2.99	5	1.814	.0907
333.15	3.54	5	5.021	.25105
333.15	4.02	5	17.233	.86165
353.15	2.38	5	2.192	.1096
353.15	3.21	5	9.699	.48495
373.15	2.38	5	8.888	.4444
373.15	3.21	5	36.96	1.848
313.15	3.696	8	.068	.0034
313.15	4.88	8	.53	.0265
313.15	5.76	8	1.409	.07045
313.15	6.464	8	8.153	.40765
333.15	3.696	8	.43	.0215
333.15	4.88	8	2.407	.12035
333.15	5.76	8	7.454	.3727
333.15	6.464	8	30.783	1.53915
353.15	4.048	8	3.255	.16275
353.15	4.624	8	9.406	.4703
373.15	4.048	8	13.605	.68025
373.15	4.624	8	32.033	1.60165
333.15	5.544	12	.331	.01655
333.15	6.936	12	1.865	.09325
333.15	8.496	12	6.791	.33955
353.15	5.328	12	2.115	.10575
353.15	6.96	12	9.141	.45705
373.15	5.328	12	7.871	.39355
373.15	6.96	12	33.652	1.6826
