Measured thermophysical data. Experimental and Predicted (Vapor + Liquid) Equilibrium Data of Ternary Mixtures of Methanol, Water, and Propan-1,2,3-triol at 96 kPa
Source: J. Chem. Eng. Data, 2011, 10.1021/je1013203
Compound 1: methanol, CH4O
Compound 2: water, H2O
Compound 3: 1,2,3-propanetriol, C3H8O3, purity 99.5%

System: 1,2,3-propanetriol + methanol + water; phases: Liquid, Gas
Fixed: Pressure, kPa = 96
Property: Mass density, kg/m3 (Liquid); method: Pycnometric method
Mole fraction of methanol	Mole fraction of water	Mass density, kg/m3	uncertainty
.705	.245	841.6	.1
.6	.35	908.2	.1
.57	.08	1068.3	.1
.385	.605	930.2	.1
.284	.67	942.8	.1
.2	.38	1158.1	.1
.08	.82	1074.2	.1
.04	.9	1051	.1

System: 1,2,3-propanetriol + methanol + water; phases: Liquid, Gas
Fixed: Pressure, kPa = 96
Property: Boiling temperature at pressure P, K (Liquid); method: Ebulliometric method (Recirculating still)
Mole fraction of methanol	Mole fraction of water	Boiling temperature at pressure P, K	uncertainty
.705	.245	341.6471	.05
.6	.35	342.9014	.05
.57	.08	345.8222	.05
.385	.605	347.7259	.05
.284	.67	350.6224	.05
.2	.38	363.4857	.05
.08	.82	364.0968	.05
.04	.9	367.5052	.05
