Measured thermophysical data. Vapor-Liquid Equilibrium Measurements and Modeling for Cyclohexane + Cyclohexanone
Source: J. Chem. Eng. Data, 2010, 10.1021/je100474b
Compound 1: cyclohexane, C6H12
Compound 2: cyclohexanone, C6H10O

System: cyclohexanone + cyclohexane; phases: Gas, Liquid
Property: Vapor or sublimation pressure, kPa (Gas); method: Closed cell (Static) method
Mole fraction of cyclohexane	Temperature, K	Vapor or sublimation pressure, kPa	uncertainty
.338	423.44	319.4	.2
.388	423.44	341.6	.2
.449	423.44	366.5	.2
.504	423.44	393.8	.2
.568	423.44	419.2	.2
.635	423.44	441.3	.2
.717	423.44	466.1	.2
.793	423.44	491.7	.2
.852	423.44	510.1	.2
.921	423.44	533.6	.2
.151	443.55	309.3	.2
.209	443.55	358.1	.2
.269	443.55	413.1	.2
.337	443.55	464.4	.2
.419	443.55	518.4	.2
.504	443.55	569.2	.2
.601	443.55	620.8	.2
.723	443.55	677.8	.2
.808	443.55	723.3	.2
.917	443.55	779.4	.2
.056	463.64	322.9	.2
.11	463.64	399.5	.2
.173	463.64	481.1	.2
.244	463.64	565	.2
.321	463.64	647.9	.2
.411	463.64	731.6	.2
.512	463.64	817.1	.2
.626	463.64	899.9	.2
.744	463.64	986.6	.2
.857	463.64	1069.7	.2
.055	483.67	461.5	.2
.121	483.67	580.4	.2
.187	483.67	689.3	.2
.259	483.67	797.7	.2
.341	483.67	912	.2
.427	483.67	1019.4	.2
.531	483.67	1132.4	.2
.633	483.67	1242.3	.2
.74	483.67	1354.7	.2
.85	483.67	1461.7	.2

System: cyclohexanone + cyclohexane; phases: Gas, Liquid
Property: Mole fraction of cyclohexane (Gas); method: Chromatography
Mole fraction of cyclohexane	Temperature, K	Mole fraction of cyclohexane	uncertainty
.338	423.44	.787	.015
.388	423.44	.812	.015
.449	423.44	.835	.015
.504	423.44	.86	.015
.568	423.44	.879	.015
.635	423.44	.896	.015
.717	423.44	.915	.015
.793	423.44	.933	.015
.852	423.44	.949	.015
.921	423.44	.97	.015
.151	443.55	.566	.015
.209	443.55	.642	.015
.269	443.55	.707	.015
.337	443.55	.755	.015
.419	443.55	.799	.015
.504	443.55	.833	.015
.601	443.55	.866	.015
.723	443.55	.903	.015
.808	443.55	.933	.015
.917	443.55	.967	.015
.056	463.64	.293	.015
.11	463.64	.449	.015
.173	463.64	.561	.015
.244	463.64	.648	.015
.321	463.64	.717	.015
.411	463.64	.772	.015
.512	463.64	.816	.015
.626	463.64	.854	.015
.744	463.64	.896	.015
.857	463.64	.938	.015
.055	483.67	.256	.015
.121	483.67	.431	.015
.187	483.67	.54	.015
.259	483.67	.622	.015
.341	483.67	.69	.015
.427	483.67	.742	.015
.531	483.67	.793	.015
.633	483.67	.839	.015
.74	483.67	.883	.015
.85	483.67	.929	.015
