Measured thermophysical data. Solubility of Imperatorin in Ethyl Acetate, Ethanol, Methanol, n-Hexane, and Petroleum Ether from (278.2 to 318.2) K
Source: J. Chem. Eng. Data, 2011, 10.1021/je101303e
Compound 1: imperatorin, C16H14O4
Compound 2: ethyl ethanoate, C4H8O2, purity 98%
Compound 3: ethanol, C2H6O, purity 98%
Compound 4: methanol, CH4O, purity 98%
Compound 5: n-hexane, C6H14, purity 98%

System: ethyl ethanoate + imperatorin; phases: Liquid, Crystal
Fixed: Pressure, kPa = 101
Property: Amount concentration (molarity), mol/dm3 of imperatorin (Liquid); method: HPLC analysis
Temperature, K	Amount concentration (molarity), mol/dm3 of imperatorin	uncertainty
278.2	.06138	.0006138
283.2	.06231	.0006231
288.2	.06986	.0006986
293.2	.06953	.0006953
298.2	.07654	.0007654
308.2	.09629	.0009629
318.2	.1178	.001178

System: ethanol + imperatorin; phases: Liquid, Crystal
Fixed: Pressure, kPa = 101
Property: Amount concentration (molarity), mol/dm3 of imperatorin (Liquid); method: HPLC analysis
Temperature, K	Amount concentration (molarity), mol/dm3 of imperatorin	uncertainty
278.2	.004442	.00004442
283.2	.00493	.0000493
288.2	.005691	.00005691
293.2	.007454	.00007454
298.2	.008815	.00008815
308.2	.01628	.0001628
318.2	.02667	.0002667

System: methanol + imperatorin; phases: Liquid, Crystal
Fixed: Pressure, kPa = 101
Property: Amount concentration (molarity), mol/dm3 of imperatorin (Liquid); method: HPLC analysis
Temperature, K	Amount concentration (molarity), mol/dm3 of imperatorin	uncertainty
278.2	.0117	.000117
283.2	.0126	.000126
288.2	.01339	.0001339
293.2	.01518	.0001518
298.2	.01815	.0001815
308.2	.02443	.0002443
318.2	.03358	.0003358

System: n-hexane + imperatorin; phases: Liquid, Crystal
Fixed: Pressure, kPa = 101
Property: Amount concentration (molarity), mol/dm3 of imperatorin (Liquid); method: HPLC analysis
Temperature, K	Amount concentration (molarity), mol/dm3 of imperatorin	uncertainty
278.2	.001462	.00001462
283.2	.001748	.00001748
288.2	.001903	.00001903
293.2	.002104	.00002104
298.2	.002426	.00002426
308.2	.003222	.00003222
318.2	.00466	.0000466
