Measured thermophysical data. Solid-Liquid Phase Equilibrium for the Ternary System 3-Chlorophthalic Acid + 4-Chlorophthalic Acid + Water at (283.15 and 313.15) K
Source: J. Chem. Eng. Data, 2010, 10.1021/je100025j
Compound 1: 3-chlorophthalic acid, C8H5ClO4, purity 99.5%
Compound 2: phthalic acid, 4-chloro-, C8H5ClO4, purity 99.9%
Compound 3: water, H2O, purity 99%

System: phthalic acid, 4-chloro- + water + 3-chlorophthalic acid; phases: Liquid, Crystal
Fixed: Pressure, kPa = 101
Property: Mass fraction of phthalic acid, 4-chloro- (Liquid); method: Chromatography
Temperature, K	Mass fraction of 3-chlorophthalic acid	Mass fraction of phthalic acid, 4-chloro-	uncertainty
283.15	0	.022	
283.15	.0182	.0198	
283.15	.049	.0307	
283.15	.1091	.0502	
283.15	.1357	.0626	
283.15	.1752	.0623	
283.15	.2099	.0775	
283.15	.2362	.0759	
283.15	.2849	.083	
283.15	.3138	.0929	
313.15	0	.0404	
313.15	.0553	.0648	
313.15	.1234	.0918	
313.15	.1767	.1118	
313.15	.2596	.1313	

System: phthalic acid, 4-chloro- + water + 3-chlorophthalic acid; phases: Liquid, Crystal
Fixed: Pressure, kPa = 101
Property: Mass fraction of phthalic acid, 4-chloro- (Liquid); method: Chromatography
Temperature, K	Mass fraction of 3-chlorophthalic acid	Mass fraction of phthalic acid, 4-chloro-	uncertainty
283.15	.4314	.0519	
283.15	.4645	.0279	
283.15	.4929	0	
313.15	.6206	.0908	
313.15	.6621	.047	
313.15	.7005	.0178	
313.15	.7353	0	

System: phthalic acid, 4-chloro- + water + 3-chlorophthalic acid; phases: Liquid, Crystal of intercomponent compound 1
Fixed: Pressure, kPa = 101
Property: Mass fraction of phthalic acid, 4-chloro- (Liquid); method: Chromatography
Temperature, K	Mass fraction of 3-chlorophthalic acid	Mass fraction of phthalic acid, 4-chloro-	uncertainty
283.15	.3663	.0958	
283.15	.3881	.0956	
313.15	.3662	.1456	
313.15	.4337	.1498	
313.15	.4946	.141	
313.15	.5385	.1393	

System: phthalic acid, 4-chloro- + water + 3-chlorophthalic acid; phases: Liquid, Crystal, Crystal of intercomponent compound 1
Fixed: Pressure, kPa = 101
Property: Mass fraction of 3-chlorophthalic acid (Liquid); method: Chromatography
Temperature, K	Mass fraction of 3-chlorophthalic acid	uncertainty
283.15	.3479	
313.15	.3114	
313.15	.3118	

System: phthalic acid, 4-chloro- + water + 3-chlorophthalic acid; phases: Liquid, Crystal, Crystal of intercomponent compound 1
Fixed: Pressure, kPa = 101
Property: Mass fraction of 3-chlorophthalic acid (Liquid); method: Chromatography
Temperature, K	Mass fraction of 3-chlorophthalic acid	uncertainty
283.15	.4138	
313.15	.5792	

System: phthalic acid, 4-chloro- + water + 3-chlorophthalic acid; phases: Liquid, Crystal, Crystal of intercomponent compound 1
Fixed: Pressure, kPa = 101
Property: Mass fraction of phthalic acid, 4-chloro- (Liquid); method: Chromatography
Temperature, K	Mass fraction of phthalic acid, 4-chloro-	uncertainty
283.15	.0923	
313.15	.1373	
313.15	.137	

System: phthalic acid, 4-chloro- + water + 3-chlorophthalic acid; phases: Liquid, Crystal, Crystal of intercomponent compound 1
Fixed: Pressure, kPa = 101
Property: Mass fraction of phthalic acid, 4-chloro- (Liquid); method: Chromatography
Temperature, K	Mass fraction of phthalic acid, 4-chloro-	uncertainty
283.15	.0914	
313.15	.1283	
