Measured thermophysical data. Solubility of Scutellarin in Methanol, Water, Ethanol, and Ethanol + Water Binary Mixtures from (293.2 to 333.2) K
Source: J. Chem. Eng. Data, 2010, 10.1021/je100239d
Compound 1: scutellarin, C21H18O12
Compound 2: methanol, CH4O, purity 99.5%
Compound 3: water, H2O, purity 99.9%
Compound 4: ethanol, C2H6O, purity 99.5%

System: methanol + scutellarin; phases: Liquid, Crystal
Fixed: Pressure, kPa = 101
Property: Amount concentration (molarity), mol/dm3 of scutellarin (Liquid); method: Spectrophotometry
Temperature, K	Amount concentration (molarity), mol/dm3 of scutellarin	uncertainty
293.2	.007387	.000036935
303.2	.008491	.000042455
313.2	.01144	.0000572
323.2	.01344	.0000672
333.2	.01607	.00008035

System: water + scutellarin; phases: Liquid, Crystal
Fixed: Pressure, kPa = 101
Property: Amount concentration (molarity), mol/dm3 of scutellarin (Liquid); method: Spectrophotometry
Temperature, K	Amount concentration (molarity), mol/dm3 of scutellarin	uncertainty
293.2	.000145	.000000725
303.2	.000146	.00000073
313.2	.000148	.00000074
323.2	.000157	.000000785
333.2	.000167	.000000835

System: ethanol + scutellarin; phases: Liquid, Crystal
Fixed: Pressure, kPa = 101
Property: Amount concentration (molarity), mol/dm3 of scutellarin (Liquid); method: Spectrophotometry
Temperature, K	Amount concentration (molarity), mol/dm3 of scutellarin	uncertainty
293.2	.00225	.00001125
303.2	.002322	.00001161
313.2	.002558	.00001279
323.2	.003052	.00001526
333.2	.003254	.00001627

System: ethanol + water + scutellarin; phases: Liquid, Crystal
Fixed: Pressure, kPa = 101
Property: Amount concentration (molarity), mol/dm3 of scutellarin (Liquid); method: Spectrophotometry
Solvent: Mole fraction of ethanol	Temperature, K	Amount concentration (molarity), mol/dm3 of scutellarin	uncertainty
.8544	293.2	.000501	.000002505
.8544	303.2	.000584	.00000292
.8544	313.2	.000779	.000003895
.8544	323.2	.000976	.00000488
.8544	333.2	.001258	.00000629
.4188	293.2	.000284	.00000142
.4188	303.2	.000373	.000001865
.4188	313.2	.000442	.00000221
.4188	323.2	.000667	.000003335
.4188	333.2	.000912	.00000456
.236	293.2	.000207	.000001035
.236	303.2	.000265	.000001325
.236	313.2	.000352	.00000176
.236	323.2	.000517	.000002585
.236	333.2	.000604	.00000302
.1169	293.2	.000155	.000000775
.1169	303.2	.000158	.00000079
.1169	313.2	.000174	.00000087
.1169	323.2	.000194	.00000097
.1169	333.2	.000212	.00000106
