Measured thermophysical data. Densities, Viscosities, and Speeds of Sound of Binary Liquid Mixtures of Ethylenediamine with Alcohols at T = (293.15 to 313.15) K
Source: J. Chem. Eng. Data, 2011, 10.1021/je1012857
Compound 1: ethylenediamine, C2H8N2, purity 99%
Compound 2: isobutanol, C4H10O, purity 99%
Compound 3: butan-1-ol, C4H10O, purity 99.5%
Compound 4: 2-propanol, C3H8O, purity 99.5%

System: ethylenediamine; phases: Liquid
Fixed: Pressure, kPa = 101.325
Property: Mass density, kg/m3 (Liquid); method: Vibrating tube method
Temperature, K	Mass density, kg/m3	uncertainty
298.15	892.389	.002

System: ethylenediamine; phases: Liquid
Fixed: Pressure, kPa = 101.325
Property: Viscosity, Pa*s (Liquid); method: Capillary tube (Ostwald; Ubbelohde) method
Temperature, K	Viscosity, Pa*s	uncertainty
298.15	.001405	.000003

System: ethylenediamine; phases: Liquid
Fixed: Pressure, kPa = 101.325
Property: Speed of sound, m/s (Liquid); method: Sing-around technique in a fixed-path interferometer
Temperature, K	Speed of sound, m/s	uncertainty
298.15	1671.6	.1

System: isobutanol; phases: Liquid
Fixed: Pressure, kPa = 101.325
Property: Mass density, kg/m3 (Liquid); method: Vibrating tube method
Temperature, K	Mass density, kg/m3	uncertainty
298.15	798.104	.002

System: isobutanol; phases: Liquid
Fixed: Pressure, kPa = 101.325
Property: Viscosity, Pa*s (Liquid); method: Capillary tube (Ostwald; Ubbelohde) method
Temperature, K	Viscosity, Pa*s	uncertainty
298.15	.003307	.000003

System: isobutanol; phases: Liquid
Fixed: Pressure, kPa = 101.325
Property: Speed of sound, m/s (Liquid); method: Sing-around technique in a fixed-path interferometer
Temperature, K	Speed of sound, m/s	uncertainty
298.15	1188.8	.1

System: butan-1-ol; phases: Liquid
Fixed: Pressure, kPa = 101.325
Property: Mass density, kg/m3 (Liquid); method: Vibrating tube method
Temperature, K	Mass density, kg/m3	uncertainty
298.15	805.953	.002

System: butan-1-ol; phases: Liquid
Fixed: Pressure, kPa = 101.325
Property: Viscosity, Pa*s (Liquid); method: Capillary tube (Ostwald; Ubbelohde) method
Temperature, K	Viscosity, Pa*s	uncertainty
298.15	.002565	.000003

System: butan-1-ol; phases: Liquid
Fixed: Pressure, kPa = 101.325
Property: Speed of sound, m/s (Liquid); method: Sing-around technique in a fixed-path interferometer
Temperature, K	Speed of sound, m/s	uncertainty
298.15	1241.1	.1

System: 2-propanol; phases: Liquid
Fixed: Pressure, kPa = 101.325
Property: Mass density, kg/m3 (Liquid); method: Vibrating tube method
Temperature, K	Mass density, kg/m3	uncertainty
298.15	781.051	.002

System: 2-propanol; phases: Liquid
Fixed: Pressure, kPa = 101.325
Property: Viscosity, Pa*s (Liquid); method: Capillary tube (Ostwald; Ubbelohde) method
Temperature, K	Viscosity, Pa*s	uncertainty
298.15	.002063	.000003

System: 2-propanol; phases: Liquid
Fixed: Pressure, kPa = 101.325
Property: Speed of sound, m/s (Liquid); method: Sing-around technique in a fixed-path interferometer
Temperature, K	Speed of sound, m/s	uncertainty
298.15	1140.4	.1

System: isobutanol + ethylenediamine; phases: Liquid
Fixed: Pressure, kPa = 101
Property: Mass density, kg/m3 (Liquid); method: Vibrating tube method
Mole fraction of ethylenediamine	Temperature, K	Mass density, kg/m3	uncertainty
.0664	293.15	809.959	.002
.0967	293.15	813.41	.002
.1652	293.15	821.052	.002
.2002	293.15	824.886	.002
.2617	293.15	831.17	.002
.3019	293.15	835.134	.002
.4093	293.15	844.755	.002
.5014	293.15	852.563	.002
.6011	293.15	861.131	.002
.6911	293.15	868.086	.002
.7887	293.15	876.941	.002
.8471	293.15	882.565	.002
.8998	293.15	887.801	.002
.9391	293.15	892.054	.002
.0664	298.15	806.006	.002
.0967	298.15	809.413	.002
.1652	298.15	816.964	.002
.2002	298.15	820.75	.002
.2617	298.15	826.969	.002
.3019	298.15	830.903	.002
.4093	298.15	840.455	.002
.5014	298.15	848.217	.002
.6011	298.15	856.736	.002
.6911	298.15	863.637	.002
.7887	298.15	872.42	.002
.8471	298.15	878.003	.002
.8998	298.15	883.197	.002
.9391	298.15	887.411	.002
.0664	303.15	802.02	.002
.0967	303.15	805.385	.002
.1652	303.15	812.854	.002
.2002	303.15	816.592	.002
.2617	303.15	822.547	.002
.3019	303.15	826.644	.002
.4093	303.15	836.134	.002
.5014	303.15	843.853	.002
.6011	303.15	852.325	.002
.6911	303.15	859.166	.002
.7887	303.15	867.883	.002
.8471	303.15	873.42	.002
.8998	303.15	878.575	.002
.9391	303.15	882.76	.002
.0664	308.15	797.994	.002
.0967	308.15	801.327	.002
.1652	308.15	808.708	.002
.2002	308.15	812.41	.002
.2617	308.15	818.501	.002
.3019	308.15	822.366	.002
.4093	308.15	831.795	.002
.5014	308.15	839.474	.002
.6011	308.15	847.896	.002
.6911	308.15	854.681	.002
.7887	308.15	863.336	.002
.8471	308.15	868.829	.002
.8998	308.15	873.941	.002
.9391	308.15	878.094	.002
.0664	313.15	793.931	.002
.0967	313.15	797.223	.002
.1652	313.15	804.528	.002
.2002	313.15	808.187	.002
.2617	313.15	814.225	.002
.3019	313.15	818.055	.002
.4093	313.15	827.425	.002
.5014	313.15	835.064	.002
.6011	313.15	843.444	.002
.6911	313.15	850.175	.002
.7887	313.15	858.761	.002
.8471	313.15	864.211	.002
.8998	313.15	869.284	.002
.9391	313.15	873.407	.002

System: isobutanol + ethylenediamine; phases: Liquid
Fixed: Pressure, kPa = 101
Property: Speed of sound, m/s (Liquid); method: Sing-around technique in a fixed-path interferometer
Mole fraction of ethylenediamine	Temperature, K	Speed of sound, m/s	uncertainty
.0664	293.15	1236.6	.1
.0967	293.15	1250.3	.1
.1652	293.15	1280.8	.1
.2002	293.15	1296.8	.1
.2617	293.15	1324.1	.1
.3019	293.15	1342.3	.1
.4093	293.15	1389.6	.1
.5014	293.15	1431	.1
.6011	293.15	1478	.1
.6911	293.15	1520.5	.1
.7887	293.15	1571.6	.1
.8471	293.15	1603.7	.1
.8998	293.15	1634.3	.1
.9391	293.15	1658.5	.1
.0664	298.15	1219.4	.1
.0967	298.15	1233.1	.1
.1652	298.15	1263.3	.1
.2002	298.15	1279.2	.1
.2617	298.15	1306.3	.1
.3019	298.15	1324.5	.1
.4093	298.15	1371.4	.1
.5014	298.15	1412.2	.1
.6011	298.15	1458.7	.1
.6911	298.15	1500.6	.1
.7887	298.15	1550.9	.1
.8471	298.15	1582.6	.1
.8998	298.15	1612.7	.1
.9391	298.15	1636.5	.1
.0664	303.15	1202.4	.1
.0967	303.15	1216	.1
.1652	303.15	1246.1	.1
.2002	303.15	1261.8	.1
.2617	303.15	1288.6	.1
.3019	303.15	1306.7	.1
.4093	303.15	1353.1	.1
.5014	303.15	1393.5	.1
.6011	303.15	1439.5	.1
.6911	303.15	1480.6	.1
.7887	303.15	1530.2	.1
.8471	303.15	1561.5	.1
.8998	303.15	1591.2	.1
.9391	303.15	1614.6	.1
.0664	308.15	1185.4	.1
.0967	308.15	1198.8	.1
.1652	308.15	1228.7	.1
.2002	308.15	1244.4	.1
.2617	308.15	1271.1	.1
.3019	308.15	1288.9	.1
.4093	308.15	1334.9	.1
.5014	308.15	1374.9	.1
.6011	308.15	1420.2	.1
.6911	308.15	1460.9	.1
.7887	308.15	1509.8	.1
.8471	308.15	1540.7	.1
.8998	308.15	1570.1	.1
.9391	308.15	1593.1	.1
.0664	313.15	1168.4	.1
.0967	313.15	1181.6	.1
.1652	313.15	1211.5	.1
.2002	313.15	1227.1	.1
.2617	313.15	1253.6	.1
.3019	313.15	1271.2	.1
.4093	313.15	1316.9	.1
.5014	313.15	1356.4	.1
.6011	313.15	1400.9	.1
.6911	313.15	1441.2	.1
.7887	313.15	1489.6	.1
.8471	313.15	1520.1	.1
.8998	313.15	1548.88	.1
.9391	313.15	1571.7	.1

System: isobutanol + ethylenediamine; phases: Liquid
Fixed: Pressure, kPa = 101
Property: Viscosity, Pa*s (Liquid); method: Capillary tube (Ostwald; Ubbelohde) method
Temperature, K	Mole fraction of ethylenediamine	Viscosity, Pa*s	uncertainty
298.15	.0664	.003231	.000003
298.15	.0967	.003209	.000003
298.15	.1652	.003134	.000003
298.15	.2002	.003094	.000003
298.15	.2617	.003006	.000003
298.15	.3019	.00294	.000003
298.15	.4093	.002724	.000003
298.15	.5014	.002495	.000003
298.15	.6011	.002216	.000003
298.15	.6911	.001958	.000003
298.15	.7887	.001716	.000003
298.15	.8471	.001591	.000003
298.15	.8998	.001501	.000003
298.15	.9391	.001456	.000003
303.15	.0664	.002711	.000003
303.15	.0967	.002699	.000003
303.15	.1652	.002648	.000003
303.15	.2002	.002625	.000003
303.15	.2617	.002553	.000003
303.15	.3019	.002502	.000003
303.15	.4093	.002325	.000003
303.15	.5014	.002135	.000003
303.15	.6011	.001895	.000003
303.15	.6911	.001698	.000003
303.15	.7887	.001502	.000003
303.15	.8471	.001404	.000003
303.15	.8998	.001335	.000003
303.15	.9391	.001294	.000003
308.15	.0664	.00218	.000003
308.15	.0967	.002169	.000003
308.15	.1652	.002147	.000003
308.15	.2002	.002135	.000003
308.15	.2617	.002097	.000003
308.15	.3019	.002059	.000003
308.15	.4093	.001924	.000003
308.15	.5014	.001776	.000003
308.15	.6011	.001583	.000003
308.15	.6911	.001446	.000003
308.15	.7887	.001314	.000003
308.15	.8471	.001248	.000003
308.15	.8998	.001191	.000003
308.15	.9391	.001154	.000003

System: 2-propanol + ethylenediamine; phases: Liquid
Fixed: Pressure, kPa = 101
Property: Mass density, kg/m3 (Liquid); method: Vibrating tube method
Mole fraction of ethylenediamine	Temperature, K	Mass density, kg/m3	uncertainty
.0557	293.15	793.696	.002
.1036	293.15	800.705	.002
.156	293.15	807.902	.002
.2011	293.15	813.922	.002
.2548	293.15	820.862	.002
.3018	293.15	826.514	.002
.3892	293.15	836.546	.002
.5109	293.15	849.474	.002
.605	293.15	858.745	.002
.6988	293.15	868.4	.002
.7969	293.15	878.278	.002
.8369	293.15	881.835	.002
.8931	293.15	887.269	.002
.9409	293.15	892.34	.002
.0557	298.15	789.425	.002
.1036	298.15	796.388	.002
.156	298.15	803.523	.002
.2011	298.15	809.506	.002
.2548	298.15	816.397	.002
.3018	298.15	822.019	.002
.3892	298.15	832.023	.002
.5109	298.15	844.925	.002
.605	298.15	854.173	.002
.6988	298.15	863.796	.002
.7969	298.15	873.662	.002
.8369	298.15	877.194	.002
.8931	298.15	882.613	.002
.9409	298.15	887.669	.002
.0557	303.15	785.1	.002
.1036	303.15	792.016	.002
.156	303.15	799.108	.002
.2011	303.15	805.044	.002
.2548	303.15	811.904	.002
.3018	303.15	817.496	.002
.3892	303.15	827.475	.002
.5109	303.15	840.354	.002
.605	303.15	849.588	.002
.6988	303.15	859.186	.002
.7969	303.15	869.028	.002
.8369	303.15	872.546	.002
.8931	303.15	877.945	.002
.9409	303.15	882.985	.002
.0557	308.15	780.72	.002
.1036	308.15	787.599	.002
.156	308.15	794.649	.002
.2011	308.15	800.552	.002
.2548	308.15	807.374	.002
.3018	308.15	812.943	.002
.3892	308.15	822.898	.002
.5109	308.15	835.76	.002
.605	308.15	844.983	.002
.6988	308.15	854.563	.002
.7969	308.15	864.38	.002
.8369	308.15	867.885	.002
.8931	308.15	873.264	.002
.9409	308.15	878.288	.002
.0557	313.15	776.266	.002
.1036	313.15	783.114	.002
.156	313.15	790.129	.002
.2011	313.15	796.005	.002
.2548	313.15	802.798	.002
.3018	313.15	808.346	.002
.3892	313.15	818.281	.002
.5109	313.15	831.131	.002
.605	313.15	840.349	.002
.6988	313.15	849.909	.002
.7969	313.15	859.706	.002
.8369	313.15	863.196	.002
.8931	313.15	868.56	.002
.9409	313.15	873.569	.002

System: 2-propanol + ethylenediamine; phases: Liquid
Fixed: Pressure, kPa = 101
Property: Speed of sound, m/s (Liquid); method: Sing-around technique in a fixed-path interferometer
Mole fraction of ethylenediamine	Temperature, K	Speed of sound, m/s	uncertainty
.0557	293.15	1187.2	.1
.1036	293.15	1213.8	.1
.156	293.15	1241.5	.1
.2011	293.15	1265.8	.1
.2548	293.15	1295.1	.1
.3018	293.15	1320.2	.1
.3892	293.15	1366.4	.1
.5109	293.15	1430.5	.1
.605	293.15	1478.9	.1
.6988	293.15	1530.6	.1
.7969	293.15	1584.3	.1
.8369	293.15	1605.3	.1
.8931	293.15	1635.6	.1
.9409	293.15	1662.9	.1
.0557	298.15	1169.4	.1
.1036	298.15	1195.9	.1
.156	298.15	1223.4	.1
.2011	298.15	1247.6	.1
.2548	298.15	1276.6	.1
.3018	298.15	1301.6	.1
.3892	298.15	1347.5	.1
.5109	298.15	1410.9	.1
.605	298.15	1458.9	.1
.6988	298.15	1510	.1
.7969	298.15	1563.2	.1
.8369	298.15	1583.7	.1
.8931	298.15	1613.9	.1
.9409	298.15	1640.7	.1
.0557	303.15	1151.7	.1
.1036	303.15	1178	.1
.156	303.15	1205.3	.1
.2011	303.15	1229.4	.1
.2548	303.15	1258.2	.1
.3018	303.15	1283	.1
.3892	303.15	1328.5	.1
.5109	303.15	1391.5	.1
.605	303.15	1439	.1
.6988	303.15	1489.5	.1
.7969	303.15	1542.1	.1
.8369	303.15	1562.4	.1
.8931	303.15	1592.1	.1
.9409	303.15	1618.7	.1
.0557	308.15	1134	.1
.1036	308.15	1160.1	.1
.156	308.15	1187.3	.1
.2011	308.15	1211.2	.1
.2548	308.15	1239.8	.1
.3018	308.15	1264.5	.1
.3892	308.15	1309.7	.1
.5109	308.15	1372.1	.1
.605	308.15	1419.1	.1
.6988	308.15	1469.1	.1
.7969	308.15	1521.1	.1
.8369	308.15	1541.2	.1
.8931	308.15	1570.6	.1
.9409	308.15	1596.8	.1
.0557	313.15	1116.4	.1
.1036	313.15	1142.2	.1
.156	313.15	1169.4	.1
.2011	313.15	1193.2	.1
.2548	313.15	1221.6	.1
.3018	313.15	1246.1	.1
.3892	313.15	1291.2	.1
.5109	313.15	1353.4	.1
.605	313.15	1399.4	.1
.6988	313.15	1449.1	.1
.7969	313.15	1500.5	.1
.8369	313.15	1520.3	.1
.8931	313.15	1549.4	.1
.9409	313.15	1575.4	.1

System: 2-propanol + ethylenediamine; phases: Liquid
Fixed: Pressure, kPa = 101
Property: Viscosity, Pa*s (Liquid); method: Capillary tube (Ostwald; Ubbelohde) method
Temperature, K	Mole fraction of ethylenediamine	Viscosity, Pa*s	uncertainty
298.15	.0557	.002034	.000003
298.15	.1036	.002017	.000003
298.15	.156	.001997	.000003
298.15	.2011	.001978	.000003
298.15	.2548	.001962	.000003
298.15	.3018	.001936	.000003
298.15	.3892	.001886	.000003
298.15	.5109	.001796	.000003
298.15	.605	.001725	.000003
298.15	.6988	.001637	.000003
298.15	.7969	.001543	.000003
298.15	.8369	.001511	.000003
298.15	.8931	.001469	.000003
298.15	.9409	.001438	.000003
303.15	.0557	.001761	.000003
303.15	.1036	.001746	.000003
303.15	.156	.001733	.000003
303.15	.2011	.001718	.000003
303.15	.2548	.001698	.000003
303.15	.3018	.001675	.000003
303.15	.3892	.001629	.000003
303.15	.5109	.001558	.000003
303.15	.605	.001496	.000003
303.15	.6988	.001429	.000003
303.15	.7969	.001357	.000003
303.15	.8369	.001331	.000003
303.15	.8931	.001298	.000003
303.15	.9409	.001271	.000003
308.15	.0557	.001555	.000003
308.15	.1036	.001543	.000003
308.15	.156	.001528	.000003
308.15	.2011	.001516	.000003
308.15	.2548	.001497	.000003
308.15	.3018	.00148	.000003
308.15	.3892	.00144	.000003
308.15	.5109	.001375	.000003
308.15	.605	.001322	.000003
308.15	.6988	.001266	.000003
308.15	.7969	.001205	.000003
308.15	.8369	.001183	.000003
308.15	.8931	.001152	.000003
308.15	.9409	.001129	.000003

System: butan-1-ol + ethylenediamine; phases: Liquid
Fixed: Pressure, kPa = 101
Property: Mass density, kg/m3 (Liquid); method: Vibrating tube method
Mole fraction of ethylenediamine	Temperature, K	Mass density, kg/m3	uncertainty
.0528	293.15	815.585	.002
.1135	293.15	822.116	.002
.1488	293.15	825.769	.002
.214	293.15	832.273	.002
.2602	293.15	836.674	.002
.3286	293.15	842.718	.002
.3985	293.15	848.216	.002
.5036	293.15	856.28	.002
.5965	293.15	863.365	.002
.7081	293.15	872.153	.002
.7931	293.15	879.359	.002
.8504	293.15	884.315	.002
.8979	293.15	888.772	.002
.936	293.15	892.567	.002
.0528	298.15	811.698	.002
.1135	298.15	818.144	.002
.1488	298.15	821.746	.002
.214	298.15	828.164	.002
.2602	298.15	832.509	.002
.3286	298.15	838.245	.002
.3985	298.15	843.943	.002
.5036	298.15	851.943	.002
.5965	298.15	858.974	.002
.7081	298.15	867.696	.002
.7931	298.15	874.839	.002
.8504	298.15	879.75	.002
.8979	298.15	884.168	.002
.936	298.15	887.932	.002
.0528	303.15	807.785	.002
.1135	303.15	814.153	.002
.1488	303.15	817.703	.002
.214	303.15	824.038	.002
.2602	303.15	828.329	.002
.3286	303.15	833.896	.002
.3985	303.15	839.656	.002
.5036	303.15	847.599	.002
.5965	303.15	854.57	.002
.7081	303.15	863.224	.002
.7931	303.15	870.306	.002
.8504	303.15	875.173	.002
.8979	303.15	879.552	.002
.936	303.15	883.288	.002
.0528	308.15	803.849	.002
.1135	308.15	810.137	.002
.1488	308.15	813.64	.002
.214	308.15	819.892	.002
.2602	308.15	824.133	.002
.3286	308.15	829.828	.002
.3985	308.15	835.352	.002
.5036	308.15	843.235	.002
.5965	308.15	850.157	.002
.7081	308.15	858.739	.002
.7931	308.15	865.762	.002
.8504	308.15	870.584	.002
.8979	308.15	874.924	.002
.936	308.15	878.628	.002
.0528	313.15	799.876	.002
.1135	313.15	806.088	.002
.1488	313.15	809.548	.002
.214	313.15	815.723	.002
.2602	313.15	819.91	.002
.3286	313.15	825.879	.002
.3985	313.15	831.025	.002
.5036	313.15	838.849	.002
.5965	313.15	845.718	.002
.7081	313.15	854.232	.002
.7931	313.15	861.194	.002
.8504	313.15	865.971	.002
.8979	313.15	870.277	.002
.936	313.15	873.95	.002

System: butan-1-ol + ethylenediamine; phases: Liquid
Fixed: Pressure, kPa = 101
Property: Speed of sound, m/s (Liquid); method: Sing-around technique in a fixed-path interferometer
Mole fraction of ethylenediamine	Temperature, K	Speed of sound, m/s	uncertainty
.0528	293.15	1279.7	.1
.1135	293.15	1302.1	.1
.1488	293.15	1315.9	.1
.214	293.15	1341.7	.1
.2602	293.15	1360.5	.1
.3286	293.15	1387.1	.1
.3985	293.15	1414.5	.1
.5036	293.15	1456.5	.1
.5965	293.15	1494.7	.1
.7081	293.15	1543.9	.1
.7931	293.15	1584.7	.1
.8504	293.15	1613.6	.1
.8979	293.15	1639.1	.1
.936	293.15	1660.5	.1
.0528	298.15	1262.9	.1
.1135	298.15	1285	.1
.1488	298.15	1298.6	.1
.214	298.15	1324.3	.1
.2602	298.15	1342.9	.1
.3286	298.15	1368.8	.1
.3985	298.15	1396.3	.1
.5036	298.15	1437.7	.1
.5965	298.15	1475.5	.1
.7081	298.15	1523.9	.1
.7931	298.15	1564.1	.1
.8504	298.15	1592.5	.1
.8979	298.15	1617.5	.1
.936	298.15	1638.7	.1
.0528	303.15	1245.9	.1
.1135	303.15	1267.9	.1
.1488	303.15	1281.4	.1
.214	303.15	1306.8	.1
.2602	303.15	1325.3	.1
.3286	303.15	1350.9	.1
.3985	303.15	1378.1	.1
.5036	303.15	1419.1	.1
.5965	303.15	1456.3	.1
.7081	303.15	1504	.1
.7931	303.15	1543.5	.1
.8504	303.15	1571.4	.1
.8979	303.15	1596.1	.1
.936	303.15	1616.8	.1
.0528	308.15	1228.5	.1
.1135	308.15	1250.7	.1
.1488	308.15	1264.3	.1
.214	308.15	1289.5	.1
.2602	308.15	1307.8	.1
.3286	308.15	1333.6	.1
.3985	308.15	1360	.1
.5036	308.15	1400.4	.1
.5965	308.15	1437.1	.1
.7081	308.15	1484.2	.1
.7931	308.15	1523	.1
.8504	308.15	1550.5	.1
.8979	308.15	1574.8	.1
.936	308.15	1595.3	.1
.0528	313.15	1210.7	.1
.1135	313.15	1233.6	.1
.1488	313.15	1247.2	.1
.214	313.15	1272.3	.1
.2602	313.15	1290.4	.1
.3286	313.15	1315.8	.1
.3985	313.15	1341.9	.1
.5036	313.15	1381.7	.1
.5965	313.15	1418.1	.1
.7081	313.15	1464.4	.1
.7931	313.15	1502.7	.1
.8504	313.15	1529.7	.1
.8979	313.15	1553.1	.1
.936	313.15	1573.7	.1

System: butan-1-ol + ethylenediamine; phases: Liquid
Fixed: Pressure, kPa = 101
Property: Viscosity, Pa*s (Liquid); method: Capillary tube (Ostwald; Ubbelohde) method
Temperature, K	Mole fraction of ethylenediamine	Viscosity, Pa*s	uncertainty
298.15	.0528	.002609	.000003
298.15	.1135	.002591	.000003
298.15	.1488	.002584	.000003
298.15	.214	.00253	.000003
298.15	.2602	.002484	.000003
298.15	.3283	.002412	.000003
298.15	.3985	.002327	.000003
298.15	.5036	.002184	.000003
298.15	.5965	.00203	.000003
298.15	.7081	.001842	.000003
298.15	.7931	.001697	.000003
298.15	.8504	.001604	.000003
298.15	.8979	.001538	.000003
298.15	.936	.001481	.000003
303.15	.0528	.002298	.000003
303.15	.1135	.0023	.000003
303.15	.1488	.002292	.000003
303.15	.214	.002245	.000003
303.15	.2602	.002213	.000003
303.15	.3283	.002147	.000003
303.15	.3985	.002071	.000003
303.15	.5036	.001942	.000003
303.15	.5965	.001813	.000003
303.15	.7081	.001648	.000003
303.15	.7931	.001531	.000003
303.15	.8504	.001448	.000003
303.15	.8979	.001381	.000003
303.15	.936	.001334	.000003
308.15	.0528	.002001	.000003
308.15	.1135	.002009	.000003
308.15	.1488	.001995	.000003
308.15	.214	.001954	.000003
308.15	.2602	.001923	.000003
308.15	.3283	.001866	.000003
308.15	.3985	.001798	.000003
308.15	.5036	.001697	.000003
308.15	.5965	.001601	.000003
308.15	.7081	.001471	.000003
308.15	.7931	.001377	.000003
308.15	.8504	.001314	.000003
308.15	.8979	.00125	.000003
308.15	.936	.001198	.000003
