Measured thermophysical data. Effect of Isomers on Partition Coefficients for Phenolic Compounds in the 1-Butyl-3-methylimidazolium Hexafluorophosphate + Water Two-Phase System
Source: J. Chem. Eng. Data, 2010, 10.1021/je100016z
Compound 1: 1-butyl-3-methylimidazolium hexafluorophosphate, C8H15F6N2P
Compound 2: 2-ethylphenol, C8H10O
Compound 3: 3-ethylphenol, C8H10O
Compound 4: phenol, 4-ethyl-, C8H10O
Compound 5: phenol, 4-propyl-, C9H12O
Compound 6: 2,3,5-trimethylphenol, C9H12O
Compound 7: water, H2O

System: 2-ethylphenol + water + 1-butyl-3-methylimidazolium hexafluorophosphate; phases: Liquid mixture 1, Liquid
Fixed: Pressure, kPa = 101
Fixed: Temperature, K = 298.2
Property: Amount concentration (molarity), mol/dm3 of 2-ethylphenol (Liquid mixture 1); method: Spectrophotometry
Amount concentration (molarity), mol/dm3 of 2-ethylphenol	Amount concentration (molarity), mol/dm3 of 2-ethylphenol	uncertainty
.0001	.00759	.00019
.000209	.01592	.00019
.000308	.02391	.00019
.000419	.03231	.00019

System: 3-ethylphenol + water + 1-butyl-3-methylimidazolium hexafluorophosphate; phases: Liquid mixture 1, Liquid
Fixed: Pressure, kPa = 101
Fixed: Temperature, K = 298.2
Property: Amount concentration (molarity), mol/dm3 of 3-ethylphenol (Liquid mixture 1); method: Spectrophotometry
Amount concentration (molarity), mol/dm3 of 3-ethylphenol	Amount concentration (molarity), mol/dm3 of 3-ethylphenol	uncertainty
.000031	.00173	.00019
.00007	.00398	.00019
.000104	.00579	.00019
.000136	.00755	.00019

System: phenol, 4-ethyl- + water + 1-butyl-3-methylimidazolium hexafluorophosphate; phases: Liquid mixture 1, Liquid
Fixed: Pressure, kPa = 101
Fixed: Temperature, K = 298.2
Property: Amount concentration (molarity), mol/dm3 of phenol, 4-ethyl- (Liquid mixture 1); method: Spectrophotometry
Amount concentration (molarity), mol/dm3 of phenol, 4-ethyl-	Amount concentration (molarity), mol/dm3 of phenol, 4-ethyl-	uncertainty
.00016	.00853	.00019
.000246	.01335	.00019
.000324	.01773	.00019

System: phenol, 4-propyl- + water + 1-butyl-3-methylimidazolium hexafluorophosphate; phases: Liquid mixture 1, Liquid
Fixed: Pressure, kPa = 101
Fixed: Temperature, K = 298.2
Property: Amount concentration (molarity), mol/dm3 of phenol, 4-propyl- (Liquid mixture 1); method: Spectrophotometry
Amount concentration (molarity), mol/dm3 of phenol, 4-propyl-	Amount concentration (molarity), mol/dm3 of phenol, 4-propyl-	uncertainty
.000224	.02795	.00019
.000255	.03221	.00019
.000282	.03583	.00019
.000314	.03974	.00019

System: 2,3,5-trimethylphenol + water + 1-butyl-3-methylimidazolium hexafluorophosphate; phases: Liquid mixture 1, Liquid
Fixed: Pressure, kPa = 101
Fixed: Temperature, K = 298.2
Property: Amount concentration (molarity), mol/dm3 of 2,3,5-trimethylphenol (Liquid mixture 1); method: Spectrophotometry
Amount concentration (molarity), mol/dm3 of 2,3,5-trimethylphenol	Amount concentration (molarity), mol/dm3 of 2,3,5-trimethylphenol	uncertainty
.0000763	.01376	.00019
.0000876	.01594	.00019
.0000971	.01755	.00019
.0001089	.01974	.00019
