Measured thermophysical data. CO2 Absorption in Aqueous Piperazine Solutions: Experimental Study and Modeling
Source: J. Chem. Eng. Data, 2011, 10.1021/je1012247
Compound 1: hexahydro-1,4-diazine, C4H10N2, purity 99.9%
Compound 2: carbon dioxide, CO2, purity 99.5%
Compound 3: water, H2O, purity 99%

System: hexahydro-1,4-diazine + carbon dioxide + water; phases: Liquid, Gas
Property: Molality, mol/kg of carbon dioxide (Liquid); method: VLE Cell
Temperature, K	Pressure, kPa	Molality, mol/kg of hexahydro-1,4-diazine	Molality, mol/kg of carbon dioxide	uncertainty
287.1	68.29	.1	.137	.000685
287.1	181.1	.1	.189	.000945
287.1	338.7	.1	.268	.00134
287.1	2.13	.5	.158	.00079
287.1	2.822	.5	.325	.001625
287.1	18.61	.5	.46	.0023
287.1	93.9	.5	.525	.002625
287.1	1.931	1	.248	.00124
287.1	2.581	1	.563	.002815
287.1	6.327	1	.89	.00445
287.1	86.55	1	1.05	.00525
287.1	157.2	1	1.1	.0055
293.1	44.52	.1	.115	.000575
293.1	81.34	.1	.132	.00066
293.1	135.4	.1	.149	.000745
293.1	2.504	.5	.211	.001055
293.1	3.201	.5	.395	.001975
293.1	33.66	.5	.51	.00255
293.1	70.52	.5	.535	.002675
293.1	161.7	.5	.585	.002925
293.1	2.716	1.09	.36	.0018
293.1	3.261	1.09	.675	.003375
293.1	6.148	1.09	.894	.00447
293.1	33.28	1.09	1.014	.00507
293.1	94.66	1.09	1.068	.00534
293.1	195	1.09	1.134	.00567
298.1	3.256	.1	.045	.000225
298.1	13.93	.1	.1	.0005
298.1	41.15	.1	.112	.00056
298.1	73.4	.1	.124	.00062
298.1	3.519	.63	.225	.001125
298.1	4.049	.63	.419	.002095
298.1	10.204	.63	.58	.0029
298.1	42.81	.63	.636	.00318
298.1	86.96	.63	.668	.00334
298.1	150.8	.63	.693	.003465
298.1	3.41	1	.236	.00118
298.1	3.793	1	.494	.00247
298.1	4.983	1	.713	.003565
298.1	22	1	.87	.00435
298.1	61.73	1	.92	.0046
298.1	102.3	1	.95	.00475
303.1	4.485	.1	.066	.00033
303.1	14.49	.1	.1	.0005
303.1	37.46	.1	.109	.000545
303.1	63.87	.1	.118	.00059
303.1	104.67	.1	.133	.000665
303.1	4.54	.63	.188	.00094
303.1	5.202	.63	.375	.001875
303.1	21.75	.63	.536	.00268
303.1	73.04	.63	.573	.002865
303.1	104.74	.63	.586	.00293
303.1	4.769	1	.193	.000965
303.1	5.516	1	.428	.00214
303.1	6.561	1	.65	.00325
303.1	12.95	1	.86	.0043
303.1	74.28	1	.97	.00485
313.1	9.34	2	.194	.00097
313.1	12.81	2	.494	.00247
313.1	17.26	2	.872	.00436
313.1	20.79	2	1.342	.00671
313.1	33.17	2	1.814	.00907
313.1	229	2	2.16	.0108
313.1	532	2	2.32	.0116

System: hexahydro-1,4-diazine + carbon dioxide + water; phases: Gas, Liquid
Property: Mole fraction of carbon dioxide (Gas); method: VLE Cell
Temperature, K	Pressure, kPa	Molality, mol/kg of hexahydro-1,4-diazine	Mole fraction of carbon dioxide	uncertainty
287.1	68.29	.1	.978	.00489
287.1	181.1	.1	.992	.00496
287.1	338.7	.1	.995	.004975
287.1	2.13	.5	.257	.001285
287.1	2.822	.5	.441	.002205
287.1	18.61	.5	.915	.004575
287.1	93.9	.5	.983	.004915
287.1	1.931	1	.218	.00109
287.1	2.581	1	.418	.00209
287.1	6.327	1	.764	.00382
287.1	86.55	1	.983	.004915
287.1	157.2	1	.991	.004955
293.1	44.52	.1	.948	.00474
293.1	81.34	.1	.972	.00486
293.1	135.4	.1	.983	.004915
293.1	2.504	.5	.079	.000395
293.1	3.201	.5	.282	.00141
293.1	33.66	.5	.932	.00466
293.1	70.52	.5	.967	.004835
293.1	161.7	.5	.986	.00493
293.1	2.716	1.09	.173	.000865
293.1	3.261	1.09	.315	.001575
293.1	6.148	1.09	.638	.00319
293.1	33.28	1.09	.933	.004665
293.1	94.66	1.09	.977	.004885
293.1	195	1.09	.989	.004945
298.1	3.256	.1	.034	.00017
298.1	13.93	.1	.775	.003875
298.1	41.15	.1	.924	.00462
298.1	73.4	.1	.957	.004785
298.1	3.519	.63	.118	.00059
298.1	4.049	.63	.236	.00118
298.1	10.204	.63	.698	.00349
298.1	42.81	.63	.928	.00464
298.1	86.96	.63	.965	.004825
298.1	150.8	.63	.98	.0049
298.1	3.41	1	.089	.000445
298.1	3.793	1	.184	.00092
298.1	4.983	1	.381	.001905
298.1	22	1	.86	.0043
298.1	61.73	1	.95	.00475
298.1	102.3	1	.97	.00485
303.1	4.485	.1	.058	.00029
303.1	14.49	.1	.708	.00354
303.1	37.46	.1	.887	.004435
303.1	63.87	.1	.934	.00467
303.1	104.67	.1	.96	.0048
303.1	4.54	.63	.08	.0004
303.1	5.202	.63	.2	.001
303.1	21.75	.63	.809	.004045
303.1	73.04	.63	.943	.004715
303.1	104.74	.63	.96	.0048
303.1	4.769	1	.128	.00064
303.1	5.516	1	.249	.001245
303.1	6.561	1	.371	.001855
303.1	12.95	1	.683	.003415
303.1	74.28	1	.945	.004725
313.1	9.34	2	.238	.00119
313.1	12.81	2	.447	.002235
313.1	17.26	2	.592	.00296
313.1	20.79	2	.664	.00332
313.1	33.17	2	.791	.003955
313.1	229	2	.97	.00485
313.1	532	2	.987	.004935
