Measured thermophysical data. Solubility of Andrographolide in Various Solvents from (288.2 to 323.2) K
Source: J. Chem. Eng. Data, 2010, 10.1021/je100344z
Compound 1: andrographolide, C20H30O5, purity 99.1%
Compound 2: methanol, CH4O, purity 99.5%
Compound 3: ethanol, C2H6O, purity 99.7%
Compound 4: butan-1-ol, C4H10O, purity 99%
Compound 5: propanone, C3H6O, purity 99.5%
Compound 6: water, H2O, purity 99.9%

System: methanol + andrographolide; phases: Liquid, Crystal
Fixed: Pressure, kPa = 101
Property: Amount concentration (molarity), mol/dm3 of andrographolide (Liquid); method: UV spectrophotometer at 223 nm
Temperature, K	Amount concentration (molarity), mol/dm3 of andrographolide	uncertainty
288.2	.0269	0
293.2	.0314	.0002
298.2	.0385	.0004
303.2	.0467	.0002
308.2	.0541	.0004
313.2	.0627	.0007
318.2	.078	.0004
323.2	.0936	.0003

System: ethanol + andrographolide; phases: Liquid, Crystal
Fixed: Pressure, kPa = 101
Property: Amount concentration (molarity), mol/dm3 of andrographolide (Liquid); method: UV spectrophotometer at 223 nm
Temperature, K	Amount concentration (molarity), mol/dm3 of andrographolide	uncertainty
288.2	.0165	.0005
293.2	.019	.0006
298.2	.021	.0005
303.2	.0244	.0003
308.2	.03	.0006
313.2	.0349	0
318.2	.0401	0
323.2	.0507	.0002

System: butan-1-ol + andrographolide; phases: Liquid, Crystal
Fixed: Pressure, kPa = 101
Property: Amount concentration (molarity), mol/dm3 of andrographolide (Liquid); method: UV spectrophotometer at 223 nm
Temperature, K	Amount concentration (molarity), mol/dm3 of andrographolide	uncertainty
288.2	.0098	0
293.2	.0112	.0003
298.2	.0129	.0003
303.2	.0157	.0001
308.2	.0174	.0003
313.2	.0206	.0001
318.2	.0251	0
323.2	.0305	.0003

System: propanone + andrographolide; phases: Liquid, Crystal
Fixed: Pressure, kPa = 101
Property: Amount concentration (molarity), mol/dm3 of andrographolide (Liquid); method: UV spectrophotometer at 223 nm
Temperature, K	Amount concentration (molarity), mol/dm3 of andrographolide	uncertainty
288.2	.01	.0001
293.2	.0119	.0002
298.2	.013	.0004
303.2	.015	.0003
308.2	.0178	.0005
313.2	.0202	.0003
318.2	.0226	0
323.2	.0271	.0004

System: andrographolide + water; phases: Liquid, Crystal
Fixed: Pressure, kPa = 101
Property: Amount concentration (molarity), mol/dm3 of andrographolide (Liquid); method: UV spectrophotometer at 223 nm
Temperature, K	Amount concentration (molarity), mol/dm3 of andrographolide	uncertainty
288.2	.0096	.0003
293.2	.0113	.0003
298.2	.0132	.0004
303.2	.0158	.0004
308.2	.0186	.0005
313.2	.0207	.0001
318.2	.0253	.0002
323.2	.0301	.0004
