Measured thermophysical data. Excess Molar Enthalpies of Benzyl Alcohol + Alkanols (C1-C6) and Their Correlations at 298.15 K and Ambient Pressure
Source: J. Chem. Eng. Data, 2010, 10.1021/je100095p
Compound 1: .alpha.-toluenol, C7H8O, purity 99%
Compound 2: methanol, CH4O, purity 99.5%
Compound 3: ethanol, C2H6O, purity 99.8%
Compound 4: propan-1-ol, C3H8O, purity 99.8%
Compound 5: butan-1-ol, C4H10O, purity 99.8%
Compound 6: pentan-1-ol, C5H12O, purity 99%
Compound 7: pentylcarbinol, C6H14O, purity 98%

System: .alpha.-toluenol; phases: Liquid
Fixed: Pressure, kPa = 101.325
Property: Mass density, kg/m3 (Liquid); method: Vibrating tube method
Temperature, K	Mass density, kg/m3	uncertainty
298.15	1041.99	.01

System: .alpha.-toluenol; phases: Liquid
Fixed: Pressure, kPa = 101.325
Property: Refractive index (Na D-line) (Liquid); method: Standard Abbe refractometry
Temperature, K	Refractive index (Na D-line)	uncertainty
298.15	1.5381	.0002

System: methanol; phases: Liquid
Fixed: Pressure, kPa = 101.325
Property: Mass density, kg/m3 (Liquid); method: Vibrating tube method
Temperature, K	Mass density, kg/m3	uncertainty
298.15	786.5	.01

System: methanol; phases: Liquid
Fixed: Pressure, kPa = 101.325
Property: Refractive index (Na D-line) (Liquid); method: Standard Abbe refractometry
Temperature, K	Refractive index (Na D-line)	uncertainty
298.15	1.3266	.0002

System: ethanol; phases: Liquid
Fixed: Pressure, kPa = 101.325
Property: Mass density, kg/m3 (Liquid); method: Vibrating tube method
Temperature, K	Mass density, kg/m3	uncertainty
298.15	785.15	.01

System: ethanol; phases: Liquid
Fixed: Pressure, kPa = 101.325
Property: Refractive index (Na D-line) (Liquid); method: Standard Abbe refractometry
Temperature, K	Refractive index (Na D-line)	uncertainty
298.15	1.3595	.0002

System: propan-1-ol; phases: Liquid
Fixed: Pressure, kPa = 101.325
Property: Mass density, kg/m3 (Liquid); method: Vibrating tube method
Temperature, K	Mass density, kg/m3	uncertainty
298.15	799.51	.01

System: propan-1-ol; phases: Liquid
Fixed: Pressure, kPa = 101.325
Property: Refractive index (Na D-line) (Liquid); method: Standard Abbe refractometry
Temperature, K	Refractive index (Na D-line)	uncertainty
298.15	1.3833	.0002

System: butan-1-ol; phases: Liquid
Fixed: Pressure, kPa = 101.325
Property: Mass density, kg/m3 (Liquid); method: Vibrating tube method
Temperature, K	Mass density, kg/m3	uncertainty
298.15	805.75	.01

System: butan-1-ol; phases: Liquid
Fixed: Pressure, kPa = 101.325
Property: Refractive index (Na D-line) (Liquid); method: Standard Abbe refractometry
Temperature, K	Refractive index (Na D-line)	uncertainty
298.15	1.3974	.0002

System: pentan-1-ol; phases: Liquid
Fixed: Pressure, kPa = 101.325
Property: Mass density, kg/m3 (Liquid); method: Vibrating tube method
Temperature, K	Mass density, kg/m3	uncertainty
298.15	810.88	.01

System: pentan-1-ol; phases: Liquid
Fixed: Pressure, kPa = 101.325
Property: Refractive index (Na D-line) (Liquid); method: Standard Abbe refractometry
Temperature, K	Refractive index (Na D-line)	uncertainty
298.15	1.4088	.0002

System: pentylcarbinol; phases: Liquid
Fixed: Pressure, kPa = 101.325
Property: Mass density, kg/m3 (Liquid); method: Vibrating tube method
Temperature, K	Mass density, kg/m3	uncertainty
298.15	815.2	.01

System: pentylcarbinol; phases: Liquid
Fixed: Pressure, kPa = 101.325
Property: Refractive index (Na D-line) (Liquid); method: Standard Abbe refractometry
Temperature, K	Refractive index (Na D-line)	uncertainty
298.15	1.4165	.0002

System: methanol + .alpha.-toluenol; phases: Liquid
Fixed: Temperature, K = 298.15
Fixed: Pressure, kPa = 101
Property: Excess molar enthalpy (molar enthalpy of mixing), kJ/mol (Liquid); method: Calvet calorimetry
Mole fraction of .alpha.-toluenol	Excess molar enthalpy (molar enthalpy of mixing), kJ/mol	uncertainty
.07	-.0152	-.000152
.1388	-.0334	-.000334
.2057	-.057	-.00057
.2728	-.0792	-.000792
.3404	-.1006	-.001006
.3992	-.1198	-.001198
.4995	-.1408	-.001408
.5964	-.1445	-.001445
.6972	-.1358	-.001358
.7998	-.1081	-.001081
.9028	-.0615	-.000615

System: ethanol + .alpha.-toluenol; phases: Liquid
Fixed: Temperature, K = 298.15
Fixed: Pressure, kPa = 101
Property: Excess molar enthalpy (molar enthalpy of mixing), kJ/mol (Liquid); method: Calvet calorimetry
Mole fraction of .alpha.-toluenol	Excess molar enthalpy (molar enthalpy of mixing), kJ/mol	uncertainty
.0746	.0734	.000734
.1514	.1306	.001306
.2275	.1714	.001714
.3029	.1984	.001984
.3785	.2144	.002144
.4855	.2232	.002232
.5857	.2079	.002079
.6883	.1767	.001767
.7915	.1293	.001293
.8949	.0717	.000717

System: propan-1-ol + .alpha.-toluenol; phases: Liquid
Fixed: Temperature, K = 298.15
Fixed: Pressure, kPa = 101
Property: Excess molar enthalpy (molar enthalpy of mixing), kJ/mol (Liquid); method: Calvet calorimetry
Mole fraction of .alpha.-toluenol	Excess molar enthalpy (molar enthalpy of mixing), kJ/mol	uncertainty
.0984	.0486	.000486
.1964	.0847	.000847
.2873	.1065	.001065
.3999	.1236	.001236
.4987	.119	.00119
.5993	.1072	.001072
.6983	.0867	.000867
.7996	.0614	.000614
.8988	.0323	.000323

System: butan-1-ol + .alpha.-toluenol; phases: Liquid
Fixed: Temperature, K = 298.15
Fixed: Pressure, kPa = 101
Property: Excess molar enthalpy (molar enthalpy of mixing), kJ/mol (Liquid); method: Calvet calorimetry
Mole fraction of .alpha.-toluenol	Excess molar enthalpy (molar enthalpy of mixing), kJ/mol	uncertainty
.0976	.0849	.000849
.1973	.1489	.001489
.295	.1961	.001961
.396	.2211	.002211
.4931	.2311	.002311
.6029	.2121	.002121
.7039	.179	.00179
.8026	.1328	.001328
.9017	.0726	.000726

System: pentan-1-ol + .alpha.-toluenol; phases: Liquid
Fixed: Temperature, K = 298.15
Fixed: Pressure, kPa = 101
Property: Excess molar enthalpy (molar enthalpy of mixing), kJ/mol (Liquid); method: Calvet calorimetry
Mole fraction of .alpha.-toluenol	Excess molar enthalpy (molar enthalpy of mixing), kJ/mol	uncertainty
.1044	.0957	.000957
.1968	.1685	.001685
.2902	.226	.00226
.3864	.2655	.002655
.4838	.2848	.002848
.5999	.2712	.002712
.6988	.2409	.002409
.7995	.1857	.001857
.8992	.1057	.001057

System: .alpha.-toluenol + pentylcarbinol; phases: Liquid
Fixed: Temperature, K = 298.15
Fixed: Pressure, kPa = 101
Property: Excess molar enthalpy (molar enthalpy of mixing), kJ/mol (Liquid); method: Calvet calorimetry
Mole fraction of .alpha.-toluenol	Excess molar enthalpy (molar enthalpy of mixing), kJ/mol	uncertainty
.0954	.1045	.001045
.1959	.1981	.001981
.291	.2708	.002708
.3901	.3242	.003242
.5072	.3438	.003438
.598	.3422	.003422
.6996	.3097	.003097
.8022	.2411	.002411
.8986	.1454	.001454
