Measured thermophysical data. Temperature Dependence of Vapor Pressures over Saturated Aqueous Solutions at Invariant Points of the NaCl + KNO3 + H2O, NaCl + Na2CO3 + H2O, and NaCl + Na2SO4 + H2O Systems
Source: J. Chem. Eng. Data, 2011, 10.1021/je1009653
Compound 1: sodium chloride, ClNa, purity 99%
Compound 2: nitric acid potassium salt, KNO3, purity 99%
Compound 3: sodium carbonate, CNa2O3, purity 99%
Compound 4: sodium sulfate, Na2O4S, purity 99%
Compound 5: water, H2O, purity 99.5%

System: sodium chloride + water + nitric acid potassium salt; phases: Gas, Liquid, Crystal, Crystal
Property: Vapor or sublimation pressure, kPa (Gas); method: Closed cell (Static) method
Temperature, K	Vapor or sublimation pressure, kPa	uncertainty
280.45	.72	
281.85	.79	
284.55	.94	
286.35	1.058	
289.55	1.283	
290.75	1.385	
293.45	1.639	
296.15	1.905	
294.25	1.704	
298.85	2.25	
299.75	2.362	
301.65	2.62	
303.25	2.886	
305.15	3.187	
308.65	3.869	
309.55	4.041	
312.25	4.65	
314.95	5.318	
316.55	5.756	
321.45	7.212	

System: sodium carbonate + sodium chloride + water; phases: Gas, Liquid, Crystal, Crystal
Property: Vapor or sublimation pressure, kPa (Gas); method: Closed cell (Static) method
Temperature, K	Vapor or sublimation pressure, kPa	uncertainty
280.25	.706	
280.45	.716	
284.95	.988	
285.45	1.008	
289.65	1.32	
289.85	1.34	
294.25	1.794	
294.45	1.779	
298.65	2.334	
298.75	2.322	
302.95	2.996	
303.25	3.023	
307.55	3.929	
308.05	4.023	
312.25	5.086	
312.55	5.161	
316.85	6.384	
317.05	6.533	
321.45	8.199	
321.85	8.273	

System: sodium chloride + water + sodium sulfate; phases: Gas, Liquid, Crystal, Crystal
Property: Vapor or sublimation pressure, kPa (Gas); method: Closed cell (Static) method
Temperature, K	Vapor or sublimation pressure, kPa	uncertainty
280.15	.708	
280.15	.708	
284.55	.981	
284.95	1.003	
289.35	1.379	
289.35	1.366	
293.95	1.867	
293.95	1.853	
298.45	2.477	
298.65	2.504	
302.95	3.273	
303.15	3.303	
307.55	4.289	
307.85	4.344	
312.05	5.574	
312.25	5.578	
312.55	5.669	
316.65	7.188	
317.15	7.322	
