Measured thermophysical data. Isothermal Vapor-Liquid Equilibrium Data for the Perfluorobutane (R610) + Ethane System at Temperatures from (263 to 353) K
Source: J. Chem. Eng. Data, 2011, 10.1021/je1009398
Compound 1: ethane, C2H6
Compound 2: decafluorobutane, C4F10

System: decafluorobutane; phases: Liquid, Gas
Property: Vapor or sublimation pressure, kPa (Liquid); method: Closed cell (Static) method
Temperature, K	Vapor or sublimation pressure, kPa	uncertainty
263.15	72.7	.2
268.12	89.6	.2
268.13	89.6	.2
273.09	109.4	.2
278	132.4	.2
278.03	132.4	.2
278.03	132.3	.2
278.03	132.3	.2
278.03	132.3	.2
278.06	132.6	.2
282.99	159	.2
287.91	189.3	.2
292.97	225.4	.2
297.95	265.3	.2
302.9	310.2	.2
303.13	311.7	.2
307.9	361	.2
308.21	364.3	.2
312.88	417.8	.2
317.88	481.2	.2
322.89	551.7	.2
323.22	556.4	.2
327.88	629.5	.2
332.91	716.1	.2
337.93	811	.2
338.22	816.7	.2
342.91	913	.2
347.93	1025.8	.6
352.92	1149.2	.6
353.01	1151.6	.6

System: ethane + decafluorobutane; phases: Liquid, Gas
Property: Vapor or sublimation pressure, kPa (Liquid); method: Closed cell (Static) method
Mole fraction of ethane	Temperature, K	Vapor or sublimation pressure, kPa	uncertainty
.04	263.14	194	.2
.074	263.14	287.2	.2
.108	263.14	380.8	.2
.156	263.14	497.7	.2
.241	263.14	697.2	.2
.335	263.14	888.8	.2
.45	263.14	1090.4	.6
.578	263.14	1278	.6
.697	263.14	1433.4	.6
.812	263.14	1576.2	.6
.885	263.14	1673.9	.6
.959	263.14	1788.2	.6
.09	283.19	500.7	.2
.176	283.19	800.1	.2
.259	283.19	1071.2	.6
.356	283.19	1357.6	.6
.452	283.19	1617.4	.6
.544	283.19	1846.4	.6
.641	283.19	2078.6	.6
.742	283.19	2314.3	.6
.84	283.19	2549.9	.6
.891	283.19	2685.7	.6
.937	283.19	2820.2	.6
.037	303.2	492.1	.2
.129	303.2	919.4	.2
.221	303.2	1326.4	.6
.324	303.2	1753.6	.6
.432	303.2	2185.7	.6
.548	303.2	2622.5	.6
.664	303.2	3058.8	.6
.775	303.2	3498.2	.6
.858	303.2	3872.6	.6
.906	303.2	4113.1	.6
.955	303.2	4395.5	.6
.03	308.2	516.6	.2
.114	308.2	931	.2
.197	308.2	1323.9	.6
.286	308.2	1729.1	.6
.381	308.2	2139.1	.6
.475	308.2	2540.5	.6
.57	308.2	2933.4	.6
.67	308.2	3339.5	.6
.742	308.2	3651.5	.6
.809	308.2	3975.7	.6
.864	308.2	4264.2	.6
.906	308.2	4501.7	.6
.916	308.2	4560.8	.6
.048	323.19	830	.2
.117	323.19	1220.4	.6
.186	323.19	1601.1	.6
.256	323.19	1984.1	.6
.328	323.19	2369.9	.6
.406	323.19	2776.1	.6
.486	323.19	3173.3	.6
.56	323.19	3557.4	.6
.633	323.19	3938.2	.6
.699	323.19	4277.4	.6
.752	323.19	4525.4	.6
.767	323.19	4567.7	.6
.047	338.2	1119.4	.6
.1	338.2	1449.6	.6
.154	338.2	1784.7	.6
.206	338.2	2110.6	.6
.257	338.2	2421.9	.6
.308	338.2	2740.7	.6
.362	338.2	3062.8	.6
.414	338.2	3360.5	.6
.466	338.2	3666.6	.6
.524	338.2	3988.9	.6
.589	338.2	4316.6	.6
.617	338.2	4414.8	.6
.035	353.15	1398.1	.6
.077	353.15	1686.1	.6
.121	353.15	1988.4	.6
.166	353.15	2289	.6
.207	353.15	2571.1	.6
.254	353.15	2885.6	.6
.3	353.15	3203.3	.6
.346	353.15	3473.4	.6
.398	353.15	3770.5	.6
.42	353.15	3888	.6
.448	353.15	4003	.6
.459	353.15	4039.9	.6
.464	353.15	4046.9	.6

System: ethane + decafluorobutane; phases: Gas, Liquid
Property: Mole fraction of ethane (Gas); method: Chromatography
Mole fraction of ethane	Temperature, K	Mole fraction of ethane	uncertainty
.04	263.14	.625	.008
.074	263.14	.749	.008
.108	263.14	.812	.008
.156	263.14	.856	.008
.241	263.14	.899	.008
.335	263.14	.922	.008
.45	263.14	.938	.008
.578	263.14	.95	.008
.697	263.14	.96	.008
.812	263.14	.969	.008
.885	263.14	.977	.008
.959	263.14	.989	.008
.09	283.19	.677	.008
.176	283.19	.796	.008
.259	283.19	.847	.008
.356	283.19	.879	.008
.452	283.19	.899	.008
.544	283.19	.914	.008
.641	283.19	.927	.008
.742	283.19	.94	.008
.84	283.19	.955	.008
.891	283.19	.964	.008
.937	283.19	.977	.008
.037	303.2	.358	.008
.129	303.2	.646	.008
.221	303.2	.749	.008
.324	303.2	.805	.008
.432	303.2	.841	.008
.548	303.2	.867	.008
.664	303.2	.889	.008
.775	303.2	.91	.008
.858	303.2	.93	.008
.906	303.2	.946	.008
.955	303.2	.969	.008
.03	308.2	.287	.008
.114	308.2	.594	.008
.197	308.2	.705	.008
.286	308.2	.768	.008
.381	308.2	.808	.008
.475	308.2	.836	.008
.57	308.2	.857	.008
.67	308.2	.873	.008
.742	308.2	.889	.008
.809	308.2	.903	.008
.864	308.2	.918	.008
.906	308.2	.931	.008
.916	308.2	.934	.008
.048	323.19	.311	.008
.117	323.19	.515	.008
.186	323.19	.617	.008
.256	323.19	.681	.008
.328	323.19	.724	.008
.406	323.19	.757	.008
.486	323.19	.78	.008
.56	323.19	.796	.008
.633	323.19	.808	.008
.699	323.19	.814	.008
.752	323.19	.806	.008
.767	323.19	.799	.008
.047	338.2	.243	.008
.1	338.2	.396	.008
.154	338.2	.491	.008
.206	338.2	.554	.008
.257	338.2	.599	.008
.308	338.2	.633	.008
.362	338.2	.658	.008
.414	338.2	.678	.008
.466	338.2	.687	.008
.524	338.2	.697	.008
.589	338.2	.692	.008
.617	338.2	.68	.008
.035	353.15	.145	.008
.077	353.15	.263	.008
.121	353.15	.349	.008
.166	353.15	.414	.008
.207	353.15	.459	.008
.254	353.15	.497	.008
.3	353.15	.527	.008
.346	353.15	.544	.008
.398	353.15	.55	.008
.42	353.15	.548	.008
.448	353.15	.536	.008
.459	353.15	.529	.008
.464	353.15	.526	.008
