Measured thermophysical data. Isobaric Vapor-Liquid Equilibria of the Ternary System Pentan-1-ol + Pentyl Acetate + Nonane
Source: J. Chem. Eng. Data, 2011, 10.1021/je101301s
Compound 1: pentan-1-ol, C5H12O
Compound 2: pentyl ethanoate, C7H14O2
Compound 3: nonane, C9H20

System: pentan-1-ol; phases: Liquid
Fixed: Pressure, kPa = 101.325
Property: Mass density, kg/m3 (Liquid); method: Pycnometric method
Temperature, K	Mass density, kg/m3	uncertainty
293.13	814.5	

System: pentan-1-ol; phases: Liquid
Fixed: Pressure, kPa = 101.325
Property: Refractive index (Na D-line) (Liquid); method: Standard Abbe refractometry
Temperature, K	Refractive index (Na D-line)	uncertainty
293.13	1.4098	

System: pentan-1-ol; phases: Liquid, Gas
Property: Vapor or sublimation pressure, kPa (Liquid); method: Ebulliometric method (Recirculating still)
Temperature, K	Vapor or sublimation pressure, kPa	uncertainty
375.63	26.66	.013
392.7	53.33	.013
403.8	79.99	.013
410.86	101.32	.013

System: pentyl ethanoate; phases: Liquid
Fixed: Pressure, kPa = 101.325
Property: Mass density, kg/m3 (Liquid); method: Pycnometric method
Temperature, K	Mass density, kg/m3	uncertainty
293.13	875.4	

System: pentyl ethanoate; phases: Liquid
Fixed: Pressure, kPa = 101.325
Property: Refractive index (Na D-line) (Liquid); method: Standard Abbe refractometry
Temperature, K	Refractive index (Na D-line)	uncertainty
293.13	1.4027	

System: pentyl ethanoate; phases: Liquid, Gas
Property: Vapor or sublimation pressure, kPa (Liquid); method: Ebulliometric method (Recirculating still)
Temperature, K	Vapor or sublimation pressure, kPa	uncertainty
380.05	26.66	.013
400.72	53.33	.013
414.2	79.99	.013
422.59	101.32	.013

System: nonane; phases: Liquid
Fixed: Pressure, kPa = 101.325
Property: Mass density, kg/m3 (Liquid); method: Pycnometric method
Temperature, K	Mass density, kg/m3	uncertainty
293.13	717.6	

System: nonane; phases: Liquid
Fixed: Pressure, kPa = 101.325
Property: Refractive index (Na D-line) (Liquid); method: Standard Abbe refractometry
Temperature, K	Refractive index (Na D-line)	uncertainty
293.13	1.4055	

System: pentan-1-ol + pentyl ethanoate; phases: Liquid, Gas
Property: Boiling temperature at pressure P, K (Liquid); method: Ebulliometric method (Recirculating still)
Pressure, kPa	Mole fraction of pentan-1-ol	Boiling temperature at pressure P, K	uncertainty
26.66	0	380.05	.05
26.66	.1	378.25	.05
26.66	.2	376.97	.05
26.66	.306	375.7	.05
26.66	.391	375.08	.05
26.66	.485	374.59	.05
26.66	.593	374.4	.05
26.66	.697	374.31	.05
26.66	.785	374.38	.05
26.66	.871	374.78	.05
26.66	.928	375.09	.05
26.66	1	375.63	.05
53.33	0	400.72	.05
53.33	.1	398.62	.05
53.33	.2	397	.05
53.33	.306	395.31	.05
53.33	.391	394.41	.05
53.33	.485	393.74	.05
53.33	.593	393	.05
53.33	.697	392.61	.05
53.33	.785	392.44	.05
53.33	.871	392.49	.05
53.33	.928	392.58	.05
53.33	1	392.7	.05
79.99	0	414.2	.05
79.99	.1	411.91	.05
79.99	.2	410.07	.05
79.99	.306	408.08	.05
79.99	.391	406.98	.05
79.99	.485	406.09	.05
79.99	.593	405.12	.05
79.99	.697	404.48	.05
79.99	.785	404.14	.05
79.99	.871	403.98	.05
79.99	.928	403.96	.05
79.99	1	403.8	.05
101.32	0	422.59	.05
101.32	.1	420.18	.05
101.32	.2	418.16	.05
101.32	.306	415.97	.05
101.32	.391	414.8	.05
101.32	.485	413.44	.05
101.32	.593	412.6	.05
101.32	.697	411.87	.05
101.32	.785	411.37	.05
101.32	.871	411.1	.05
101.32	.928	410.98	.05
101.32	1	410.86	.05

System: pentan-1-ol + pentyl ethanoate; phases: Liquid, Gas
Property: Azeotropic temperature, K (Liquid); method: By X=Y
Pressure, kPa	Azeotropic temperature, K	uncertainty
26.66	374.3	.05
53.33	392.4	.05

System: pentan-1-ol + pentyl ethanoate; phases: Liquid, Gas
Property: Azeotropic composition: mole fraction of pentan-1-ol (Liquid); method: By X=Y
Pressure, kPa	Azeotropic composition: mole fraction of pentan-1-ol	uncertainty
26.66	.694	.0005
53.33	.862	.0005

System: pentan-1-ol + nonane + pentyl ethanoate; phases: Liquid, Gas
Property: Boiling temperature at pressure P, K (Liquid); method: Ebulliometric method (Recirculating still)
Pressure, kPa	Mole fraction of pentan-1-ol	Mole fraction of pentyl ethanoate	Boiling temperature at pressure P, K	uncertainty
26.66	.123	.123	371.58	.05
26.66	.425	.426	371.99	.05
26.66	.118	.235	372.38	.05
26.66	.267	.534	372.86	.05
26.66	.184	.368	371.72	.05
26.66	.137	.726	375.47	.05
26.66	.267	.466	372.05	.05
26.66	.424	.152	369.2	.05
26.66	.234	.117	369.77	.05
26.66	.429	.215	369.59	.05
26.66	.587	.294	371.7	.05
26.66	.747	.126	370.95	.05
26.66	.437	.281	370.22	.05
26.66	.262	.369	371.14	.05
26.66	.578	.133	369.36	.05
26.66	.228	.659	374.59	.05
26.66	.488	.269	370.42	.05
26.66	.676	.108	369.76	.05
26.66	.25	.25	370.31	.05
26.66	.672	.219	371.63	.05
26.66	.151	.566	373.64	.05
53.33	.123	.123	392.03	.05
53.33	.425	.426	391.16	.05
53.33	.118	.235	392.77	.05
53.33	.267	.534	392.64	.05
53.33	.184	.368	391.81	.05
53.33	.137	.726	395.66	.05
53.33	.267	.466	391.88	.05
53.33	.424	.152	388.24	.05
53.33	.234	.117	389.39	.05
53.33	.429	.215	388.67	.05
53.33	.587	.294	390.43	.05
53.33	.747	.126	389.26	.05
53.33	.437	.281	389.2	.05
53.33	.262	.369	390.85	.05
53.33	.578	.133	387.98	.05
53.33	.228	.659	394.53	.05
53.33	.488	.269	389.31	.05
53.33	.676	.108	388.04	.05
53.33	.25	.25	389.99	.05
53.33	.672	.219	390.12	.05
53.33	.151	.566	393.99	.05
79.99	.123	.123	405.43	.05
79.99	.118	.235	406.19	.05
79.99	.267	.534	405.46	.05
79.99	.184	.368	404.93	.05
79.99	.137	.726	408.95	.05
79.99	.267	.466	404.77	.05
79.99	.424	.152	400.59	.05
79.99	.234	.117	402.34	.05
79.99	.429	.215	401.09	.05
79.99	.587	.294	402.72	.05
79.99	.747	.126	401.06	.05
79.99	.437	.281	401.6	.05
79.99	.262	.369	403.76	.05
79.99	.578	.133	400.14	.05
79.99	.228	.659	407.51	.05
79.99	.488	.269	401.66	.05
79.99	.676	.108	399.98	.05
79.99	.25	.25	402.88	.05
79.99	.672	.219	402.11	.05
79.99	.151	.566	407.19	.05
101.32	.123	.123	413.85	.05
101.32	.118	.235	414.54	.05
101.32	.184	.368	413.16	.05
101.32	.137	.726	417.13	.05
101.32	.267	.466	412.77	.05
101.32	.424	.152	408.37	.05
101.32	.234	.117	410.37	.05
101.32	.429	.215	408.78	.05
101.32	.587	.294	410.21	.05
101.32	.747	.126	408.35	.05
101.32	.437	.281	409.31	.05
101.32	.262	.369	411.78	.05
101.32	.578	.133	407.58	.05
101.32	.228	.659	415.6	.05
101.32	.488	.269	409.22	.05
101.32	.676	.108	407.39	.05
101.32	.25	.25	410.86	.05
101.32	.672	.219	409.51	.05
101.32	.151	.566	415.49	.05
