Measured thermophysical data. Equilibrium Phase Densities, Interfacial Tensions for the Ethane + n-Pentane System at 294.15 K
Source: J. Chem. Eng. Data, 2011, 10.1021/je101197a
Compound 1: methane, CH4, purity 99.95%
Compound 2: ethane, C2H6, purity 99.995%
Compound 3: pentane, C5H12, purity 99%

System: methane + pentane; phases: Liquid, Gas
Fixed: Temperature, K = 294.15
Property: Mass density, kg/m3 (Liquid); method: Vibrating tube method
Pressure, kPa	Mass density, kg/m3	uncertainty
1895	605.5	4.4252
2578	600	4.4252
3366	591.2	4.4252
3715	588.6	4.4252
4448	582	4.4252
5066	575.6	4.4252
5687	568.1	4.4252
5899	567.3	4.4252
6461	560.2	4.4252
6961	555.9	4.4252
7451	550.2	4.4252
8228	540.9	4.4252
8888	532.5	4.4252
9663	521.2	4.4252
10665	505.6	4.4252

System: methane + pentane; phases: Gas, Liquid
Fixed: Temperature, K = 294.15
Property: Mass density, kg/m3 (Gas); method: Vibrating tube method
Pressure, kPa	Mass density, kg/m3	uncertainty
1895	14.1	4.2472
2578	20.1	4.2472
3366	23.8	4.2472
3715	26.3	4.2472
4448	31.7	4.2472
5066	37	4.2472
5687	41.8	4.2472
5899	49.3	4.2472
6461	48.1	4.2472
6961	59.8	4.2472
7451	64.8	4.2472
8228	72.9	4.2472
8888	79.4	4.2472
9663	79.1	4.2472
10665	85.1	4.2472

System: methane + pentane; phases: Liquid, Gas
Fixed: Temperature, K = 294.15
Property: Surface tension liquid-gas, N/m (Liquid); method: Pendant drop shape
Pressure, kPa	Surface tension liquid-gas, N/m	uncertainty
1895	.01188	.000210276
2578	.01082	.000191514
3366	.00994	.000175938
3715	.0093	.00016461
4448	.00842	.000149034
5066	.00765	.000135405
5687	.0068	.00012036
5899	.00624	.000110448
6461	.00607	.000107439
6961	.00534	.000094518
7451	.00495	.000087615
8228	.00435	.000076995
8888	.00383	.000067791
9663	.00333	.000058941
10665	.0027	.00004779

System: ethane + pentane; phases: Liquid, Gas
Fixed: Temperature, K = 294.15
Property: Mass density, kg/m3 (Liquid); method: Vibrating tube method
Pressure, kPa	Mass density, kg/m3	uncertainty
590	600.1	4.4252
711	594	4.4252
1156	571.7	4.4252
1603	545.8	4.4252
2038	516.4	4.4252
2205	508.6	4.4252
2408	498.5	4.4252
2774	459.4	4.4252
2987	438.9	4.4252

System: ethane + pentane; phases: Gas, Liquid
Fixed: Temperature, K = 294.15
Property: Mass density, kg/m3 (Gas); method: Vibrating tube method
Pressure, kPa	Mass density, kg/m3	uncertainty
590	8.5	4.2472
711	10.4	4.2472
1156	16.9	4.2472
1603	24.3	4.2472
2038	32.3	4.2472
2205	35.7	4.2472
2408	38.3	4.2472
2774	48.1	4.2472
2987	52.6	4.2472

System: ethane + pentane; phases: Liquid, Gas
Fixed: Temperature, K = 294.15
Property: Surface tension liquid-gas, N/m (Liquid); method: Pendant drop shape
Pressure, kPa	Surface tension liquid-gas, N/m	uncertainty
590	.01084	.000191868
711	.01055	.000186735
1156	.00879	.000155583
1603	.00718	.000127086
2038	.00564	.000099828
2205	.00508	.000089916
2408	.00456	.000080712
2774	.00336	.000059472
2987	.00274	.000048498
