Measured thermophysical data. Density, Speed of Sound, Viscosity, Refractive Index, and Excess Volume of N-Methyl-2-pyrrolidone + Ethanol (or Water or Ethanolamine) from T = (293.15 to 323.15) K
Source: J. Chem. Eng. Data, 2011, 10.1021/je100967k
Compound 1: N-methyl-2-pyrrolidone, C5H9NO
Compound 2: 2-aminoethanol, C2H7NO
Compound 3: ethanol, C2H6O
Compound 4: water, H2O

System: N-methyl-2-pyrrolidone; phases: Liquid
Property: Mass density, kg/m3 (Liquid); method: Vibrating tube method
Temperature, K	Pressure, kPa	Mass density, kg/m3	uncertainty
293.15	101	1032.87	.17
303.15	101	1023.95	.17
313.15	101	1015.03	.17
323.15	101	1006.1	.17

System: N-methyl-2-pyrrolidone; phases: Liquid
Property: Speed of sound, m/s (Liquid); method: Pulse-echo method
Temperature, K	Pressure, kPa	Speed of sound, m/s	uncertainty
293.15	101	1565.3	.22
303.15	101	1526.5	.22
313.15	101	1487.8	.22
323.15	101	1450.2	.22

System: N-methyl-2-pyrrolidone; phases: Liquid
Property: Viscosity, Pa*s (Liquid); method: Capillary tube (Ostwald; Ubbelohde) method
Temperature, K	Pressure, kPa	Viscosity, Pa*s	uncertainty
293.15	101	.0018581	
303.15	101	.0015531	
313.15	101	.0013239	
323.15	101	.0011461	
293.15	101	.001858	
303.15	101	.001553	
313.15	101	.001324	
323.15	101	.001146	

System: N-methyl-2-pyrrolidone; phases: Liquid
Fixed: Pressure, kPa = 101.325
Property: Refractive index (Na D-line) (Liquid); method: Standard Abbe refractometry
Temperature, K	Refractive index (Na D-line)	uncertainty
293.15	1.4706	.000067
303.15	1.4664	.000067
313.15	1.4621	.000067
323.15	1.4576	.000067
293.15	1.4691	.000067
303.15	1.4647	.000067
313.15	1.4603	.000067
323.15	1.4559	.000067

System: 2-aminoethanol; phases: Liquid
Property: Mass density, kg/m3 (Liquid); method: Vibrating tube method
Temperature, K	Pressure, kPa	Mass density, kg/m3	uncertainty
293.15	101	1016.65	.17
303.15	101	1008.74	.17
313.15	101	1000.77	.17
323.15	101	992.75	.17

System: 2-aminoethanol; phases: Liquid
Property: Speed of sound, m/s (Liquid); method: Pulse-echo method
Temperature, K	Pressure, kPa	Speed of sound, m/s	uncertainty
293.15	101	1735.9	.22
303.15	101	1703.7	.22
313.15	101	1671.2	.22
323.15	101	1638.8	.22

System: 2-aminoethanol; phases: Liquid
Property: Viscosity, Pa*s (Liquid); method: Capillary tube (Ostwald; Ubbelohde) method
Temperature, K	Pressure, kPa	Viscosity, Pa*s	uncertainty
293.15	101	.024614	
303.15	101	.014956	
313.15	101	.009839	
323.15	101	.006902	

System: 2-aminoethanol; phases: Liquid
Fixed: Pressure, kPa = 101.325
Property: Refractive index (Na D-line) (Liquid); method: Standard Abbe refractometry
Temperature, K	Refractive index (Na D-line)	uncertainty
293.15	1.4525	.000067
303.15	1.4488	.000067
313.15	1.4449	.000067
323.15	1.4417	.000067

System: ethanol; phases: Liquid
Property: Mass density, kg/m3 (Liquid); method: Vibrating tube method
Temperature, K	Pressure, kPa	Mass density, kg/m3	uncertainty
293.15	101	789.54	.17
303.15	101	780.94	.17
313.15	101	772.2	.17
323.15	101	763.29	.17

System: ethanol; phases: Liquid
Property: Speed of sound, m/s (Liquid); method: Pulse-echo method
Temperature, K	Pressure, kPa	Speed of sound, m/s	uncertainty
293.15	101	1162.3	.22
303.15	101	1128.9	.22
313.15	101	1095.4	.22
323.15	101	1071.9	.22

System: ethanol; phases: Liquid
Property: Viscosity, Pa*s (Liquid); method: Capillary tube (Ostwald; Ubbelohde) method
Temperature, K	Pressure, kPa	Viscosity, Pa*s	uncertainty
293.15	101	.001116	
303.15	101	.0009502	
313.15	101	.0007899	
323.15	101	.0006304	

System: ethanol; phases: Liquid
Fixed: Pressure, kPa = 101.325
Property: Refractive index (Na D-line) (Liquid); method: Standard Abbe refractometry
Temperature, K	Refractive index (Na D-line)	uncertainty
293.15	1.3616	.000067
303.15	1.3574	.000067
313.15	1.3532	.000067
323.15	1.3493	.000067

System: water; phases: Liquid
Property: Mass density, kg/m3 (Liquid); method: Vibrating tube method
Temperature, K	Pressure, kPa	Mass density, kg/m3	uncertainty
293.15	101	998.26	.17
303.15	101	995.7	.17
313.15	101	992.26	.17
323.15	101	988.08	.17

System: water; phases: Liquid
Property: Speed of sound, m/s (Liquid); method: Pulse-echo method
Temperature, K	Pressure, kPa	Speed of sound, m/s	uncertainty
293.15	101	1482.7	.22
303.15	101	1509.4	.22
313.15	101	1529.1	.22
323.15	101	1541.7	.22

System: water; phases: Liquid
Property: Viscosity, Pa*s (Liquid); method: Capillary tube (Ostwald; Ubbelohde) method
Temperature, K	Pressure, kPa	Viscosity, Pa*s	uncertainty
293.15	101	.0009933	
303.15	101	.0007974	
313.15	101	.0006535	
323.15	101	.0005465	

System: water; phases: Liquid
Fixed: Pressure, kPa = 101.325
Property: Refractive index (Na D-line) (Liquid); method: Standard Abbe refractometry
Temperature, K	Refractive index (Na D-line)	uncertainty
293.15	1.333	.000067
303.15	1.3319	.000067
313.15	1.3306	.000067
323.15	1.329	.000067

System: N-methyl-2-pyrrolidone + water; phases: Liquid
Fixed: Pressure, kPa = 101
Property: Mass density, kg/m3 (Liquid); method: Vibrating tube method
Temperature, K	Mole fraction of N-methyl-2-pyrrolidone	Mass density, kg/m3	uncertainty
293.15	0	998.26	.17
293.15	.1	1030.11	.17
293.15	.2	1047.15	.17
293.15	.3001	1052.4	.17
293.15	.3994	1051.69	.17
293.15	.4997	1048.9	.17
293.15	.6001	1045.08	.17
293.15	.6997	1041.48	.17
293.15	.7982	1038.44	.17
293.15	.899	1035.42	.17
293.15	1	1032.87	.17
303.15	0	995.7	.17
303.15	.1	1023.58	.17
303.15	.2	1038.47	.17
303.15	.3001	1043.03	.17
303.15	.3994	1042.22	.17
303.15	.4997	1039.51	.17
303.15	.6001	1035.8	.17
303.15	.6997	1032.32	.17
303.15	.7982	1029.36	.17
303.15	.899	1026.41	.17
303.15	1	1023.95	.17
313.15	0	992.26	.17
313.15	.1	1016.67	.17
313.15	.2	1029.62	.17
313.15	.3001	1033.55	.17
313.15	.3994	1032.64	.17
313.15	.4997	1030.02	.17
313.15	.6001	1026.44	.17
313.15	.6997	1023.08	.17
313.15	.7982	1020.23	.17
313.15	.899	1017.37	.17
313.15	1	1015.03	.17
323.15	0	988.08	.17
323.15	.1	1009.4	.17
323.15	.2	1020.59	.17
323.15	.3001	1023.92	.17
323.15	.3994	1022.94	.17
323.15	.4997	1020.43	.17
323.15	.6001	1016.99	.17
323.15	.6997	1013.78	.17
323.15	.7982	1011.06	.17
323.15	.899	1008.3	.17
323.15	1	1006.1	.17

System: N-methyl-2-pyrrolidone + water; phases: Liquid
Fixed: Pressure, kPa = 101
Property: Speed of sound, m/s (Liquid); method: Pulse-echo method
Temperature, K	Mole fraction of N-methyl-2-pyrrolidone	Speed of sound, m/s	uncertainty
293.15	0	1482.7	.22
293.15	.1	1713.9	.22
293.15	.2	1766.5	.22
293.15	.3001	1751.6	.22
293.15	.3994	1718.4	.22
293.15	.4997	1683.7	.22
293.15	.6001	1651.6	.22
293.15	.6997	1623.8	.22
293.15	.7982	1601.2	.22
293.15	.899	1581	.22
293.15	1	1565.3	.22
303.15	0	1509.4	.22
303.15	.1	1694.6	.22
303.15	.2	1732	.22
303.15	.3001	1713	.22
303.15	.3994	1679.1	.22
303.15	.4997	1644.5	.22
303.15	.6001	1612.7	.22
303.15	.6997	1585.3	.22
303.15	.7982	1562.6	.22
303.15	.899	1542.6	.22
303.15	1	1526.5	.22
313.15	0	1529.1	.22
313.15	.1	1674	.22
313.15	.2	1697	.22
313.15	.3001	1674.3	.22
313.15	.3994	1639.3	.22
313.15	.4997	1604.6	.22
313.15	.6001	1573.2	.22
313.15	.6997	1546.8	.22
313.15	.7982	1523.9	.22
313.15	.899	1504.1	.22
313.15	1	1487.8	.22
323.15	0	1541.7	.22
323.15	.1	1651.4	.22
323.15	.2	1661.6	.22
323.15	.3001	1634.9	.22
323.15	.3994	1599.4	.22
323.15	.4997	1565.5	.22
323.15	.6001	1534.1	.22
323.15	.6997	1507.6	.22
323.15	.7982	1485.4	.22
323.15	.899	1466	.22
323.15	1	1450.2	.22

System: N-methyl-2-pyrrolidone + water; phases: Liquid
Fixed: Pressure, kPa = 101
Property: Viscosity, Pa*s (Liquid); method: Capillary tube (Ostwald; Ubbelohde) method
Temperature, K	Mole fraction of N-methyl-2-pyrrolidone	Viscosity, Pa*s	uncertainty
293.15	0	.0009933	
293.15	.1	.0033316	
293.15	.2	.0059028	
293.15	.3001	.0067739	
293.15	.3994	.0057235	
293.15	.4997	.0044694	
293.15	.6001	.0035661	
293.15	.6997	.0028653	
293.15	.7982	.0023939	
293.15	.899	.0020405	
293.15	1	.0018581	
303.15	0	.0007974	
303.15	.1	.0023716	
303.15	.2	.0039576	
303.15	.3001	.0043653	
303.15	.3994	.0039588	
303.15	.4997	.0033178	
303.15	.6001	.0027103	
303.15	.6997	.0022788	
303.15	.7982	.0019695	
303.15	.899	.0017052	
303.15	1	.0015531	
313.15	0	.0006535	
313.15	.1	.0017495	
313.15	.2	.0027487	
313.15	.3001	.0030101	
313.15	.3994	.0028898	
313.15	.4997	.0025101	
313.15	.6001	.0021532	
313.15	.6997	.0018342	
313.15	.7982	.0016409	
313.15	.899	.00146	
313.15	1	.0013239	
323.15	0	.0005465	
323.15	.1	.0013481	
323.15	.2	.0020649	
323.15	.3001	.0022147	
323.15	.3994	.0021611	
323.15	.4997	.0019589	
323.15	.6001	.0017065	
323.15	.6997	.0014853	
323.15	.7982	.0013611	
323.15	.899	.0012425	
323.15	1	.0011461	

System: N-methyl-2-pyrrolidone + water; phases: Liquid
Fixed: Pressure, kPa = 101
Property: Refractive index (Na D-line) (Liquid); method: Standard Abbe refractometry
Temperature, K	Mole fraction of N-methyl-2-pyrrolidone	Refractive index (Na D-line)	uncertainty
293.15	0	1.333	.000067
293.15	.1	1.3907	.000067
293.15	.2	1.4221	.000067
293.15	.3001	1.4402	.000067
293.15	.3994	1.4507	.000067
293.15	.4997	1.4573	.000067
293.15	.6001	1.4618	.000067
293.15	.6997	1.4648	.000067
293.15	.7982	1.4673	.000067
293.15	.899	1.469	.000067
293.15	1	1.4706	.000067
303.15	0	1.3319	.000067
303.15	.1	1.3882	.000067
303.15	.2	1.4187	.000067
303.15	.3001	1.4363	.000067
303.15	.3994	1.4467	.000067
303.15	.4997	1.4533	.000067
303.15	.6001	1.4576	.000067
303.15	.6997	1.4608	.000067
303.15	.7982	1.4628	.000067
303.15	.899	1.4649	.000067
303.15	1	1.4664	.000067
313.15	0	1.3306	.000067
313.15	.1	1.3863	.000067
313.15	.2	1.4165	.000067
313.15	.3001	1.4331	.000067
313.15	.3994	1.4425	.000067
313.15	.4997	1.4492	.000067
313.15	.6001	1.4534	.000067
313.15	.6997	1.4565	.000067
313.15	.7982	1.4584	.000067
313.15	.899	1.4604	.000067
313.15	1	1.4621	.000067
323.15	0	1.329	.000067
323.15	.1	1.384	.000067
323.15	.2	1.4114	.000067
323.15	.3001	1.4283	.000067
323.15	.3994	1.4387	.000067
323.15	.4997	1.445	.000067
323.15	.6001	1.4495	.000067
323.15	.6997	1.4524	.000067
323.15	.7982	1.4546	.000067
323.15	.899	1.4564	.000067
323.15	1	1.4576	.000067

System: ethanol + N-methyl-2-pyrrolidone; phases: Liquid
Fixed: Pressure, kPa = 101
Property: Mass density, kg/m3 (Liquid); method: Vibrating tube method
Temperature, K	Mole fraction of N-methyl-2-pyrrolidone	Mass density, kg/m3	uncertainty
293.15	0	789.54	.17
293.15	.0992	829.76	.17
293.15	.1985	864.84	.17
293.15	.2973	894.36	.17
293.15	.3963	920.89	.17
293.15	.4948	944.41	.17
293.15	.5932	965	.17
293.15	.6912	983.96	.17
293.15	.7897	1000.86	.17
293.15	.8875	1016.79	.17
293.15	1	1032.87	.17
303.15	0	780.94	.17
303.15	.0992	820.98	.17
303.15	.1985	855.96	.17
303.15	.2973	885.42	.17
303.15	.3963	911.91	.17
303.15	.4948	935.43	.17
303.15	.5932	955.97	.17
303.15	.6912	974.94	.17
303.15	.7897	991.85	.17
303.15	.8875	1007.8	.17
303.15	1	1023.95	.17
313.15	0	772.2	.17
313.15	.0992	812.09	.17
313.15	.1985	846.98	.17
313.15	.2973	876.39	.17
313.15	.3963	902.87	.17
313.15	.4948	926.39	.17
313.15	.5932	946.9	.17
313.15	.6912	965.89	.17
313.15	.7897	982.82	.17
313.15	.8875	998.8	.17
313.15	1	1015.03	.17
323.15	0	763.29	.17
323.15	.0992	803.05	.17
323.15	.1985	837.87	.17
323.15	.2973	867.27	.17
323.15	.3963	893.76	.17
323.15	.4948	917.3	.17
323.15	.5932	937.79	.17
323.15	.6912	956.8	.17
323.15	.7897	973.77	.17
323.15	.8875	989.78	.17
323.15	1	1006.1	.17

System: ethanol + N-methyl-2-pyrrolidone; phases: Liquid
Fixed: Pressure, kPa = 101
Property: Speed of sound, m/s (Liquid); method: Pulse-echo method
Temperature, K	Mole fraction of N-methyl-2-pyrrolidone	Speed of sound, m/s	uncertainty
293.15	0	1162.3	.22
293.15	.0992	1226.1	.22
293.15	.1985	1284.2	.22
293.15	.2973	1331.7	.22
293.15	.3963	1375.7	.22
293.15	.4948	1414.8	.22
293.15	.5932	1448.9	.22
293.15	.6912	1480.7	.22
293.15	.7897	1509.4	.22
293.15	.8875	1537	.22
293.15	1	1565.3	.22
303.15	0	1128.9	.22
303.15	.0992	1191.3	.22
303.15	.1985	1248.9	.22
303.15	.2973	1295.9	.22
303.15	.3963	1338.9	.22
303.15	.4948	1377.6	.22
303.15	.5932	1411.4	.22
303.15	.6912	1442.9	.22
303.15	.7897	1471.4	.22
303.15	.8875	1498.5	.22
303.15	1	1526.5	.22
313.15	0	1095.4	.22
313.15	.0992	1157	.22
313.15	.1985	1214.7	.22
313.15	.2973	1260.3	.22
313.15	.3963	1302.5	.22
313.15	.4948	1341	.22
313.15	.5932	1374.2	.22
313.15	.6912	1405.3	.22
313.15	.7897	1433.5	.22
313.15	.8875	1460.3	.22
313.15	1	1487.8	.22
323.15	0	1071.9	.22
323.15	.0992	1122.7	.22
323.15	.1985	1179.6	.22
323.15	.2973	1224.9	.22
323.15	.3963	1266.6	.22
323.15	.4948	1304.6	.22
323.15	.5932	1337.3	.22
323.15	.6912	1368.3	.22
323.15	.7897	1396.1	.22
323.15	.8875	1422.8	.22
323.15	1	1450.2	.22

System: ethanol + N-methyl-2-pyrrolidone; phases: Liquid
Fixed: Pressure, kPa = 101
Property: Viscosity, Pa*s (Liquid); method: Capillary tube (Ostwald; Ubbelohde) method
Temperature, K	Mole fraction of N-methyl-2-pyrrolidone	Viscosity, Pa*s	uncertainty
293.15	0	.001116	
293.15	.0992	.001139	
293.15	.1985	.001173	
293.15	.2973	.001218	
293.15	.3963	.001275	
293.15	.4948	.001354	
293.15	.5932	.0014361	
293.15	.6912	.001524	
293.15	.7897	.001626	
293.15	.8875	.0017264	
293.15	1	.0018581	
303.15	0	.0009502	
303.15	.0992	.0009625	
303.15	.1985	.000986	
303.15	.2973	.0010333	
303.15	.3963	.0010901	
303.15	.4948	.00115	
303.15	.5932	.0012205	
303.15	.6912	.001292	
303.15	.7897	.001371	
303.15	.8875	.00145	
303.15	1	.0015531	
313.15	0	.0007899	
313.15	.0992	.000803	
313.15	.1985	.0008276	
313.15	.2973	.000867	
313.15	.3963	.0009234	
313.15	.4948	.00098	
313.15	.5932	.0010394	
313.15	.6912	.0011094	
313.15	.7897	.001173	
313.15	.8875	.0012373	
313.15	1	.0013239	
323.15	0	.0006304	
323.15	.0992	.000657	
323.15	.1985	.000691	
323.15	.2973	.000731	
323.15	.3963	.000782	
323.15	.4948	.000833	
323.15	.5932	.000895	
323.15	.6912	.000952	
323.15	.7897	.0010107	
323.15	.8875	.001071	
323.15	1	.0011461	

System: ethanol + N-methyl-2-pyrrolidone; phases: Liquid
Fixed: Pressure, kPa = 101
Property: Refractive index (Na D-line) (Liquid); method: Standard Abbe refractometry
Temperature, K	Mole fraction of N-methyl-2-pyrrolidone	Refractive index (Na D-line)	uncertainty
293.15	0	1.3616	.000067
293.15	.0992	1.3797	.000067
293.15	.1985	1.3953	.000067
293.15	.2973	1.4089	.000067
293.15	.3963	1.4209	.000067
293.15	.4948	1.4313	.000067
293.15	.5932	1.4406	.000067
293.15	.6912	1.449	.000067
293.15	.7897	1.4563	.000067
293.15	.8875	1.4633	.000067
293.15	1	1.4706	.000067
303.15	0	1.3574	.000067
303.15	.0992	1.376	.000067
303.15	.1985	1.3916	.000067
303.15	.2973	1.4051	.000067
303.15	.3963	1.4168	.000067
303.15	.4948	1.4273	.000067
303.15	.5932	1.4366	.000067
303.15	.6912	1.4449	.000067
303.15	.7897	1.4523	.000067
303.15	.8875	1.4593	.000067
303.15	1	1.4664	.000067
313.15	0	1.3532	.000067
313.15	.0992	1.3717	.000067
313.15	.1985	1.3872	.000067
313.15	.2973	1.4011	.000067
313.15	.3963	1.4127	.000067
313.15	.4948	1.4234	.000067
313.15	.5932	1.4329	.000067
313.15	.6912	1.4411	.000067
313.15	.7897	1.4484	.000067
313.15	.8875	1.4552	.000067
313.15	1	1.4621	.000067
323.15	0	1.3493	.000067
323.15	.0992	1.3677	.000067
323.15	.1985	1.3837	.000067
323.15	.2973	1.3974	.000067
323.15	.3963	1.4089	.000067
323.15	.4948	1.4195	.000067
323.15	.5932	1.4289	.000067
323.15	.6912	1.4372	.000067
323.15	.7897	1.4443	.000067
323.15	.8875	1.4512	.000067
323.15	1	1.4576	.000067

System: 2-aminoethanol + N-methyl-2-pyrrolidone; phases: Liquid
Fixed: Pressure, kPa = 101
Property: Mass density, kg/m3 (Liquid); method: Vibrating tube method
Temperature, K	Mole fraction of N-methyl-2-pyrrolidone	Mass density, kg/m3	uncertainty
293.15	0	1016.65	.17
293.15	.1	1017.8	.17
293.15	.209	1019.27	.17
293.15	.3	1020.59	.17
293.15	.4	1022.06	.17
293.15	.5	1023.46	.17
293.15	.596	1024.91	.17
293.15	.7	1026.57	.17
293.15	.8	1028.4	.17
293.15	.907	1030.5	.17
293.15	1	1032.87	.17
303.15	0	1008.74	.17
303.15	.1	1009.8	.17
303.15	.209	1011	.17
303.15	.3	1012.1	.17
303.15	.4	1013.5	.17
303.15	.5	1014.9	.17
303.15	.596	1016.3	.17
303.15	.7	1018	.17
303.15	.8	1019.7	.17
303.15	.907	1021.72	.17
303.15	1	1023.95	.17
313.15	0	1000.77	.17
313.15	.1	1001.6	.17
313.15	.209	1002.38	.17
313.15	.3	1003.2	.17
313.15	.4	1004.2	.17
313.15	.5	1005.5	.17
313.15	.596	1006.9	.17
313.15	.7	1008.69	.17
313.15	.8	1010.68	.17
313.15	.907	1012.79	.17
313.15	1	1015.03	.17
323.15	0	992.75	.17
323.15	.1	993.31	.17
323.15	.209	994	.17
323.15	.3	994.64	.17
323.15	.4	995.6	.17
323.15	.5	996.7	.17
323.15	.596	998.14	.17
323.15	.7	999.74	.17
323.15	.8	1001.73	.17
323.15	.907	1003.86	.17
323.15	1	1006.1	.17

System: 2-aminoethanol + N-methyl-2-pyrrolidone; phases: Liquid
Fixed: Pressure, kPa = 101
Property: Speed of sound, m/s (Liquid); method: Pulse-echo method
Temperature, K	Mole fraction of N-methyl-2-pyrrolidone	Speed of sound, m/s	uncertainty
293.15	0	1735.9	.22
293.15	.1	1701.7	.22
293.15	.209	1673.2	.22
293.15	.3	1649.8	.22
293.15	.4	1630.1	.22
293.15	.5	1613.2	.22
293.15	.596	1599.1	.22
293.15	.7	1587.7	.22
293.15	.8	1578.6	.22
293.15	.907	1571.4	.22
293.15	1	1565.3	.22
303.15	0	1703.7	.22
303.15	.1	1668.1	.22
303.15	.209	1638.4	.22
303.15	.3	1613.8	.22
303.15	.4	1593.6	.22
303.15	.5	1576	.22
303.15	.596	1561.2	.22
303.15	.7	1549.8	.22
303.15	.8	1540.5	.22
303.15	.907	1532.7	.22
303.15	1	1526.5	.22
313.15	0	1671.2	.22
313.15	.1	1634.1	.22
313.15	.209	1603.1	.22
313.15	.3	1578.6	.22
313.15	.4	1557.3	.22
313.15	.5	1538.9	.22
313.15	.596	1523.9	.22
313.15	.7	1512.1	.22
313.15	.8	1502.6	.22
313.15	.907	1494.4	.22
313.15	1	1487.8	.22
323.15	0	1638.8	.22
323.15	.1	1600.2	.22
323.15	.209	1568.9	.22
323.15	.3	1544.4	.22
323.15	.4	1521.5	.22
323.15	.5	1502	.22
323.15	.596	1486.7	.22
323.15	.7	1474.5	.22
323.15	.8	1464.8	.22
323.15	.907	1456.8	.22
323.15	1	1450.2	.22

System: 2-aminoethanol + N-methyl-2-pyrrolidone; phases: Liquid
Fixed: Pressure, kPa = 101
Property: Viscosity, Pa*s (Liquid); method: Capillary tube (Ostwald; Ubbelohde) method
Temperature, K	Mole fraction of N-methyl-2-pyrrolidone	Viscosity, Pa*s	uncertainty
293.15	0	.024614	
293.15	.1	.017432	
293.15	.209	.011992	
293.15	.3	.008496	
293.15	.4	.006211	
293.15	.5	.004761	
293.15	.596	.003622	
293.15	.7	.002883	
293.15	.8	.002401	
293.15	.907	.002089	
293.15	1	.001858	
303.15	0	.014956	
303.15	.1	.010928	
303.15	.209	.007985	
303.15	.3	.005834	
303.15	.4	.004433	
303.15	.5	.003752	
303.15	.596	.002822	
303.15	.7	.002296	
303.15	.8	.00195	
303.15	.907	.001725	
303.15	1	.001553	
313.15	0	.009839	
313.15	.1	.007429	
313.15	.209	.005559	
313.15	.3	.004278	
313.15	.4	.003358	
313.15	.5	.002697	
313.15	.596	.002245	
313.15	.7	.001866	
313.15	.8	.00162	
313.15	.907	.001462	
313.15	1	.001324	
323.15	0	.006902	
323.15	.1	.005386	
323.15	.209	.004159	
323.15	.3	.003289	
323.15	.4	.002625	
323.15	.5	.002173	
323.15	.596	.001883	
323.15	.7	.001574	
323.15	.8	.001356	
323.15	.907	.00124	
323.15	1	.001146	

System: 2-aminoethanol + N-methyl-2-pyrrolidone; phases: Liquid
Fixed: Pressure, kPa = 101
Property: Refractive index (Na D-line) (Liquid); method: Standard Abbe refractometry
Temperature, K	Mole fraction of N-methyl-2-pyrrolidone	Refractive index (Na D-line)	uncertainty
293.15	0	1.4525	.000067
293.15	.1	1.4546	.000067
293.15	.209	1.4567	.000067
293.15	.3	1.4587	.000067
293.15	.4	1.4604	.000067
293.15	.5	1.462	.000067
293.15	.596	1.4634	.000067
293.15	.7	1.4648	.000067
293.15	.8	1.4663	.000067
293.15	.907	1.4677	.000067
293.15	1	1.4691	.000067
303.15	0	1.4488	.000067
303.15	.1	1.4507	.000067
303.15	.209	1.4527	.000067
303.15	.3	1.4546	.000067
303.15	.4	1.4563	.000067
303.15	.5	1.4578	.000067
303.15	.596	1.4592	.000067
303.15	.7	1.4605	.000067
303.15	.8	1.4619	.000067
303.15	.907	1.4632	.000067
303.15	1	1.4647	.000067
313.15	0	1.4449	.000067
313.15	.1	1.4467	.000067
313.15	.209	1.4486	.000067
313.15	.3	1.4505	.000067
313.15	.4	1.452	.000067
313.15	.5	1.4534	.000067
313.15	.596	1.4548	.000067
313.15	.7	1.4561	.000067
313.15	.8	1.4575	.000067
313.15	.907	1.4588	.000067
313.15	1	1.4603	.000067
323.15	0	1.4417	.000067
323.15	.1	1.4434	.000067
323.15	.209	1.4451	.000067
323.15	.3	1.4466	.000067
323.15	.4	1.4479	.000067
323.15	.5	1.4493	.000067
323.15	.596	1.4506	.000067
323.15	.7	1.4519	.000067
323.15	.8	1.4533	.000067
323.15	.907	1.4545	.000067
323.15	1	1.4559	.000067
