Measured thermophysical data. Influence of the Temperature on the Liquid-Liquid-Solid Equilibria of the Ternary System Water + Ethanol + 1-Decanol
Source: J. Chem. Eng. Data, 2011, 10.1021/je100786a
Compound 1: ethanol, C2H6O, purity 99.8%
Compound 2: 1-decanol, C10H22O, purity 99%
Compound 3: water, H2O, purity 99.99%

System: ethanol + 1-decanol + water; phases: Liquid mixture 1, Liquid mixture 2
Fixed: Pressure, kPa = 101
Property: Mass fraction of 1-decanol (Liquid mixture 1); method: Chromatography
Temperature, K	Mass fraction of water	Mass fraction of 1-decanol	uncertainty
275.15	.0375	.901	.01802
275.15	.0508	.855	.0171
275.15	.0787	.681	.01362
275.15	.161	.489	.00978
275.15	.248	.348	.00696
275.15	.352	.195	.0039
275.15	.541	.0213	.000426
275.15	.565	.0102	.000204
288.15	.0364	.964	.01928
288.15	.0402	.891	.01782
288.15	.0593	.8	.016
288.15	.102	.651	.01302
288.15	.189	.46	.0092
288.15	.248	.341	.00682
288.15	.367	.201	.00402
288.15	.489	.0833	.001666
288.15	.556	.0267	.000534
298.15	.0347	.965	.0193
298.15	.0367	.892	.01784
298.15	.063	.786	.01572
298.15	.135	.542	.01084
298.15	.24	.347	.00694
298.15	.349	.232	.00464
298.15	.494	.0897	.001794
298.15	.558	.0361	.000722

System: ethanol + 1-decanol + water; phases: Liquid mixture 2, Crystal
Fixed: Pressure, kPa = 101
Property: Mass fraction of 1-decanol (Liquid mixture 2); method: Chromatography
Temperature, K	Mass fraction of ethanol	Mass fraction of 1-decanol	uncertainty
275.15	.0412	.959	.01918

System: ethanol + 1-decanol + water; phases: Liquid mixture 1, Crystal, Liquid mixture 2
Fixed: Pressure, kPa = 101
Property: Mass fraction of water (Liquid mixture 1); method: Chromatography
Temperature, K	Mass fraction of water	uncertainty
275.15	.943	.01886

System: ethanol + 1-decanol + water; phases: Liquid mixture 1, Crystal, Liquid mixture 2
Fixed: Pressure, kPa = 101
Property: Mass fraction of ethanol (Liquid mixture 1); method: Chromatography
Temperature, K	Mass fraction of ethanol	uncertainty
275.15	.0569	.001138

System: ethanol + 1-decanol + water; phases: Liquid mixture 2, Crystal, Liquid mixture 1
Fixed: Pressure, kPa = 101
Property: Mass fraction of ethanol (Liquid mixture 2); method: Chromatography
Temperature, K	Mass fraction of ethanol	uncertainty
275.15	.0107	.000214

System: ethanol + 1-decanol + water; phases: Liquid mixture 2, Crystal, Liquid mixture 1
Fixed: Pressure, kPa = 101
Property: Mass fraction of water (Liquid mixture 2); method: Chromatography
Temperature, K	Mass fraction of water	uncertainty
275.15	.0442	.000884

System: ethanol + 1-decanol + water; phases: Liquid mixture 1, Liquid mixture 2
Fixed: Pressure, kPa = 101
Property: Mass fraction of water (Liquid mixture 1); method: Chromatography
Property: Mass fraction of ethanol (Liquid mixture 2); method: Chromatography
Property: Mass fraction of water (Liquid mixture 2); method: Chromatography
Temperature, K	Mass fraction of ethanol	Mass fraction of water	uncertainty	Mass fraction of ethanol	uncertainty	Mass fraction of water	uncertainty
2	.414	.579	.01158	.395	.0079	.223	.00446
2	.332	.668	.01336	.276	.00552	.111	.00222
2	.247	.751	.01502	.151	.00302	.0628	.001256
2	.143	.855	.0171	.0554	.001108	.0502	.001004
25	.401	.556	.01112	.394	.00788	.252	.00504
25	.375	.621	.01242	.336	.00672	.19	.0038
25	.329	.67	.0134	.275	.0055	.122	.00244
25	.235	.765	.0153	.169	.00338	.0746	.001492
25	.126	.874	.01748	.0752	.001504	.0504	.001008
25	0	1	.02	0	0	.0268	.000536
15	.409	.578	.01156	.393	.00786	.228	.00456
15	.339	.661	.01322	.266	.00532	.108	.00216
15	.252	.749	.01498	.154	.00308	.0647	.001294
15	.143	.858	.01716	.0593	.001186	.0426	.000852
15	0	1	.02	0	0	.0334	.000668

System: 1-decanol + water; phases: Liquid mixture 2, Liquid mixture 1
Property: Mass fraction of water (Liquid mixture 2); method: Chromatography
Temperature, K	Pressure, kPa	Mass fraction of water	uncertainty
298.15	101	.0268	.000536
288.15	101	.0334	.000668
