Measured thermophysical data. Solubility of Corosolic Acid in Supercritical Carbon Dioxide and Its Representation Using Density-Based Correlations
Source: J. Chem. Eng. Data, 2011, 10.1021/je101228k
Compound 1: carbon dioxide, CO2, purity 99%
Compound 2: corosolic acid, C30H48O4, purity 96%
Compound 3: 2,6,10,15,19,23-hexamethyl-2,6,10,14,18,22-tetracosahexaene, C30H50, purity 97%

System: carbon dioxide + corosolic acid; phases: Fluid (supercritical or subcritical phases), Crystal
Property: Mole fraction of corosolic acid (Fluid (supercritical or subcritical phases)); method: Gas volume and solute mass
Temperature, K	Pressure, kPa	Mole fraction of corosolic acid	uncertainty
308.15	8000	.000000636	.00000001272
308.15	10000	.00186	.0000372
308.15	12000	.0206	.000412
308.15	15000	.0342	.000684
308.15	16000	.0371	.000742
308.15	18000	.0417	.000834
308.15	20000	.0454	.000908
308.15	25000	.0485	.00097
308.15	28000	.0492	.000984
308.15	30000	.0495	.00099
313.15	8000	.00000179	.0000000358
313.15	10000	.000113	.00000226
313.15	12000	.0108	.000216
313.15	15000	.03	.0006
313.15	16000	.0347	.000694
313.15	18000	.0407	.000814
313.15	20000	.0456	.000912
313.15	25000	.0524	.001048
313.15	28000	.0541	.001082
313.15	30000	.0548	.001096
323.15	8000	.000000000418	.00000000000836
323.15	10000	.000000937	.00000001874
323.15	12000	.00191	.0000382
323.15	15000	.0122	.000244
323.15	16000	.0198	.000396
323.15	18000	.0347	.000694
323.15	20000	.0454	.000908
323.15	25000	.0591	.001182
323.15	28000	.0631	.001262
323.15	30000	.0651	.001302
333.15	8000	.0000000000328	.000000000000656
333.15	10000	.00000000758	.0000000001516
333.15	12000	.00000564	.0000001128
333.15	15000	.00169	.0000338
333.15	16000	.00408	.0000816
333.15	18000	.0154	.000308
333.15	20000	.0455	.00091
333.15	25000	.063	.00126
333.15	28000	.071	.00142
333.15	30000	.0743	.001486

System: carbon dioxide + 2,6,10,15,19,23-hexamethyl-2,6,10,14,18,22-tetracosahexaene; phases: Fluid (supercritical or subcritical phases), Crystal
Property: Mass fraction of 2,6,10,15,19,23-hexamethyl-2,6,10,14,18,22-tetracosahexaene (Fluid (supercritical or subcritical phases)); method: Gas volume and solute mass
Temperature, K	Pressure, kPa	Mass fraction of 2,6,10,15,19,23-hexamethyl-2,6,10,14,18,22-tetracosahexaene	uncertainty
323.15	10000	.00026	.0000052
323.15	12000	.00442	.0000884
323.15	15000	.01065	.000213
323.15	18000	.01891	.0003782
323.15	20000	.02379	.0004758
333.15	15000	.00312	.0000624
333.15	18000	.0126	.000252
333.15	20000	.01901	.0003802
333.15	25000	.03473	.0006946
