Measured thermophysical data. Solubility of Anthracene and Phenanthrene in Ethanol + 2,2,4-Trimethylpentane Mixtures at Different Temperatures
Source: J. Chem. Eng. Data, 2011, 10.1021/je101272u
Compound 1: anthracene, C14H10, purity 96%
Compound 2: phenanthrene, C14H10, purity 98%
Compound 3: pentane, 2,2,4-trimethyl-, C8H18, purity 99%
Compound 4: ethanol, C2H6O, purity 99%

System: ethanol + anthracene + pentane, 2,2,4-trimethyl-; phases: Liquid, Crystal
Fixed: Pressure, kPa = 101
Property: Mole fraction of anthracene (Liquid); method: SPECTRA
Solvent: Mole fraction of ethanol	Temperature, K	Mole fraction of anthracene	uncertainty
0	298.2	.001187	.000032049
.239	298.2	.001277	.000034479
.414	298.2	.001143	.000030861
.548	298.2	.001041	.000028107
.653	298.2	.00095	.00002565
.739	298.2	.000885	.000023895
.809	298.2	.000821	.000022167
.868	298.2	.000742	.000020034
.919	298.2	.000673	.000018171
.962	298.2	.000608	.000016416
1	298.2	.000505	.000013635
0	308.2	.001515	.000040905
.242	308.2	.00161	.00004347
.418	308.2	.001466	.000039582
.552	308.2	.001359	.000036693
.657	308.2	.001244	.000033588
.742	308.2	.00116	.00003132
.812	308.2	.001059	.000028593
.87	308.2	.000959	.000025893
.92	308.2	.000862	.000023274
.963	308.2	.000777	.000020979
1	308.2	.000665	.000017955
0	318.2	.001768	.000047736
.24	318.2	.001898	.000051246
.415	318.2	.001705	.000046035
.549	318.2	.001548	.000041796
.654	318.2	.001404	.000037908
.739	318.2	.001295	.000034965
.81	318.2	.001214	.000032778
.869	318.2	.001087	.000029349
.919	318.2	.000979	.000026433
.962	318.2	.000884	.000023868
1	318.2	.00078	.00002106

System: ethanol + anthracene + pentane, 2,2,4-trimethyl-; phases: Liquid, Crystal
Fixed: Pressure, kPa = 101.3
Property: Mass density, kg/m3 (Liquid); method: Pycnometric method
Solvent: Mole fraction of ethanol	Temperature, K	Mass density, kg/m3	uncertainty
0	298.2	684	3.42
.239	298.2	691	3.455
.414	298.2	701	3.505
.548	298.2	710	3.55
.653	298.2	720	3.6
.739	298.2	730	3.65
.809	298.2	742	3.71
.868	298.2	751	3.755
.919	298.2	761	3.805
.962	298.2	769	3.845
1	298.2	776	3.88
0	308.2	679	3.395
.242	308.2	687	3.435
.418	308.2	697	3.485
.552	308.2	706	3.53
.657	308.2	716	3.58
.742	308.2	726	3.63
.812	308.2	736	3.68
.87	308.2	746	3.73
.92	308.2	755	3.775
.963	308.2	765	3.825
1	308.2	777	3.885
0	318.2	679	3.395
.24	318.2	687	3.435
.415	318.2	697	3.485
.549	318.2	706	3.53
.654	318.2	716	3.58
.739	318.2	726	3.63
.81	318.2	736	3.68
.869	318.2	746	3.73
.919	318.2	755	3.775
.962	318.2	767	3.835
1	318.2	775	3.875

System: ethanol + phenanthrene + pentane, 2,2,4-trimethyl-; phases: Liquid, Crystal
Fixed: Pressure, kPa = 101
Property: Mole fraction of phenanthrene (Liquid); method: SPECTRA
Solvent: Mole fraction of ethanol	Temperature, K	Mole fraction of phenanthrene	uncertainty
0	298.2	.0246	.0006642
.239	298.2	.0272	.0007344
.414	298.2	.0266	.0007182
.548	298.2	.0239	.0006453
.653	298.2	.022	.000594
.739	298.2	.0213	.0005751
.809	298.2	.0196	.0005292
.868	298.2	.0171	.0004617
.919	298.2	.0149	.0004023
.962	298.2	.0134	.0003618
1	298.2	.0119	.0003213
0	308.2	.0378	.0010206
.242	308.2	.0385	.0010395
.418	308.2	.0388	.0010476
.552	308.2	.0347	.0009369
.657	308.2	.032	.000864
.742	308.2	.0298	.0008046
.812	308.2	.0273	.0007371
.87	308.2	.0234	.0006318
.92	308.2	.0212	.0005724
.963	308.2	.0181	.0004887
1	308.2	.0159	.0004293
0	318.2	.0484	.0013068
.24	318.2	.051	.001377
.415	318.2	.0473	.0012771
.549	318.2	.0421	.0011367
.654	318.2	.0384	.0010368
.739	318.2	.0358	.0009666
.81	318.2	.0322	.0008694
.869	318.2	.0282	.0007614
.919	318.2	.0254	.0006858
.962	318.2	.0227	.0006129
1	318.2	.019	.000513

System: ethanol + phenanthrene + pentane, 2,2,4-trimethyl-; phases: Liquid, Crystal
Fixed: Pressure, kPa = 101.3
Property: Mass density, kg/m3 (Liquid); method: Pycnometric method
Solvent: Mole fraction of ethanol	Temperature, K	Mass density, kg/m3	uncertainty
0	298.2	693	
.239	298.2	705	
.414	298.2	718	
.548	298.2	726	
.653	298.2	738	
.739	298.2	746	
.809	298.2	757	
.868	298.2	767	
.919	298.2	777	
.962	298.2	787	
1	298.2	793	
0	308.2	706	
.242	308.2	726	
.418	308.2	736	
.552	308.2	748	
.657	308.2	756	
.742	308.2	766	
.812	308.2	776	
.87	308.2	786	
.92	308.2	796	
.963	308.2	806	
1	308.2	812	
0	318.2	720	
.24	318.2	734	
.415	318.2	744	
.549	318.2	758	
.654	318.2	768	
.739	318.2	778	
.81	318.2	792	
.869	318.2	796	
.919	318.2	812	
.962	318.2	814	
1	318.2	816	
