Measured thermophysical data. The (p, n, T) Properties and Apparent Molar Volumes V of LiBr + C2H5OH
Source: J. Chem. Eng. Data, 2010, 10.1021/je1003065
Compound 1: lithium bromide, BrLi, purity 99.8%
Compound 2: ethanol, C2H6O, purity 99.8%

System: ethanol + lithium bromide; phases: Liquid
Property: Mass density, kg/m3 (Liquid); method: Vibrating tube method
Molality, mol/kg of lithium bromide	Pressure, kPa	Temperature, K	Mass density, kg/m3	uncertainty
.23351	1023	273.15	821.76	.82176
.23351	5012	273.14	824.8	.8248
.23351	10002	273.15	828.53	.82853
.23351	20031	273.15	835.19	.83519
.23351	30024	273.13	841.53	.84153
.23351	39945	273.15	847.51	.84751
.23351	49923	273.15	853.22	.85322
.23351	59985	273.16	858.67	.85867
.23351	70003	273.15	863.78	.86378
.23351	80014	273.14	868.58	.86858
.23351	90023	273.15	873.07	.87307
.23351	99945	273.15	877.21	.87721
.23351	1003	293.15	805.64	.80564
.23351	5014	293.14	809.13	.80913
.23351	10003	293.15	812.89	.81289
.23351	20003	293.15	820.16	.82016
.23351	30014	293.13	827.08	.82708
.23351	39956	293.15	833.59	.83359
.23351	49985	293.14	839.79	.83979
.23351	59924	293.15	845.57	.84557
.23351	69784	293.16	850.96	.85096
.23351	79926	293.15	856.13	.85613
.23351	89954	293.15	860.88	.86088
.23351	99986	293.15	865.27	.86527
.23351	1204	298.15	801.78	.80178
.23351	5002	298.15	805.08	.80508
.23351	10064	298.15	808.99	.80899
.23351	20004	298.14	816.39	.81639
.23351	29124	298.15	822.86	.82286
.23351	39784	298.16	830.01	.83001
.23351	49956	298.15	836.44	.83644
.23351	59942	298.17	842.36	.84236
.23351	69784	298.15	847.83	.84783
.23351	79924	298.14	853.09	.85309
.23351	89921	298.15	857.88	.85788
.23351	99468	298.15	862.11	.86211
.23351	2012	313.15	789.9	.7899
.23351	5028	313.15	792.77	.79277
.23351	10023	313.16	796.94	.79694
.23351	19956	313.14	804.92	.80492
.23351	29924	313.15	812.49	.81249
.23351	40032	313.16	819.73	.81973
.23351	50014	313.14	826.45	.82645
.23351	60002	313.15	832.74	.83274
.23351	70035	313.16	838.62	.83862
.23351	80042	313.15	844.05	.84405
.23351	89924	313.15	848.99	.84899
.23351	99985	313.15	853.58	.85358
.23351	2012	323.15	781.53	.78153
.23351	5012	323.13	784.23	.78423
.23351	10001	323.14	788.63	.78863
.23351	20023	323.15	797.12	.79712
.23351	29921	323.16	805.03	.80503
.23351	39926	323.15	812.55	.81255
.23351	49912	323.14	819.58	.81958
.23351	59926	323.15	825.76	.82576
.23351	70004	323.16	831.8	.8318
.23351	79924	323.15	837.48	.83748
.23351	89956	323.15	843.04	.84304
.23351	99965	323.15	847.91	.84791
.23351	1023	333.14	771.66	.77166
.23351	5021	333.16	775.49	.77549
.23351	10026	333.15	780.15	.78015
.23351	19985	333.14	789.05	.78905
.23351	29945	333.16	797.44	.79744
.23351	39784	333.17	805.21	.80521
.23351	50021	333.15	812.76	.81276
.23351	60012	333.15	819.01	.81901
.23351	69985	333.15	825.32	.82532
.23351	79924	333.13	831.2	.8312
.23351	89965	333.15	837.01	.83701
.23351	99958	333.15	842.17	.84217
.23351	1024	348.15	757.55	.75755
.23351	5002	348.15	761.71	.76171
.23351	10032	348.14	766.83	.76683
.23351	19985	348.15	776.82	.77682
.23351	29954	348.13	785.62	.78562
.23351	39947	348.15	794.15	.79415
.23351	49923	348.16	802.07	.80207
.23351	59947	348.15	809.42	.80942
.23351	69845	348.17	816.09	.81609
.23351	80004	348.15	822.02	.82202
.23351	89926	348.15	827.8	.8278
.23351	99957	348.15	833.35	.83335
.23351	1023	353.15	752.56	.75256
.23351	5002	353.15	756.87	.75687
.23351	10021	353.15	762.65	.76265
.23351	19985	353.14	772.17	.77217
.23351	29974	353.15	781.57	.78157
.23351	39986	353.15	790.37	.79037
.23351	50031	353.16	798.55	.79855
.23351	60014	353.15	805.45	.80545
.23351	70025	353.17	812.93	.81293
.23351	80004	353.15	818.76	.81876
.23351	89945	353.13	824.73	.82473
.23351	99987	353.15	829.93	.82993
.23351	1235	373.15	732.64	.73264
.23351	5004	373.15	737.23	.73723
.23351	10024	373.14	743.18	.74318
.23351	19985	373.15	754.93	.75493
.23351	29954	373.16	764.93	.76493
.23351	40001	373.15	774.75	.77475
.23351	50023	373.17	783.79	.78379
.23351	59987	373.15	791.31	.79131
.23351	69957	373.13	799.09	.79909
.23351	80004	373.14	806.27	.80627
.23351	89956	373.15	812.23	.81223
.23351	99874	373.15	817.91	.81791
.23351	2451	398.15	705.58	.70558
.23351	5024	398.15	709.8	.7098
.23351	10023	398.15	717.61	.71761
.23351	19974	398.16	731.71	.73171
.23351	29928	398.14	744.1	.7441
.23351	39941	398.15	754.26	.75426
.23351	49931	398.15	764.05	.76405
.23351	59978	398.17	773.47	.77347
.23351	69953	398.15	781.36	.78136
.23351	80014	398.16	788.79	.78879
.23351	89921	398.15	795.82	.79582
.23351	99624	398.15	802.67	.80267
.59717	1306	273.18	845.06	.84506
.59717	4686	273.18	847.38	.84738
.59717	9917	273.18	850.91	.85091
.59717	19964	273.17	857.46	.85746
.59717	29993	273.17	863.7	.8637
.59717	39918	273.17	869.58	.86958
.59717	49994	273.16	875.26	.87526
.59717	59884	273.16	880.54	.88054
.59717	69990	273.16	885.63	.88563
.59717	80091	273.17	890.43	.89043
.59717	89993	273.17	894.84	.89484
.59717	100098	273.18	899.04	.89904
.59717	1504	293.17	829.09	.82909
.59717	4938	293.17	831.68	.83168
.59717	10061	293.15	835.46	.83546
.59717	19905	293.16	842.47	.84247
.59717	29993	293.15	849.31	.84931
.59717	39912	293.15	855.69	.85569
.59717	49993	293.15	861.83	.86183
.59717	59817	293.14	867.48	.86748
.59717	69979	293.14	872.97	.87297
.59717	79675	293.14	877.88	.87788
.59717	89926	293.15	882.72	.88272
.59717	99971	293.16	887.12	.88712
.59717	1141	298.09	824.73	.82473
.59717	5221	298.15	827.89	.82789
.59717	9947	298.18	831.46	.83146
.59717	20192	298.16	838.95	.83895
.59717	29993	298.15	845.75	.84575
.59717	39830	298.15	852.23	.85223
.59717	49963	298.15	858.53	.85853
.59717	59998	298.13	864.41	.86441
.59717	69931	298.15	869.87	.86987
.59717	80151	298.15	875.11	.87511
.59717	89963	298.15	879.79	.87979
.59717	99874	298.15	884.17	.88417
.59717	1459	313.19	812.65	.81265
.59717	4759	313.09	815.39	.81539
.59717	9792	313.11	819.49	.81949
.59717	19554	313.13	827.15	.82715
.59717	29958	313.15	834.89	.83489
.59717	39844	313.15	841.83	.84183
.59717	49963	313.15	848.54	.84854
.59717	59831	313.15	854.67	.85467
.59717	69997	313.15	860.59	.86059
.59717	79828	313.15	865.9	.8659
.59717	89993	313.15	870.99	.87099
.59717	99841	313.15	875.52	.87552
.59717	1026	323.15	803.74	.80374
.59717	5021	323.15	807.24	.80724
.59717	10023	323.15	811.53	.81153
.59717	19945	323.16	819.71	.81971
.59717	29978	323.15	827.54	.82754
.59717	39926	323.17	834.87	.83487
.59717	50001	323.15	841.84	.84184
.59717	59974	323.18	848.31	.84831
.59717	69923	323.15	854.32	.85432
.59717	79954	323.13	859.95	.85995
.59717	90021	323.15	865.14	.86514
.59717	99745	323.15	869.74	.86974
.59717	2100	333.15	796.01	.79601
.59717	5223	333.15	798.91	.79891
.59717	10112	333.13	803.35	.80335
.59717	20295	333.16	812.23	.81223
.59717	29996	333.16	820.22	.82022
.59717	40191	333.17	828.11	.82811
.59717	49994	333.16	835.21	.83521
.59717	60159	333.15	841.68	.84168
.59717	69994	333.16	847.73	.84773
.59717	80063	333.16	854.04	.85404
.59717	89993	333.16	859.28	.85928
.59717	100035	333.16	864.08	.86408
.59717	1002	348.15	781.38	.78138
.59717	5412	348.15	785.83	.78583
.59717	10035	348.14	790.37	.79037
.59717	19902	348.16	799.98	.79998
.59717	29914	348.14	809.07	.80907
.59717	39945	348.15	816.93	.81693
.59717	50012	348.14	824.77	.82477
.59717	59956	348.15	831.96	.83196
.59717	70013	348.16	838.69	.83869
.59717	80021	348.15	844.82	.84482
.59717	89957	348.14	850.38	.85038
.59717	99985	348.15	855.43	.85543
.59717	2037	353.16	777.89	.77789
.59717	5143	353.13	781.1	.7811
.59717	10149	353.17	786.15	.78615
.59717	20259	353.14	796.52	.79652
.59717	29993	353.14	804.77	.80477
.59717	40152	353.15	813.43	.81343
.59717	49993	353.15	821.26	.82126
.59717	60225	353.15	828.81	.82881
.59717	69979	353.15	835.44	.83544
.59717	80139	353.15	841.77	.84177
.59717	89993	353.16	847.35	.84735
.59717	100098	353.18	852.48	.85248
.59717	2757	373.14	759.44	.75944
.59717	5125	373.16	762.2	.7622
.59717	10201	373.14	767.99	.76799
.59717	20555	373.13	780.15	.78015
.59717	29993	373.14	788.87	.78887
.59717	40172	373.16	798.56	.79856
.59717	49979	373.16	807.22	.80722
.59717	59801	373.17	815.22	.81522
.59717	69994	373.15	822.13	.82213
.59717	79738	373.14	829.02	.82902
.59717	89934	373.15	835.63	.83563
.59717	99866	373.15	840.98	.84098
.59717	2804	398.15	733.32	.73332
.59717	5071	398.17	736.75	.73675
.59717	9730	398.17	743.51	.74351
.59717	19941	398.16	757.12	.75712
.59717	29996	398.15	769.06	.76906
.59717	40001	398.14	779.67	.77967
.59717	49993	398.15	789.19	.78919
.59717	59907	398.17	797.77	.79777
.59717	69979	398.15	805.77	.80577
.59717	79787	398.15	813.07	.81307
.59717	89994	398.15	820.32	.82032
.59717	99863	398.14	827.19	.82719
.94988	1024	273.15	866.06	.86606
.94988	5021	273.15	868.77	.86877
.94988	10002	273.15	872.07	.87207
.94988	20031	273.15	878.51	.87851
.94988	30045	273.15	884.65	.88465
.94988	40015	273.15	890.49	.89049
.94988	50027	273.15	896.06	.89606
.94988	60029	273.15	901.35	.90135
.94988	70002	273.15	906.34	.90634
.94988	79954	273.15	911.03	.91103
.94988	89935	273.15	915.46	.91546
.94988	99986	273.15	919.63	.91963
.94988	1034	293.15	850.27	.85027
.94988	5029	293.15	853.2	.8532
.94988	10041	293.15	856.81	.85681
.94988	19924	293.15	863.69	.86369
.94988	29895	293.15	870.31	.87031
.94988	40003	293.15	876.7	.8767
.94988	50002	293.15	882.7	.8827
.94988	60032	293.15	888.39	.88839
.94988	70102	293.15	893.78	.89378
.94988	79956	293.15	898.74	.89874
.94988	89245	293.15	903.13	.90313
.94988	99965	293.15	907.85	.90785
.94988	1045	298.15	845.75	.84575
.94988	5004	298.15	848.93	.84893
.94988	10024	298.15	852.82	.85282
.94988	19956	298.15	860.13	.86013
.94988	29945	298.15	866.97	.86697
.94988	39784	298.15	873.28	.87328
.94988	50012	298.15	879.42	.87942
.94988	60024	298.15	885.07	.88507
.94988	69784	298.15	890.31	.89031
.94988	79215	298.15	895.14	.89514
.94988	89926	298.15	900.43	.90043
.94988	99975	298.15	905.24	.90524
.94988	1045	313.15	833.87	.83387
.94988	5003	313.15	837.08	.83708
.94988	9985	313.15	841.04	.84104
.94988	19924	313.15	848.66	.84866
.94988	29935	313.15	855.96	.85596
.94988	40021	313.15	862.92	.86292
.94988	50035	313.15	869.45	.86945
.94988	60047	313.15	875.6	.8756
.94988	69784	313.15	881.21	.88121
.94988	79935	313.15	886.68	.88668
.94988	89986	313.15	891.71	.89171
.94988	99954	313.15	896.31	.89631
.94988	1203	323.15	825.48	.82548
.94988	5451	323.15	829.11	.82911
.94988	10026	323.15	832.95	.83295
.94988	19957	323.15	840.97	.84097
.94988	29928	323.15	848.61	.84861
.94988	39784	323.15	855.75	.85575
.94988	49928	323.15	862.68	.86268
.94988	60024	323.15	869.15	.86915
.94988	69794	323.15	875	.875
.94988	79935	323.15	880.66	.88066
.94988	89925	323.15	885.81	.88581
.94988	99969	323.15	890.57	.89057
.94988	1305	333.15	816.8	.8168
.94988	5214	333.15	820.56	.82056
.94988	1267	333.15	816.76	.81676
.94988	19923	333.15	833.66	.83366
.94988	29942	333.15	841.73	.84173
.94988	40014	333.15	849.24	.84924
.94988	50078	333.15	856.2	.8562
.94988	59924	333.15	862.57	.86257
.94988	69794	333.15	868.58	.86858
.94988	79935	333.15	874.45	.87445
.94988	89984	333.15	880.02	.88002
.94988	99986	333.15	885.41	.88541
.94988	1304	348.15	803.97	.80397
.94988	5004	348.15	807.6	.8076
.94988	10064	348.15	812.44	.81244
.94988	19985	348.15	821.56	.82156
.94988	29942	348.15	830.19	.83019
.94988	39784	348.15	838.22	.83822
.94988	49927	348.15	845.97	.84597
.94988	60002	348.15	853.14	.85314
.94988	69784	348.15	859.6	.8596
.94988	79325	348.15	865.42	.86542
.94988	89935	348.15	871.34	.87134
.94988	99935	348.15	876.39	.87639
.94988	1405	353.15	799.45	.79945
.94988	5074	353.15	803.32	.80332
.94988	9985	353.15	808.32	.80832
.94988	19924	353.15	817.86	.81786
.94988	29784	353.15	826.6	.8266
.94988	39784	353.15	834.79	.83479
.94988	49925	353.15	842.49	.84249
.94988	59926	353.15	849.56	.84956
.94988	69845	353.15	856.11	.85611
.94988	79924	353.15	862.38	.86238
.94988	90021	353.15	868.33	.86833
.94988	99925	353.15	873.94	.87394
.94988	1026	373.15	780.35	.78035
.94988	5412	373.15	785.62	.78562
.94988	10068	373.15	790.99	.79099
.94988	19935	373.15	801.67	.80167
.94988	29974	373.15	811.66	.81166
.94988	39236	373.15	820.14	.82014
.94988	50023	373.15	829.23	.82923
.94988	59926	373.15	836.92	.83692
.94988	69895	373.15	844.11	.84411
.94988	79936	373.15	850.88	.85088
.94988	89945	373.15	857.23	.85723
.94988	99968	373.15	863.3	.8633
.94988	1425	398.15	756.04	.75604
.94988	5025	398.15	761.36	.76136
.94988	9986	398.15	768.11	.76811
.94988	19923	398.15	780.63	.78063
.94988	29784	398.15	791.83	.79183
.94988	39926	398.15	802.25	.80225
.94988	50024	398.15	811.67	.81167
.94988	59926	398.15	820.12	.82012
.94988	69784	398.15	827.92	.82792
.94988	79935	398.15	835.45	.83545
.94988	89936	398.15	842.54	.84254
.94988	99021	398.15	848.81	.84881
1.46165	2048	273.15	896.66	.89666
1.46165	5195	273.16	898.75	.89875
1.46165	9742	273.17	901.73	.90173
1.46165	20115	273.18	908.3	.9083
1.46165	29966	273.18	914.27	.91427
1.46165	39973	273.19	920.07	.92007
1.46165	49922	273.18	925.55	.92555
1.46165	60091	273.18	930.87	.93087
1.46165	69993	273.18	935.78	.93578
1.46165	80129	273.18	940.52	.94052
1.46165	89963	273.18	944.86	.94486
1.46165	99708	273.2	948.89	.94889
1.46165	1999	293.13	881.23	.88123
1.46165	5005	293.13	883.38	.88338
1.46165	9790	293.12	886.75	.88675
1.46165	19962	293.13	893.68	.89368
1.46165	29997	293.13	900.21	.90021
1.46165	40468	293.13	906.69	.90669
1.46165	49901	293.13	912.25	.91225
1.46165	60137	293.14	917.97	.91797
1.46165	69979	293.14	923.18	.92318
1.46165	79914	293.15	928.13	.92813
1.46165	89963	293.15	932.84	.93284
1.46165	99824	293.15	937.16	.93716
1.46165	1341	298.16	876.32	.87632
1.46165	5308	298.13	879.29	.87929
1.46165	9947	298.17	882.69	.88269
1.46165	20358	298.19	890.05	.89005
1.46165	29993	298.15	896.53	.89653
1.46165	39801	298.12	902.81	.90281
1.46165	49922	298.12	908.93	.90893
1.46165	60144	298.11	914.77	.91477
1.46165	69993	298.15	920.05	.92005
1.46165	80053	298.17	925.1	.9251
1.46165	89994	298.16	929.76	.92976
1.46165	99739	298.15	933.99	.93399
1.46165	2109	313.11	864.85	.86485
1.46165	5147	313.13	867.25	.86725
1.46165	9909	313.15	870.96	.87096
1.46165	19994	313.15	878.53	.87853
1.46165	29979	313.15	885.66	.88566
1.46165	39715	313.16	892.26	.89226
1.46165	49925	313.15	898.82	.89882
1.46165	59623	313.15	904.69	.90469
1.46165	69928	313.15	910.56	.91056
1.46165	79877	313.15	915.87	.91587
1.46165	89926	313.15	920.86	.92086
1.46165	99649	313.16	925.34	.92534
1.46165	1035	323.15	855.48	.85548
1.46165	5106	323.15	859.08	.85908
1.46165	10065	323.15	863.3	.8633
1.46165	20003	323.16	871.29	.87129
1.46165	29975	323.15	878.73	.87873
1.46165	39954	323.14	885.66	.88566
1.46165	49926	323.15	892.13	.89213
1.46165	59957	323.15	898.25	.89825
1.46165	70002	323.14	904.07	.90407
1.46165	79923	323.15	909.56	.90956
1.46165	89956	323.16	914.93	.91493
1.46165	99957	323.15	920.17	.92017
1.46165	2291	333.11	848.63	.84863
1.46165	5163	333.12	851.27	.85127
1.46165	9932	333.11	855.51	.85551
1.46165	20223	333.1	864.16	.86416
1.46165	29979	333.11	871.75	.87175
1.46165	39966	333.12	878.97	.87897
1.46165	49993	333.12	885.74	.88574
1.46165	59791	333.12	891.94	.89194
1.46165	69993	333.12	898.03	.89803
1.46165	79815	333.12	903.61	.90361
1.46165	89925	333.12	909.13	.90913
1.46165	100027	333.12	914.48	.91448
1.46165	2021	348.15	835.77	.83577
1.46165	5002	348.15	838.72	.83872
1.46165	10034	348.16	843.52	.84352
1.46165	20024	348.15	852.51	.85251
1.46165	30021	348.14	860.82	.86082
1.46165	40002	348.15	868.51	.86851
1.46165	50201	348.17	875.81	.87581
1.46165	59986	348.15	882.36	.88236
1.46165	69784	348.16	888.55	.88855
1.46165	79956	348.15	894.65	.89465
1.46165	89932	348.15	900.39	.90039
1.46165	99845	348.15	905.92	.90592
1.46165	1217	353.13	830.74	.83074
1.46165	5043	353.11	834.64	.83464
1.46165	9980	353.1	839.5	.8395
1.46165	19703	353.1	848.5	.8485
1.46165	29947	353.1	857.25	.85725
1.46165	39836	353.1	865.06	.86506
1.46165	49993	353.1	872.5	.8725
1.46165	60279	353.1	879.53	.87953
1.46165	69928	353.1	885.72	.88572
1.46165	80053	353.09	891.89	.89189
1.46165	89979	353.1	897.68	.89768
1.46165	99915	353.1	903.29	.90329
1.46165	2369	373.14	814.46	.81446
1.46165	5019	373.15	817.48	.81748
1.46165	9909	373.16	822.87	.82287
1.46165	20097	373.17	833.45	.83345
1.46165	29993	373.17	842.95	.84295
1.46165	40176	373.19	851.97	.85197
1.46165	49993	373.17	860.02	.86002
1.46165	59977	373.15	867.61	.86761
1.46165	69979	373.15	874.66	.87466
1.46165	79993	373.16	881.25	.88125
1.46165	89924	373.16	887.37	.88737
1.46165	99791	373.17	893.1	.8931
1.46165	2214	398.15	790.21	.79021
1.46165	5252	398.13	795.21	.79521
1.46165	10085	398.12	801.33	.80133
1.46165	19859	398.15	812.89	.81289
1.46165	29946	398.15	823.95	.82395
1.46165	39959	398.14	834.18	.83418
1.46165	49925	398.15	843.34	.84334
1.46165	60031	398.16	851.51	.85151
1.46165	69947	398.16	859.16	.85916
1.46165	80059	398.18	866.49	.86649
1.46165	89928	398.16	872.71	.87271
1.46165	99816	398.15	879.34	.87934
2.27186	1948	273.17	941.72	.94172
2.27186	4590	273.09	943.92	.94392
2.27186	10177	273.15	947.5	.9475
2.27186	20349	273.17	953.97	.95397
2.27186	29947	273.17	959.72	.95972
2.27186	40359	273.19	965.49	.96549
2.27186	49964	273.17	970.63	.97063
2.27186	59570	273.15	975.51	.97551
2.27186	69980	273.15	980.49	.98049
2.27186	79857	273.15	985.04	.98504
2.27186	89925	273.15	989.55	.98955
2.27186	100090	273.16	994.02	.99402
2.27186	1430	293.17	926.33	.92633
2.27186	4902	293.17	928.89	.92889
2.27186	10030	293.17	932.58	.93258
2.27186	19789	293.17	939.24	.93924
2.27186	29946	293.17	945.75	.94575
2.27186	40161	293.17	951.9	.9519
2.27186	49963	293.17	957.45	.95745
2.27186	60025	293.18	962.8	.9628
2.27186	69979	293.18	967.88	.96788
2.27186	79838	293.19	972.67	.97267
2.27186	89964	293.17	977.54	.97754
2.27186	99958	293.17	982.14	.98214
2.27186	2166	298.19	922.88	.92288
2.27186	5165	298.18	925.09	.92509
2.27186	9642	298.18	928.25	.92825
2.27186	20184	298.2	935.31	.93531
2.27186	29950	298.15	941.76	.94176
2.27186	39933	298.12	947.93	.94793
2.27186	49993	298.12	953.69	.95369
2.27186	60039	298.12	959.15	.95915
2.27186	69983	298.13	964.25	.96425
2.27186	79970	298.15	969.11	.96911
2.27186	89925	298.13	973.93	.97393
2.27186	99589	298.1	978.52	.97852
2.27186	1319	313.11	910.08	.91008
2.27186	4863	313.11	912.94	.91294
2.27186	9982	313.14	916.81	.91681
2.27186	20135	313.14	924.35	.92435
2.27186	29993	313.14	931.18	.93118
2.27186	40450	313.14	937.95	.93795
2.27186	49925	313.15	943.67	.94367
2.27186	59995	313.16	949.4	.9494
2.27186	69943	313.16	954.83	.95483
2.27186	80160	313.17	960.11	.96011
2.27186	89963	313.17	965.03	.96503
2.27186	100029	313.18	969.91	.96991
2.27186	1032	323.15	901.6	.9016
2.27186	5024	323.15	905.02	.90502
2.27186	10002	323.15	909.13	.90913
2.27186	19956	323.16	916.87	.91687
2.27186	29986	323.15	924.09	.92409
2.27186	39945	323.14	930.75	.93075
2.27186	49921	323.15	937	.937
2.27186	60002	323.16	942.94	.94294
2.27186	69794	323.15	948.43	.94843
2.27186	79953	323.15	953.9	.9539
2.27186	89926	323.15	959.13	.95913
2.27186	99985	323.15	964.32	.96432
2.27186	2335	333.13	895.03	.89503
2.27186	5177	333.15	897.13	.89713
2.27186	10272	333.09	902.05	.90205
2.27186	20737	333.18	910.39	.91039
2.27186	29993	333.18	917.22	.91722
2.27186	40158	333.18	924.19	.92419
2.27186	49954	333.18	930.45	.93045
2.27186	60271	333.18	936.65	.93665
2.27186	69979	333.18	942.19	.94219
2.27186	79359	333.18	947.33	.94733
2.27186	89994	333.17	952.98	.95298
2.27186	99907	333.15	958.17	.95817
2.27186	1003	348.15	881.25	.88125
2.27186	5004	348.15	885.02	.88502
2.27186	10021	348.16	890.16	.89016
2.27186	19956	348.14	898.47	.89847
2.27186	29784	348.16	906.12	.90612
2.27186	39925	348.14	913.47	.91347
2.27186	49921	348.15	920.25	.92025
2.27186	59932	348.16	926.65	.92665
2.27186	69784	348.15	932.62	.93262
2.27186	79624	348.14	938.32	.93832
2.27186	89931	348.15	944.08	.94408
2.27186	99945	348.15	949.54	.94954
2.27186	1827	353.16	878.19	.87819
2.27186	5076	353.16	881.19	.88119
2.27186	10028	353.13	886.04	.88604
2.27186	20124	353.13	895.23	.89523
2.27186	29947	353.13	902.89	.90289
2.27186	39486	353.14	909.8	.9098
2.27186	49994	353.14	916.93	.91693
2.27186	60014	353.14	924.01	.92401
2.27186	69979	353.14	929.91	.92991
2.27186	80071	353.14	936.01	.93601
2.27186	89993	353.14	941.4	.9414
2.27186	99992	353.13	946.74	.94674
2.27186	1353	373.17	860.5	.8605
2.27186	4985	373.18	864.78	.86478
2.27186	9782	373.18	870.51	.87051
2.27186	19637	373.19	879.78	.87978
2.27186	29927	373.19	888.82	.88882
2.27186	39864	373.19	896.99	.89699
2.27186	49979	373.15	904.77	.90477
2.27186	59597	373.12	911.69	.91169
2.27186	69993	373.12	918.69	.91869
2.27186	79585	373.11	924.75	.92475
2.27186	89994	373.14	930.92	.93092
2.27186	99892	373.16	936.43	.93643
2.27186	1833	398.18	839.1	.8391
2.27186	4702	398.22	842.75	.84275
2.27186	9704	398.14	848.87	.84887
2.27186	20117	398.14	860.65	.86065
2.27186	29993	398.13	870.74	.87074
2.27186	39724	398.12	879.8	.8798
2.27186	49958	398.12	888.51	.88851
2.27186	59977	398.12	896.37	.89637
2.27186	69928	398.12	903.66	.90366
2.27186	79836	398.11	910.54	.91054
2.27186	89963	398.15	917.33	.91733
2.27186	99619	398.19	923.71	.92371
2.83298	1024	273.15	971.83	.97183
2.83298	5002	273.15	974.56	.97456
2.83298	10032	273.16	977.92	.97792
2.83298	19956	273.15	984.22	.98422
2.83298	29954	273.14	990.17	.99017
2.83298	39974	273.15	995.79	.99579
2.83298	49926	273.14	1001.06	1.00106
2.83298	60021	273.15	1006.15	1.00615
2.83298	70035	273.15	1010.98	1.01098
2.83298	80061	273.16	1015.64	1.01564
2.83298	89956	273.15	1020.12	1.02012
2.83298	99986	273.15	1024.57	1.02457
2.83298	1024	293.15	956.08	.95608
2.83298	5201	293.15	959.11	.95911
2.83298	10032	293.15	962.5	.9625
2.83298	19953	293.14	969.14	.96914
2.83298	29938	293.16	975.41	.97541
2.83298	39985	293.15	981.35	.98135
2.83298	49968	293.14	986.92	.98692
2.83298	60001	293.15	992.24	.99224
2.83298	70032	293.15	997.31	.99731
2.83298	79956	293.15	1002.13	1.00213
2.83298	89958	293.15	1006.83	1.00683
2.83298	99965	293.15	1011.42	1.01142
2.83298	1023	298.15	951.93	.95193
2.83298	5004	298.14	954.84	.95484
2.83298	9986	298.16	958.39	.95839
2.83298	19935	298.15	965.15	.96515
2.83298	30021	298.14	971.59	.97159
2.83298	39845	298.15	977.51	.97751
2.83298	49924	298.16	983.25	.98325
2.83298	59968	298.15	988.68	.98868
2.83298	70023	298.14	993.85	.99385
2.83298	80014	298.15	998.77	.99877
2.83298	89927	298.15	1003.47	1.00347
2.83298	99968	298.15	1008.08	1.00808
2.83298	1021	313.15	940.06	.94006
2.83298	5102	313.14	943.28	.94328
2.83298	9978	313.15	947	.947
2.83298	19926	313.16	954.23	.95423
2.83298	29451	313.15	960.7	.9607
2.83298	40021	313.17	967.43	.96743
2.83298	49968	313.15	973.38	.97338
2.83298	59926	313.14	978.99	.97899
2.83298	69784	313.15	984.26	.98426
2.83298	80024	313.16	989.48	.98948
2.83298	89925	313.15	994.32	.99432
2.83298	99985	313.15	999.09	.99909
2.83298	1023	323.15	931.78	.93178
2.83298	5021	323.15	935.15	.93515
2.83298	9995	323.15	939.18	.93918
2.83298	19956	323.14	946.78	.94678
2.83298	29784	323.15	953.72	.95372
2.83298	39928	323.16	960.39	.96039
2.83298	50021	323.15	966.58	.96658
2.83298	59986	323.15	972.34	.97234
2.83298	69926	323.14	977.81	.97781
2.83298	79956	323.15	983.13	.98313
2.83298	89958	323.15	988.29	.98829
2.83298	99678	323.15	993.25	.99325
2.83298	1032	333.15	924.49	.92449
2.83298	5026	333.14	927.9	.9279
2.83298	9985	333.15	931.98	.93198
2.83298	19968	333.16	939.71	.93971
2.83298	29965	333.15	946.88	.94688
2.83298	40021	333.14	953.59	.95359
2.83298	49925	333.15	959.77	.95977
2.83298	59945	333.16	965.67	.96567
2.83298	69784	333.15	971.18	.97118
2.83298	80002	333.14	976.7	.9767
2.83298	89956	333.15	981.93	.98193
2.83298	99967	333.15	987.14	.98714
2.83298	1035	348.15	912.41	.91241
2.83298	5012	348.15	915.98	.91598
2.83298	9989	348.14	920.29	.92029
2.83298	19957	348.15	928.46	.92846
2.83298	30024	348.16	936.13	.93613
2.83298	39957	348.15	943.19	.94319
2.83298	49926	348.15	949.82	.94982
2.83298	59964	348.13	956.11	.95611
2.83298	70024	348.15	962.07	.96207
2.83298	79926	348.16	967.67	.96767
2.83298	89954	348.15	973.13	.97313
2.83298	99968	348.15	978.42	.97842
2.83298	1302	353.15	908.32	.90832
2.83298	5015	353.15	911.75	.91175
2.83298	9986	353.14	916.2	.9162
2.83298	19927	353.15	924.6	.9246
2.83298	30024	353.16	932.51	.93251
2.83298	39945	353.15	939.73	.93973
2.83298	49965	353.14	946.54	.94654
2.83298	60014	353.15	952.95	.95295
2.83298	69784	353.16	958.82	.95882
2.83298	79968	353.15	964.64	.96464
2.83298	89925	353.14	970.1	.9701
2.83298	99895	353.15	975.38	.97538
2.83298	1415	373.15	892.25	.89225
2.83298	5002	373.15	895.82	.89582
2.83298	10004	373.15	900.66	.90066
2.83298	19957	373.15	909.82	.90982
2.83298	29956	373.15	918.4	.9184
2.83298	39984	373.15	926.44	.92644
2.83298	50002	373.15	933.93	.93393
2.83298	59924	373.15	940.87	.94087
2.83298	69784	373.15	947.33	.94733
2.83298	80021	373.15	953.61	.95361
2.83298	89926	373.15	959.33	.95933
2.83298	99845	373.15	964.74	.96474
2.83298	1326	398.15	868.98	.86898
2.83298	5002	398.15	873.54	.87354
2.83298	9986	398.14	879.45	.87945
2.83298	19925	398.15	890.37	.89037
2.83298	29947	398.16	900.32	.90032
2.83298	40021	398.15	909.38	.90938
2.83298	49956	398.14	917.53	.91753
2.83298	59926	398.15	925.07	.92507
2.83298	69784	398.16	932.03	.93203
2.83298	80002	398.15	938.86	.93886
2.83298	89925	398.14	945.26	.94526
2.83298	99985	398.15	951.65	.95165
3.36783	1537	273.15	1000.06	1.00006
3.36783	4965	273.18	1002.3	1.0023
3.36783	10114	273.17	1005.6	1.0056
3.36783	20027	273.16	1011.76	1.01176
3.36783	29980	273.16	1017.69	1.01769
3.36783	39977	273.16	1023.39	1.02339
3.36783	49974	273.17	1028.82	1.02882
3.36783	60277	273.18	1034.14	1.03414
3.36783	69994	273.18	1038.9	1.0389
3.36783	79725	273.18	1043.43	1.04343
3.36783	89924	273.17	1047.9	1.0479
3.36783	99951	273.17	1052.03	1.05203
3.36783	1250	293.16	983.6	.9836
3.36783	5015	293.15	986.33	.98633
3.36783	10097	293.14	989.9	.9899
3.36783	20038	293.15	996.51	.99651
3.36783	29978	293.15	1002.69	1.00269
3.36783	39654	293.16	1008.34	1.00834
3.36783	49936	293.15	1014.01	1.01401
3.36783	59950	293.13	1019.25	1.01925
3.36783	69946	293.14	1024.25	1.02425
3.36783	80104	293.15	1029.17	1.02917
3.36783	89989	293.15	1033.84	1.03384
3.36783	99895	293.15	1038.46	1.03846
3.36783	2703	298.18	980.82	.98082
3.36783	5041	298.18	982.47	.98247
3.36783	9735	298.18	985.72	.98572
3.36783	19511	298.18	992.17	.99217
3.36783	29936	298.18	998.66	.99866
3.36783	40157	298.18	1004.65	1.00465
3.36783	49943	298.18	1010.11	1.01011
3.36783	59916	298.2	1015.42	1.01542
3.36783	69994	298.17	1020.58	1.02058
3.36783	80661	298.13	1025.85	1.02585
3.36783	89985	298.13	1030.35	1.03035
3.36783	99737	298.12	1034.98	1.03498
3.36783	1995	313.17	968.15	.96815
3.36783	5344	313.17	970.84	.97084
3.36783	10286	313.17	974.66	.97466
3.36783	19807	313.17	981.61	.98161
3.36783	29957	313.17	988.47	.98847
3.36783	40159	313.17	994.86	.99486
3.36783	49914	313.17	1000.58	1.00058
3.36783	59836	313.18	1006.06	1.00606
3.36783	69925	313.18	1011.36	1.01136
3.36783	79843	313.2	1016.39	1.01639
3.36783	89986	313.18	1021.4	1.0214
3.36783	99603	313.17	1026.1	1.0261
3.36783	1032	323.15	959.14	.95914
3.36783	5014	323.15	962.48	.96248
3.36783	10058	323.16	966.55	.96655
3.36783	19957	323.15	974.07	.97407
3.36783	29926	323.14	981.06	.98106
3.36783	39984	323.15	987.61	.98761
3.36783	49957	323.16	993.67	.99367
3.36783	59924	323.15	999.37	.99937
3.36783	70002	323.14	1004.85	1.00485
3.36783	79926	323.15	1010.05	1.01005
3.36783	89924	323.15	1015.15	1.01515
3.36783	99956	323.15	1020.21	1.02021
3.36783	1618	333.14	952.85	.95285
3.36783	5051	333.19	955.66	.95566
3.36783	9894	333.19	959.51	.95951
3.36783	19918	333.18	967.06	.96706
3.36783	29946	333.18	974.09	.97409
3.36783	39652	333.18	980.47	.98047
3.36783	49993	333.18	986.85	.98685
3.36783	59593	333.18	992.46	.99246
3.36783	69927	333.18	998.21	.99821
3.36783	79861	333.18	1003.51	1.00351
3.36783	89946	333.18	1008.74	1.00874
3.36783	99575	333.17	1013.64	1.01364
3.36783	1002	348.15	940.13	.94013
3.36783	5024	348.15	943.65	.94365
3.36783	10032	348.16	947.88	.94788
3.36783	19956	348.14	955.83	.95583
3.36783	29985	348.15	963.31	.96331
3.36783	39978	348.15	970.26	.97026
3.36783	49952	348.16	976.77	.97677
3.36783	60024	348.15	982.97	.98297
3.36783	69957	348.14	988.75	.98875
3.36783	79924	348.15	994.3	.9943
3.36783	89923	348.15	999.65	.99965
3.36783	99934	348.15	1004.87	1.00487
3.36783	1063	353.21	935.92	.93592
3.36783	4909	353.21	939.35	.93935
3.36783	10311	353.21	944.02	.94402
3.36783	19643	353.22	951.68	.95168
3.36783	30003	353.21	959.64	.95964
3.36783	40073	353.21	966.87	.96687
3.36783	49925	353.21	973.5	.9735
3.36783	59786	353.21	979.72	.97972
3.36783	69928	353.21	985.74	.98574
3.36783	79893	353.2	991.32	.99132
3.36783	89986	353.2	996.68	.99668
3.36783	99526	353.2	1001.5	1.0015
3.36783	2208	373.12	920.02	.92002
3.36783	5044	373.12	922.8	.9228
3.36783	10014	373.13	927.55	.92755
3.36783	19844	373.12	936.43	.93643
3.36783	29963	373.14	944.93	.94493
3.36783	39934	373.14	952.72	.95272
3.36783	49924	373.14	960.01	.96001
3.36783	60080	373.14	966.95	.96695
3.36783	69925	373.14	973.28	.97328
3.36783	80063	373.14	979.45	.97945
3.36783	89993	373.14	985.2	.9852
3.36783	99876	373.14	990.71	.99071
3.36783	2012	398.15	896.84	.89684
3.36783	5023	398.16	900.37	.90037
3.36783	9911	398.15	905.89	.90589
3.36783	19987	398.14	916.46	.91646
3.36783	29993	398.14	926	.926
3.36783	39727	398.13	934.47	.93447
3.36783	49926	398.15	942.62	.94262
3.36783	60122	398.16	950.15	.95015
3.36783	69957	398.16	956.94	.95694
3.36783	79919	398.16	963.47	.96347
3.36783	89993	398.16	969.83	.96983
3.36783	100000	398.15	976.03	.97603
