Measured thermophysical data. Solubilities of Ibuprofen in Different Pure Solvents
Source: J. Chem. Eng. Data, 2010, 10.1021/je100255z
Compound 1: ibuprofen, C13H18O2, purity 99.4%
Compound 2: ethanol, C2H6O
Compound 3: propan-1-ol, C3H8O
Compound 4: butan-1-ol, C4H10O
Compound 5: pentan-1-ol, C5H12O
Compound 6: 2-propanol, C3H8O
Compound 7: isobutanol, C4H10O
Compound 8: 1-butanol, 3-methyl-, C5H12O
Compound 9: propanone, C3H6O
Compound 10: ethyl ethanoate, C4H8O2

System: ethanol + ibuprofen; phases: Liquid, Crystal
Fixed: Pressure, kPa = 101
Property: Mole fraction of ibuprofen (Liquid); method: Laser Monitoring Technique
Temperature, K	Mole fraction of ibuprofen	uncertainty
285.05	.1232	.002464
288.65	.1445	.00289
293.33	.1669	.003338
298.47	.1979	.003958
303.39	.2319	.004638
307.87	.2698	.005396
312.93	.3158	.006316
317.95	.3657	.007314

System: propan-1-ol + ibuprofen; phases: Liquid, Crystal
Fixed: Pressure, kPa = 101
Property: Mole fraction of ibuprofen (Liquid); method: Laser Monitoring Technique
Temperature, K	Mole fraction of ibuprofen	uncertainty
284.17	.1279	.002558
288.63	.1522	.003044
293.35	.1774	.003548
298.25	.2112	.004224
303.41	.2484	.004968
307.89	.2887	.005774
313.01	.3386	.006772
318.27	.3992	.007984

System: butan-1-ol + ibuprofen; phases: Liquid, Crystal
Fixed: Pressure, kPa = 101
Property: Mole fraction of ibuprofen (Liquid); method: Laser Monitoring Technique
Temperature, K	Mole fraction of ibuprofen	uncertainty
283.97	.1394	.002788
288.25	.1562	.003124
293.77	.1912	.003824
298.73	.2251	.004502
303.43	.2652	.005304
308.67	.3114	.006228
313.47	.3607	.007214
318.23	.4155	.00831

System: pentan-1-ol + ibuprofen; phases: Liquid, Crystal
Fixed: Pressure, kPa = 101
Property: Mole fraction of ibuprofen (Liquid); method: Laser Monitoring Technique
Temperature, K	Mole fraction of ibuprofen	uncertainty
283.13	.1336	.002672
288.05	.1579	.003158
293.37	.1902	.003804
298.03	.2219	.004438
303.13	.2636	.005272
307.91	.3103	.006206
312.57	.3578	.007156
318.15	.4215	.00843

System: 2-propanol + ibuprofen; phases: Liquid, Crystal
Fixed: Pressure, kPa = 101
Property: Mole fraction of ibuprofen (Liquid); method: Laser Monitoring Technique
Temperature, K	Mole fraction of ibuprofen	uncertainty
282.97	.1273	.002546
288.07	.1528	.003056
293.43	.1876	.003752
298.21	.2219	.004438
303.57	.2645	.00529
307.57	.3051	.006102
312.75	.3505	.00701
318.17	.4051	.008102

System: isobutanol + ibuprofen; phases: Liquid, Crystal
Fixed: Pressure, kPa = 101
Property: Mole fraction of ibuprofen (Liquid); method: Laser Monitoring Technique
Temperature, K	Mole fraction of ibuprofen	uncertainty
282.89	.1075	.00215
288.09	.1343	.002686
293.07	.166	.00332
298.07	.2022	.004044
303.23	.241	.00482
308.17	.2918	.005836
313.55	.3483	.006966
317.85	.4027	.008054

System: 1-butanol, 3-methyl- + ibuprofen; phases: Liquid, Crystal
Fixed: Pressure, kPa = 101
Property: Mole fraction of ibuprofen (Liquid); method: Laser Monitoring Technique
Temperature, K	Mole fraction of ibuprofen	uncertainty
283.57	.1206	.002412
288.61	.148	.00296
293.71	.1821	.003642
297.95	.2113	.004226
303.13	.2527	.005054
308.17	.299	.00598
313.31	.3525	.00705
318.83	.4169	.008338

System: propanone + ibuprofen; phases: Liquid, Crystal
Fixed: Pressure, kPa = 101
Property: Mole fraction of ibuprofen (Liquid); method: Laser Monitoring Technique
Temperature, K	Mole fraction of ibuprofen	uncertainty
283.57	.1437	.002874
288.49	.1684	.003368
293.37	.1996	.003992
297.87	.233	.00466
303.25	.2732	.005464
308.07	.3114	.006228
312.65	.3516	.007032
317.99	.4051	.008102

System: ethyl ethanoate + ibuprofen; phases: Liquid, Crystal
Fixed: Pressure, kPa = 101
Property: Mole fraction of ibuprofen (Liquid); method: Laser Monitoring Technique
Temperature, K	Mole fraction of ibuprofen	uncertainty
283.17	.1267	.002534
288.47	.1584	.003168
293.57	.1935	.00387
297.69	.2254	.004508
302.75	.2713	.005426
307.83	.3195	.00639
313.07	.3762	.007524
318.45	.4388	.008776
