Measured thermophysical data. Excess Molar Volumes of 1,3-Diethyl Propanedioate with Methanol, Ethanol, Propan-1-ol, Propan-2-ol, Butan-2-ol, 2-Methyl-propan-1-ol, and Pentan-1-ol at T = (288.15, 298.15, 313.15, and 328.15) K
Source: J. Chem. Eng. Data, 2010, 10.1021/je100100n
Compound 1: diethyl malonate, C7H12O4, purity 99.9%
Compound 2: methanol, CH4O, purity 99.9%
Compound 3: 2-propanol, C3H8O, purity 99.5%
Compound 4: propan-1-ol, C3H8O, purity 99.5%
Compound 5: butan-1-ol, C4H10O, purity 99.8%
Compound 6: pentan-1-ol, C5H12O, purity 99.8%
Compound 7: isobutanol, C4H10O, purity 99.8%
Compound 8: ethanol, C2H6O, purity 99.7%

System: diethyl malonate; phases: Liquid
Property: Mass density, kg/m3 (Liquid); method: Vibrating tube method
Temperature, K	Pressure, kPa	Mass density, kg/m3	uncertainty
288.15	101.325	1060.326	.005
298.15	101.325	1049.603	.005
313.15	101.325	1033.498	.005
328.15	101.325	1017.336	.005

System: methanol; phases: Liquid
Property: Mass density, kg/m3 (Liquid); method: Vibrating tube method
Temperature, K	Pressure, kPa	Mass density, kg/m3	uncertainty
288.15	101.325	796.406	.005
298.15	101.325	786.987	.005
313.15	101.325	772.74	.005
328.15	101.325	758.201	.005

System: 2-propanol; phases: Liquid
Property: Mass density, kg/m3 (Liquid); method: Vibrating tube method
Temperature, K	Pressure, kPa	Mass density, kg/m3	uncertainty
288.15	101.325	789.342	.005
298.15	101.325	780.99	.005
313.15	101.325	767.922	.005
328.15	101.325	754.001	.005

System: propan-1-ol; phases: Liquid
Property: Mass density, kg/m3 (Liquid); method: Vibrating tube method
Temperature, K	Pressure, kPa	Mass density, kg/m3	uncertainty
288.15	101.325	809.009	.005
298.15	101.325	800.973	.005
313.15	101.325	788.687	.005
328.15	101.325	775.974	.005

System: butan-1-ol; phases: Liquid
Property: Mass density, kg/m3 (Liquid); method: Vibrating tube method
Temperature, K	Pressure, kPa	Mass density, kg/m3	uncertainty
288.15	101.325	813.77	.005
298.15	101.325	806.137	.005
313.15	101.325	794.488	.005
328.15	101.325	782.477	.005

System: pentan-1-ol; phases: Liquid
Property: Mass density, kg/m3 (Liquid); method: Vibrating tube method
Temperature, K	Pressure, kPa	Mass density, kg/m3	uncertainty
288.15	101.325	818.801	.005
298.15	101.325	811.465	.005
313.15	101.325	800.264	.005
328.15	101.325	788.737	.005

System: isobutanol; phases: Liquid
Property: Mass density, kg/m3 (Liquid); method: Vibrating tube method
Temperature, K	Pressure, kPa	Mass density, kg/m3	uncertainty
288.15	101.325	805.6	.005
298.15	101.325	797.916	.005
313.15	101.325	786.069	.005
328.15	101.325	773.692	.005

System: ethanol; phases: Liquid
Property: Mass density, kg/m3 (Liquid); method: Vibrating tube method
Temperature, K	Pressure, kPa	Mass density, kg/m3	uncertainty
288.15	101.325	794.044	.005
298.15	101.325	785.489	.005
313.15	101.325	772.42	.005
328.15	101.325	758.958	.005

System: methanol + diethyl malonate; phases: Liquid
Fixed: Pressure, kPa = 101
Property: Mass density, kg/m3 (Liquid); method: Vibrating tube method
Temperature, K	Mole fraction of diethyl malonate	Mass density, kg/m3	uncertainty
288.15	0	796.406	.005
288.15	.05	841.286	.005
288.15	.1	876.23	.005
288.15	.1501	904.185	.005
288.15	.2001	926.962	.005
288.15	.2501	945.901	.005
288.15	.3001	961.96	.005
288.15	.35	975.573	.005
288.15	.4001	987.417	.005
288.15	.4503	997.752	.005
288.15	.5004	1006.896	.005
288.15	.5497	1014.881	.005
288.15	.6	1022.041	.005
288.15	.6495	1028.476	.005
288.15	.6997	1034.33	.005
288.15	.7978	1044.36	.005
288.15	.9009	1053.152	.005
288.15	1	1060.326	.005
298.15	0	786.987	.005
298.15	.05	831.536	.005
298.15	.1	866.252	.005
298.15	.1501	894.037	.005
298.15	.2001	916.671	.005
298.15	.2501	935.504	.005
298.15	.3001	951.502	.005
298.15	.35	965.04	.005
298.15	.4001	976.822	.005
298.15	.4503	987.12	.005
298.15	.5004	996.235	.005
298.15	.5497	1004.184	.005
298.15	.6	1011.322	.005
298.15	.6495	1017.743	.005
298.15	.6997	1023.585	.005
298.15	.7978	1033.607	.005
298.15	.9009	1042.395	.005
298.15	1	1049.603	.005
313.15	0	772.74	.005
313.15	.05	816.754	.005
313.15	.1	851.13	.005
313.15	.1501	878.631	.005
313.15	.2001	901.091	.005
313.15	.2501	919.763	.005
313.15	.3001	935.636	.005
313.15	.35	949.084	.005
313.15	.4001	960.784	.005
313.15	.4503	971.04	.005
313.15	.5004	980.1	.005
313.15	.5497	988.016	.005
313.15	.6	995.132	.005
313.15	.6495	1001.516	.005
313.15	.6997	1007.366	.005
313.15	.7978	1017.382	.005
313.15	.9009	1026.218	.005
313.15	1	1033.498	.005
328.15	0	758.201	.005
328.15	.05	801.691	.005
328.15	.1	835.697	.005
328.15	.1501	862.956	.005
328.15	.2001	885.223	.005
328.15	.2501	903.75	.005
328.15	.3001	919.517	.005
328.15	.35	932.879	.005
328.15	.4001	944.523	.005
328.15	.4503	954.725	.005
328.15	.5004	963.763	.005
328.15	.5497	971.649	.005
328.15	.6	978.761	.005
328.15	.6495	985.159	.005
328.15	.6997	991.006	.005
328.15	.7978	1001.066	.005
328.15	.9009	1009.978	.005
328.15	1	1017.336	.005

System: ethanol + diethyl malonate; phases: Liquid
Fixed: Pressure, kPa = 101
Property: Mass density, kg/m3 (Liquid); method: Vibrating tube method
Temperature, K	Mole fraction of diethyl malonate	Mass density, kg/m3	uncertainty
288.15	0	794.044	.005
288.15	.05	826.264	.005
288.15	.1001	854.013	.005
288.15	.0999	853.923	.005
288.15	.15	878.005	.005
288.15	.2001	899.1	.005
288.15	.3	934.365	.005
288.15	.4	962.806	.005
288.15	.4498	974.929	.005
288.15	.4999	986.037	.005
288.15	.5501	996.293	.005
288.15	.6001	1005.602	.005
288.15	.6453	1013.442	.005
288.15	.6997	1022.161	.005
288.15	.7497	1029.613	.005
288.15	.8496	1043.02	.005
288.15	.8995	1049.081	.005
288.15	1	1060.326	.005
298.15	0	785.489	.005
298.15	.05	817.293	.005
298.15	.1001	844.731	.005
298.15	.0999	844.646	.005
298.15	.15	868.468	.005
298.15	.2001	889.366	.005
298.15	.3	924.309	.005
298.15	.4	952.511	.005
298.15	.4498	964.533	.005
298.15	.4999	975.577	.005
298.15	.5501	985.767	.005
298.15	.6001	995.034	.005
298.15	.6453	1002.818	.005
298.15	.6997	1011.524	.005
298.15	.7497	1018.928	.005
298.15	.8496	1032.313	.005
298.15	.8995	1038.363	.005
298.15	1	1049.603	.005
313.15	0	772.42	.005
313.15	.05	803.619	.005
313.15	.1001	830.589	.005
313.15	.0999	830.505	.005
313.15	.15	853.941	.005
313.15	.2001	874.536	.005
313.15	.3	909.007	.005
313.15	.4	936.881	.005
313.15	.4498	948.801	.005
313.15	.4999	959.71	.005
313.15	.5501	969.837	.005
313.15	.6001	979.034	.005
313.15	.6453	986.788	.005
313.15	.6997	995.442	.005
313.15	.7497	1002.827	.005
313.15	.8496	1016.201	.005
313.15	.8995	1022.248	.005
313.15	1	1033.498	.005
328.15	0	758.958	.005
328.15	.05	789.558	.005
328.15	.1001	816.063	.005
328.15	.0999	815.983	.005
328.15	.15	839.005	.005
328.15	.2001	859.351	.005
328.15	.3	893.394	.005
328.15	.4	920.983	.005
328.15	.4498	932.802	.005
328.15	.4999	943.637	.005
328.15	.5501	953.695	.005
328.15	.6001	962.847	.005
328.15	.6453	970.577	.005
328.15	.6997	979.211	.005
328.15	.7497	986.588	.005
328.15	.8496	999.969	.005
328.15	.8995	1006.058	.005
328.15	1	1017.336	.005

System: propan-1-ol + diethyl malonate; phases: Liquid
Fixed: Pressure, kPa = 101
Property: Mass density, kg/m3 (Liquid); method: Vibrating tube method
Temperature, K	Mole fraction of diethyl malonate	Mass density, kg/m3	uncertainty
288.15	0	809.009	.005
288.15	.1001	854.156	.005
288.15	.2	891.858	.005
288.15	.2999	923.874	.005
288.15	.3501	938.229	.005
288.15	.4001	951.433	.005
288.15	.4499	963.765	.005
288.15	.4999	975.313	.005
288.15	.5446	985.016	.005
288.15	.5997	996.235	.005
288.15	.7003	1014.958	.005
288.15	.7998	1031.529	.005
288.15	.8997	1046.546	.005
288.15	1	1060.326	.005
298.15	0	800.973	.005
298.15	.1001	845.431	.005
298.15	.2	882.638	.005
298.15	.2999	914.254	.005
298.15	.3501	928.438	.005
298.15	.4001	941.51	.005
298.15	.4499	953.71	.005
298.15	.4999	965.148	.005
298.15	.5446	974.758	.005
298.15	.5997	985.888	.005
298.15	.7003	1004.461	.005
298.15	.7998	1020.939	.005
298.15	.8997	1035.873	.005
298.15	1	1049.603	.005
313.15	0	788.687	.005
313.15	.1001	832.128	.005
313.15	.2	868.577	.005
313.15	.2999	899.629	.005
313.15	.3501	913.567	.005
313.15	.4001	926.45	.005
313.15	.4499	938.475	.005
313.15	.4999	949.737	.005
313.15	.5446	959.257	.005
313.15	.5997	970.245	.005
313.15	.7003	988.638	.005
313.15	.7998	1004.987	.005
313.15	.8997	1019.842	.005
313.15	1	1033.498	.005
328.15	0	775.974	.005
328.15	.1001	818.439	.005
328.15	.2	854.173	.005
328.15	.2999	884.69	.005
328.15	.3501	898.431	.005
328.15	.4001	911.123	.005
328.15	.4499	922.986	.005
328.15	.4999	934.134	.005
328.15	.5446	943.524	.005
328.15	.5997	954.437	.005
328.15	.7003	972.67	.005
328.15	.7998	988.923	.005
328.15	.8997	1003.721	.005
328.15	1	1017.336	.005

System: 2-propanol + diethyl malonate; phases: Liquid
Fixed: Pressure, kPa = 101
Property: Mass density, kg/m3 (Liquid); method: Vibrating tube method
Temperature, K	Mole fraction of diethyl malonate	Mass density, kg/m3	uncertainty
288.15	0	789.342	.005
288.15	.1001	836.917	.005
288.15	.2	877.015	.005
288.15	.3	911.283	.005
288.15	.3501	926.715	.005
288.15	.4	940.924	.005
288.15	.455	955.561	.005
288.15	.4999	966.784	.005
288.15	.5501	978.638	.005
288.15	.5999	989.637	.005
288.15	.6499	1000.133	.005
288.15	.7001	1010.027	.005
288.15	.8	1028.364	.005
288.15	.8995	1044.944	.005
288.15	1	1060.326	.005
298.15	0	780.99	.005
298.15	.1001	827.809	.005
298.15	.2	867.404	.005
298.15	.3	901.308	.005
298.15	.3501	916.6	.005
298.15	.4	930.696	.005
298.15	.455	945.23	.005
298.15	.4999	956.373	.005
298.15	.5501	968.162	.005
298.15	.5999	979.111	.005
298.15	.6499	989.567	.005
298.15	.7001	999.417	.005
298.15	.8	1017.693	.005
298.15	.8995	1034.258	.005
298.15	1	1049.603	.005
313.15	0	767.922	.005
313.15	.1001	813.707	.005
313.15	.2	852.617	.005
313.15	.3	886.063	.005
313.15	.3501	901.155	.005
313.15	.4	915.119	.005
313.15	.455	929.523	.005
313.15	.4999	940.573	.005
313.15	.5501	952.282	.005
313.15	.5999	963.18	.005
313.15	.6499	973.566	.005
313.15	.7001	983.39	.005
313.15	.8	1001.629	.005
313.15	.8995	1018.177	.005
313.15	1	1033.498	.005
328.15	0	754.001	.005
328.15	.1001	798.938	.005
328.15	.2	837.294	.005
328.15	.3	870.365	.005
328.15	.3501	885.344	.005
328.15	.4	899.194	.005
328.15	.455	913.507	.005
328.15	.4999	924.508	.005
328.15	.5501	936.171	.005
328.15	.5999	947.033	.005
328.15	.6499	957.417	.005
328.15	.7001	967.228	.005
328.15	.8	985.453	.005
328.15	.8995	1002.012	.005
328.15	1	1017.336	.005

System: butan-1-ol + diethyl malonate; phases: Liquid
Fixed: Pressure, kPa = 101
Property: Mass density, kg/m3 (Liquid); method: Vibrating tube method
Temperature, K	Mole fraction of diethyl malonate	Mass density, kg/m3	uncertainty
288.15	0	813.77	.005
288.15	.1001	850.611	.005
288.15	.2002	883.667	.005
288.15	.3001	913.38	.005
288.15	.35	927.207	.005
288.15	.4	940.225	.005
288.15	.45	952.775	.005
288.15	.5	964.641	.005
288.15	.5501	976.114	.005
288.15	.5999	986.952	.005
288.15	.7	1007.444	.005
288.15	.7998	1026.314	.005
288.15	.9001	1043.952	.005
288.15	1	1060.326	.005
298.15	0	806.137	.005
298.15	.1001	842.336	.005
298.15	.2002	874.886	.005
298.15	.3001	904.169	.005
298.15	.35	917.818	.005
298.15	.4	930.667	.005
298.15	.45	943.06	.005
298.15	.5	954.786	.005
298.15	.5501	966.141	.005
298.15	.5999	976.853	.005
298.15	.7	997.139	.005
298.15	.7998	1015.856	.005
298.15	.9001	1033.348	.005
298.15	1	1049.603	.005
313.15	0	794.488	.005
313.15	.1001	829.747	.005
313.15	.2002	861.524	.005
313.15	.3001	890.202	.005
313.15	.35	903.569	.005
313.15	.4	916.189	.005
313.15	.45	928.349	.005
313.15	.5	939.89	.005
313.15	.5501	951.051	.005
313.15	.5999	961.602	.005
313.15	.7	981.612	.005
313.15	.7998	1000.098	.005
313.15	.9001	1017.408	.005
313.15	1	1033.498	.005
328.15	0	782.477	.005
328.15	.1001	816.824	.005
328.15	.2002	847.882	.005
328.15	.3001	875.956	.005
328.15	.35	889.092	.005
328.15	.4	901.465	.005
328.15	.45	913.434	.005
328.15	.5	924.793	.005
328.15	.5501	935.788	.005
328.15	.5999	946.182	.005
328.15	.7	965.954	.005
328.15	.7998	984.244	.005
328.15	.9001	1001.377	.005
328.15	1	1017.336	.005

System: isobutanol + diethyl malonate; phases: Liquid
Fixed: Pressure, kPa = 101
Property: Mass density, kg/m3 (Liquid); method: Vibrating tube method
Temperature, K	Mole fraction of diethyl malonate	Mass density, kg/m3	uncertainty
288.15	0	805.6	.005
288.15	.1	843.381	.005
288.15	.2	877.394	.005
288.15	.3	908.051	.005
288.15	.35	922.305	.005
288.15	.3999	935.772	.005
288.15	.4495	948.602	.005
288.15	.5001	961.044	.005
288.15	.6001	984.156	.005
288.15	.6999	1005.333	.005
288.15	.8003	1025.057	.005
288.15	.9	1043.277	.005
288.15	1	1060.326	.005
298.15	0	797.916	.005
298.15	.1	835.034	.005
298.15	.2	868.517	.005
298.15	.3	898.746	.005
298.15	.35	912.816	.005
298.15	.3999	926.126	.005
298.15	.4495	938.806	.005
298.15	.5001	951.116	.005
298.15	.6001	973.999	.005
298.15	.6999	995.001	.005
298.15	.8003	1014.571	.005
298.15	.9	1032.669	.005
298.15	1	1049.603	.005
313.15	0	786.069	.005
313.15	.1	822.221	.005
313.15	.2	854.953	.005
313.15	.3	884.583	.005
313.15	.35	898.402	.005
313.15	.3999	911.47	.005
313.15	.4495	923.966	.005
313.15	.5001	936.085	.005
313.15	.6001	958.66	.005
313.15	.6999	979.414	.005
313.15	.8003	998.792	.005
313.15	.9	1016.712	.005
313.15	1	1033.498	.005
328.15	0	773.692	.005
328.15	.1	808.976	.005
328.15	.2	841.015	.005
328.15	.3	870.102	.005
328.15	.35	885.344	.005
328.15	.3999	896.55	.005
328.15	.4495	908.867	.005
328.15	.5001	920.835	.005
328.15	.6001	943.14	.005
328.15	.6999	963.679	.005
328.15	.8003	982.885	.005
328.15	.9	1000.67	.005
328.15	1	1017.336	.005

System: pentan-1-ol + diethyl malonate; phases: Liquid
Fixed: Pressure, kPa = 101
Property: Mass density, kg/m3 (Liquid); method: Vibrating tube method
Temperature, K	Mole fraction of diethyl malonate	Mass density, kg/m3	uncertainty
288.15	0	818.801	.005
288.15	.0999	849.562	.005
288.15	.1998	878.757	.005
288.15	.2999	906.036	.005
288.15	.3498	919.092	.005
288.15	.3997	931.801	.005
288.15	.4499	944.204	.005
288.15	.4999	956.145	.005
288.15	.5501	967.903	.005
288.15	.599	978.962	.005
288.15	.65	990.137	.005
288.15	.6997	1000.807	.005
288.15	.7997	1021.522	.005
288.15	.9	1041.367	.005
288.15	1	1060.326	.005
298.15	0	811.465	.005
298.15	.0999	841.661	.005
298.15	.1998	870.343	.005
298.15	.2999	897.187	.005
298.15	.3498	910.054	.005
298.15	.3997	922.576	.005
298.15	.4499	934.797	.005
298.15	.4999	946.568	.005
298.15	.5501	958.185	.005
298.15	.599	969.118	.005
298.15	.65	980.151	.005
298.15	.6997	990.684	.005
298.15	.7997	1011.18	.005
298.15	.9	1030.84	.005
298.15	1	1049.603	.005
313.15	0	800.264	.005
313.15	.0999	829.624	.005
313.15	.1998	857.553	.005
313.15	.2999	883.774	.005
313.15	.3498	896.347	.005
313.15	.3997	908.607	.005
313.15	.4499	920.565	.005
313.15	.4999	932.101	.005
313.15	.5501	943.506	.005
313.15	.599	954.233	.005
313.15	.65	965.074	.005
313.15	.6997	975.442	.005
313.15	.7997	995.601	.005
313.15	.9	1014.995	.005
313.15	1	1033.498	.005
328.15	0	788.737	.005
328.15	.0999	817.296	.005
328.15	.1998	844.519	.005
328.15	.2999	870.127	.005
328.15	.3498	882.426	.005
328.15	.3997	894.428	.005
328.15	.4499	906.141	.005
328.15	.4999	917.475	.005
328.15	.5501	928.648	.005
328.15	.599	939.199	.005
328.15	.65	949.864	.005
328.15	.6997	960.07	.005
328.15	.7997	979.945	.005
328.15	.9	999.065	.005
328.15	1	1017.336	.005
