Measured thermophysical data. Vapor-Liquid Equilibria in Ternary Systems of Toluene or Octane + Phenols + Water
Source: J. Chem. Eng. Data, 2011, 10.1021/je100888h
Compound 1: phenol, C6H6O, purity 99%
Compound 2: 2-methylphenol, C7H8O, purity 99%
Compound 3: 3-methylphenol, C7H8O, purity 99%
Compound 4: 4-methylphenol, C7H8O, purity 99%
Compound 5: octane, C8H18, purity 99%
Compound 6: toluene, C7H8
Compound 7: water, H2O

System: phenol; phases: Liquid
Property: Mass density, kg/m3 (Liquid); method: Vibrating tube method
Temperature, K	Pressure, kPa	Mass density, kg/m3	uncertainty
313.15	101	1058.3	

System: 2-methylphenol; phases: Liquid
Property: Mass density, kg/m3 (Liquid); method: Vibrating tube method
Temperature, K	Pressure, kPa	Mass density, kg/m3	uncertainty
303.15	101	1036.94	

System: 3-methylphenol; phases: Liquid
Property: Mass density, kg/m3 (Liquid); method: Vibrating tube method
Temperature, K	Pressure, kPa	Mass density, kg/m3	uncertainty
303.15	101	1025.95	

System: 4-methylphenol; phases: Liquid
Property: Mass density, kg/m3 (Liquid); method: Vibrating tube method
Temperature, K	Pressure, kPa	Mass density, kg/m3	uncertainty
303.15	101	1025.9	

System: octane; phases: Liquid
Property: Mass density, kg/m3 (Liquid); method: Vibrating tube method
Temperature, K	Pressure, kPa	Mass density, kg/m3	uncertainty
303.15	101	694.52	

System: toluene; phases: Liquid
Property: Mass density, kg/m3 (Liquid); method: Vibrating tube method
Temperature, K	Pressure, kPa	Mass density, kg/m3	uncertainty
313.15	101	848.07	
303.15	101	857.47	

System: toluene + phenol + water; phases: Liquid
Fixed: Temperature, K = 313.15
Fixed: Pressure, kPa = 101
Property: Mass density, kg/m3 (Liquid); method: Vibrating tube method
Mole fraction of toluene	Mole fraction of phenol	Mass density, kg/m3	uncertainty
0	1	1058.3	
.0999	.9001	1033.8	
.1576	.8424	1021.66	
.2581	.7419	998.46	
.3492	.6508	978.14	
.4363	.5637	959.22	
.5438	.4562	936.46	
.6351	.3649	917.72	
.7288	.2712	898.99	
.8334	.1666	878.75	
.9015	.0985	865.97	
1	0	848.07	
0	.9099	1056.28	
.039	.8743	1046.38	
.0669	.849	1039.62	
.1015	.8175	1030.9	
.1504	.773	1018.95	
.1889	.738	1009.78	
.2222	.7077	1002.03	
.3472	.594	973.44	
.4305	.5182	955.45	
.4953	.4592	941.46	
.5554	.4045	929.15	
.6332	.3337	913.93	
.757	.2211	890.41	
.8773	.1117	868.78	
.9698	.0275	852.98	
.9795	.0187	851.3	
0	.8247	1054.06	
.0471	.7858	1041.13	
.0763	.7618	1033.72	
.1192	.7264	1022.61	
.1803	.676	1007.41	
.2271	.6374	996.07	
.2728	.5997	985.37	
.3327	.5503	971.68	
.3681	.5212	963.84	
.4453	.4575	947.23	
.5179	.3976	932.26	
.608	.3233	914.63	
.6689	.273	903.22	
.7424	.2125	889.97	
.8122	.1549	877.81	
.8533	.121	871.08	
.9303	.0575	858.62	
.9448	.0455	856.32	
.9801	.0164	850.96	
0	.7052	1050.69	
.0458	.6729	1037.27	
.0972	.6366	1022.73	
.1452	.6028	1009.71	
.1907	.5707	997.67	
.2254	.5462	989.16	
.2806	.5073	975.83	
.3605	.4509	957.56	
.4377	.3965	941.1	
.557	.3124	917.65	
.6754	.2289	896.53	
.7917	.1469	877.48	
.873	.0896	865.52	
.9347	.046	856.65	
0	.6176	1048.12	
.0417	.5918	1034.82	
.0873	.5637	1020.6	
.1362	.5335	1006.93	
.1804	.5062	994.58	
.2176	.4832	984.88	
.2559	.4596	975.31	
.3425	.4061	955.19	
.4083	.3654	941.05	
.5188	.2972	919.25	
.646	.2186	897.36	
.7309	.1662	883.7	
.8411	.0981	868.13	
.9346	.0404	855.59	
0	.4653	1042.74	
.0302	.4512	1030.77	
.0607	.437	1020.53	
.0979	.4197	1008.07	
.1489	.396	992.27	
.2381	.3545	967.77	
.3108	.3206	950.3	
.3648	.2955	938.53	
.4362	.2623	924.21	
.5403	.2139	905.69	
.6598	.1583	887.3	
.7802	.1023	871.67	
.8536	.0681	862.88	
.9489	.0238	852.3	
0	.3794	1038.84	
.0302	.3679	1026.37	
.1012	.341	999.79	
.1633	.3174	979.73	
.2705	.2767	951.39	
.4327	.2152	917.18	
.6755	.1231	880.3	
.9069	.0353	855.82	

System: toluene + phenol + water; phases: Liquid, Gas
Property: Mole fraction of phenol (Liquid); method: Titration method
Property: Mole fraction of toluene (Gas); method: Titration method
Property: Mole fraction of phenol (Gas); method: Titration method
Temperature, K	Pressure, kPa	Mole fraction of toluene	Mole fraction of phenol	uncertainty	Mole fraction of toluene	uncertainty	Mole fraction of phenol	uncertainty
333.15	16.84	.0935	.6757	.005	.3078	.002	.0239	.005
333.15	18.97	.2637	.604	.005	.5309	.002	.0213	.005
333.15	18.99	.0674	.6194	.005	.2432	.002	.0186	.005
333.15	20.67	.3001	.5674	.005	.5267	.002	.0139	.005
333.15	21.58	.1321	.5832	.005	.3439	.002	.0183	.005
333.15	23.14	.5648	.3679	.005	.612	.002	.0117	.005
333.15	24.25	.1065	.5594	.005	.341	.002	.0127	.005
333.15	25.45	.1714	.5216	.005	.3601	.002	.0121	.005
333.15	26.09	.2752	.5064	.005	.4597	.002	.0101	.005
333.15	29.05	.2505	.469	.005	.4116	.002	.0084	.005
333.15	29.78	.4393	.3912	.005	.499	.002	.0076	.005
363.15	50.2	.0849	.688	.005	.2578	.002	.0431	.005
363.15	60.17	.0726	.6217	.005	.2141	.002	.0319	.005
363.15	61.91	.267	.5816	.005	.4683	.002	.0262	.005
363.15	62.03	.3132	.5597	.005	.503	.002	.0258	.005
363.15	69.19	.1394	.5681	.005	.3137	.002	.0239	.005
363.15	76.15	.5532	.3565	.005	.5469	.002	.0167	.005
363.15	77.25	.136	.5195	.005	.298	.002	.0195	.005
363.15	79.34	.1752	.5143	.005	.3445	.002	.0186	.005
363.15	79.51	.2741	.5044	.005	.4039	.002	.0174	.005
363.15	89.67	.2396	.4571	.005	.368	.002	.0147	.005
363.15	92.94	.4412	.3814	.005	.4492	.002	.0125	.005

System: 2-methylphenol + toluene + water; phases: Liquid mixture 1, Liquid mixture 2, Gas
Property: Mole fraction of toluene (Liquid mixture 1); method: Density calibration data
Temperature, K	Pressure, kPa	Mole fraction of toluene	uncertainty
333.15	24.14	.0498	.002
333.15	25.81	.0822	.002
333.15	26.18	.0913	.002
363.15	80.31	.0412	.002
363.15	87.35	.0969	.002
363.15	89.13	.1093	.002

System: 2-methylphenol + toluene + water; phases: Liquid mixture 1, Liquid mixture 2, Gas
Property: Mole fraction of 2-methylphenol (Liquid mixture 1); method: Density calibration data
Temperature, K	Pressure, kPa	Mole fraction of 2-methylphenol	uncertainty
333.15	24.14	.5056	.002
333.15	25.81	.5076	.002
333.15	26.18	.507	.002
363.15	80.31	.5016	.002
363.15	87.35	.5023	.002
363.15	89.13	.5022	.002

System: 2-methylphenol + toluene + water; phases: Gas, Liquid mixture 1, Liquid mixture 2
Property: Mole fraction of toluene (Gas); method: Density calibration data
Temperature, K	Pressure, kPa	Mole fraction of toluene	uncertainty
333.15	24.14	.1502	.002
333.15	25.81	.1998	.002
333.15	26.18	.2064	.002
363.15	80.31	.0997	.002
363.15	87.35	.1771	.002
363.15	89.13	.2021	.002

System: 2-methylphenol + toluene + water; phases: Gas, Liquid mixture 1, Liquid mixture 2
Property: Mole fraction of 2-methylphenol (Gas); method: Density calibration data
Temperature, K	Pressure, kPa	Mole fraction of 2-methylphenol	uncertainty
333.15	24.14	.0113	.002
333.15	25.81	.0137	.002
333.15	26.18	.0095	.002
363.15	80.31	.0167	.002
363.15	87.35	.0145	.002
363.15	89.13	.015	.002

System: 2-methylphenol + toluene + water; phases: Liquid
Fixed: Temperature, K = 303.15
Fixed: Pressure, kPa = 101
Property: Mass density, kg/m3 (Liquid); method: Vibrating tube method
Mole fraction of toluene	Mole fraction of 2-methylphenol	Mass density, kg/m3	uncertainty
0	1	1036.94	
.0529	.9471	1027.55	
.0849	.9151	1021.91	
.1409	.8591	1011.86	
.203	.797	1000.75	
.2749	.7251	987.89	
.341	.659	975.95	
.4343	.5657	959.13	
.5187	.4813	943.88	
.6073	.3927	927.88	
.6873	.3127	913.43	
.7547	.2453	901.26	
.7852	.2148	895.73	
.8381	.1619	886.24	
.8481	.1519	884.43	
.9068	.0932	873.9	
.9346	.0654	869.01	
.9737	.0263	862.08	
1	0	857.47	
0	.8909	1036.26	
.0562	.8408	1025.41	
.0819	.8179	1020.45	
.148	.759	1007.86	
.211	.7029	995.9	
.268	.6521	985.22	
.3254	.601	974.52	
.3927	.541	962.15	
.4371	.5015	954.06	
.5269	.4215	937.83	
.5864	.3685	927.29	
.6564	.3061	914.99	
.7104	.258	905.59	
.7867	.19	892.53	
.8414	.1413	883.26	
.9287	.0636	868.87	
0	.8012	1035.55	
.056	.7564	1023.89	
.0852	.7329	1017.91	
.1296	.6973	1008.91	
.1927	.6468	996.27	
.2485	.6021	985.33	
.3096	.5532	973.61	
.3729	.5024	961.68	
.4123	.4708	954.37	
.4899	.4087	940.32	
.5631	.35	927.44	
.6275	.2985	916.34	
.68	.2564	907.46	
.7831	.1738	890.56	
.829	.137	883.25	
.8681	.1057	877.13	
.9323	.0542	867.33	
.9628	.0298	862.79	
0	.675	1034.33	
.0549	.638	1021.49	
.1136	.5984	1008.25	
.1547	.5706	999.23	
.1966	.5423	990.34	
.245	.5097	980.26	
.2989	.4733	969.46	
.3913	.4109	951.76	
.4707	.3573	937.24	
.5857	.2797	917.49	
.7024	.2009	898.84	
.8147	.1251	882.26	
.8915	.0732	871.5	
.9513	.0329	863.56	
.9774	.0181	860.67	
0	.5953	1033.22	
.0222	.5821	1027.5	
.057	.5614	1018.81	
.1005	.5355	1008.27	
.1135	.5277	1005.16	
.1438	.5097	998.12	
.9395	.036	864.23	

System: 2-methylphenol + toluene + water; phases: Liquid, Gas
Property: Mole fraction of 2-methylphenol (Liquid); method: Density calibration data
Property: Mole fraction of toluene (Gas); method: Density calibration data
Property: Mole fraction of 2-methylphenol (Gas); method: Density calibration data
Temperature, K	Pressure, kPa	Mole fraction of toluene	Mole fraction of 2-methylphenol	uncertainty	Mole fraction of toluene	uncertainty	Mole fraction of 2-methylphenol	uncertainty
333.15	8	.1549	.7998	.002	.6044	.002	.0523	.002
333.15	10.05	.1335	.7814	.002	.4301	.002	.0392	.002
333.15	15.51	.1548	.7044	.002	.3609	.002	.0216	.002
333.15	21.81	.1433	.6058	.002	.2761	.002	.0127	.002
333.15	23.5	.1326	.5734	.002	.2636	.002	.0114	.002
333.15	23.72	.0635	.5268	.002	.1623	.002	.0112	.002
333.15	24.54	.121	.5486	.002	.2327	.002	.0097	.002
333.15	24.76	.1382	.5489	.002	.2653	.002	.0104	.002
333.15	27.26	.3221	.4922	.002	.3903	.002	.0073	.002
333.15	27.84	.2179	.499	.002	.318	.002	.0074	.002
333.15	29.25	.3217	.4698	.002	.386	.002	.0067	.002
333.15	30.01	.4339	.4135	.002	.424	.002	.0056	.002
363.15	29.5	.1385	.7902	.002	.4227	.002	.0677	.002
363.15	40.65	.1541	.7358	.002	.3359	.002	.0431	.002
363.15	49.61	.1546	.6962	.002	.3035	.002	.0353	.002
363.15	70.47	.1394	.5983	.002	.2337	.002	.0208	.002
363.15	75.79	.1325	.5616	.002	.2199	.002	.0176	.002
363.15	75.99	.0516	.5213	.002	.117	.002	.0174	.002
363.15	78.63	.1104	.5391	.002	.1946	.002	.0164	.002
363.15	80.07	.136	.5348	.002	.2156	.002	.0159	.002
363.15	84.29	.3473	.4762	.002	.3698	.002	.0119	.002
363.15	87.69	.2245	.4978	.002	.2861	.002	.013	.002

System: 3-methylphenol + toluene + water; phases: Liquid, Gas
Property: Mole fraction of toluene (Liquid); method: Density calibration data
Property: Mole fraction of toluene (Gas); method: Density calibration data
Property: Mole fraction of 3-methylphenol (Gas); method: Density calibration data
Temperature, K	Pressure, kPa	Mole fraction of 3-methylphenol	Mole fraction of toluene	uncertainty	Mole fraction of toluene	uncertainty	Mole fraction of 3-methylphenol	uncertainty
333.15	17.05	.6719	.1559	.002	.4075	.002	.009	.002
333.15	19.87	.6257	.0914	.002	.2005	.002	.0093	.002
333.15	21.2	.5749	.0456	.002	.1335	.002	.0082	.002
333.15	23.85	.5202	.0571	.002	.2006	.002	.0079	.002
333.15	24.54	.5444	.1394	.002	.2277	.002	.006	.002
333.15	25.74	.512	.0933	.002	.2692	.002	.0083	.002
333.15	25.85	.4372	.0608	.002	.2011	.002	.0058	.002
363.15	70.07	.6066	.1595	.002	.3382	.002	.0194	.002
363.15	72.38	.5798	.095	.002	.2036	.002	.0147	.002
363.15	82.94	.4458	.053	.002	.1594	.002	.0109	.002
363.15	85.15	.496	.1225	.002	.2084	.002	.01	.002
363.15	93.59	.41	.099	.002	.1992	.002	.0108	.002

System: 3-methylphenol + toluene + water; phases: Liquid, Gas
Property: Vapor or sublimation pressure, kPa (Liquid); method: Ebulliometric method (Recirculating still)
Temperature, K	Mole fraction of toluene	Mole fraction of 3-methylphenol	Vapor or sublimation pressure, kPa	uncertainty
333.15	.0622	.7417	14.65	.06
333.15	.0819	.6733	18.47	.06
333.15	.0601	.5339	23.94	.06
363.15	.0958	.6616	57.1	.06
363.15	.0902	.5993	69.6	.06
363.15	.0383	.5224	74.19	.06
363.15	.082	.5526	75.99	.06
363.15	.0404	.4936	77.59	.06
363.15	.0489	.4833	79.19	.06
363.15	.0645	.4386	89.66	.06

System: 3-methylphenol + toluene + water; phases: Liquid
Fixed: Temperature, K = 303.15
Fixed: Pressure, kPa = 101
Property: Mass density, kg/m3 (Liquid); method: Vibrating tube method
Mole fraction of toluene	Mole fraction of 3-methylphenol	Mass density, kg/m3	uncertainty
0	1	1025.95	
.0563	.9437	1016.89	
.0853	.9147	1012.17	
.1619	.8381	999.57	
.2521	.7479	984.6	
.3053	.6947	975.73	
.3799	.6201	963.22	
.4494	.5506	951.45	
.5205	.4795	939.49	
.7198	.2802	905.42	
.8129	.1871	889.49	
.8723	.1277	879.32	
.9534	.0466	865.4	
1	0	857.47	
0	.8839	1024.94	
.0807	.8125	1010.57	
.0518	.8381	1015.71	
.2097	.6985	987.94	
.1423	.7581	999.76	
.2989	.6196	972.36	
.3847	.5438	957.6	
.4364	.4982	948.83	
.5261	.4189	933.73	
.5781	.3729	924.98	
.6317	.3256	916.12	
.7046	.2611	904.23	
.7702	.2031	893.58	
.8846	.102	875.4	
.97	.0265	862.1	
0	.7933	1023.97	
.0895	.7223	1006.9	
.0416	.7603	1015.97	
.1465	.6771	996.24	
.256	.5902	976.19	
.2894	.5637	970.22	
.3477	.5175	959.94	
.4224	.4582	947.05	
.4852	.4084	936.46	
.5656	.3446	923.17	
.6286	.2947	913.02	
.7683	.1838	891.21	
0	.704	1022.95	
.0663	.6573	1009.17	
.1135	.6241	999.64	
.2242	.5461	978.02	
.2203	.5489	978.85	
.3613	.4496	953.14	
.3865	.4319	948.68	
.4834	.3637	932.26	
.5541	.3139	920.83	
.6281	.2618	909.31	
.651	.2457	905.73	
.7616	.1678	889.55	
.833	.1176	879.53	
.9373	.0442	865.34	
0	.6558	1022.4	
.0655	.6129	1008.16	
.119	.5778	996.92	
.216	.5142	977.55	
.2597	.4855	969.19	
.3302	.4393	956.24	
.3743	.4103	948.39	
.4591	.3548	933.9	
.5158	.3175	924.6	
.5414	.3008	920.58	
.6652	.2196	901.71	
.7425	.1689	890.66	
.8411	.1042	876.88	
.9407	.0389	864.5	
0	.6312	1022.09	
.0712	.5863	1006.26	
.1443	.5402	990.75	
.2139	.4962	976.76	
.2482	.4746	970.05	
.2788	.4553	964.39	
.3572	.4057	949.99	
.4461	.3496	934.71	
.5313	.2959	920.74	
.5917	.2577	911.54	
.6349	.2305	904.97	
.7382	.1652	890.32	
.8588	.0891	874.04	
.9221	.0492	866.5	
0	.5754	1021.37	
.0349	.5553	1013.01	
.0977	.5191	998.62	
.1759	.4742	981.74	
.2245	.4462	971.81	
.3042	.4003	956.41	
.3608	.3678	946.12	
.4251	.3308	935.16	
.4837	.2971	925.38	
.5695	.2477	912.16	
.6225	.2172	904.32	
.7672	.134	884.73	
.847	.0881	874.79	
.9119	.0507	867.07	
0	.547	1020.94	
.0677	.51	1004.48	
.1022	.4911	996.49	
.1812	.4479	979.21	
.2381	.4167	967.56	
.2816	.393	959.09	
.3776	.3405	941.46	
.4119	.3217	935.52	
.4929	.2774	922.3	
.5394	.252	915.12	
.6246	.2054	902.74	
.6639	.1838	897.28	
.8406	.0872	874.54	
.8663	.0731	871.76	

System: 4-methylphenol + toluene + water; phases: Liquid, Gas
Property: Mole fraction of toluene (Liquid); method: Density calibration data
Property: Mole fraction of toluene (Gas); method: Density calibration data
Property: Mole fraction of 4-methylphenol (Gas); method: Density calibration data
Temperature, K	Pressure, kPa	Mole fraction of 4-methylphenol	Mole fraction of toluene	uncertainty	Mole fraction of toluene	uncertainty	Mole fraction of 4-methylphenol	uncertainty
333.15	16.82	.6621	.1771	.002	.4125	.002	.0073	.002
333.15	19.59	.6238	.1731	.002	.3578	.002	.0074	.002
333.15	22.13	.5951	.1957	.002	.3138	.002	.0049	.002
333.15	24.33	.5565	.1733	.002	.2994	.002	.0032	.002
333.15	24.53	.5521	.2099	.002	.2867	.002	.0025	.002
333.15	25.13	.5542	.1772	.002	.4506	.002	.0054	.002
333.15	26.02	.5322	.1765	.002	.4833	.002	.006	.002
333.15	26.52	.4977	.15	.002	.2494	.002	.0031	.002
333.15	30.14	.4388	.1922	.002	.375	.002	.0033	.002
363.15	48.8	.6631	.1725	.002	.357	.002	.0185	.002
363.15	57.46	.6192	.1666	.002	.3028	.002	.0127	.002
363.15	65.21	.6069	.1949	.002	.2905	.002	.0107	.002
363.15	66.34	.5908	.1903	.002	.3052	.002	.0108	.002
363.15	80.33	.5209	.1709	.002	.2783	.002	.0074	.002
363.15	81.52	.5135	.1512	.002	.2166	.002	.006	.002
363.15	83.38	.5154	.1611	.002	.2237	.002	.0056	.002
363.15	85.09	.5052	.1709	.002	.2885	.002	.0079	.002
363.15	87.97	.4797	.1512	.002	.2682	.002	.0084	.002
363.15	97.33	.4244	.1812	.002	.2971	.002	.0058	.002

System: 4-methylphenol + toluene + water; phases: Liquid mixture 1, Liquid mixture 2, Gas
Property: Mole fraction of toluene (Liquid mixture 1); method: Density calibration data
Temperature, K	Pressure, kPa	Mole fraction of toluene	uncertainty
333.15	31.25	.2231	.002
363.15	99.95	.1766	.002

System: 4-methylphenol + toluene + water; phases: Liquid mixture 1, Liquid mixture 2, Gas
Property: Mole fraction of 4-methylphenol (Liquid mixture 1); method: Density calibration data
Temperature, K	Pressure, kPa	Mole fraction of 4-methylphenol	uncertainty
333.15	31.25	.4226	.002
363.15	99.95	.2467	.002

System: 4-methylphenol + toluene + water; phases: Gas, Liquid mixture 1, Liquid mixture 2
Property: Mole fraction of toluene (Gas); method: Density calibration data
Temperature, K	Pressure, kPa	Mole fraction of toluene	uncertainty
333.15	31.25	.3711	.002
363.15	99.95	.2613	.002

System: 4-methylphenol + toluene + water; phases: Gas, Liquid mixture 1, Liquid mixture 2
Property: Mole fraction of 4-methylphenol (Gas); method: Density calibration data
Temperature, K	Pressure, kPa	Mole fraction of 4-methylphenol	uncertainty
333.15	31.25	.0028	.002
363.15	99.95	.0049	.002

System: 4-methylphenol + toluene + water; phases: Liquid
Fixed: Temperature, K = 303.15
Fixed: Pressure, kPa = 101
Property: Mass density, kg/m3 (Liquid); method: Vibrating tube method
Mole fraction of toluene	Mole fraction of 4-methylphenol	Mass density, kg/m3	uncertainty
0	1	1025.9	
.0588	.9412	1016.31	
.1156	.8844	1007.12	
.1715	.8285	997.89	
.2813	.7187	979.91	
.3882	.6118	962.16	
.4914	.5086	944.32	
.5885	.4115	929.7	
.6906	.3094	912.26	
.775	.225	897.37	
.8337	.1663	887.52	
.886	.114	877.87	
.962	.038	864.24	
1	0	857.47	
0	.8897	1025.1	
.0604	.836	1013.93	
.0729	.8249	1011.61	
.1501	.7562	998.48	
.2019	.7101	989.57	
.3108	.6132	970.57	
.3778	.5536	959.13	
.4307	.5065	950.12	
.5243	.4232	934.29	
.5916	.3634	923.03	
.6473	.3138	913.85	
.7106	.2575	903.41	
.7773	.1981	892.63	
.8368	.1452	882.75	
.9214	.07	869.45	
0	.7976	1023.92	
.0592	.7504	1012.73	
.1294	.6944	999.51	
.1952	.6419	987.52	
.255	.5942	976.52	
.3517	.5171	959.44	
.4728	.4205	938.71	
.5623	.3491	923.85	
.6636	.2683	907.24	
.7625	.1894	892.27	
.8633	.109	877.04	
.9269	.0583	867.75	
0	.74	1023.33	
.0707	.6877	1009.19	
.1367	.6388	996.42	
.1904	.5991	986.22	
.249	.5558	975.35	
.309	.5114	964.35	
.3785	.4599	952.07	
.4467	.4095	940.35	
.4977	.3717	931.79	
.5796	.3111	918.55	
.6357	.2696	909.67	
.7161	.2101	897.42	
.7708	.1696	889.31	
.8495	.1114	877.96	
.897	.0762	871.23	
0	.6758	1022.35	
.0502	.6419	1011.63	
.1129	.5996	998.61	
.147	.5765	991.76	
.1936	.545	982.56	
.2397	.5138	973.69	
.2979	.4745	962.87	
.3812	.4182	947.97	
.4634	.3627	934.05	
.5796	.2841	915.45	
.6972	.2047	897.76	
.8006	.1348	883.27	
.8866	.0766	871.67	
.941	.0399	864.67	
0	.6243	1021.77	
.0525	.5915	1009.88	
.1047	.5589	998.54	
.1805	.5116	982.76	
.2241	.4844	974.15	
.2958	.4396	960.5	
.35	.4058	950.67	
.4295	.3562	936.92	
.4791	.3252	928.68	
.553	.2791	916.98	
.6066	.2456	908.88	
.6966	.1894	895.89	
.767	.1455	886.31	
.8505	.0933	875.4	
.9136	.0539	867.58	
0	.548	1020.42	
.0425	.5247	1009.94	
.1048	.4906	995.34	
.1563	.4623	984.06	
.1981	.4394	976.12	
.3024	.3823	956.29	
.4227	.3164	934.97	
.5291	.2581	917.84	
.628	.2038	903.63	
.7434	.1406	887.75	
.8679	.0724	871.74	

System: phenol + octane + water; phases: Liquid, Gas
Property: Mole fraction of octane (Liquid); method: Titration method
Property: Mole fraction of octane (Gas); method: Titration method
Property: Mole fraction of phenol (Gas); method: Titration method
Temperature, K	Pressure, kPa	Mole fraction of phenol	Mole fraction of octane	uncertainty	Mole fraction of octane	uncertainty	Mole fraction of phenol	uncertainty
333.15	17.4	.6149	.0058	.002	.0936	.005	.0241	.002
333.15	18.05	.5228	.0064	.002	.0485	.005	.0256	.002
333.15	18.88	.4523	.0135	.002	.0561	.005	.0206	.002
333.15	19.11	.5037	.0022	.002	.0657	.005	.0175	.002
333.15	19.23	.4401	.0027	.002	.0206	.005	.0165	.002
333.15	19.59	.5744	.0084	.002	.1994	.005	.0217	.002
333.15	20.2	.4896	.0038	.002	.1314	.005	.0208	.002
333.15	20.81	.459	.0054	.002	.091	.005	.0165	.002
333.15	21.38	.4652	.0067	.002	.1119	.005	.0168	.002
333.15	21.84	.5331	.0072	.002	.234	.005	.0203	.002
333.15	24.69	.4631	.0084	.002	.2375	.005	.0161	.002
333.15	24.89	.4702	.0095	.002	.2676	.005	.014	.002
333.15	26.05	.4946	.005	.002	.3412	.005	.0226	.002
363.15	40.73	.7041	.0133	.002	.1814	.005	.1027	.002
363.15	42.06	.6952	.0141	.002	.2832	.005	.134	.002
363.15	46.28	.6976	.0139	.002	.3454	.005	.1145	.002
363.15	49.8	.647	.0076	.002	.0626	.005	.048	.002
363.15	50.46	.6388	.0094	.002	.2313	.005	.0837	.002
363.15	50.89	.678	.012	.002	.3607	.005	.0831	.002
363.15	52.98	.6184	.0081	.002	.0559	.005	.0385	.002
363.15	55.08	.5658	.0076	.002	.21	.005	.0581	.002
363.15	56.14	.6121	.0068	.002	.0789	.005	.0372	.002
363.15	57.88	.612	.0074	.002	.0837	.005	.0345	.002
363.15	57.98	.6259	.0073	.002	.106	.005	.0375	.002
363.15	58.13	.5981	.0081	.002	.0963	.005	.0228	.002
363.15	69.3	.5926	.0133	.002	.2281	.005	.0224	.002
363.15	82.82	.3868	.008	.002	.2465	.005	.0002	.002
363.15	84.46	.4438	.0068	.002	.2499	.005	.0002	.002

System: 2-methylphenol + octane + water; phases: Liquid, Gas
Property: Mole fraction of octane (Liquid); method: Density calibration data
Property: Mole fraction of octane (Gas); method: Density calibration data
Property: Mole fraction of 2-methylphenol (Gas); method: Density calibration data
Temperature, K	Pressure, kPa	Mole fraction of 2-methylphenol	Mole fraction of octane	uncertainty	Mole fraction of octane	uncertainty	Mole fraction of 2-methylphenol	uncertainty
333.15	13.78	.7806	.0671	.002	.3763	.002	.0222	.002
333.15	14.97	.746	.0393	.002	.2171	.002	.032	.002
333.15	15.05	.7382	.0341	.002	.1958	.002	.0426	.002
333.15	18.88	.7354	.0324	.002	.1572	.002	.0286	.002
333.15	20.09	.6342	.0225	.002	.1546	.002	.0235	.002
333.15	21.31	.621	.033	.002	.2305	.002	.0255	.002
333.15	23.8	.5581	.0344	.002	.2078	.002	.0153	.002
353.15	48.05	.617	.0291	.002	.1591	.002	.0197	.002
353.15	52.66	.572	.033	.002	.1805	.002	.0163	.002
353.15	56.61	.5232	.0338	.002	.1874	.002	.0131	.002

System: 2-methylphenol + octane + water; phases: Liquid mixture 1, Liquid mixture 2, Gas
Property: Mole fraction of octane (Liquid mixture 1); method: Density calibration data
Temperature, K	Pressure, kPa	Mole fraction of octane	uncertainty
333.15	22.5	.0291	.002
333.15	24.87	.0357	.002
333.15	27.18	.0394	.002
333.15	27.9	.0545	.002
333.15	28.56	.0671	.002
333.15	28.98	.0929	.002
353.15	60.24	.0337	.002
353.15	63.25	.0385	.002
353.15	65.29	.0524	.002
353.15	66.21	.0661	.002
353.15	66.75	.0822	.002
353.15	67.53	.1	.002

System: 2-methylphenol + octane + water; phases: Liquid mixture 1, Liquid mixture 2, Gas
Property: Mole fraction of 2-methylphenol (Liquid mixture 1); method: Density calibration data
Temperature, K	Pressure, kPa	Mole fraction of 2-methylphenol	uncertainty
333.15	22.5	.4903	.002
333.15	24.87	.5202	.002
333.15	27.18	.4212	.002
333.15	27.9	.4372	.002
333.15	28.56	.4308	.002
333.15	28.98	.4977	.002
353.15	60.24	.4636	.002
353.15	63.25	.3275	.002
353.15	65.29	.3617	.002
353.15	66.21	.3956	.002
353.15	66.75	.4834	.002
353.15	67.53	.4834	.002

System: 2-methylphenol + octane + water; phases: Gas, Liquid mixture 1, Liquid mixture 2
Property: Mole fraction of octane (Gas); method: Density calibration data
Temperature, K	Pressure, kPa	Mole fraction of octane	uncertainty
333.15	22.5	.2338	.002
333.15	24.87	.2332	.002
333.15	27.18	.2613	.002
333.15	27.9	.2746	.002
333.15	28.56	.3065	.002
333.15	28.98	.2885	.002
353.15	60.24	.1992	.002
353.15	63.25	.2336	.002
353.15	65.29	.256	.002
353.15	66.21	.2617	.002
353.15	66.75	.2635	.002
353.15	67.53	.278	.002

System: 2-methylphenol + octane + water; phases: Gas, Liquid mixture 1, Liquid mixture 2
Property: Mole fraction of 2-methylphenol (Gas); method: Density calibration data
Temperature, K	Pressure, kPa	Mole fraction of 2-methylphenol	uncertainty
333.15	22.5	.0155	.002
333.15	24.87	.0161	.002
333.15	27.18	.0175	.002
333.15	27.9	.0169	.002
333.15	28.56	.0175	.002
333.15	28.98	.0159	.002
353.15	60.24	.0205	.002
353.15	63.25	.0199	.002
353.15	65.29	.0115	.002
353.15	66.21	.0187	.002
353.15	66.75	.0186	.002
353.15	67.53	.018	.002

System: 2-methylphenol + octane + water; phases: Liquid, Gas
Property: Vapor or sublimation pressure, kPa (Liquid); method: Ebulliometric method (Recirculating still)
Temperature, K	Mole fraction of octane	Mole fraction of 2-methylphenol	Vapor or sublimation pressure, kPa	uncertainty
353.15	.0161	.7187	38.91	.06
353.15	.017	.6699	42.74	.06

System: 2-methylphenol + octane + water; phases: Liquid
Fixed: Temperature, K = 303.15
Fixed: Pressure, kPa = 101
Property: Mass density, kg/m3 (Liquid); method: Vibrating tube method
Mole fraction of octane	Mole fraction of 2-methylphenol	Mass density, kg/m3	uncertainty
0	1	1036.94	
.0779	.9221	998.31	
.1634	.8366	958.43	
.2569	.7431	918.23	
.299	.701	901.26	
.36	.64	877.71	
.4277	.5723	853.18	
.4797	.5203	835.08	
.5787	.4213	803.61	
.6607	.3393	779.19	
.7664	.2336	750.13	
.8032	.1968	740.51	
.9143	.0857	713.35	
1	0	694.52	
0	.9409	1036.95	
.05	.8939	1010.32	
.0741	.8712	998.07	
.1603	.7901	956.44	
.227	.7273	926.72	
.2898	.6682	900.46	
.3399	.6211	880.83	
.4226	.5433	850.56	
.4642	.5041	836.2	
.5996	.3768	793.48	
.6933	.2886	767.12	
.7559	.2297	750.39	
.867	.1252	723.22	
.9159	.0791	712.02	
0	.8903	1036.47	
.0518	.8442	1007.87	
.1358	.7693	964.99	
.1955	.7162	936.96	
.2381	.6783	917.98	
.2758	.6447	902.28	
.3533	.5758	871.64	
.4328	.505	843.04	
.5188	.4284	814.49	
.5821	.372	795.24	
.6512	.3106	775.12	
.7217	.2477	756.84	
.8006	.1776	737.32	
.9693	.0273	700.33	
0	.8443	1036.16	
.0424	.8084	1011.69	
.0788	.7778	991.93	
.158	.7108	951.38	
.2128	.6646	925.62	
.3212	.5731	880.01	
.3924	.513	853.33	
.4565	.4588	831.2	
.4986	.4233	817.45	
.5668	.3657	796.64	
.5968	.3404	787.93	
.6913	.2607	762.39	
.7569	.2052	745.94	
.9112	.075	711.44	
0	.8184	1035.9	
.0621	.7675	999.87	
.1372	.7061	959.96	
.1819	.6695	938.15	
.2618	.6041	902.27	
.3165	.5593	879.7	
.3779	.5091	856.4	
.4206	.4741	841.23	
.4784	.4269	821.81	
.5694	.3524	794.07	
.6279	.3045	777.63	
.7003	.2453	758.56	
.841	.1301	725.73	
.9384	.0504	705.5	

System: 3-methylphenol + octane + water; phases: Liquid, Gas
Property: Vapor or sublimation pressure, kPa (Liquid); method: Ebulliometric method (Recirculating still)
Temperature, K	Mole fraction of octane	Mole fraction of 3-methylphenol	Vapor or sublimation pressure, kPa	uncertainty
333.15	.0523	.7394	15.93	.06
363.15	.0591	.7436	63.63	.06

System: 3-methylphenol + octane + water; phases: Liquid mixture 1, Liquid mixture 2, Gas
Property: Mole fraction of octane (Liquid mixture 1); method: Density calibration data
Temperature, K	Pressure, kPa	Mole fraction of octane	uncertainty
333.15	29.39	.1139	.002
363.15	100.5	.1166	.002

System: 3-methylphenol + octane + water; phases: Liquid mixture 1, Liquid mixture 2, Gas
Property: Mole fraction of 3-methylphenol (Liquid mixture 1); method: Density calibration data
Temperature, K	Pressure, kPa	Mole fraction of 3-methylphenol	uncertainty
333.15	29.39	.484	.002
363.15	100.5	.5301	.002

System: 3-methylphenol + octane + water; phases: Gas, Liquid mixture 2, Liquid mixture 1
Property: Mole fraction of octane (Gas); method: Density calibration data
Temperature, K	Pressure, kPa	Mole fraction of octane	uncertainty
333.15	29.39	.2829	.002
363.15	100.5	.1706	.002

System: 3-methylphenol + octane + water; phases: Gas, Liquid mixture 2, Liquid mixture 1
Property: Mole fraction of 3-methylphenol (Gas); method: Density calibration data
Temperature, K	Pressure, kPa	Mole fraction of 3-methylphenol	uncertainty
333.15	29.39	.0022	.002
363.15	100.5	.0033	.002

System: 3-methylphenol + octane + water; phases: Liquid
Fixed: Temperature, K = 303.15
Fixed: Pressure, kPa = 101
Property: Mass density, kg/m3 (Liquid); method: Vibrating tube method
Mole fraction of octane	Mole fraction of 3-methylphenol	Mass density, kg/m3	uncertainty
0	1	1025.95	
.1197	.8803	970.59	
.2473	.7527	916.86	
.3868	.6132	864.19	
.5012	.4988	825.55	
.6387	.3613	783.91	
.7818	.2182	745.29	
.8773	.1227	721.91	
1	0	694.52	
0	.9703	1025.78	
.067	.9053	993.35	
.1364	.838	961.52	
.1858	.79	940.11	
.2519	.7258	912.78	
.32	.6598	886.27	
.3875	.5943	861.67	
.435	.5482	845.15	
.5206	.4652	817.3	
.5572	.4296	806.05	
.6157	.3729	788.74	
.7248	.267	758.78	
.7572	.2356	750.41	
.7967	.1973	740.51	
.875	.1213	721.79	
0	.9426	1025.49	
.0773	.8698	987.43	
.1217	.8279	966.77	
.1862	.7671	938.2	
.2552	.702	909.37	
.3536	.6093	871.51	
.4068	.5592	852.43	
.4553	.5134	836.02	
.5196	.4528	815.39	
.5676	.4076	800.8	
.6269	.3517	783.7	
.7055	.2776	762.38	
.7789	.2084	743.8	
.8089	.1801	736.52	
.8301	.1602	731.5	
.8957	.0984	716.49	
0	.9231	1025.3	
.0565	.871	997.01	
.1122	.8196	970.41	
.1804	.7566	939.58	
.2439	.698	912.71	
.3074	.6394	887.64	
.3763	.5757	862.21	
.418	.5372	847.68	
.5107	.4516	817.22	
.5724	.3947	798.55	
.661	.313	773.46	
.706	.2714	761.53	
.7602	.2213	747.71	
.8154	.1704	734.41	
0	.8759	1024.67	
.0663	.8178	989.98	
.1036	.7852	971.48	
.1149	.7752	965.99	
.2354	.6697	911.89	
.2956	.617	887.56	
.3559	.5642	864.79	
.4084	.5182	846.2	
.4878	.4487	820.19	
.5552	.3896	799.76	
.6279	.3259	779.21	
.6915	.2703	762.55	
.7104	.2537	757.76	
.7628	.2078	744.92	
.7836	.1896	740.03	
.8431	.1374	726.56	
.9205	.0696	710.17	
0	.8635	1024.3	
.0597	.812	992.85	
.118	.7617	964.06	
.1754	.7121	937.29	
.2347	.6609	911.42	
.2993	.605	885.24	
.3588	.5537	862.95	
.4227	.4985	840.54	
.4924	.4383	817.94	
.5298	.406	806.49	
.6096	.3372	783.61	
.6847	.2723	763.73	
.7365	.2275	750.84	
.8382	.1397	727.36	
.8989	.0873	714.31	
0	.845	1024.52	
.0558	.7978	994.4	
.1093	.7526	967.15	
.1672	.7037	939.83	
.2284	.6519	912.98	
.2899	.6	887.74	
.362	.5391	860.54	
.4305	.4812	836.64	
.5487	.3813	799.63	
.6167	.3238	780.52	
.7716	.193	741.7	
.8446	.1313	725.39	
.9057	.0797	712.6	
0	.8215	1024.36	
.0803	.7555	983.78	
.1098	.7313	965.76	
.1643	.6865	939.43	
.2298	.6327	910.27	
.2961	.5782	883.14	
.3543	.5304	861.06	
.4818	.4257	817.81	
0	.7997	1024.04	
.0512	.7588	994.94	
.104	.7166	967.32	
.1874	.6498	927.55	

System: 3-methylphenol + octane + water; phases: Liquid, Gas
Property: Mole fraction of octane (Liquid); method: Density calibration data
Property: Mole fraction of octane (Gas); method: Density calibration data
Property: Mole fraction of 3-methylphenol (Gas); method: Density calibration data
Temperature, K	Pressure, kPa	Mole fraction of 3-methylphenol	Mole fraction of octane	uncertainty	Mole fraction of octane	uncertainty	Mole fraction of 3-methylphenol	uncertainty
333.15	14.04	.8245	.0492	.002	.4352	.002	.0158	.002
333.15	14.47	.7697	.0445	.002	.3925	.002	.0147	.002
333.15	15.41	.7592	.0534	.002	.3806	.002	.0101	.002
333.15	19.09	.7066	.0446	.002	.3079	.002	.0063	.002
333.15	19.18	.6866	.1103	.002	.4252	.002	.0068	.002
333.15	19.84	.6578	.0542	.002	.2789	.002	.0049	.002
333.15	20.04	.6849	.0493	.002	.3084	.002	.0077	.002
333.15	20.11	.6949	.0746	.002	.3591	.002	.0191	.002
333.15	20.88	.672	.0983	.002	.2424	.002	.0061	.002
333.15	21.1	.6663	.0933	.002	.4652	.002	.0219	.002
333.15	21.29	.6436	.0705	.002	.3488	.002	.0017	.002
333.15	25.96	.5644	.1295	.002	.3394	.002	.0039	.002
363.15	12.02	.9391	.0537	.002	.8791	.002	.0063	.002
363.15	47.1	.7827	.0486	.002	.305	.002	.0203	.002
363.15	48.41	.7682	.0547	.002	.4219	.002	.0123	.002
363.15	50	.7563	.0481	.002	.3151	.002	.0211	.002
363.15	54.01	.7317	.0584	.002	.2978	.002	.0179	.002
363.15	58.3	.7074	.0756	.002	.3053	.002	.0136	.002
363.15	61.48	.6932	.1211	.002	.4171	.002	.0165	.002
363.15	63.49	.6932	.0454	.002	.2363	.002	.0122	.002
363.15	64.42	.6642	.0534	.002	.3182	.002	.0138	.002
363.15	67.91	.6545	.0989	.002	.3292	.002	.0161	.002
363.15	68.22	.6633	.0626	.002	.2594	.002	.0105	.002
363.15	68.68	.704	.0414	.002	.3476	.002	.014	.002
363.15	91.2	.4162	.1295	.002	.2808	.002	.006	.002

System: toluene + phenol; phases: Liquid
Property: Mass density, kg/m3 (Liquid); method: Vibrating tube method
Mole fraction of toluene	Temperature, K	Pressure, kPa	Mass density, kg/m3	uncertainty
.0999	313.15	101	1033.8	
.1576	313.15	101	1021.66	
.2581	313.15	101	998.46	
.3492	313.15	101	978.14	
.4363	313.15	101	959.22	
.5438	313.15	101	936.46	
.6351	313.15	101	917.72	
.7288	313.15	101	898.99	
.8334	313.15	101	878.75	
.9015	313.15	101	865.97	

System: phenol + water; phases: Liquid
Property: Mass density, kg/m3 (Liquid); method: Vibrating tube method
Mole fraction of phenol	Temperature, K	Pressure, kPa	Mass density, kg/m3	uncertainty
.9099	313.15	101	1056.28	
.8247	313.15	101	1054.06	
.7052	313.15	101	1050.69	
.6176	313.15	101	1048.12	
.4653	313.15	101	1042.74	
.3794	313.15	101	1038.84	

System: 2-methylphenol + toluene; phases: Liquid
Property: Mass density, kg/m3 (Liquid); method: Vibrating tube method
Mole fraction of toluene	Temperature, K	Pressure, kPa	Mass density, kg/m3	uncertainty
.0529	303.15	101	1027.55	
.0849	303.15	101	1021.91	
.1409	303.15	101	1011.86	
.203	303.15	101	1000.75	
.2749	303.15	101	987.89	
.341	303.15	101	975.95	
.4343	303.15	101	959.13	
.5187	303.15	101	943.88	
.6073	303.15	101	927.88	
.6873	303.15	101	913.43	
.7547	303.15	101	901.26	
.7852	303.15	101	895.73	
.8381	303.15	101	886.24	
.8481	303.15	101	884.43	
.9068	303.15	101	873.9	
.9346	303.15	101	869.01	
.9737	303.15	101	862.08	

System: 2-methylphenol + water; phases: Liquid
Property: Mass density, kg/m3 (Liquid); method: Vibrating tube method
Mole fraction of 2-methylphenol	Temperature, K	Pressure, kPa	Mass density, kg/m3	uncertainty
.8909	303.15	101	1036.26	
.8012	303.15	101	1035.55	
.675	303.15	101	1034.33	
.5953	303.15	101	1033.22	
.9409	303.15	101	1036.95	
.8903	303.15	101	1036.47	
.8443	303.15	101	1036.16	
.8184	303.15	101	1035.9	

System: 3-methylphenol + toluene; phases: Liquid
Property: Mass density, kg/m3 (Liquid); method: Vibrating tube method
Mole fraction of toluene	Temperature, K	Pressure, kPa	Mass density, kg/m3	uncertainty
.0563	303.15	101	1016.89	
.0853	303.15	101	1012.17	
.1619	303.15	101	999.57	
.2521	303.15	101	984.6	
.3053	303.15	101	975.73	
.3799	303.15	101	963.22	
.4494	303.15	101	951.45	
.5205	303.15	101	939.49	
.7198	303.15	101	905.42	
.8129	303.15	101	889.49	
.8723	303.15	101	879.32	
.9534	303.15	101	865.4	

System: 3-methylphenol + water; phases: Liquid
Property: Mass density, kg/m3 (Liquid); method: Vibrating tube method
Mole fraction of 3-methylphenol	Temperature, K	Pressure, kPa	Mass density, kg/m3	uncertainty
.8839	303.15	101	1024.94	
.7933	303.15	101	1023.97	
.704	303.15	101	1022.95	
.6558	303.15	101	1022.4	
.6312	303.15	101	1022.09	
.5754	303.15	101	1021.37	
.547	303.15	101	1020.94	
.9703	303.15	101	1025.78	
.9426	303.15	101	1025.49	
.9231	303.15	101	1025.3	
.8759	303.15	101	1024.67	
.8635	303.15	101	1024.3	
.845	303.15	101	1024.52	
.8215	303.15	101	1024.36	
.7997	303.15	101	1024.04	

System: 4-methylphenol + toluene; phases: Liquid
Property: Mass density, kg/m3 (Liquid); method: Vibrating tube method
Mole fraction of toluene	Temperature, K	Pressure, kPa	Mass density, kg/m3	uncertainty
.0588	303.15	101	1016.31	
.1156	303.15	101	1007.12	
.1715	303.15	101	997.89	
.2813	303.15	101	979.91	
.3882	303.15	101	962.16	
.4914	303.15	101	944.32	
.5885	303.15	101	929.7	
.6906	303.15	101	912.26	
.775	303.15	101	897.37	
.8337	303.15	101	887.52	
.886	303.15	101	877.87	
.962	303.15	101	864.24	

System: 4-methylphenol + water; phases: Liquid
Property: Mass density, kg/m3 (Liquid); method: Vibrating tube method
Mole fraction of 4-methylphenol	Temperature, K	Pressure, kPa	Mass density, kg/m3	uncertainty
.8897	303.15	101	1025.1	
.7976	303.15	101	1023.92	
.74	303.15	101	1023.33	
.6758	303.15	101	1022.35	
.6243	303.15	101	1021.77	
.548	303.15	101	1020.42	

System: 2-methylphenol + octane; phases: Liquid
Property: Mass density, kg/m3 (Liquid); method: Vibrating tube method
Mole fraction of octane	Temperature, K	Pressure, kPa	Mass density, kg/m3	uncertainty
.0779	303.15	101	998.31	
.1634	303.15	101	958.43	
.2569	303.15	101	918.23	
.299	303.15	101	901.26	
.36	303.15	101	877.71	
.4277	303.15	101	853.18	
.4797	303.15	101	835.08	
.5787	303.15	101	803.61	
.6607	303.15	101	779.19	
.7664	303.15	101	750.13	
.8032	303.15	101	740.51	
.9143	303.15	101	713.35	

System: 3-methylphenol + octane; phases: Liquid
Property: Mass density, kg/m3 (Liquid); method: Vibrating tube method
Mole fraction of octane	Temperature, K	Pressure, kPa	Mass density, kg/m3	uncertainty
.1197	303.15	101	970.59	
.2473	303.15	101	916.86	
.3868	303.15	101	864.19	
.5012	303.15	101	825.55	
.6387	303.15	101	783.91	
.7818	303.15	101	745.29	
.8773	303.15	101	721.91	
