Measured thermophysical data. Viscosity and Electrical Conductivity of Binary Mixtures of CnMIM-BF4 with Ethanol at 288 K, 298 K, 308 K, and 318 K
Source: J. Chem. Eng. Data, 2010, 10.1021/je100687x
Compound 1: 1-ethyl-3-methylimidazolium tetrafluoroborate, C6H11BF4N2
Compound 2: 1-butyl-3-methylimidazolium tetrafluoroborate, C8H15BF4N2
Compound 3: 1-hexyl-3-methylimidazolium tetrafluoroborate, C10H19BF4N2
Compound 4: 1-octyl-3-methylimidazolium tetrafluoroborate, C12H23BF4N2
Compound 5: ethanol, C2H6O

System: 1-ethyl-3-methylimidazolium tetrafluoroborate; phases: Liquid
Property: Viscosity, Pa*s (Liquid); method: Concentric cylinders viscometry
Temperature, K	Pressure, kPa	Viscosity, Pa*s	uncertainty
288.15	101	.0555	.000555
298.15	101	.0369	.000369
308.15	101	.026	.00026
318.15	101	.01917	.0001917

System: 1-ethyl-3-methylimidazolium tetrafluoroborate; phases: Liquid
Property: Electrical conductivity, S/m (Liquid); method: Crison GLP 31+ conductivimeter
Pressure, kPa	Temperature, K	Electrical conductivity, S/m	uncertainty
101	298.15	1.63	

System: 1-butyl-3-methylimidazolium tetrafluoroborate; phases: Liquid
Property: Viscosity, Pa*s (Liquid); method: Concentric cylinders viscometry
Temperature, K	Pressure, kPa	Viscosity, Pa*s	uncertainty
288.15	101	.1735	.001735
298.15	101	.0992	.000992
308.15	101	.0613	.000613
318.15	101	.0404	.000404

System: 1-butyl-3-methylimidazolium tetrafluoroborate; phases: Liquid
Property: Electrical conductivity, S/m (Liquid); method: Crison GLP 31+ conductivimeter
Pressure, kPa	Temperature, K	Electrical conductivity, S/m	uncertainty
101	298.15	.352	

System: 1-hexyl-3-methylimidazolium tetrafluoroborate; phases: Liquid
Property: Viscosity, Pa*s (Liquid); method: Concentric cylinders viscometry
Temperature, K	Pressure, kPa	Viscosity, Pa*s	uncertainty
288.15	101	.3575	.003575
298.15	101	.1909	.001909
308.15	101	.1103	.001103
318.15	101	.0685	.000685

System: 1-hexyl-3-methylimidazolium tetrafluoroborate; phases: Liquid
Property: Electrical conductivity, S/m (Liquid); method: Crison GLP 31+ conductivimeter
Pressure, kPa	Temperature, K	Electrical conductivity, S/m	uncertainty
101	298.15	.126	

System: 1-octyl-3-methylimidazolium tetrafluoroborate; phases: Liquid
Property: Viscosity, Pa*s (Liquid); method: Concentric cylinders viscometry
Temperature, K	Pressure, kPa	Viscosity, Pa*s	uncertainty
288.15	101	.686	.00686
298.15	101	.3374	.003374
308.15	101	.1877	.001877
318.15	101	.1121	.001121

System: 1-octyl-3-methylimidazolium tetrafluoroborate; phases: Liquid
Property: Electrical conductivity, S/m (Liquid); method: Crison GLP 31+ conductivimeter
Pressure, kPa	Temperature, K	Electrical conductivity, S/m	uncertainty
101	298.15	.069	

System: ethanol; phases: Liquid
Property: Viscosity, Pa*s (Liquid); method: Concentric cylinders viscometry
Temperature, K	Pressure, kPa	Viscosity, Pa*s	uncertainty
288.15	101	.001296	.00001296
308.15	101	.0009153	.000009153
298.15	101	.001091	.00001091
318.15	101	.0007738	.000007738

System: ethanol; phases: Liquid
Property: Electrical conductivity, S/m (Liquid); method: Crison GLP 31+ conductivimeter
Pressure, kPa	Temperature, K	Electrical conductivity, S/m	uncertainty
101	298.15	.00003	

System: ethanol + 1-ethyl-3-methylimidazolium tetrafluoroborate; phases: Liquid
Fixed: Pressure, kPa = 101
Property: Viscosity, Pa*s (Liquid); method: Concentric cylinders viscometry
Temperature, K	Mole fraction of ethanol	Viscosity, Pa*s	uncertainty
288.15	0	.0555	.000555
298.15	0	.0369	.000369
308.15	0	.026	.00026
318.15	0	.01917	.0001917
288.15	.0946	.03476	.0003476
298.15	.0946	.02446	.0002446
308.15	.0946	.01804	.0001804
318.15	.0946	.01379	.0001379
298.15	.1928	.01833	.0001833
288.15	.1928	.02525	.0002525
308.15	.1928	.01388	.0001388
318.15	.1928	.01084	.0001084
308.15	.2757	.01139	.0001139
288.15	.2757	.02025	.0002025
298.15	.2757	.01492	.0001492
318.15	.2757	.008958	.00008958
288.15	.3116	.01817	.0001817
298.15	.3116	.01347	.0001347
308.15	.3116	.01038	.0001038
318.15	.3116	.008238	.00008238
288.15	.3913	.01368	.0001368
308.15	.3913	.008074	.00008074
298.15	.3913	.0103	.000103
318.15	.3913	.006494	.00006494
308.15	.4553	.006668	.00006668
298.15	.4553	.008445	.00008445
288.15	.4553	.01247	.0001247
318.15	.4553	.005408	.00005408
288.15	1	.001296	.00001296
308.15	1	.0009153	.000009153
298.15	1	.001091	.00001091
318.15	1	.0007738	.000007738

System: ethanol + 1-ethyl-3-methylimidazolium tetrafluoroborate; phases: Liquid
Fixed: Pressure, kPa = 101
Fixed: Temperature, K = 298.15
Property: Electrical conductivity, S/m (Liquid); method: Crison GLP 31+ conductivimeter
Mole fraction of ethanol	Electrical conductivity, S/m	uncertainty
0	1.63	
.028	1.718	
.057	1.843	
.0719	1.911	
.1034	2.061	
.1624	2.287	
.242	2.647	
.3165	2.982	
.3892	3.228	
.4085	3.278	
.4322	3.26	
.4511	3.47	
.4613	3.561	

System: ethanol + 1-butyl-3-methylimidazolium tetrafluoroborate; phases: Liquid
Fixed: Pressure, kPa = 101
Property: Viscosity, Pa*s (Liquid); method: Concentric cylinders viscometry
Temperature, K	Mole fraction of ethanol	Viscosity, Pa*s	uncertainty
288.15	0	.1735	.001735
288.15	.0765	.1214	.001214
288.15	.199	.06906	.0006906
288.15	.2894	.04523	.0004523
288.15	.3918	.02839	.0002839
288.15	.4976	.01813	.0001813
288.15	.6001	.01235	.0001235
288.15	.717	.00786	.0000786
288.15	.7998	.005676	.00005676
288.15	.9014	.00306	.0000306
298.15	0	.0992	.000992
298.15	.0765	.07249	.0007249
298.15	.199	.04405	.0004405
298.15	.2894	.03015	.0003015
298.15	.3918	.0197	.000197
298.15	.4976	.01297	.0001297
298.15	.6001	.009038	.00009038
298.15	.717	.00525	.0000525
298.15	.7998	.004286	.00004286
298.15	.9014	.002371	.00002371
308.15	0	.0613	.000613
308.15	.0765	.04639	.0004639
308.15	.199	.02981	.0002981
308.15	.2894	.02118	.0002118
308.15	.3918	.01445	.0001445
308.15	.4976	.009836	.00009836
308.15	.6001	.007026	.00007026
308.15	.717	.004056	.00004056
308.15	.7998	.003363	.00003363
308.15	.9014	.001947	.00001947
318.15	0	.0404	.000404
318.15	.0765	.03143	.0003143
318.15	.199	.02116	.0002116
318.15	.2894	.0155	.000155
318.15	.3918	.01101	.0001101
318.15	.4976	.007691	.00007691
318.15	.6001	.005567	.00005567
318.15	.717	.003252	.00003252
318.15	.7998	.002723	.00002723
318.15	.9014	.001641	.00001641

System: ethanol + 1-butyl-3-methylimidazolium tetrafluoroborate; phases: Liquid
Fixed: Pressure, kPa = 101
Fixed: Temperature, K = 298.15
Property: Electrical conductivity, S/m (Liquid); method: Crison GLP 31+ conductivimeter
Mole fraction of ethanol	Electrical conductivity, S/m	uncertainty
0	.352	
.0368	.393	
.1136	.522	
.1492	.594	
.2992	.939	
.4162	1.268	
.5137	1.551	
.5866	1.729	
.6426	1.826	
.6863	1.871	
.7204	1.874	
.7498	1.859	
.7947	1.745	
.8394	1.564	
.8763	1.343	
.8835	1.297	
.8908	1.249	
.9034	1.155	
.9134	1.077	
.9217	1.01	
.9287	.94	
.9347	.874	
.9399	.825	
.9493	.733	
.9564	.658	
.9617	.597	
.9668	.536	
.9755	.423	
.9897	.221	
.9916	.1944	
.9934	.1623	
.9972	.0851	

System: ethanol + 1-hexyl-3-methylimidazolium tetrafluoroborate; phases: Liquid
Fixed: Pressure, kPa = 101
Property: Viscosity, Pa*s (Liquid); method: Concentric cylinders viscometry
Temperature, K	Mole fraction of ethanol	Viscosity, Pa*s	uncertainty
288.15	0	.3575	.003575
288.15	.1	.2072	.002072
288.15	.197	.1189	.001189
288.15	.298	.06902	.0006902
288.15	.3877	.04892	.0004892
288.15	.4921	.02771	.0002771
288.15	.6009	.01692	.0001692
288.15	.7	.009866	.00009866
288.15	.8002	.005545	.00005545
288.15	.902	.002893	.00002893
298.15	0	.1909	.001909
298.15	.1	.1192	.001192
298.15	.197	.0726	.000726
298.15	.298	.04377	.0004377
298.15	.3877	.03206	.0003206
298.15	.4921	.01886	.0001886
298.15	.6009	.01209	.0001209
298.15	.7	.007513	.00007513
298.15	.8002	.004191	.00004191
298.15	.902	.002284	.00002284
308.15	0	.1103	.001103
308.15	.1	.0742	.000742
308.15	.197	.04659	.0004659
308.15	.298	.02955	.0002955
308.15	.3877	.0221	.000221
308.15	.4921	.01373	.0001373
308.15	.6009	.009004	.00009004
308.15	.7	.005487	.00005487
308.15	.8002	.003278	.00003278
308.15	.902	.001867	.00001867
318.15	0	.0685	.000685
318.15	.1	.04817	.0004817
318.15	.197	.03205	.0003205
318.15	.298	.02119	.0002119
318.15	.3877	.01611	.0001611
318.15	.4921	.0103	.000103
318.15	.6009	.006945	.00006945
318.15	.7	.004498	.00004498
318.15	.8002	.002636	.00002636
318.15	.902	.001506	.00001506

System: ethanol + 1-hexyl-3-methylimidazolium tetrafluoroborate; phases: Liquid
Fixed: Pressure, kPa = 101
Fixed: Temperature, K = 298.15
Property: Electrical conductivity, S/m (Liquid); method: Crison GLP 31+ conductivimeter
Mole fraction of ethanol	Electrical conductivity, S/m	uncertainty
0	.126	
.2439	.33	
.3981	.565	
.4566	.66	
.507	.769	
.5491	.877	
.5861	.947	
.6189	1.034	
.645	1.083	
.6708	1.129	
.6938	1.17	
.7145	1.206	
.733	1.216	
.7495	1.222	
.7648	1.244	
.7909	1.25	
.8217	1.225	
.8454	1.19	
.8637	1.144	
.8755	1.109	
.8857	1.07	
.8946	1.033	
.9042	.98	
.9133	.929	
.9214	.879	
.9267	.832	
.9347	.778	
.9437	.702	
.9526	.621	
.9593	.57	
.9686	.473	
.9758	.393	
.9803	.331	
.9858	.262	
.9892	.214	
.9934	.147	
.996	.102	
.9979	.0636	

System: ethanol + 1-octyl-3-methylimidazolium tetrafluoroborate; phases: Liquid
Fixed: Pressure, kPa = 101
Property: Viscosity, Pa*s (Liquid); method: Concentric cylinders viscometry
Temperature, K	Mole fraction of ethanol	Viscosity, Pa*s	uncertainty
288.15	0	.686	.00686
288.15	.0891	.4283	.004283
288.15	.1902	.2447	.002447
288.15	.2927	.141	.00141
288.15	.3914	.07344	.0007344
288.15	.4911	.04524	.0004524
288.15	.5938	.02602	.0002602
288.15	.6979	.01453	.0001453
288.15	.798	.007219	.00007219
288.15	.9002	.003499	.00003499
298.15	0	.3374	.003374
298.15	.0891	.2248	.002248
298.15	.1902	.1409	.001409
298.15	.2927	.0833	.000833
298.15	.3914	.04635	.0004635
298.15	.4911	.02985	.0002985
298.15	.5938	.01784	.0001784
298.15	.6979	.01039	.0001039
298.15	.798	.005362	.00005362
298.15	.9002	.002764	.00002764
308.15	0	.1877	.001877
308.15	.0891	.1321	.001321
308.15	.1902	.08586	.0008586
308.15	.2927	.05362	.0005362
308.15	.3914	.03124	.0003124
308.15	.4911	.02079	.0002079
308.15	.5938	.01287	.0001287
308.15	.6979	.007756	.00007756
308.15	.798	.004135	.00004135
308.15	.9002	.002206	.00002206
318.15	0	.1121	.001121
318.15	.0891	.08145	.0008145
318.15	.1902	.05618	.0005618
318.15	.2927	.03649	.0003649
318.15	.3914	.0221	.000221
318.15	.4911	.01544	.0001544
318.15	.5938	.009671	.00009671
318.15	.6979	.006015	.00006015
318.15	.798	.003283	.00003283
318.15	.9002	.001802	.00001802

System: ethanol + 1-octyl-3-methylimidazolium tetrafluoroborate; phases: Liquid
Fixed: Pressure, kPa = 101
Fixed: Temperature, K = 298.15
Property: Electrical conductivity, S/m (Liquid); method: Crison GLP 31+ conductivimeter
Mole fraction of ethanol	Electrical conductivity, S/m	uncertainty
0	.069	
.1236	.108	
.183	.143	
.2395	.191	
.2898	.239	
.3359	.291	
.4147	.396	
.4783	.5	
.5316	.59	
.5759	.672	
.6135	.737	
.6455	.786	
.6799	.834	
.7089	.872	
.7381	.911	
.7667	.918	
.7922	.926	
.8138	.92	
.832	.903	
.8472	.882	
.8663	.844	
.8814	.8	
.8938	.762	
.9087	.696	
.9197	.639	
.9307	.583	
.9409	.526	
.9502	.454	
.9586	.393	
.9692	.304	
.9771	.239	
.9851	.1553	
.9915	.0924	
1	.00003	
