Measured thermophysical data. Solubility of Ethane in Aqueous Solutions of 2-(2-Aminoethoxy)ethanol
Source: J. Chem. Eng. Data, 2010, 10.1021/je100796f
Compound 1: ethane, C2H6
Compound 2: 2-(2-aminoethoxy)ethanol, C4H11NO2
Compound 3: water, H2O

System: ethane + 2-(2-aminoethoxy)ethanol + water; phases: Liquid, Gas
Property: Vapor or sublimation pressure, kPa (Liquid); method: digigauge
Temperature, K	Mole fraction of ethane	Solvent: Amount concentration (molarity), mol/dm3 of 2-(2-aminoethoxy)ethanol	Vapor or sublimation pressure, kPa	uncertainty
298.15	.0000489	3	93	10
298.15	.000129	3	263	10
298.15	.000284	6	277	10
298.15	.0003	3	643	10
298.15	.000866	6	898	10
298.15	.000713	3	1730	10
298.15	.0022	6	2650	10
298.15	.00104	3	2990	10
298.15	.00277	6	4200	10
298.15	.00133	3	4225	10
323.15	.000829	6	920	10
323.15	.000376	3	951	10
323.15	.000258	6	263	10
323.15	.000111	3	265	10
323.15	.00237	6	3010	10
323.15	.00102	3	3550	10
323.15	.00302	6	4340	10
323.15	.00146	3	6050	10
323.15	.00387	6	6990	10
323.15	.00169	3	10070	35
323.15	.00463	6	10570	35
323.15	.00169	3	12040	35
323.15	.00475	6	13320	35
348.15	.00222	6	2780	10
348.15	.000265	6	258	10
348.15	.000351	3	894	10
348.15	.000986	3	3020	10
348.15	.000155	3	387	10
348.15	.00388	6	5930	10
348.15	.00162	3	6890	10
348.15	.00183	3	9760	10
348.15	.00492	6	10850	35
348.15	.00187	3	13120	35
348.15	.00081	6	873	10
348.15	.00509	6	13380	35
373.15	.000941	3	3030	10
373.15	.00157	3	5930	10
373.15	.00157	6	6080	10
373.15	.0000951	3	262	10
373.15	.00204	6	9550	10
373.15	.00204	3	9720	10
373.15	.000941	6	3100	10
373.15	.000365	3	989	10
373.15	.0000951	6	251	10
373.15	.000365	6	848	10
373.15	.00225	3	12060	35
373.15	.00225	6	13260	35
398.15	.00229	3	9900	10
398.15	.00101	6	938	10
398.15	.000445	3	1060	10
398.15	.00674	6	9110	10
398.15	.00501	6	5940	10
398.15	.00179	3	6420	10
398.15	.00798	6	12540	35
398.15	.00253	3	12640	35
398.15	.000107	3	294	10
398.15	.00286	6	3080	10
398.15	.000343	6	315	10
398.15	.00103	3	2910	10
