Measured thermophysical data. Densities and Excess Molar Volumes of Binary Mixtures of Bis(2-hydroxyethyl)ammonium Acetate + Water and Monoethanolamine + Bis(2-hydroxyethyl)ammonium Acetate at Temperatures from (303.15 to 353.15) K
Source: J. Chem. Eng. Data, 2010, 10.1021/je1008125
Compound 1: ethanol, 2,2'-iminobis-, acetate (1:1), C6H15NO4, purity 97%
Compound 2: 2-aminoethanol, C2H7NO, purity 99%
Compound 3: water, H2O, purity 99.9%

System: ethanol, 2,2'-iminobis-, acetate (1:1); phases: Liquid
Property: Mass density, kg/m3 (Liquid); method: Vibrating tube method
Temperature, K	Pressure, kPa	Mass density, kg/m3	uncertainty
303.15	101.3	1168.62	.01
313.15	101.3	1162.29	.01
323.15	101.3	1155.84	.01
333.15	101.3	1149.28	.01
343.15	101.3	1142.76	.01
353.15	101.3	1136.12	.01

System: 2-aminoethanol; phases: Liquid
Property: Mass density, kg/m3 (Liquid); method: Vibrating tube method
Temperature, K	Pressure, kPa	Mass density, kg/m3	uncertainty
303.15	101.3	1010.67	.01
313.15	101.3	1002.77	.01
323.15	101.3	994.8	.01
333.15	101.3	986.75	.01
343.15	101.3	978.62	.01
353.15	101.3	970.4	.01

System: water + ethanol, 2,2'-iminobis-, acetate (1:1); phases: Liquid
Fixed: Pressure, kPa = 101.3
Property: Mass density, kg/m3 (Liquid); method: Vibrating tube method
Temperature, K	Mole fraction of ethanol, 2,2'-iminobis-, acetate (1:1)	Mass density, kg/m3	uncertainty
303.15	0	995.7	.01
303.15	.0678	1078.9	.01
303.15	.0995	1100.4	.01
303.15	.1432	1119.8	.01
303.15	.2005	1133.6	.01
303.15	.3159	1151.6	.01
303.15	.4659	1160.6	.01
303.15	.6045	1162.54	.01
303.15	.7465	1165	.01
303.15	.87	1166.6	.01
303.15	1	1168.62	.01
313.15	0	992.2	.01
313.15	.0678	1074.1	.01
313.15	.0995	1095.2	.01
313.15	.1432	1114.2	.01
313.15	.2005	1127.9	.01
313.15	.3159	1145.7	.01
313.15	.4659	1154.7	.01
313.15	.6045	1156.11	.01
313.15	.7465	1158.6	.01
313.15	.87	1160.5	.01
313.15	1	1162.29	.01
323.15	0	988.1	.01
323.15	.0678	1068.8	.01
323.15	.0995	1089.6	.01
323.15	.1432	1108.5	.01
323.15	.2005	1122.1	.01
323.15	.3159	1139.9	.01
323.15	.4659	1148.8	.01
323.15	.6045	1149.67	.01
323.15	.7465	1152.5	.01
323.15	.87	1154	.01
323.15	1	1155.84	.01
333.15	0	983.2	.01
333.15	.0678	1063.3	.01
333.15	.0995	1083.9	.01
333.15	.1432	1102.6	.01
333.15	.2005	1116.1	.01
333.15	.3159	1133.7	.01
333.15	.4659	1142.7	.01
333.15	.6045	1143.28	.01
333.15	.7465	1145.5	.01
333.15	.87	1147.4	.01
333.15	1	1149.28	.01
343.15	0	977.8	.01
343.15	.0678	1057.2	.01
343.15	.0995	1078	.01
343.15	.1432	1096.6	.01
343.15	.2005	1109.9	.01
343.15	.3159	1127.5	.01
343.15	.4659	1136.4	.01
343.15	.6045	1137.2	.01
343.15	.7465	1139.5	.01
343.15	.87	1141	.01
343.15	1	1142.76	.01
353.15	0	971.8	.01
353.15	.0678	1050	.01
353.15	.0995	1071.8	.01
353.15	.1432	1090.4	.01
353.15	.2005	1103.7	.01
353.15	.3159	1121.2	.01
353.15	.4659	1130	.01
353.15	.6045	1130.26	.01
353.15	.7465	1133	.01
353.15	.87	1134.4	.01
353.15	1	1136.12	.01

System: 2-aminoethanol + ethanol, 2,2'-iminobis-, acetate (1:1); phases: Liquid
Fixed: Pressure, kPa = 101.3
Property: Mass density, kg/m3 (Liquid); method: Vibrating tube method
Temperature, K	Mole fraction of ethanol, 2,2'-iminobis-, acetate (1:1)	Mass density, kg/m3	uncertainty
303.15	0	1010.67	.01
303.15	.1	1043.1	.01
303.15	.2028	1067.17	.01
303.15	.3	1084.83	.01
303.15	.4	1098.84	.01
303.15	.5	1108.44	.01
303.15	.5998	1116.24	.01
303.15	.7001	1125.06	.01
303.15	.8004	1134.64	.01
303.15	.9	1149.1	.01
303.15	1	1168.62	.01
313.15	0	1002.77	.01
313.15	.1	1036	.01
313.15	.2028	1060.48	.01
313.15	.3	1078.48	.01
313.15	.4	1092.58	.01
313.15	.5	1102.28	.01
313.15	.5998	1110.45	.01
313.15	.7001	1119.21	.01
313.15	.8004	1128.86	.01
313.15	.9	1143.13	.01
313.15	1	1162.29	.01
323.15	0	994.8	.01
323.15	.1	1029	.01
323.15	.2028	1053.73	.01
323.15	.3	1072.06	.01
323.15	.4	1086.27	.01
323.15	.5	1096.05	.01
323.15	.5998	1104.52	.01
323.15	.7001	1113.25	.01
323.15	.8004	1123.09	.01
323.15	.9	1137.11	.01
323.15	1	1155.84	.01
333.15	0	986.75	.01
333.15	.1	1021.9	.01
333.15	.2028	1046.92	.01
333.15	.3	1065.58	.01
333.15	.4	1079.89	.01
333.15	.5	1089.75	.01
333.15	.5998	1098.53	.01
333.15	.7001	1107.23	.01
333.15	.8004	1117.23	.01
333.15	.9	1131.5	.01
333.15	1	1149.28	.01
343.15	0	978.62	.01
343.15	.1	1014.73	.01
343.15	.2028	1040.05	.01
343.15	.3	1059.04	.01
343.15	.4	1073.44	.01
343.15	.5	1083.38	.01
343.15	.5998	1092.48	.01
343.15	.7001	1101.14	.01
343.15	.8004	1111.29	.01
343.15	.9	1125.5	.01
343.15	1	1142.76	.01
353.15	0	970.4	.01
353.15	.1	1007.5	.01
353.15	.2028	1033.09	.01
353.15	.3	1052.41	.01
353.15	.4	1066.93	.01
353.15	.5	1076.94	.01
353.15	.5998	1086.35	.01
353.15	.7001	1094.96	.01
353.15	.8004	1105.24	.01
353.15	.9	1119.4	.01
353.15	1	1136.12	.01
