Measured thermophysical data. P-V-T Behavior of 2,3,3,3-Tetrafluoroprop-1-ene (HFO-1234yf) in the Vapor Phase from (243 to 373) K
Source: J. Chem. Eng. Data, 2010, 10.1021/je100102q
Compound 1: HFO-1234yf, C3H2F4
Compound 2: ethane, 1,1,1,2-tetrafluoro-, C2H2F4

System: HFO-1234yf; phases: Gas
Property: Molar volume, m3/mol (Gas); method: Isochoric PVT measurement
Temperature, K	Pressure, kPa	Molar volume, m3/mol	uncertainty
243.08	84.5	.022775	.00008
248.02	86.5	.022779	.00008
249.15	87	.022781	.00008
253.07	88.5	.022785	.00008
258.03	90.4	.02279	.00008
263.08	92.4	.022795	.00008
267.98	94.2	.022799	.00008
273.04	96.2	.022805	.00008
277.99	98	.02281	.00008
282.95	99.9	.022814	.00008
287.79	101.7	.022819	.00008
292.76	103.6	.022824	.00008
297.8	105.5	.022829	.00008
303.12	107.4	.022835	.00008
308.11	109.3	.02284	.00008
313.11	111.2	.022845	.00008
318.1	113	.02285	.00008
323.08	114.9	.022855	.00008
328.07	116.8	.02286	.00008
333.04	118.8	.022865	.00008
338.03	120.6	.02287	.00008
343	122.5	.022875	.00008
347.97	124.3	.02288	.00008
352.96	126.1	.022885	.00008
357.92	128	.02289	.00008
362.89	129.8	.022895	.00008
367.87	131.9	.0229	.00008
372.82	133.8	.022905	.00008
243.07	98	.019112	.00008
253.01	105.1	.01912	.00008
262.97	109.8	.019128	.00008
272.92	114.4	.019137	.00008
282.62	118.8	.019145	.00008
292.99	123.5	.019154	.00008
303.12	128.1	.019162	.00008
313.12	132.7	.01917	.00008
323.1	137.1	.019179	.00008
333.06	141.6	.019187	.00008
342.99	146.1	.019196	.00008
352.98	150.6	.019204	.00008
362.93	155	.019212	.00008
372.88	159.4	.019221	.00008
262.93	171.7	.011889	.00008
272.84	179.3	.011894	.00008
282.68	186.6	.011899	.00008
292.58	193.9	.011904	.00008
302.7	201.4	.011909	.00008
313.12	209	.011915	.00008
323.09	216.2	.01192	.00008
333.06	223.4	.011925	.00008
343	230.6	.01193	.00008
352.98	237.7	.011936	.00008
362.96	244.9	.011941	.00008
372.88	252	.011946	.00008
283	394.6	.005292	.00008
287.99	403.8	.005293	.00008
292.95	412.8	.005295	.00008
298.08	422.1	.005296	.00008
303.09	431.1	.005297	.00008
308.1	439.9	.005298	.00008
313.09	448.7	.005299	.00008
318.09	457.5	.0053	.00008
323.08	466.1	.005302	.00008
328.06	474.7	.005303	.00008
333.04	483.3	.005304	.00008
338.01	491.8	.005305	.00008
342.99	500.3	.005306	.00008
347.96	508.8	.005307	.00008
352.91	517.2	.005309	.00008
357.88	525.6	.00531	.00008
362.86	534	.005311	.00008
367.83	542.5	.005312	.00008
372.81	550.9	.005313	.00008
282.75	430.2	.004676	.00008
287.93	447.1	.004677	.00008
292.81	457.2	.004678	.00008
297.89	467.6	.00468	.00008
302.91	477.9	.004681	.00008
308.11	488.4	.004682	.00008
313.11	498.5	.004683	.00008
318.09	508.5	.004684	.00008
323.07	518.3	.004685	.00008
328.06	528.3	.004686	.00008
333.04	538.1	.004687	.00008
333.05	537.8	.004687	.00008
338.03	547.6	.004688	.00008
343.01	557.3	.004689	.00008
347.99	567	.00469	.00008
352.96	576.6	.004691	.00008
357.93	586.2	.004692	.00008
362.92	595.8	.004693	.00008
367.89	605.3	.004694	.00008
372.87	614.8	.004695	.00008
293.1	508.2	.004171	.00008
303.12	531.3	.004173	.00008
313.11	554	.004174	.00008
323.09	576.5	.004176	.00008
333.05	598.7	.004178	.00008
343.01	620.6	.00418	.00008
352.96	642.4	.004182	.00008
362.92	664	.004184	.00008
372.88	685.4	.004185	.00008
303.11	703.6	.002968	.00008
313.11	738.1	.002969	.00008
323.09	771.8	.00297	.00008
333.05	804.7	.002972	.00008
343.02	837.4	.002973	.00008
352.96	869.4	.002974	.00008
362.93	901.2	.002976	.00008
372.84	932.4	.002977	.00008
318.11	861.5	.002534	.00008
328.06	901.7	.002535	.00008
338.02	941.5	.002536	.00008
347.98	980.2	.002537	.00008
357.93	1018.7	.002538	.00008
367.88	1057	.002539	.00008
372.85	1075.9	.00254	.00008
338	1538.8	.001325	.00008
347.94	1624.6	.001325	.00008
357.95	1709	.001326	.00008
367.92	1791.4	.001326	.00008
347.98	2157.7	.000833	.00008
352.99	2237.2	.000833	.00008
357.95	2314.1	.000833	.00008
362.89	2389.2	.000833	.00008
367.88	2463.9	.000834	.00008
372.85	2537.2	.000834	.00008
347.94	2217.8	.000789	.00008
352.91	2303.2	.000789	.00008
357.86	2385.6	.000789	.00008
362.83	2467.7	.000789	.00008
367.8	2548.9	.000789	.00008
372.8	2629.5	.000789	.00008
362.92	3067.5	.000251	.00008
367.92	3386.9	.000251	.00008
372.88	3715.9	.000251	.00008

System: ethane, 1,1,1,2-tetrafluoro-; phases: Gas
Property: Molar volume, m3/mol (Gas); method: Isochoric PVT measurement
Temperature, K	Pressure, kPa	Molar volume, m3/mol	uncertainty
253.09	107.6	.01875	.00008
282.8	121.4	.018775	.00008
292.89	126.2	.018783	.00008
313.1	135.4	.0188	.00008
333.03	144.3	.018816	.00008
352.93	153.2	.018833	.00008
372.84	162.1	.018849	.00008
272.92	158.9	.013584	.00008
292.87	171.9	.013596	.00008
313.1	184.9	.013608	.00008
333.05	197.5	.01362	.00008
353.04	210	.013632	.00008
372.99	222.4	.013644	.00008
282.69	329.1	.006516	.00008
302.58	357.7	.006522	.00008
323.07	386.5	.006528	.00008
342.96	413.7	.006533	.00008
362.89	440.7	.006539	.00008
372.82	454	.006542	.00008
333.03	1610.8	.001248	.00008
343	1706.9	.001248	.00008
352.94	1798.6	.001249	.00008
362.9	1888.6	.001249	.00008
372.87	1976.6	.00125	.00008
