Measured thermophysical data. Ion Association and Solvation of Sulfathiazole Sodium in Aqueous and Partial Aqueous Media
Source: J. Chem. Eng. Data, 2010, 10.1021/je100287g
Compound 1: sulfathiazole sodium, C9H9N3NaO2S2
Compound 2: water, H2O
Compound 3: methyl sulfoxide, C2H6OS
Compound 4: ethanol, C2H6O

System: sulfathiazole sodium + water; phases: Liquid
Fixed: Pressure, kPa = 101
Property: Electrical conductivity, S/m (Liquid); method: digital conductivity meter (CM-180, Elico India)
Temperature, K	Amount concentration (molarity), mol/dm3 of sulfathiazole sodium	Electrical conductivity, S/m	uncertainty
283	.001	.0053	
283	.002	.0101	
283	.004	.0189	
283	.006	.0281	
283	.008	.0366	
283	.01	.0468	
293	.001	.0064	
293	.002	.0124	
293	.004	.0233	
293	.006	.0344	
293	.008	.0447	
293	.01	.0574	
303	.001	.0078	
303	.002	.0151	
303	.004	.0288	
303	.006	.0423	
303	.008	.0545	
303	.01	.07	
313	.001	.00967	
313	.002	.0195	
313	.004	.0353	
313	.006	.0516	
313	.008	.0661	
313	.01	.0866	

System: methyl sulfoxide + sulfathiazole sodium + water; phases: Liquid
Fixed: Pressure, kPa = 101
Property: Electrical conductivity, S/m (Liquid); method: digital conductivity meter (CM-180, Elico India)
Temperature, K	Solvent: Volume fraction of methyl sulfoxide	Amount concentration (molarity), mol/dm3 of sulfathiazole sodium	Electrical conductivity, S/m	uncertainty
283	.1	.001	.0042	
283	.1	.002	.008	
283	.1	.004	.0154	
283	.1	.006	.0227	
283	.1	.008	.0294	
283	.1	.01	.0364	
293	.1	.001	.0054	
293	.1	.002	.0103	
293	.1	.004	.0193	
293	.1	.006	.0287	
293	.1	.008	.0368	
293	.1	.01	.0474	
303	.1	.001	.0066	
303	.1	.002	.0128	
303	.1	.004	.0238	
303	.1	.006	.0355	
303	.1	.008	.0454	
303	.1	.01	.0585	
313	.1	.001	.008	
313	.1	.002	.0153	
313	.1	.004	.0283	
313	.1	.006	.0422	
313	.1	.008	.0545	
313	.1	.01	.0704	
283	.2	.001	.0036	
283	.2	.002	.0068	
283	.2	.004	.0129	
283	.2	.006	.0188	
283	.2	.008	.0244	
283	.2	.01	.031	
293	.2	.001	.0046	
293	.2	.002	.0084	
293	.2	.004	.0158	
293	.2	.006	.0236	
293	.2	.008	.0303	
293	.2	.01	.0392	
303	.2	.001	.0055	
303	.2	.002	.0103	
303	.2	.004	.0197	
303	.2	.006	.0289	
303	.2	.008	.037	
303	.2	.01	.0478	
313	.2	.001	.0067	
313	.2	.002	.0125	
313	.2	.004	.0233	
313	.2	.006	.0348	
313	.2	.008	.0448	
313	.2	.01	.058	
283	.4	.001	.0023	
283	.4	.002	.0043	
283	.4	.004	.008	
283	.4	.006	.0116	
283	.4	.008	.0152	
283	.4	.01	.0195	
293	.4	.001	.0029	
293	.4	.002	.0056	
293	.4	.004	.0102	
293	.4	.006	.0152	
293	.4	.008	.0196	
293	.4	.01	.0252	
303	.4	.001	.0038	
303	.4	.002	.0072	
303	.4	.004	.0131	
303	.4	.006	.0197	
303	.4	.008	.0255	
303	.4	.01	.0327	
313	.4	.001	.0046	
313	.4	.002	.0087	
313	.4	.004	.0159	
313	.4	.006	.0234	
313	.4	.008	.0302	
313	.4	.01	.0401	
283	.8	.001	.0012	
283	.8	.002	.0023	
283	.8	.004	.0042	
283	.8	.006	.0062	
283	.8	.008	.0081	
283	.8	.01	.01	
293	.8	.001	.0015	
293	.8	.002	.0029	
293	.8	.004	.0053	
293	.8	.006	.0077	
293	.8	.008	.01	
293	.8	.01	.0127	
303	.8	.001	.0019	
303	.8	.002	.0036	
303	.8	.004	.0067	
303	.8	.006	.0098	
303	.8	.008	.0126	
303	.8	.01	.016	
313	.8	.001	.0024	
313	.8	.002	.0044	
313	.8	.004	.0081	
313	.8	.006	.0118	
313	.8	.008	.0153	
313	.8	.01	.02	

System: ethanol + sulfathiazole sodium + water; phases: Liquid
Fixed: Pressure, kPa = 101
Property: Electrical conductivity, S/m (Liquid); method: digital conductivity meter (CM-180, Elico India)
Temperature, K	Solvent: Volume fraction of ethanol	Amount concentration (molarity), mol/dm3 of sulfathiazole sodium	Electrical conductivity, S/m	uncertainty
283	.1	.002	.0092	
283	.1	.005	.0196	
283	.1	.008	.0295	
283	.1	.01	.0359	
293	.1	.002	.0131	
293	.1	.005	.0255	
293	.1	.008	.0378	
293	.1	.01	.0474	
303	.1	.002	.0142	
303	.1	.005	.0312	
303	.1	.008	.0471	
303	.1	.01	.0598	
313	.1	.002	.0169	
313	.1	.005	.0374	
313	.1	.008	.0579	
313	.1	.01	.0729	
283	.2	.002	.006	
283	.2	.005	.0138	
283	.2	.008	.0214	
283	.2	.01	.0265	
293	.2	.002	.0081	
293	.2	.005	.0184	
293	.2	.008	.0283	
293	.2	.01	.0359	
303	.2	.002	.0107	
303	.2	.005	.0238	
303	.2	.008	.0367	
303	.2	.01	.0473	
313	.2	.002	.0134	
313	.2	.005	.0299	
313	.2	.008	.0457	
313	.2	.01	.0595	
283	.4	.001	.0021	
283	.4	.002	.0041	
283	.4	.004	.0074	
283	.4	.006	.0107	
283	.4	.008	.0136	
283	.4	.01	.0173	
293	.4	.001	.003	
293	.4	.002	.0058	
293	.4	.004	.0105	
293	.4	.006	.0152	
293	.4	.008	.0196	
293	.4	.01	.0245	
303	.4	.001	.0041	
303	.4	.002	.0077	
303	.4	.004	.0133	
303	.4	.006	.0197	
303	.4	.008	.0255	
303	.4	.01	.0329	
313	.4	.001	.00546	
313	.4	.002	.0099	
313	.4	.004	.0176	
313	.4	.006	.0262	
313	.4	.008	.0331	
313	.4	.01	.0439	
283	.8	.001	.002	
283	.8	.002	.0037	
283	.8	.004	.0065	
283	.8	.006	.0094	
283	.8	.008	.0119	
283	.8	.01	.0148	
293	.8	.001	.00269	
293	.8	.002	.0046	
293	.8	.004	.0081	
293	.8	.006	.0117	
293	.8	.008	.0149	
293	.8	.01	.0187	
303	.8	.001	.0034	
303	.8	.002	.0059	
303	.8	.004	.0103	
303	.8	.006	.015	
303	.8	.008	.019	
303	.8	.01	.0238	
313	.8	.001	.0043	
313	.8	.002	.0072	
313	.8	.004	.0127	
313	.8	.006	.0182	
313	.8	.008	.0234	
313	.8	.01	.0297	
