Measured thermophysical data. Phosphonium-Based Ionic Liquids Analogues and Their Physical Properties
Source: J. Chem. Eng. Data, 2010, 10.1021/je100104v
Compound 1: methyltriphenylphosphonium bromide, C19H18BrP, purity 99%
Compound 2: benzyltriphenylphosphonium chloride, C25H22ClP, purity 99%
Compound 3: 1,2,3-propanetriol, C3H8O3, purity 99%
Compound 4: ethylene glycol, C2H6O2, purity 99%
Compound 5: 2,2,2-trifluoroacetamide, C2H2F3NO, purity 99%
Compound 6: oxygen, O2, purity 99%

System: 1,2,3-propanetriol + methyltriphenylphosphonium bromide; phases: Liquid
Fixed: Pressure, kPa = 101.3
Fixed: Mole fraction of methyltriphenylphosphonium bromide = .3636
Property: Viscosity, Pa*s (Liquid); method: Concentric cylinders viscometry
Temperature, K	Viscosity, Pa*s	uncertainty
318.15	.8871	.044355
328.15	.4149	.020745
338.15	.2057	.010285
348.15	.1048	.00524
358.15	.0774	.00387
368.15	.0369	.001845

System: 1,2,3-propanetriol + methyltriphenylphosphonium bromide; phases: Liquid
Fixed: Pressure, kPa = 101.3
Fixed: Mole fraction of methyltriphenylphosphonium bromide = .3636
Property: Electrical conductivity, S/m (Liquid); method: Eutech Cyberscan Con 11
Temperature, K	Electrical conductivity, S/m	uncertainty
278.15	.00375	.007
288.15	.00826	.007
298.15	.01652	.007
308.15	.0315	.007
318.15	.0555	.007
328.15	.0901	.007
338.15	.1269	.007
348.15	.1816	.007
358.15	.242	.007
368.15	.315	.007

System: 1,2,3-propanetriol + methyltriphenylphosphonium bromide; phases: Liquid
Fixed: Pressure, kPa = 101.3
Fixed: Mole fraction of 1,2,3-propanetriol = .3636
Property: Refractive index (Na D-line) (Liquid); method: Standard Abbe refractometry
Temperature, K	Refractive index (Na D-line)	uncertainty
288.15	1.5708	.0027
298.15	1.5666	.0027
308.15	1.5656	.0027
318.15	1.5627	.0027
328.15	1.5607	.0027
338.15	1.5578	.0027

System: 1,2,3-propanetriol + methyltriphenylphosphonium bromide; phases: Liquid
Fixed: Pressure, kPa = 101
Fixed: Mole fraction of methyltriphenylphosphonium bromide = .3636
Property: Mass density, kg/m3 (Liquid); method: Vibrating tube method
Temperature, K	Mass density, kg/m3	uncertainty
298.15	1289.9	.037
308.15	1283	.037
318.15	1275.9	.037
328.15	1268.8	.037
338.15	1261.9	.037
348.15	1255	.037
358.15	1248	.037

System: ethylene glycol + methyltriphenylphosphonium bromide; phases: Liquid
Fixed: Pressure, kPa = 101.3
Fixed: Mole fraction of methyltriphenylphosphonium bromide = .2
Property: Viscosity, Pa*s (Liquid); method: Concentric cylinders viscometry
Temperature, K	Viscosity, Pa*s	uncertainty
278.15	.345	.01725
288.15	.1861	.009305
298.15	.1098	.00549
308.15	.0686	.00343
318.15	.0395	.001975
328.15	.0197	.000985
338.15	.0054	.00027
348.15	.0018	.00009

System: ethylene glycol + methyltriphenylphosphonium bromide; phases: Liquid
Fixed: Pressure, kPa = 101.3
Fixed: Mole fraction of methyltriphenylphosphonium bromide = .2
Property: Electrical conductivity, S/m (Liquid); method: Eutech Cyberscan Con 11
Temperature, K	Electrical conductivity, S/m	uncertainty
278.15	.0371	.007
288.15	.055	.007
298.15	.0788	.007
308.15	.1094	.007
318.15	.1437	.007
328.15	.1882	.007
338.15	.234	.007
348.15	.285	.007
358.15	.338	.007
368.15	.382	.007

System: ethylene glycol + methyltriphenylphosphonium bromide; phases: Liquid
Fixed: Pressure, kPa = 101.3
Fixed: Mole fraction of ethylene glycol = .2
Property: Refractive index (Na D-line) (Liquid); method: Standard Abbe refractometry
Temperature, K	Refractive index (Na D-line)	uncertainty
288.15	1.5622	.0027
308.15	1.5542	.0027
328.15	1.5483	.0027
338.15	1.5446	.0027

System: ethylene glycol + methyltriphenylphosphonium bromide; phases: Liquid
Fixed: Pressure, kPa = 101
Fixed: Mole fraction of methyltriphenylphosphonium bromide = .5
Property: Mass density, kg/m3 (Liquid); method: Vibrating tube method
Temperature, K	Mass density, kg/m3	uncertainty
298.15	1232.6	.037
308.15	1225.6	.037
318.15	1218.5	.037
328.15	1211.4	.037
338.15	1204.3	.037
348.15	1197.2	.037
358.15	1190	.037

System: 2,2,2-trifluoroacetamide + methyltriphenylphosphonium bromide; phases: Liquid
Fixed: Pressure, kPa = 101.3
Fixed: Mole fraction of methyltriphenylphosphonium bromide = .111
Property: Viscosity, Pa*s (Liquid); method: Concentric cylinders viscometry
Temperature, K	Viscosity, Pa*s	uncertainty
278.15	.6577	.032885
288.15	.4059	.020295
298.15	.1365	.006825
308.15	.0713	.003565
318.15	.039	.00195
328.15	.0241	.001205
338.15	.0166	.00083
348.15	.0111	.000555
358.15	.0009	.000045

System: 2,2,2-trifluoroacetamide + methyltriphenylphosphonium bromide; phases: Liquid
Fixed: Pressure, kPa = 101.3
Fixed: Mole fraction of methyltriphenylphosphonium bromide = .111
Property: Electrical conductivity, S/m (Liquid); method: Eutech Cyberscan Con 11
Temperature, K	Electrical conductivity, S/m	uncertainty
278.15	.01343	.007
288.15	.0351	.007
298.15	.0848	.007
308.15	.1821	.007
318.15	.282	.007
328.15	.349	.007
338.15	.418	.007
348.15	.482	.007
358.15	.55	.007
368.15	.609	.007

System: 2,2,2-trifluoroacetamide + methyltriphenylphosphonium bromide; phases: Liquid
Fixed: Pressure, kPa = 101.3
Fixed: Mole fraction of 2,2,2-trifluoroacetamide = .111
Property: Refractive index (Na D-line) (Liquid); method: Standard Abbe refractometry
Temperature, K	Refractive index (Na D-line)	uncertainty
288.15	1.4913	.0027
298.15	1.4849	.0027
308.15	1.4824	.0027
318.15	1.4782	.0027
328.15	1.4745	.0027
338.15	1.4737	.0027

System: 2,2,2-trifluoroacetamide + methyltriphenylphosphonium bromide; phases: Liquid
Fixed: Pressure, kPa = 101
Fixed: Mole fraction of methyltriphenylphosphonium bromide = .5
Property: Mass density, kg/m3 (Liquid); method: Vibrating tube method
Temperature, K	Mass density, kg/m3	uncertainty
298.15	1394.7	.037
308.15	1383.7	.037
318.15	1372.7	.037
328.15	1361.6	.037
338.15	1350.4	.037
348.15	1339.3	.037
358.15	1328.2	.037

System: 1,2,3-propanetriol + benzyltriphenylphosphonium chloride; phases: Liquid
Fixed: Pressure, kPa = 101.3
Fixed: Mole fraction of benzyltriphenylphosphonium chloride = .167
Property: Viscosity, Pa*s (Liquid); method: Concentric cylinders viscometry
Temperature, K	Viscosity, Pa*s	uncertainty
328.15	.5537	.027685
338.15	.3393	.016965
348.15	.1186	.00593
358.15	.0755	.003775
368.15	.0387	.001935

System: 1,2,3-propanetriol + benzyltriphenylphosphonium chloride; phases: Liquid
Fixed: Pressure, kPa = 101.3
Fixed: Mole fraction of benzyltriphenylphosphonium chloride = .167
Property: Electrical conductivity, S/m (Liquid); method: Eutech Cyberscan Con 11
Temperature, K	Electrical conductivity, S/m	uncertainty
328.15	.01628	.007
338.15	.00187	.007
348.15	.00167	.007
358.15	.00151	.007
368.15	.00139	.007

System: 1,2,3-propanetriol + benzyltriphenylphosphonium chloride; phases: Liquid
Fixed: Pressure, kPa = 101.3
Fixed: Mole fraction of 1,2,3-propanetriol = .111
Property: Refractive index (Na D-line) (Liquid); method: Standard Abbe refractometry
Temperature, K	Refractive index (Na D-line)	uncertainty
328.15	1.5502	.0027
338.15	1.5168	.0027

System: ethylene glycol + benzyltriphenylphosphonium chloride; phases: Liquid
Fixed: Pressure, kPa = 101.3
Fixed: Mole fraction of benzyltriphenylphosphonium chloride = .25
Property: Viscosity, Pa*s (Liquid); method: Concentric cylinders viscometry
Temperature, K	Viscosity, Pa*s	uncertainty
328.15	.2019	.010095
338.15	.0855	.004275
348.15	.0593	.002965
358.15	.0505	.002525
368.15	.0359	.001795

System: ethylene glycol + benzyltriphenylphosphonium chloride; phases: Liquid
Fixed: Pressure, kPa = 101.3
Fixed: Mole fraction of benzyltriphenylphosphonium chloride = .25
Property: Electrical conductivity, S/m (Liquid); method: Eutech Cyberscan Con 11
Temperature, K	Electrical conductivity, S/m	uncertainty
328.15	.0485	.007
338.15	.01989	.007
348.15	.00164	.007
358.15	.00148	.007
368.15	.00136	.007

System: ethylene glycol + benzyltriphenylphosphonium chloride; phases: Liquid
Fixed: Pressure, kPa = 101.3
Fixed: Mole fraction of ethylene glycol = .111
Property: Refractive index (Na D-line) (Liquid); method: Standard Abbe refractometry
Temperature, K	Refractive index (Na D-line)	uncertainty
328.15	1.5258	.0027
338.15	1.5309	.0027

System: 1,2,3-propanetriol + oxygen + methyltriphenylphosphonium bromide; phases: Liquid, Gas
Fixed: Solvent: Amount ratio of component to other component of binary solvent of methyltriphenylphosphonium bromide = .5714
Fixed: Pressure, kPa = 101.3
Property: Mass concentration, kg/m3 of oxygen (Liquid); method: Hand Held Meter
Temperature, K	Mass concentration, kg/m3 of oxygen	uncertainty
278.15	.00143	.00003
288.15	.00109	.00003
298.15	.00104	.00003
308.15	.00105	.00003
318.15	.00114	.00003
328.15	.00125	.00003
338.15	.00132	.00003
348.15	.0019	.00003
358.15	.00174	.00003
368.15	.00132	.00003

System: ethylene glycol + oxygen + methyltriphenylphosphonium bromide; phases: Liquid, Gas
Fixed: Solvent: Amount ratio of component to other component of binary solvent of methyltriphenylphosphonium bromide = .25
Fixed: Pressure, kPa = 101.3
Property: Mass concentration, kg/m3 of oxygen (Liquid); method: Hand Held Meter
Temperature, K	Mass concentration, kg/m3 of oxygen	uncertainty
278.15	.00303	.00003
288.15	.00189	.00003
298.15	.00122	.00003
308.15	.00079	.00003
318.15	.00073	.00003
328.15	.00046	.00003
338.15	.00112	.00003
348.15	.00096	.00003
358.15	.0009	.00003
368.15	.0016	.00003

System: 2,2,2-trifluoroacetamide + oxygen + methyltriphenylphosphonium bromide; phases: Liquid, Gas
Fixed: Solvent: Amount ratio of component to other component of binary solvent of methyltriphenylphosphonium bromide = .125
Fixed: Pressure, kPa = 101.3
Property: Mass concentration, kg/m3 of oxygen (Liquid); method: Hand Held Meter
Temperature, K	Mass concentration, kg/m3 of oxygen	uncertainty
328.15	.00218	.00003
338.15	.00177	.00003
348.15	.0019	.00003
358.15	.00255	.00003
368.15	.00152	.00003

System: 1,2,3-propanetriol + benzyltriphenylphosphonium chloride + oxygen; phases: Liquid, Gas
Fixed: Solvent: Amount ratio of component to other component of binary solvent of benzyltriphenylphosphonium chloride = .2
Fixed: Pressure, kPa = 101.3
Property: Mass concentration, kg/m3 of oxygen (Liquid); method: Hand Held Meter
Temperature, K	Mass concentration, kg/m3 of oxygen	uncertainty
328.15	.00089	.00003
338.15	.00081	.00003
348.15	.00079	.00003
358.15	.00083	.00003
368.15	.00103	.00003

System: ethylene glycol + benzyltriphenylphosphonium chloride + oxygen; phases: Liquid, Gas
Fixed: Solvent: Amount ratio of component to other component of binary solvent of benzyltriphenylphosphonium chloride = .333
Fixed: Pressure, kPa = 101.3
Property: Mass concentration, kg/m3 of oxygen (Liquid); method: Hand Held Meter
Temperature, K	Mass concentration, kg/m3 of oxygen	uncertainty
328.15	.00369	.00003
338.15	.0013	.00003
348.15	.00052	.00003
358.15	.00053	.00003
368.15	.00053	.00003
