Measured thermophysical data. Solubilities of Pioglitazone Hydrochloride in Different Solvents
Source: J. Chem. Eng. Data, 2011, 10.1021/je101230a
Compound 1: pioglitazone hydrochloride, C19H21ClN2O3S, purity 99%
Compound 2: methanol, CH4O, purity 99.5%
Compound 3: ethanol, C2H6O, purity 99.5%
Compound 4: propan-1-ol, C3H8O, purity 99.5%
Compound 5: acetic acid, C2H4O2, purity 99.5%
Compound 6: N,N-dimethylacetamide, C4H9NO, purity 99.5%

System: pioglitazone hydrochloride; phases: Crystal, Liquid, Air at 1 atmosphere
Property: Normal melting temperature, K (Crystal); method: DSC/DTA
Normal melting temperature, K	uncertainty
471.15	.5

System: methanol + pioglitazone hydrochloride; phases: Liquid, Crystal
Fixed: Pressure, kPa = 101
Property: Mole fraction of pioglitazone hydrochloride (Liquid); method: Laser monitoring
Temperature, K	Mole fraction of pioglitazone hydrochloride	uncertainty
278.15	.0039978	.000039978
283.15	.004935	.00004935
288.15	.0061475	.000061475
293.15	.0073788	.000073788
298.15	.0085977	.000085977
303.15	.0101101	.000101101
308.15	.0120906	.000120906
313.15	.0143983	.000143983
318.15	.0173031	.000173031
323.15	.0210504	.000210504

System: ethanol + pioglitazone hydrochloride; phases: Liquid, Crystal
Fixed: Pressure, kPa = 101
Property: Mole fraction of pioglitazone hydrochloride (Liquid); method: Laser monitoring
Temperature, K	Mole fraction of pioglitazone hydrochloride	uncertainty
278.15	.0005345	.000005345
284.15	.0006261	.000006261
288.15	.0007231	.000007231
293.15	.000879	.00000879
298.15	.0010256	.000010256
303.15	.0012085	.000012085
308.15	.0014691	.000014691
313.15	.001785	.00001785
318.15	.0022173	.000022173
323.15	.002661	.00002661

System: propan-1-ol + pioglitazone hydrochloride; phases: Liquid, Crystal
Fixed: Pressure, kPa = 101
Property: Mole fraction of pioglitazone hydrochloride (Liquid); method: Laser monitoring
Temperature, K	Mole fraction of pioglitazone hydrochloride	uncertainty
278.15	.0003255	.000003255
283.15	.0003949	.000003949
288.15	.000456	.00000456
293.15	.000522	.00000522
298.15	.0006296	.000006296
303.15	.0007501	.000007501
308.15	.0008801	.000008801
313.15	.0010407	.000010407
318.15	.0012721	.000012721
323.15	.0014899	.000014899

System: acetic acid + pioglitazone hydrochloride; phases: Liquid, Crystal
Fixed: Pressure, kPa = 101
Property: Mole fraction of pioglitazone hydrochloride (Liquid); method: Laser monitoring
Temperature, K	Mole fraction of pioglitazone hydrochloride	uncertainty
288.15	.001083	.00001083
293.15	.0015039	.000015039
298.15	.0020301	.000020301
303.15	.0027585	.000027585
308.15	.0037977	.000037977
313.15	.0055831	.000055831
318.15	.0080358	.000080358
323.15	.0118434	.000118434

System: N,N-dimethylacetamide + pioglitazone hydrochloride; phases: Liquid, Crystal
Fixed: Pressure, kPa = 101
Property: Mole fraction of pioglitazone hydrochloride (Liquid); method: Laser monitoring
Temperature, K	Mole fraction of pioglitazone hydrochloride	uncertainty
278.15	.0161247	.000161247
283.15	.017027	.00017027
288.15	.0182974	.000182974
293.15	.0194495	.000194495
298.15	.0209768	.000209768
303.15	.0226955	.000226955
308.15	.0246933	.000246933
313.15	.0268853	.000268853
318.15	.0292039	.000292039
323.15	.0323228	.000323228
