Measured thermophysical data. Cosolvent Selection for Benzene-Cyclohexane Separation in Extractive Distillation
Source: J. Chem. Eng. Data, 2010, 10.1021/je100081v
Compound 1: N-formylmorpholine, C5H9NO2
Compound 2: benzene, C6H6, purity 99.5%
Compound 3: cyclohexane, C6H12, purity 99.5%
Compound 4: ethylene glycol, C2H6O2, purity 99.7%

System: N-formylmorpholine; phases: Liquid, Gas
Property: Vapor or sublimation pressure, kPa (Liquid); method: Ebulliometric method (Recirculating still)
Temperature, K	Vapor or sublimation pressure, kPa	uncertainty
509.95	101.32	

System: ethylene glycol; phases: Liquid, Gas
Property: Vapor or sublimation pressure, kPa (Liquid); method: Ebulliometric method (Recirculating still)
Temperature, K	Vapor or sublimation pressure, kPa	uncertainty
469.15	101.32	

System: benzene + N-formylmorpholine; phases: Liquid, Gas
Property: Boiling temperature at pressure P, K (Liquid); method: Ebulliometric method (Recirculating still)
Mole fraction of benzene	Pressure, kPa	Boiling temperature at pressure P, K	uncertainty
.9207	101.32	355	.01
.8792	101.32	355.75	.01
.8296	101.32	357.46	.01
.7487	101.32	358.74	.01
.7078	101.32	360.4	.01
.6154	101.32	363.45	.01
.5514	101.32	366.85	.01
.4717	101.32	370.85	.01
.3887	101.32	377.85	.01
.29	101.32	388.35	.01

System: benzene + N-formylmorpholine; phases: Gas, Liquid
Property: Mole fraction of benzene (Gas); method: Chromatography
Mole fraction of benzene	Pressure, kPa	Mole fraction of benzene	uncertainty
.9207	101.32	.9994	
.8792	101.32	.9991	
.8296	101.32	.9989	
.7487	101.32	.9986	
.7078	101.32	.9983	
.6154	101.32	.9968	
.5514	101.32	.9965	
.4717	101.32	.991	
.3887	101.32	.9879	
.29	101.32	.9854	

System: ethylene glycol + N-formylmorpholine; phases: Liquid, Gas
Property: Boiling temperature at pressure P, K (Liquid); method: Ebulliometric method (Recirculating still)
Mole fraction of ethylene glycol	Pressure, kPa	Boiling temperature at pressure P, K	uncertainty
1	101.32	469.15	.01
.956	101.32	470.54	.01
.9403	101.32	470.77	.01
.8935	101.32	471.35	.01
.8896	101.32	471.55	.01
.869	101.32	472.15	.01
.8335	101.32	473.65	.01
.7966	101.32	474.48	.01
.7315	101.32	476.4	.01
.6856	101.32	477.75	.01
.6354	101.32	478.8	.01
.5693	101.32	480.85	.01
.4791	101.32	484.6	.01
.372	101.32	488.8	.01
.3527	101.32	489.45	.01
.1818	101.32	497.55	.01
.1202	101.32	501.25	.01
0	101.32	509.95	.01

System: ethylene glycol + N-formylmorpholine; phases: Gas, Liquid
Property: Mole fraction of ethylene glycol (Gas); method: Chromatography
Mole fraction of ethylene glycol	Pressure, kPa	Mole fraction of ethylene glycol	uncertainty
1	101.32	1	
.956	101.32	.9827	
.9403	101.32	.979	
.8935	101.32	.9621	
.8896	101.32	.9619	
.869	101.32	.9559	
.8335	101.32	.941	
.7966	101.32	.9296	
.7315	101.32	.9022	
.6856	101.32	.8825	
.6354	101.32	.8759	
.5693	101.32	.832	
.4791	101.32	.7563	
.372	101.32	.6796	
.3527	101.32	.6697	
.1818	101.32	.4351	
.1202	101.32	.3113	
0	101.32	0	

System: benzene + cyclohexane + N-formylmorpholine; phases: Liquid, Gas
Property: Mole fraction of cyclohexane (Liquid); method: Chromatography
Property: Mole fraction of benzene (Gas); method: Chromatography
Property: Mole fraction of cyclohexane (Gas); method: Chromatography
Temperature, K	Pressure, kPa	Mole fraction of benzene	Mole fraction of cyclohexane	uncertainty	Mole fraction of benzene	uncertainty	Mole fraction of cyclohexane	uncertainty
356.95	101.32	.7284	.0719		.8458		.154	
358.35	101.32	.6748	.0723		.8388		.1612	
361.97	101.32	.5657	.0481		.8293		.17	
362.55	101.32	.5502	.0492		.8247		.1738	
368.25	101.32	.4223	.0306		.8268		.1716	
376.05	101.32	.3475	.021		.8319		.1657	
376.67	101.32	.3538	.0227		.8253		.1718	
383.13	101.32	.267	.0133		.8457		.1503	
392.41	101.32	.2156	.0098		.8489		.1458	
402.85	101.32	.1553	.0068		.8461		.1433	

System: benzene + cyclohexane; phases: Liquid, Gas
Property: Boiling temperature at pressure P, K (Liquid); method: Other
Mole fraction of cyclohexane	Pressure, kPa	Boiling temperature at pressure P, K	uncertainty
.1612	101.32	358.35	.01
