Measured thermophysical data. Solid-Liquid Phase Diagram of the Ternary System of p-Nitroaniline + o-Nitroaniline + Ethanol
Source: J. Chem. Eng. Data, 2010, 10.1021/je1005104
Compound 1: p-nitroaniline, C6H6N2O2, purity 99.1%
Compound 2: orange salt irga II, C6H6N2O2, purity 99%
Compound 3: ethanol, C2H6O, purity 99.9%

System: ethanol + orange salt irga II + p-nitroaniline; phases: Liquid, Crystal
Fixed: Pressure, kPa = 101.3
Property: Mass fraction of orange salt irga II (Liquid); method: Chromatography
Temperature, K	Mass fraction of p-nitroaniline	Mass fraction of orange salt irga II	uncertainty
273.15	0	.1405	.0018265
273.15	.0043	.1389	.0018057
273.15	.0085	.1356	.0017628
273.15	.0126	.1338	.0017394
273.15	.0178	.1307	.0016991
273.15	.0201	.1288	.0016744
298.15	0	.2181	.0028353
298.15	.0056	.2163	.0028119
298.15	.0104	.2136	.0027768
298.15	.0153	.2117	.0027521
298.15	.0211	.2105	.0027365
298.15	.0264	.2087	.0027131
323.15	0	.6696	.0087048
323.15	.0103	.6654	.0086502
323.15	.024	.6627	.0086151
323.15	.0337	.6595	.0085735
323.15	.0454	.6579	.0085527

System: ethanol + orange salt irga II + p-nitroaniline; phases: Liquid, Crystal
Fixed: Pressure, kPa = 101.3
Property: Mass fraction of orange salt irga II (Liquid); method: Chromatography
Temperature, K	Mass fraction of p-nitroaniline	Mass fraction of orange salt irga II	uncertainty
273.15	.0216	.1175	.0015275
273.15	.0225	.1004	.0013052
273.15	.024	.0793	.0010309
273.15	.0254	.0597	.0007761
273.15	.0269	.0464	.0006032
273.15	.0282	.0339	.0004407
273.15	.0297	.0207	.0002691
273.15	.0313	.0101	.0001313
273.15	.0327	0	0
298.15	.0321	.1936	.0025168
298.15	.0339	.1721	.0022373
298.15	.0361	.1428	.0018564
298.15	.0389	.1129	.0014677
298.15	.0425	.0813	.0010569
298.15	.0459	.0621	.0008073
298.15	.0498	.0384	.0004992
298.15	.0533	.0192	.0002496
298.15	.0577	0	0
323.15	.0518	.6316	.0082108
323.15	.0535	.5945	.0077285
323.15	.0563	.5444	.0070772
323.15	.0601	.4766	.0061958
323.15	.0664	.3823	.0049699
323.15	.0723	.3081	.0040053
323.15	.0809	.215	.002795
323.15	.0871	.1588	.0020644
323.15	.0942	.1014	.0013182
323.15	.1031	.0423	.0005499
323.15	.1086	0	0

System: ethanol + orange salt irga II + p-nitroaniline; phases: Liquid, Crystal, Crystal
Fixed: Pressure, kPa = 101.3
Property: Mass fraction of p-nitroaniline (Liquid); method: Chromatography
Temperature, K	Mass fraction of p-nitroaniline	uncertainty
273.15	.0212	.0002756
298.15	.0317	.0004121
323.15	.0504	.0006552

System: ethanol + orange salt irga II + p-nitroaniline; phases: Liquid, Crystal, Crystal
Fixed: Pressure, kPa = 101.3
Property: Mass fraction of orange salt irga II (Liquid); method: Chromatography
Temperature, K	Mass fraction of orange salt irga II	uncertainty
273.15	.1286	.0016718
298.15	.2074	.0026962
323.15	.6573	.0085449

System: ethanol + orange salt irga II; phases: Liquid, Crystal
Property: Mass fraction of orange salt irga II (Liquid); method: Chromatography
Temperature, K	Pressure, kPa	Mass fraction of orange salt irga II	uncertainty
273.15	101.3	.1405	.0018265
298.15	101.3	.2181	.0028353
323.15	101.3	.6696	.0087048

System: ethanol + p-nitroaniline; phases: Liquid, Crystal
Property: Solid-liquid equilibrium temperature, K (Liquid); method: Visual observation
Mass fraction of p-nitroaniline	Pressure, kPa	Solid-liquid equilibrium temperature, K	uncertainty
.0327	101.3	273.15	
.0577	101.3	298.15	
.1086	101.3	323.15	
