Measured thermophysical data. Measurement and Correlation of the Densities and Viscosities of 2-Bromopropane + Ethanol Binary Mixtures at Temperatures from (298.15 to 318.15) K
Source: J. Chem. Eng. Data, 2010, 10.1021/je100159m
Compound 1: propane, 2-bromo-, C3H7Br, purity 99.5%
Compound 2: ethanol, C2H6O, purity 99.5%

System: propane, 2-bromo-; phases: Liquid
Property: Mass density, kg/m3 (Liquid); method: Vibrating tube method
Temperature, K	Pressure, kPa	Mass density, kg/m3	uncertainty
298.15	101	1309.9	.1
303.15	101	1303.6	.1
308.15	101	1293.9	.1
313.15	101	1285.4	.1
318.15	101	1275.4	.1

System: propane, 2-bromo-; phases: Liquid
Property: Viscosity, Pa*s (Liquid); method: Capillary tube (Ostwald; Ubbelohde) method
Temperature, K	Pressure, kPa	Viscosity, Pa*s	uncertainty
313.15	101	.0004389	.000006
308.15	101	.0004708	.000006
298.15	101	.0004981	.000006
303.15	101	.0004835	.000006
318.15	101	.0004194	.000006

System: ethanol; phases: Liquid
Property: Mass density, kg/m3 (Liquid); method: Vibrating tube method
Temperature, K	Pressure, kPa	Mass density, kg/m3	uncertainty
298.15	101	792.4	.1
303.15	101	789.3	.1
308.15	101	783.6	.1
313.15	101	779.9	.1
318.15	101	775	.1

System: ethanol; phases: Liquid
Property: Viscosity, Pa*s (Liquid); method: Capillary tube (Ostwald; Ubbelohde) method
Temperature, K	Pressure, kPa	Viscosity, Pa*s	uncertainty
298.15	101	.0010964	.000006
303.15	101	.0010095	.000006
308.15	101	.000917	.000006
313.15	101	.0008979	.000006
318.15	101	.0008172	.000006

System: ethanol + propane, 2-bromo-; phases: Liquid
Fixed: Pressure, kPa = 101
Property: Mass density, kg/m3 (Liquid); method: Vibrating tube method
Temperature, K	Mole fraction of propane, 2-bromo-	Mass density, kg/m3	uncertainty
298.15	0	792.4	.1
298.15	.1	868.6	.1
298.15	.2	936.3	.1
298.15	.3	997.3	.1
298.15	.4	1053.1	.1
298.15	.5	1104.8	.1
298.15	.6	1152.3	.1
298.15	.7	1196.1	.1
298.15	.8	1236.9	.1
298.15	.9	1274.6	.1
298.15	1	1309.9	.1
303.15	0	789.3	.1
303.15	.1	864.2	.1
303.15	.2	931.2	.1
303.15	.3	991.9	.1
303.15	.4	1047.6	.1
303.15	.5	1098.8	.1
303.15	.6	1145.9	.1
303.15	.7	1189.6	.1
303.15	.8	1230.4	.1
303.15	.9	1268.2	.1
303.15	1	1303.6	.1
308.15	0	783.6	.1
308.15	.1	857.7	.1
308.15	.2	923.6	.1
308.15	.3	983.9	.1
308.15	.4	1039	.1
308.15	.5	1089.9	.1
308.15	.6	1136.9	.1
308.15	.7	1180.3	.1
308.15	.8	1220.9	.1
308.15	.9	1258.6	.1
308.15	1	1293.9	.1
313.15	0	779.9	.1
313.15	.1	853	.1
313.15	.2	917.8	.1
313.15	.3	977.2	.1
313.15	.4	1031.8	.1
313.15	.5	1082.3	.1
313.15	.6	1128.8	.1
313.15	.7	1171.9	.1
313.15	.8	1212.8	.1
313.15	.9	1250.1	.1
313.15	1	1285.4	.1
318.15	0	775	.1
318.15	.1	846.6	.1
318.15	.2	911.1	.1
318.15	.3	969.7	.1
318.15	.4	1023.6	.1
318.15	.5	1073.5	.1
318.15	.6	1119.7	.1
318.15	.7	1162.7	.1
318.15	.8	1202.8	.1
318.15	.9	1240.2	.1
318.15	1	1275.4	.1

System: ethanol + propane, 2-bromo-; phases: Liquid
Fixed: Pressure, kPa = 101
Property: Viscosity, Pa*s (Liquid); method: Capillary tube (Ostwald; Ubbelohde) method
Temperature, K	Mole fraction of propane, 2-bromo-	Viscosity, Pa*s	uncertainty
298.15	0	.0010964	.000006
303.15	0	.0010095	.000006
308.15	0	.000917	.000006
313.15	0	.0008979	.000006
318.15	0	.0008172	.000006
298.15	.1	.0009584	.000006
303.15	.1	.0008856	.000006
308.15	.1	.0008081	.000006
313.15	.1	.0007913	.000006
318.15	.1	.0007206	.000006
303.15	.2	.0007784	.000006
298.15	.2	.0008399	.000006
308.15	.2	.000711	.000006
313.15	.2	.0007008	.000006
318.15	.2	.000644	.000006
308.15	.3	.0006407	.000006
298.15	.3	.0007419	.000006
313.15	.3	.0006327	.000006
303.15	.3	.0006899	.000006
318.15	.3	.0005803	.000006
303.15	.4	.0006233	.000006
308.15	.4	.0005773	.000006
313.15	.4	.0005668	.000006
298.15	.4	.0006681	.000006
318.15	.4	.0005262	.000006
308.15	.5	.0005251	.000006
303.15	.5	.0005616	.000006
298.15	.5	.000601	.000006
313.15	.5	.0005161	.000006
318.15	.5	.0004829	.000006
303.15	.6	.0005172	.000006
308.15	.6	.0004875	.000006
313.15	.6	.0004739	.000006
298.15	.6	.000546	.000006
318.15	.6	.0004499	.000006
313.15	.7	.0004489	.000006
298.15	.7	.000505	.000006
303.15	.7	.0004819	.000006
308.15	.7	.0004624	.000006
318.15	.7	.0004268	.000006
313.15	.8	.0004352	.000006
308.15	.8	.0004474	.000006
303.15	.8	.0004653	.000006
298.15	.8	.0004811	.000006
318.15	.8	.0004152	.000006
298.15	.9	.0004782	.000006
303.15	.9	.0004647	.000006
313.15	.9	.0004285	.000006
308.15	.9	.0004513	.000006
318.15	.9	.0004137	.000006
313.15	1	.0004389	.000006
308.15	1	.0004708	.000006
298.15	1	.0004981	.000006
303.15	1	.0004835	.000006
318.15	1	.0004194	.000006
