Measured thermophysical data. Density and Surface Tension of Aqueous Solutions of (2-(Methylamino)-ethanol +2-Amino-2-methyl-1-propanol) and (2-(Methylamino)-ethanol + N-Methyl-diethanolamine) from (298.15 to 323.15) K
Source: J. Chem. Eng. Data, 2010, 10.1021/je1002626
Compound 1: N-methyldiethanolamine, C5H13NO2
Compound 2: 2-amino-2-methyl-1-propanol, C4H11NO
Compound 3: N-methylethanolamine, C3H9NO
Compound 4: water, H2O, purity 99.9%

System: N-methylethanolamine; phases: Liquid
Fixed: Pressure, kPa = 101.325
Property: Mass density, kg/m3 (Liquid); method: Pycnometric method
Temperature, K	Mass density, kg/m3	uncertainty
298.15	936.18	.77
303.15	932.26	.77
313.15	924.42	.77
323.15	916.48	.77

System: N-methylethanolamine + water; phases: Liquid
Fixed: Pressure, kPa = 101.3
Property: Mass density, kg/m3 (Liquid); method: Pycnometric method
Mass fraction of N-methylethanolamine	Temperature, K	Mass density, kg/m3	uncertainty
1	298.15	936.18	.77
1	303.15	932.26	.77
1	313.15	924.42	.77
1	323.15	916.48	.77
.178	298.15	996.31	.77
.178	303.15	994.38	.77
.178	308.15	993.12	.77
.178	313.15	990.09	.77
.178	318.15	988.61	.77
.178	323.15	984.89	.77

System: N-methylethanolamine + water; phases: Liquid, Air at 1 atmosphere
Property: Surface tension liquid-gas, N/m (Liquid); method: Ring tensiometer
Mass fraction of N-methylethanolamine	Temperature, K	Surface tension liquid-gas, N/m	uncertainty
.1	298	.06085	.00035
.2	298	.05611	.00035
.3	298	.05251	.00035
.4	298	.04916	.00035
.1	303	.06002	.00035
.2	303	.05528	.00035
.3	303	.05233	.00035
.4	303	.04815	.00035
.1	308	.0595	.00035
.2	308	.0545	.00035
.3	308	.05146	.00035
.4	308	.0472	.00035
.1	313	.05865	.00035
.2	313	.05342	.00035
.3	313	.05018	.00035
.4	313	.04667	.00035
.1	318	.05766	.00035
.2	318	.05278	.00035
.3	318	.04942	.00035
.4	318	.04572	.00035
.1	323	.05689	.00035
.2	323	.05179	.00035
.3	323	.0489	.00035
.4	323	.04492	.00035

System: N-methylethanolamine + 2-amino-2-methyl-1-propanol + water; phases: Liquid
Fixed: Pressure, kPa = 101.32
Fixed: Mass fraction of water = .7
Property: Mass density, kg/m3 (Liquid); method: Pycnometric method
Mass fraction of N-methylethanolamine	Temperature, K	Mass density, kg/m3	uncertainty
.03	298.15	994.98	.77
.06	298.15	996.56	.77
.09	298.15	997.41	.77
.12	298.15	998.34	.77
.03	303.15	992.74	.77
.06	303.15	994.72	.77
.09	303.15	995.38	.77
.12	303.15	995.73	.77
.03	308.15	989.9	.77
.06	308.15	992.21	.77
.09	308.15	992.29	.77
.12	308.15	992.88	.77
.03	313.15	987.28	.77
.06	313.15	989.08	.77
.09	313.15	989.25	.77
.12	313.15	989.8	.77
.03	318.15	984.38	.77
.06	318.15	985.84	.77
.09	318.15	986.4	.77
.12	318.15	986.88	.77
.03	323.15	982.2	.77
.06	323.15	983.4	.77
.09	323.15	983.52	.77
.12	323.15	983.83	.77

System: N-methylethanolamine + 2-amino-2-methyl-1-propanol + water; phases: Liquid, Air at 1 atmosphere
Fixed: Mass fraction of water = .7
Property: Surface tension liquid-gas, N/m (Liquid); method: Ring tensiometer
Mass fraction of N-methylethanolamine	Temperature, K	Surface tension liquid-gas, N/m	uncertainty
.03	298	.04716	.00035
.06	298	.04746	.00035
.09	298	.0478	.00035
.12	298	.0482	.00035
.03	303	.04657	.00035
.06	303	.04705	.00035
.09	303	.04739	.00035
.12	303	.04791	.00035
.03	308	.04559	.00035
.06	308	.04622	.00035
.09	308	.04674	.00035
.12	308	.04679	.00035
.03	313	.04488	.00035
.06	313	.04543	.00035
.09	313	.04554	.00035
.12	313	.04577	.00035
.03	318	.04417	.00035
.06	318	.04455	.00035
.09	318	.04466	.00035
.12	318	.04493	.00035
.03	323	.04338	.00035
.06	323	.0436	.00035
.09	323	.0438	.00035
.12	323	.04424	.00035

System: N-methyldiethanolamine + N-methylethanolamine + water; phases: Liquid
Fixed: Pressure, kPa = 101.32
Fixed: Mass fraction of water = .7
Property: Mass density, kg/m3 (Liquid); method: Pycnometric method
Mass fraction of N-methylethanolamine	Temperature, K	Mass density, kg/m3	uncertainty
.03	298.15	1021.58	.77
.06	298.15	1020.08	.77
.09	298.15	1017.08	.77
.12	298.15	1014.94	.77
.03	303.15	1018.97	.77
.06	303.15	1017.91	.77
.09	303.15	1014.55	.77
.12	303.15	1012.53	.77
.03	308.15	1016.21	.77
.06	308.15	1014.19	.77
.09	308.15	1011.98	.77
.12	308.15	1009.45	.77
.03	313.15	1013.36	.77
.06	313.15	1011.82	.77
.09	313.15	1009.49	.77
.12	313.15	1006.8	.77
.03	318.15	1011.3	.77
.06	318.15	1009.37	.77
.09	318.15	1007.31	.77
.12	318.15	1004.51	.77
.03	323.15	1009.01	.77
.06	323.15	1007.43	.77
.09	323.15	1005.09	.77
.12	323.15	1002.05	.77

System: N-methyldiethanolamine + N-methylethanolamine + water; phases: Liquid, Air at 1 atmosphere
Fixed: Mass fraction of water = .7
Property: Surface tension liquid-gas, N/m (Liquid); method: Ring tensiometer
Mass fraction of N-methylethanolamine	Temperature, K	Surface tension liquid-gas, N/m	uncertainty
.03	298	.05492	.00035
.06	298	.05472	.00035
.09	298	.05456	.00035
.12	298	.05438	.00035
.03	303	.05436	.00035
.06	303	.05403	.00035
.09	303	.05397	.00035
.12	303	.05381	.00035
.03	308	.05358	.00035
.06	308	.05338	.00035
.09	308	.05314	.00035
.12	308	.05303	.00035
.03	313	.05261	.00035
.06	313	.05232	.00035
.09	313	.05224	.00035
.12	313	.05202	.00035
.03	318	.05172	.00035
.06	318	.05144	.00035
.09	318	.05121	.00035
.12	318	.0511	.00035
.03	323	.05099	.00035
.06	323	.05069	.00035
.09	323	.05051	.00035
.12	323	.0504	.00035
