Measured thermophysical data. Critical Assessment of CO2 Solubility in Volatile Solvents at 298.15 K
Source: J. Chem. Eng. Data, 2011, 10.1021/je101161d
Compound 1: dioxane, C4H8O2
Compound 2: diethylene glycol monobutyl ether ethanoate, C10H20O4
Compound 3: 1-nitropropane, C3H7NO2
Compound 4: dimethylnitromethane, C3H7NO2
Compound 5: N,N-dimethylacetamide, C4H9NO
Compound 6: pentan-2,4-dione, C5H8O2
Compound 7: 2-methoxyethyl ethanoate, C5H10O3
Compound 8: formamide, N-(1,1-dimethylethyl)-, C5H11NO
Compound 9: ethanoic acid, methyl ester, C3H6O2
Compound 10: ethanol, 2-butoxy-, acetate, C8H16O3
Compound 11: propanone, C3H6O
Compound 12: carbon dioxide, CO2

System: propanone + carbon dioxide; phases: Liquid, Gas
Fixed: Temperature, K = 298.15
Property: Vapor or sublimation pressure, kPa (Liquid); method: Closed cell (Static) method
Mole fraction of propanone	Vapor or sublimation pressure, kPa	uncertainty
.8721	776	69
.8111	1103	69
.7519	1396	69
.6944	1742	69
.6387	2058	69
.5845	2387	69
.5319	2714	69

System: ethanoic acid, methyl ester + carbon dioxide; phases: Liquid, Gas
Fixed: Temperature, K = 298.15
Property: Vapor or sublimation pressure, kPa (Liquid); method: Closed cell (Static) method
Mole fraction of ethanoic acid, methyl ester	Vapor or sublimation pressure, kPa	uncertainty
.9186	530	69
.8424	845	69
.7709	1190	69
.7037	1530	69
.6405	1863	69
.5808	2162	69
.5245	2457	69
.4711	2803	69

System: dioxane + carbon dioxide; phases: Liquid, Gas
Fixed: Temperature, K = 298.15
Property: Vapor or sublimation pressure, kPa (Liquid); method: Closed cell (Static) method
Mole fraction of dioxane	Vapor or sublimation pressure, kPa	uncertainty
.9047	827	69
.8182	1153	69
.7391	1544	69
.6667	1877	69
.6	2239	69
.5385	2582	69
.4815	2930	69
.4286	3235	69

System: 2-methoxyethyl ethanoate + carbon dioxide; phases: Liquid, Gas
Fixed: Temperature, K = 298.15
Property: Vapor or sublimation pressure, kPa (Liquid); method: Closed cell (Static) method
Mole fraction of 2-methoxyethyl ethanoate	Vapor or sublimation pressure, kPa	uncertainty
.8763	772	69
.7704	1259	69
.6788	1737	69
.5986	2181	69
.528	2585	69
.4653	2932	69
.4092	3314	69
.3587	3741	69

System: dimethylnitromethane + carbon dioxide; phases: Liquid, Gas
Fixed: Temperature, K = 298.15
Property: Vapor or sublimation pressure, kPa (Liquid); method: Closed cell (Static) method
Mole fraction of dimethylnitromethane	Vapor or sublimation pressure, kPa	uncertainty
.9038	811	69
.8165	1342	69
.7369	1815	69
.6642	2263	69
.5973	2691	69
.5357	3093	69
.4787	3412	69
.4258	3796	69

System: carbon dioxide + N,N-dimethylacetamide; phases: Liquid, Gas
Fixed: Temperature, K = 298.15
Property: Vapor or sublimation pressure, kPa (Liquid); method: Closed cell (Static) method
Mole fraction of N,N-dimethylacetamide	Vapor or sublimation pressure, kPa	uncertainty
.9057	861	69
.8199	1411	69
.7413	1831	69
.6692	2325	69
.6027	2778	69
.5413	3180	69
.4843	3571	69
.4314	3911	69

System: pentan-2,4-dione + carbon dioxide; phases: Liquid, Gas
Fixed: Temperature, K = 298.15
Property: Vapor or sublimation pressure, kPa (Liquid); method: Closed cell (Static) method
Mole fraction of pentan-2,4-dione	Vapor or sublimation pressure, kPa	uncertainty
.8266	1261	69
.7982	1404	69
.7135	1921	69
.6374	2305	69
.5687	2739	69
.5063	3118	69
.4494	3463	69
.3973	3828	69

System: 1-nitropropane + carbon dioxide; phases: Liquid, Gas
Fixed: Temperature, K = 298.15
Property: Vapor or sublimation pressure, kPa (Liquid); method: Closed cell (Static) method
Mole fraction of 1-nitropropane	Vapor or sublimation pressure, kPa	uncertainty
.9038	983	69
.8165	1491.6	69
.7369	1981	69
.6642	2424	69
.5973	2902	69
.5357	3300	69
.4787	3647	69
.4258	3992	69

System: diethylene glycol monobutyl ether ethanoate + carbon dioxide; phases: Liquid, Gas
Fixed: Temperature, K = 298.15
Property: Vapor or sublimation pressure, kPa (Liquid); method: Closed cell (Static) method
Mole fraction of diethylene glycol monobutyl ether ethanoate	Vapor or sublimation pressure, kPa	uncertainty
.8038	1032	69
.66	1686	69
.55	2323	69
.4632	2891	69
.3929	3428	69
.3348	3897	69
.286	4311	69
.2444	4672	69

System: ethanol, 2-butoxy-, acetate + carbon dioxide; phases: Liquid, Gas
Fixed: Temperature, K = 298.15
Property: Vapor or sublimation pressure, kPa (Liquid); method: Closed cell (Static) method
Mole fraction of ethanol, 2-butoxy-, acetate	Vapor or sublimation pressure, kPa	uncertainty
.8393	1252	69
.7122	2092	69
.6091	2805	69
.5238	3480	69
.4521	4117	69
.3909	4627	69
.3381	5128	69
.292	5511	69

System: carbon dioxide + formamide, N-(1,1-dimethylethyl)-; phases: Liquid, Gas
Fixed: Temperature, K = 298.15
Property: Vapor or sublimation pressure, kPa (Liquid); method: Closed cell (Static) method
Mole fraction of carbon dioxide	Vapor or sublimation pressure, kPa	uncertainty
.8922	1224	69
.7968	2047	69
.7117	2836	69
.6354	3585	69
.5665	4198	69
.5041	4773	69
.4472	5120	69
.3952	5495	69
