Measured thermophysical data. Anthracene + Pyrene Solid Mixtures: Eutectic and Azeotropic Character
Source: J. Chem. Eng. Data, 2010, 10.1021/je100208e
Compound 1: pyrene, C16H10
Compound 2: anthracene, C14H10

System: pyrene; phases: Crystal, Liquid, Air at 1 atmosphere
Property: Normal melting temperature, K (Crystal); method: DSC/DTA
Normal melting temperature, K	uncertainty
424	

System: pyrene; phases: Crystal, Liquid, Air at 1 atmosphere
Property: Molar enthalpy of transition or fusion, kJ/mol (Crystal); method: DSC/DTA
Molar enthalpy of transition or fusion, kJ/mol	uncertainty
16180.048	

System: pyrene; phases: Crystal 1, Gas
Property: Vapor or sublimation pressure, kPa (Crystal 1); method: Knudsen effusion method
Temperature, K	Vapor or sublimation pressure, kPa	uncertainty
315	.00000479	
320	.00000855	
325	.00001499	
330	.00002584	
335	.00004382	
340	.00007317	
345	.0001204	
350	.0001952	
355	.0003124	
360	.0004933	
365	.0007693	
370	.001185	
375	.001806	
378	.002312	

System: anthracene; phases: Crystal, Liquid, Air at 1 atmosphere
Property: Normal melting temperature, K (Crystal); method: DSC/DTA
Normal melting temperature, K	uncertainty
490	

System: anthracene; phases: Crystal, Liquid, Air at 1 atmosphere
Property: Molar enthalpy of transition or fusion, kJ/mol (Crystal); method: DSC/DTA
Molar enthalpy of transition or fusion, kJ/mol	uncertainty
27803.7552	

System: anthracene; phases: Crystal, Gas
Property: Vapor or sublimation pressure, kPa (Crystal); method: Knudsen effusion method
Temperature, K	Vapor or sublimation pressure, kPa	uncertainty
300	.000001192	
305	.000002257	
310	.000004186	
315	.000007613	
320	.00001359	
325	.00002383	
330	.00004109	
335	.00006969	
340	.0001164	
345	.0001915	
350	.0003107	
355	.0004972	
360	.0007852	
365	.001225	
370	.001888	
373	.002433	

System: anthracene + pyrene; phases: Crystal, Crystal, Liquid, Air at 1 atmosphere
Fixed: Pressure, kPa = 101.325
Property: Eutectic temperature, K (Crystal); method: DSC/DTA
Eutectic temperature, K	uncertainty
404	

System: anthracene + pyrene; phases: Crystal, Crystal, Liquid, Air at 1 atmosphere
Fixed: Pressure, kPa = 101.325
Property: Eutectic composition: mole fraction of anthracene (Crystal); method: Derived from phase diagram analysis
Eutectic composition: mole fraction of anthracene	uncertainty
.225	

System: anthracene + pyrene; phases: Liquid, Crystal
Fixed: Pressure, kPa = 101
Property: Solid-liquid equilibrium temperature, K (Liquid); method: DSC/DTA
Mole fraction of anthracene	Solid-liquid equilibrium temperature, K	uncertainty
.1	419	1
.12	418	1
.15	415	1
.18	413	1
.2	409	1
.22	406	1

System: anthracene + pyrene; phases: Liquid, Crystal
Fixed: Pressure, kPa = 101
Property: Solid-liquid equilibrium temperature, K (Liquid); method: DSC/DTA
Mole fraction of anthracene	Solid-liquid equilibrium temperature, K	uncertainty
.24	409	1
.26	413	1
.28	418	1
.3	422	1
.5	453	1
.75	475	1
.9	485	1
