Measured thermophysical data. Liquid Phase Equilibria for Mixtures of (Water + Morpholine + Ethyl Nonanoate, Dimethyl Phthalate, or Isoamyl Alcohol) at 298.15 K
Source: J. Chem. Eng. Data, 2010, 10.1021/je1000022
Compound 1: 1,4-oxazine, tetrahydro-, C4H9NO, purity 99%
Compound 2: dimethyl phthalate, C10H10O4, purity 99%
Compound 3: 1-butanol, 3-methyl-, C5H12O, purity 98%
Compound 4: nonanoic acid, ethyl ester, C11H22O2, purity 97%
Compound 5: water, H2O

System: 1,4-oxazine, tetrahydro- + dimethyl phthalate + water; phases: Liquid mixture 1, Liquid mixture 2
Fixed: Temperature, K = 298.15
Fixed: Pressure, kPa = 101
Property: Mass fraction of 1,4-oxazine, tetrahydro- (Liquid mixture 1); method: Titration method
Mass fraction of water	Mass fraction of 1,4-oxazine, tetrahydro-	uncertainty
.9903	0	
.7907	.1992	
.6848	.2983	
.5827	.3879	
.475	.4455	
.3561	.4531	
.2979	.4194	
.2416	.3794	
.1917	.3295	
.1286	.2644	
.0679	.1865	
.0265	0	

System: 1,4-oxazine, tetrahydro- + dimethyl phthalate + water; phases: Liquid mixture 1, Liquid mixture 2
Fixed: Temperature, K = 298.15
Fixed: Pressure, kPa = 101.3
Property: Mass fraction of water (Liquid mixture 1); method: Chromatography
Property: Mass fraction of 1,4-oxazine, tetrahydro- (Liquid mixture 2); method: Chromatography
Property: Mass fraction of water (Liquid mixture 2); method: Chromatography
Mass fraction of 1,4-oxazine, tetrahydro-	Mass fraction of water	uncertainty	Mass fraction of 1,4-oxazine, tetrahydro-	uncertainty	Mass fraction of water	uncertainty
.4688	.4026	.002	.0512	.002	.0298	.002
.3971	.5711	.002	.0437	.002	.0326	.002
.2472	.7333	.002	.0325	.002	.0331	.002
.1354	.8542	.002	.0217	.002	.0356	.002

System: 1,4-oxazine, tetrahydro- + 1-butanol, 3-methyl- + water; phases: Liquid mixture 1, Liquid mixture 2
Fixed: Temperature, K = 298.15
Fixed: Pressure, kPa = 101
Property: Mass fraction of 1,4-oxazine, tetrahydro- (Liquid mixture 1); method: Titration method
Mass fraction of water	Mass fraction of 1,4-oxazine, tetrahydro-	uncertainty
.9743	0	
.8634	.1054	
.7679	.1941	
.6638	.2856	
.5361	.3578	
.4163	.3744	
.3597	.3497	
.3064	.2859	
.2544	.2204	
.2078	.1579	
.1619	.0801	
.1034	0	

System: 1,4-oxazine, tetrahydro- + 1-butanol, 3-methyl- + water; phases: Liquid mixture 1, Liquid mixture 2
Fixed: Temperature, K = 298.15
Fixed: Pressure, kPa = 101.3
Property: Mass fraction of water (Liquid mixture 1); method: Chromatography
Property: Mass fraction of 1,4-oxazine, tetrahydro- (Liquid mixture 2); method: Chromatography
Property: Mass fraction of water (Liquid mixture 2); method: Chromatography
Mass fraction of 1,4-oxazine, tetrahydro-	Mass fraction of water	uncertainty	Mass fraction of 1,4-oxazine, tetrahydro-	uncertainty	Mass fraction of water	uncertainty
.1092	.8579	.002	.0214	.002	.1172	.002
.229	.729	.002	.0641	.002	.1483	.002
.3209	.6085	.002	.12	.002	.1797	.002
.3599	.5322	.002	.1624	.002	.2058	.002

System: 1,4-oxazine, tetrahydro- + nonanoic acid, ethyl ester + water; phases: Liquid mixture 1, Liquid mixture 2
Fixed: Temperature, K = 298.15
Fixed: Pressure, kPa = 101
Property: Mass fraction of 1,4-oxazine, tetrahydro- (Liquid mixture 1); method: Titration method
Mass fraction of water	Mass fraction of 1,4-oxazine, tetrahydro-	uncertainty
.9997	0	
.8783	.1213	
.7493	.2499	
.6002	.3987	
.5444	.4505	
.4004	.5889	
.2432	.7105	
.1693	.7273	
.1193	.7012	
.0878	.6396	
.0637	.5615	
.0383	.4811	
.0244	.3902	
.0153	.296	
.0108	.1986	
.0054	.0897	
.0087	0	

System: 1,4-oxazine, tetrahydro- + nonanoic acid, ethyl ester + water; phases: Liquid mixture 1, Liquid mixture 2
Fixed: Temperature, K = 298.15
Fixed: Pressure, kPa = 101.3
Property: Mass fraction of water (Liquid mixture 1); method: Chromatography
Property: Mass fraction of 1,4-oxazine, tetrahydro- (Liquid mixture 2); method: Chromatography
Property: Mass fraction of water (Liquid mixture 2); method: Chromatography
Mass fraction of 1,4-oxazine, tetrahydro-	Mass fraction of water	uncertainty	Mass fraction of 1,4-oxazine, tetrahydro-	uncertainty	Mass fraction of water	uncertainty
.1448	.854	.002	.0067	.002	.0064	.002
.2967	.7019	.002	.0118	.002	.0074	.002
.4484	.5492	.002	.0196	.002	.0089	.002
.5441	.447	.002	.0316	.002	.0092	.002
.6901	.2912	.002	.0699	.002	.0104	.002
