Measured thermophysical data. Vapor-Liquid Equilibria and Density Measurement for Binary Mixtures of Benzene + Nonane, Methylbenzene + 1,2-Dimethylbenzene, 1,3-Dimethylbenzene + 2,3,4,5-Tetrahydrothiophene-1,1-dioxide (Sulfolane), 1,2-Dimethylbenzene + Sulfolane, 1,2-Dimethylbenzene + N-Methylformamide (NMF), 1,3-Dimethylbenzene + NMF, and 1,4-Dimethylbenzene + NMF from (333.15 to 353.15) K at Vacuum Conditions
Source: J. Chem. Eng. Data, 2010, 10.1021/je100517z
Compound 1: benzene, C6H6, purity 99.5%
Compound 2: toluene, C7H8, purity 99.8%
Compound 3: 1,2-dimethylbenzene, C8H10, purity 99%
Compound 4: 1,3-dimethylbenzene, C8H10, purity 99%
Compound 5: 1,4-dimethylbenzene, C8H10, purity 99%
Compound 6: NMF, C2H5NO, purity 99%
Compound 7: sulfolane, C4H8O2S
Compound 8: nonane, C9H20, purity 99%

System: benzene; phases: Liquid
Property: Mass density, kg/m3 (Liquid); method: Pycnometric method
Temperature, K	Pressure, kPa	Mass density, kg/m3	uncertainty
313.15	101.3	857.5	

System: benzene; phases: Liquid, Gas
Property: Vapor or sublimation pressure, kPa (Liquid); method: Closed cell (Static) method
Temperature, K	Vapor or sublimation pressure, kPa	uncertainty
333.15	52.45	.1
353.15	100	.1

System: benzene; phases: Liquid, Gas
Property: Mass density, kg/m3 (Liquid); method: Vibrating tube method
Temperature, K	Mass density, kg/m3	uncertainty
333.15	835.696	
353.15	814.086	

System: benzene; phases: Gas, Liquid
Property: Mass density, kg/m3 (Gas); method: Vibrating tube method
Temperature, K	Mass density, kg/m3	uncertainty
333.15	1.5172	
353.15	2.69	

System: toluene; phases: Liquid, Gas
Property: Vapor or sublimation pressure, kPa (Liquid); method: Closed cell (Static) method
Temperature, K	Vapor or sublimation pressure, kPa	uncertainty
333.15	18.62	.1
353.15	38.4	.1

System: toluene; phases: Liquid, Gas
Property: Mass density, kg/m3 (Liquid); method: Vibrating tube method
Temperature, K	Mass density, kg/m3	uncertainty
333.15	830.467	
353.15	810.89	

System: toluene; phases: Gas, Liquid
Property: Mass density, kg/m3 (Gas); method: Vibrating tube method
Temperature, K	Mass density, kg/m3	uncertainty
333.15	.6829	
353.15	1.3863	

System: 1,2-dimethylbenzene; phases: Liquid, Gas
Property: Vapor or sublimation pressure, kPa (Liquid); method: Closed cell (Static) method
Temperature, K	Vapor or sublimation pressure, kPa	uncertainty
333.15	5.32	.1
353.15	12.8	.1
333.15	5.44	.1
353.15	12.66	.1
333.15	5.45	.1
343.15	8.47	.1
353.15	12.71	.1

System: 1,2-dimethylbenzene; phases: Liquid, Gas
Property: Mass density, kg/m3 (Liquid); method: Vibrating tube method
Temperature, K	Mass density, kg/m3	uncertainty
333.15	845.8	
353.15	828.5	
333.15	845.839	
353.15	828.528	
343.15	837.399	

System: 1,2-dimethylbenzene; phases: Gas, Liquid
Property: Mass density, kg/m3 (Gas); method: Vibrating tube method
Temperature, K	Mass density, kg/m3	uncertainty
333.15	.1767	
353.15	.4397	
333.15	.2082	
353.15	.4571	
333.15	.2087	
343.15	.3149	
353.15	.4587	

System: 1,3-dimethylbenzene; phases: Liquid, Gas
Property: Vapor or sublimation pressure, kPa (Liquid); method: Closed cell (Static) method
Temperature, K	Vapor or sublimation pressure, kPa	uncertainty
333.15	6.59	.1
353.15	15.09	.1
333.15	6.58	.1
343.15	10.17	.1
353.15	15.12	.1

System: 1,3-dimethylbenzene; phases: Liquid, Gas
Property: Mass density, kg/m3 (Liquid); method: Vibrating tube method
Temperature, K	Mass density, kg/m3	uncertainty
333.15	829.305	
353.15	811.602	
343.15	820.443	

System: 1,3-dimethylbenzene; phases: Gas, Liquid
Property: Mass density, kg/m3 (Gas); method: Vibrating tube method
Temperature, K	Mass density, kg/m3	uncertainty
333.15	.252	
353.15	.5448	
333.15	.2519	
343.15	.3779	
353.15	.5457	

System: 1,4-dimethylbenzene; phases: Liquid, Gas
Property: Vapor or sublimation pressure, kPa (Liquid); method: Closed cell (Static) method
Temperature, K	Vapor or sublimation pressure, kPa	uncertainty
333.15	6.85	.1
343.15	10.5	.1
353.15	15.61	.1

System: 1,4-dimethylbenzene; phases: Liquid, Gas
Property: Mass density, kg/m3 (Liquid); method: Vibrating tube method
Temperature, K	Mass density, kg/m3	uncertainty
333.15	825.539	
343.15	816.664	
353.15	807.649	

System: 1,4-dimethylbenzene; phases: Gas, Liquid
Property: Mass density, kg/m3 (Gas); method: Vibrating tube method
Temperature, K	Mass density, kg/m3	uncertainty
333.15	.262	
343.15	.3903	
353.15	.5636	

System: NMF; phases: Liquid, Gas
Property: Vapor or sublimation pressure, kPa (Liquid); method: Closed cell (Static) method
Temperature, K	Vapor or sublimation pressure, kPa	uncertainty
333.15	.37	.1
343.15	.67	.1
353.15	1.15	.1

System: NMF; phases: Liquid, Gas
Property: Mass density, kg/m3 (Liquid); method: Vibrating tube method
Temperature, K	Mass density, kg/m3	uncertainty
333.15	967.461	
343.15	958.765	
353.15	949.98	

System: NMF; phases: Gas, Liquid
Property: Mass density, kg/m3 (Gas); method: Vibrating tube method
Temperature, K	Mass density, kg/m3	uncertainty
333.15	.0079	
343.15	.0138	
353.15	.0231	

System: sulfolane; phases: Liquid, Gas
Property: Vapor or sublimation pressure, kPa (Liquid); method: Closed cell (Static) method
Temperature, K	Vapor or sublimation pressure, kPa	uncertainty
333.15	.01	.1
353.15	.04	.1

System: sulfolane; phases: Liquid, Gas
Property: Mass density, kg/m3 (Liquid); method: Vibrating tube method
Temperature, K	Mass density, kg/m3	uncertainty
333.15	1231.12	
353.15	1214.39	

System: sulfolane; phases: Gas, Liquid
Property: Mass density, kg/m3 (Gas); method: Vibrating tube method
Temperature, K	Mass density, kg/m3	uncertainty
333.15	.0005	
353.15	.0018	

System: nonane; phases: Liquid
Property: Mass density, kg/m3 (Liquid); method: Pycnometric method
Temperature, K	Pressure, kPa	Mass density, kg/m3	uncertainty
313.15	101.3	702.5	

System: nonane; phases: Liquid, Gas
Property: Vapor or sublimation pressure, kPa (Liquid); method: Closed cell (Static) method
Temperature, K	Vapor or sublimation pressure, kPa	uncertainty
333.15	3.97	.1
353.15	10.28	.1

System: nonane; phases: Liquid, Gas
Property: Mass density, kg/m3 (Liquid); method: Vibrating tube method
Temperature, K	Mass density, kg/m3	uncertainty
333.15	685.961	
353.15	669.919	

System: nonane; phases: Gas, Liquid
Property: Mass density, kg/m3 (Gas); method: Vibrating tube method
Temperature, K	Mass density, kg/m3	uncertainty
333.15	.1868	
353.15	.4513	

System: benzene + nonane; phases: Liquid
Fixed: Temperature, K = 313.15
Fixed: Pressure, kPa = 101.3
Property: Mass density, kg/m3 (Liquid); method: Pycnometric method
Mole fraction of nonane	Mass density, kg/m3	uncertainty
0	857.5	
.05	843.8	
.1	832.3	
.2	811.4	
.302	793.2	
.401	776.6	
.502	761.8	
.599	748.3	
.699	735.5	
.799	724	
.899	713.1	
.94	707.9	
1	702.5	

System: benzene + nonane; phases: Liquid, Gas
Property: Vapor or sublimation pressure, kPa (Liquid); method: Closed cell (Static) method
Temperature, K	Mole fraction of benzene	Vapor or sublimation pressure, kPa	uncertainty
333.15	0	3.97	.1
333.15	.1	12.63	.1
333.15	.2	19.62	.1
333.15	.302	24.94	.1
333.15	.404	29.26	.1
333.15	.502	33.25	.1
333.15	.599	36.57	.1
333.15	.699	40.56	.1
333.15	.799	44.22	.1
333.15	.899	47.88	.1
333.15	.94	49.54	.1
333.15	.969	51.03	.1
333.15	1	52.45	.1
353.15	0	10.28	.1
353.15	.101	25.59	.1
353.15	.199	37.58	.1
353.15	.248	42.56	.1
353.15	.3	47.7	.1
353.15	.399	56.56	.1
353.15	.499	63.51	.1
353.15	.599	70.16	.1
353.15	.701	78.46	.1
353.15	.799	85.24	.1
353.15	.899	92.23	.1
353.15	1	100	.1

System: benzene + nonane; phases: Liquid, Gas
Property: Mass density, kg/m3 (Liquid); method: Vibrating tube method
Temperature, K	Mole fraction of benzene	Mass density, kg/m3	uncertainty
333.15	0	685.961	
333.15	.1	700.985	
333.15	.2	715.957	
333.15	.302	731.175	
333.15	.404	746.508	
333.15	.502	761.194	
333.15	.599	775.788	
333.15	.699	790.766	
333.15	.799	805.683	
333.15	.899	820.654	
333.15	.94	826.713	
333.15	.969	831.191	
333.15	1	835.696	
353.15	0	669.919	
353.15	.101	684.481	
353.15	.199	698.728	
353.15	.248	705.756	
353.15	.3	713.217	
353.15	.399	727.581	
353.15	.499	741.992	
353.15	.599	756.286	
353.15	.701	771.023	
353.15	.799	785.21	
353.15	.899	799.582	
353.15	1	814.086	

System: benzene + nonane; phases: Gas, Liquid
Property: Mass density, kg/m3 (Gas); method: Vibrating tube method
Temperature, K	Mole fraction of benzene	Mass density, kg/m3	uncertainty
333.15	0	.1868	
333.15	.1	.4286	
333.15	.2	.6271	
333.15	.302	.7759	
333.15	.404	.8955	
333.15	.502	1.0062	
333.15	.599	1.0965	
333.15	.699	1.2055	
333.15	.799	1.303	
333.15	.899	1.3983	
333.15	.94	1.4413	
333.15	.969	1.4805	
333.15	1	1.5172	
353.15	0	.4513	
353.15	.101	.8384	
353.15	.199	1.15	
353.15	.248	1.2788	
353.15	.3	1.4124	
353.15	.399	1.6408	
353.15	.499	1.8142	
353.15	.599	1.9788	
353.15	.701	2.187	
353.15	.799	2.3494	
353.15	.899	2.5125	
353.15	1	2.69	

System: 1,2-dimethylbenzene + toluene; phases: Liquid, Gas
Property: Vapor or sublimation pressure, kPa (Liquid); method: Closed cell (Static) method
Temperature, K	Mole fraction of toluene	Vapor or sublimation pressure, kPa	uncertainty
333.15	0	5.32	.1
333.15	.108	6.75	.1
333.15	.203	7.98	.1
333.15	.301	8.95	.1
333.15	.4	10.64	.1
333.15	.499	11.97	.1
333.15	.601	13.5	.1
333.15	.699	14.74	.1
333.15	.8	16.14	.1
333.15	.9	17.24	.1
333.15	1	18.62	.1
353.15	0	12.8	.1
353.15	.102	15.96	.1
353.15	.202	17.95	.1
353.15	.299	20.28	.1
353.15	.4	22.61	.1
353.15	.499	25.27	.1
353.15	.6	27.8	.1
353.15	.699	30.92	.1
353.15	.799	33.58	.1
353.15	.899	36.24	.1
353.15	1	38.4	.1

System: 1,2-dimethylbenzene + toluene; phases: Liquid, Gas
Property: Mass density, kg/m3 (Liquid); method: Vibrating tube method
Temperature, K	Mole fraction of toluene	Mass density, kg/m3	uncertainty
333.15	0	845.8	
333.15	.108	844.136	
333.15	.203	842.673	
333.15	.301	841.173	
333.15	.4	839.661	
333.15	.499	838.134	
333.15	.601	836.576	
333.15	.699	835.072	
333.15	.8	833.533	
333.15	.9	831.999	
333.15	1	830.467	
353.15	0	828.5	
353.15	.102	826.692	
353.15	.202	824.931	
353.15	.299	823.222	
353.15	.4	821.449	
353.15	.499	819.705	
353.15	.6	817.918	
353.15	.699	816.176	
353.15	.799	814.417	
353.15	.899	812.661	
353.15	1	810.89	

System: 1,2-dimethylbenzene + toluene; phases: Gas, Liquid
Property: Mass density, kg/m3 (Gas); method: Vibrating tube method
Temperature, K	Mole fraction of toluene	Mass density, kg/m3	uncertainty
333.15	0	.1767	
333.15	.108	.2341	
333.15	.203	.2838	
333.15	.301	.3241	
333.15	.4	.3906	
333.15	.499	.4071	
333.15	.601	.4874	
333.15	.699	.5349	
333.15	.8	.5882	
333.15	.9	.6303	
333.15	1	.6829	
353.15	0	.4397	
353.15	.102	.5491	
353.15	.202	.6184	
353.15	.299	.7003	
353.15	.4	.7824	
353.15	.499	.8765	
353.15	.6	.9796	
353.15	.699	1.0979	
353.15	.799	1.2001	
353.15	.899	1.3022	
353.15	1	1.3863	

System: 1,3-dimethylbenzene + sulfolane; phases: Liquid, Gas
Property: Vapor or sublimation pressure, kPa (Liquid); method: Closed cell (Static) method
Temperature, K	Mole fraction of 1,3-dimethylbenzene	Vapor or sublimation pressure, kPa	uncertainty
333.15	0	.01	.1
333.15	.01	.31	.1
333.15	.015	.46	.1
333.15	.02	.6	.1
333.15	.03	.87	.1
333.15	.1	2.47	.1
333.15	.199	3.96	.1
333.15	.299	4.79	.1
333.15	.399	5.27	.1
333.15	.501	5.52	.1
333.15	.6	5.64	.1
333.15	.7	5.73	.1
333.15	.799	5.88	.1
333.15	.9	6.11	.1
333.15	1	6.59	.1
353.15	0	.04	.1
353.15	.015	1.01	.1
353.15	.02	1.32	.1
353.15	.03	1.94	.1
353.15	.05	3.08	.1
353.15	.1	5.49	.1
353.15	.199	8.86	.1
353.15	.299	10.98	.1
353.15	.399	12.13	.1
353.15	.501	12.64	.1
353.15	.6	13.07	.1
353.15	.7	13.28	.1
353.15	.799	13.52	.1
353.15	.9	14	.1
353.15	1	15.09	.1

System: 1,3-dimethylbenzene + sulfolane; phases: Liquid, Gas
Property: Mass density, kg/m3 (Liquid); method: Vibrating tube method
Temperature, K	Mole fraction of 1,3-dimethylbenzene	Mass density, kg/m3	uncertainty
333.15	0	1231.12	
333.15	.01	1227.11	
333.15	.015	1225.1	
333.15	.02	1223.09	
333.15	.03	1219.07	
333.15	.1	1190.81	
333.15	.199	1150.86	
333.15	.299	1110.94	
333.15	.399	1070.45	
333.15	.501	1029.46	
333.15	.6	989.939	
333.15	.7	949.485	
333.15	.799	909.766	
333.15	.9	869.443	
333.15	1	829.305	
353.15	0	1214.39	
353.15	.015	1208.34	
353.15	.02	1206.33	
353.15	.03	1202.3	
353.15	.05	1194.25	
353.15	.1	1173.97	
353.15	.199	1133.93	
353.15	.299	1093.91	
353.15	.399	1053.33	
353.15	.501	1012.24	
353.15	.6	972.621	
353.15	.7	932.07	
353.15	.799	892.257	
353.15	.9	851.836	
353.15	1	811.602	

System: 1,3-dimethylbenzene + sulfolane; phases: Gas, Liquid
Property: Mass density, kg/m3 (Gas); method: Vibrating tube method
Temperature, K	Mole fraction of 1,3-dimethylbenzene	Mass density, kg/m3	uncertainty
333.15	0	.0005	
333.15	.01	.012	
333.15	.015	.0177	
333.15	.02	.0231	
333.15	.03	.0337	
333.15	.1	.0946	
333.15	.199	.1517	
333.15	.299	.1836	
333.15	.399	.2019	
333.15	.501	.2116	
333.15	.6	.216	
333.15	.7	.2193	
333.15	.799	.2251	
333.15	.9	.2339	
333.15	1	.252	
353.15	0	.0018	
353.15	.015	.037	
353.15	.02	.048	
353.15	.03	.0703	
353.15	.05	.1117	
353.15	.1	.1985	
353.15	.199	.3201	
353.15	.299	.3968	
353.15	.399	.4383	
353.15	.501	.4565	
353.15	.6	.4723	
353.15	.7	.4799	
353.15	.799	.4885	
353.15	.9	.5058	
353.15	1	.5448	

System: 1,2-dimethylbenzene + sulfolane; phases: Liquid, Gas
Property: Vapor or sublimation pressure, kPa (Liquid); method: Closed cell (Static) method
Temperature, K	Mole fraction of 1,2-dimethylbenzene	Vapor or sublimation pressure, kPa	uncertainty
333.15	0	.01	.1
333.15	.01	.25	.1
333.15	.015	.38	.1
333.15	.02	.49	.1
333.15	.03	.72	.1
333.15	.1	2.02	.1
333.15	.2	3.56	.1
333.15	.3	4.4	.1
333.15	.4	4.97	.1
333.15	.499	5.22	.1
333.15	.599	5.26	.1
333.15	.699	5.28	.1
333.15	.801	5.34	.1
333.15	.899	5.35	.1
333.15	1	5.44	.1
353.15	0	.04	.1
353.15	.01	.05	.1
353.15	.015	.18	.1
353.15	.02	.49	.1
353.15	.03	1.08	.1
353.15	.1	3.34	.1
353.15	.2	6.06	.1
353.15	.3	8.21	.1
353.15	.4	9.57	.1
353.15	.499	10.82	.1
353.15	.599	11.41	.1
353.15	.699	11.68	.1
353.15	.801	11.78	.1
353.15	.899	11.95	.1
353.15	1	12.66	.1

System: 1,2-dimethylbenzene + sulfolane; phases: Liquid, Gas
Property: Mass density, kg/m3 (Liquid); method: Vibrating tube method
Temperature, K	Mole fraction of 1,2-dimethylbenzene	Mass density, kg/m3	uncertainty
333.15	0	1231.12	
333.15	.01	1227.27	
333.15	.015	1225.35	
333.15	.02	1223.42	
333.15	.03	1219.57	
333.15	.1	1192.25	
333.15	.2	1153.84	
333.15	.3	1115.37	
333.15	.4	1076.99	
333.15	.499	1038.59	
333.15	.599	1000.24	
333.15	.699	961.436	
333.15	.801	922.401	
333.15	.899	884.731	
333.15	1	845.839	
353.15	0	1214.39	
353.15	.01	1210.53	
353.15	.015	1208.6	
353.15	.02	1206.67	
353.15	.03	1202.81	
353.15	.1	1175.45	
353.15	.2	1136.98	
353.15	.3	1098.46	
353.15	.4	1060.02	
353.15	.499	1021.56	
353.15	.599	983.157	
353.15	.699	944.296	
353.15	.801	905.202	
353.15	.899	867.477	
353.15	1	828.528	

System: 1,2-dimethylbenzene + sulfolane; phases: Gas, Liquid
Property: Mass density, kg/m3 (Gas); method: Vibrating tube method
Temperature, K	Mole fraction of 1,2-dimethylbenzene	Mass density, kg/m3	uncertainty
333.15	0	.0005	
333.15	.01	.0098	
333.15	.015	.0147	
333.15	.02	.0188	
333.15	.03	.0276	
333.15	.1	.0776	
333.15	.2	.1364	
333.15	.3	.1687	
333.15	.4	.1904	
333.15	.499	.2001	
333.15	.599	.2016	
333.15	.699	.2021	
333.15	.801	.1971	
333.15	.899	.1972	
333.15	1	.2082	
353.15	0	.0018	
353.15	.01	.002	
353.15	.015	.0067	
353.15	.02	.0178	
353.15	.03	.0394	
353.15	.1	.1211	
353.15	.2	.2193	
353.15	.3	.2966	
353.15	.4	.346	
353.15	.499	.3909	
353.15	.599	.4123	
353.15	.699	.4219	
353.15	.801	.4255	
353.15	.899	.4317	
353.15	1	.4571	

System: 1,2-dimethylbenzene + NMF; phases: Liquid, Gas
Property: Vapor or sublimation pressure, kPa (Liquid); method: Closed cell (Static) method
Temperature, K	Mole fraction of 1,2-dimethylbenzene	Vapor or sublimation pressure, kPa	uncertainty
333.15	0	.37	.1
333.15	.1	.92	.1
333.15	.201	1.46	.1
333.15	.3	1.98	.1
333.15	.401	2.49	.1
333.15	.499	2.98	.1
333.15	.601	3.49	.1
333.15	.698	3.96	.1
333.15	.8	4.46	.1
333.15	.899	4.93	.1
333.15	1	5.45	.1
343.15	0	.67	.1
343.15	.099	1.49	.1
343.15	.201	2.3	.1
343.15	.301	3.08	.1
343.15	.4	3.86	.1
343.15	.5	4.63	.1
343.15	.599	5.41	.1
343.15	.7	6.14	.1
343.15	.8	6.88	.1
343.15	.899	7.64	.1
343.15	1	8.47	.1
353.15	0	1.15	.1
353.15	.1	2.34	.1
353.15	.2	3.55	.1
353.15	.3	4.68	.1
353.15	.4	5.85	.1
353.15	.499	6.99	.1
353.15	.601	8.14	.1
353.15	.699	9.22	.1
353.15	.801	10.46	.1
353.15	.9	11.51	.1
353.15	1	12.71	.1

System: 1,2-dimethylbenzene + NMF; phases: Liquid, Gas
Property: Mass density, kg/m3 (Liquid); method: Vibrating tube method
Temperature, K	Mole fraction of 1,2-dimethylbenzene	Mass density, kg/m3	uncertainty
333.15	0	967.461	
333.15	.1	955.279	
333.15	.201	943.061	
333.15	.3	930.949	
333.15	.401	918.701	
333.15	.499	906.743	
333.15	.601	894.398	
333.15	.698	882.623	
333.15	.8	870.121	
333.15	.899	858.136	
333.15	1	845.839	
343.15	0	958.765	
343.15	.099	946.741	
343.15	.201	934.413	
343.15	.301	922.286	
343.15	.4	910.279	
343.15	.5	898.117	
343.15	.599	886.023	
343.15	.7	873.758	
343.15	.8	861.715	
343.15	.899	849.639	
343.15	1	837.399	
353.15	0	949.98	
353.15	.1	937.805	
353.15	.2	925.706	
353.15	.3	913.562	
353.15	.4	901.432	
353.15	.499	889.316	
353.15	.601	877.006	
353.15	.699	865.051	
353.15	.801	852.738	
353.15	.9	840.639	
353.15	1	828.528	

System: 1,2-dimethylbenzene + NMF; phases: Gas, Liquid
Property: Mass density, kg/m3 (Gas); method: Vibrating tube method
Temperature, K	Mole fraction of 1,2-dimethylbenzene	Mass density, kg/m3	uncertainty
333.15	0	.0079	
333.15	.1	.0212	
333.15	.201	.036	
333.15	.3	.0524	
333.15	.401	.07	
333.15	.499	.0889	
333.15	.601	.1099	
333.15	.698	.1312	
333.15	.8	.1556	
333.15	.899	.1804	
333.15	1	.2087	
343.15	0	.0138	
343.15	.099	.033	
343.15	.201	.0552	
343.15	.301	.0789	
343.15	.4	.1051	
343.15	.5	.1338	
343.15	.599	.1652	
343.15	.7	.198	
343.15	.8	.2331	
343.15	.899	.2713	
343.15	1	.3149	
353.15	0	.0231	
353.15	.1	.0507	
353.15	.2	.0826	
353.15	.3	.1164	
353.15	.4	.1549	
353.15	.499	.1963	
353.15	.601	.242	
353.15	.699	.2884	
353.15	.801	.3442	
353.15	.9	.397	
353.15	1	.4587	

System: 1,3-dimethylbenzene + NMF; phases: Liquid, Gas
Property: Vapor or sublimation pressure, kPa (Liquid); method: Closed cell (Static) method
Temperature, K	Mole fraction of 1,3-dimethylbenzene	Vapor or sublimation pressure, kPa	uncertainty
333.15	0	.37	.1
333.15	.1	.98	.1
333.15	.2	1.69	.1
333.15	.301	2.31	.1
333.15	.4	2.92	.1
333.15	.501	3.54	.1
333.15	.601	4.18	.1
333.15	.701	4.7	.1
333.15	.8	5.32	.1
333.15	.899	5.94	.1
333.15	1	6.58	.1
343.15	0	.67	.1
343.15	.1	1.74	.1
343.15	.201	2.69	.1
343.15	.3	3.55	.1
343.15	.401	4.48	.1
343.15	.499	5.56	.1
343.15	.601	6.38	.1
343.15	.698	7.33	.1
343.15	.8	8.27	.1
343.15	.899	9.22	.1
343.15	1	10.17	.1
353.15	0	1.15	.1
353.15	.099	2.55	.1
353.15	.201	4.02	.1
353.15	.3	5.4	.1
353.15	.4	6.77	.1
353.15	.5	8.13	.1
353.15	.6	9.53	.1
353.15	.699	10.91	.1
353.15	.8	12.25	.1
353.15	.9	13.71	.1
353.15	1	15.12	.1

System: 1,3-dimethylbenzene + NMF; phases: Liquid, Gas
Property: Mass density, kg/m3 (Liquid); method: Vibrating tube method
Temperature, K	Mole fraction of 1,3-dimethylbenzene	Mass density, kg/m3	uncertainty
333.15	0	967.461	
333.15	.1	953.656	
333.15	.2	939.829	
333.15	.301	925.816	
333.15	.4	912.15	
333.15	.501	898.304	
333.15	.601	884.463	
333.15	.701	870.672	
333.15	.8	856.867	
333.15	.899	843.274	
333.15	1	829.305	
343.15	0	958.765	
343.15	.1	944.911	
343.15	.201	931.014	
343.15	.3	917.24	
343.15	.401	903.309	
343.15	.499	889.71	
343.15	.601	875.637	
343.15	.698	862.285	
343.15	.8	848.058	
343.15	.899	834.428	
343.15	1	820.443	
353.15	0	949.98	
353.15	.099	936.271	
353.15	.201	922.151	
353.15	.3	908.47	
353.15	.4	894.594	
353.15	.5	880.82	
353.15	.6	866.999	
353.15	.699	853.268	
353.15	.8	839.222	
353.15	.9	825.505	
353.15	1	811.602	

System: 1,3-dimethylbenzene + NMF; phases: Gas, Liquid
Property: Mass density, kg/m3 (Gas); method: Vibrating tube method
Temperature, K	Mole fraction of 1,3-dimethylbenzene	Mass density, kg/m3	uncertainty
333.15	0	.0079	
333.15	.1	.0224	
333.15	.2	.0418	
333.15	.301	.061	
333.15	.4	.082	
333.15	.501	.1057	
333.15	.601	.1318	
333.15	.701	.156	
333.15	.8	.1856	
333.15	.899	.2172	
333.15	1	.2519	
343.15	0	.0138	
343.15	.1	.0543	
343.15	.201	.0909	
343.15	.3	.1242	
343.15	.401	.1599	
343.15	.499	.2008	
343.15	.601	.2324	
343.15	.698	.2687	
343.15	.8	.3051	
343.15	.899	.3414	
343.15	1	.3779	
353.15	0	.0231	
353.15	.099	.0756	
353.15	.201	.1304	
353.15	.3	.1821	
353.15	.4	.2333	
353.15	.5	.2841	
353.15	.6	.3366	
353.15	.699	.388	
353.15	.8	.4385	
353.15	.9	.493	
353.15	1	.5457	

System: 1,4-dimethylbenzene + NMF; phases: Liquid, Gas
Property: Vapor or sublimation pressure, kPa (Liquid); method: Closed cell (Static) method
Temperature, K	Mole fraction of 1,4-dimethylbenzene	Vapor or sublimation pressure, kPa	uncertainty
333.15	0	.37	.1
333.15	.101	1.07	.1
333.15	.201	1.76	.1
333.15	.3	2.4	.1
333.15	.4	3.05	.1
333.15	.5	3.71	.1
333.15	.6	4.31	.1
333.15	.7	4.95	.1
333.15	.8	5.56	.1
333.15	.9	6.21	.1
333.15	1	6.85	.1
343.15	0	.67	.1
343.15	.1	1.71	.1
343.15	.2	2.74	.1
343.15	.3	3.72	.1
343.15	.4	4.7	.1
343.15	.501	5.65	.1
343.15	.6	6.65	.1
343.15	.7	7.58	.1
343.15	.8	8.54	.1
343.15	.899	9.51	.1
343.15	1	10.5	.1
353.15	0	1.15	.1
353.15	.1	2.64	.1
353.15	.2	4.1	.1
353.15	.3	5.54	.1
353.15	.4	6.98	.1
353.15	.5	8.4	.1
353.15	.6	9.87	.1
353.15	.701	11.28	.1
353.15	.8	12.71	.1
353.15	.9	14.15	.1
353.15	1	15.61	.1

System: 1,4-dimethylbenzene + NMF; phases: Liquid, Gas
Property: Mass density, kg/m3 (Liquid); method: Vibrating tube method
Temperature, K	Mole fraction of 1,4-dimethylbenzene	Mass density, kg/m3	uncertainty
333.15	0	967.461	
333.15	.101	953.153	
333.15	.201	938.932	
333.15	.3	924.819	
333.15	.4	910.762	
333.15	.5	896.493	
333.15	.6	882.334	
333.15	.7	868.075	
333.15	.8	853.939	
333.15	.9	839.77	
333.15	1	825.539	
343.15	0	958.765	
343.15	.1	944.552	
343.15	.2	930.324	
343.15	.3	916.152	
343.15	.4	901.907	
343.15	.501	887.537	
343.15	.6	873.479	
343.15	.7	859.306	
343.15	.8	845.071	
343.15	.899	830.948	
343.15	1	816.664	
353.15	0	949.98	
353.15	.1	935.754	
353.15	.2	921.474	
353.15	.3	907.258	
353.15	.4	893.081	
353.15	.5	878.818	
353.15	.6	864.525	
353.15	.701	850.269	
353.15	.8	836.094	
353.15	.9	821.91	
353.15	1	807.649	

System: 1,4-dimethylbenzene + NMF; phases: Gas, Liquid
Property: Mass density, kg/m3 (Gas); method: Vibrating tube method
Temperature, K	Mole fraction of 1,4-dimethylbenzene	Mass density, kg/m3	uncertainty
333.15	0	.0079	
333.15	.101	.0247	
333.15	.201	.0434	
333.15	.3	.0633	
333.15	.4	.0856	
333.15	.5	.1105	
333.15	.6	.1356	
333.15	.7	.1642	
333.15	.8	.194	
333.15	.9	.2269	
333.15	1	.262	
343.15	0	.0138	
343.15	.1	.0382	
343.15	.2	.0658	
343.15	.3	.0954	
343.15	.4	.1281	
343.15	.501	.1635	
343.15	.6	.2033	
343.15	.7	.2443	
343.15	.8	.2891	
343.15	.899	.3375	
343.15	1	.3903	
353.15	0	.0231	
353.15	.1	.0572	
353.15	.2	.0955	
353.15	.3	.138	
353.15	.4	.1851	
353.15	.5	.2361	
353.15	.6	.2932	
353.15	.701	.353	
353.15	.8	.4183	
353.15	.9	.4883	
353.15	1	.5636	
