Measured thermophysical data. Limiting Partition Coefficients of Sulfur-Containing Aromatics in a Biphasic [bmim][MeSO4]-Supercritical CO2 System
Source: J. Chem. Eng. Data, 2011, 10.1021/je1010642
Compound 1: thianaphthene, C8H6S, purity 99%
Compound 2: benzothiazole, C7H5NS, purity 96%
Compound 3: dibenzothiophene, C12H8S, purity 99%
Compound 4: 4,6-dimethyldibenzothiophene, C14H12S, purity 97%
Compound 5: di-o-phenylene disulfide, C12H8S2, purity 97%
Compound 6: phenoxathiin, C12H8OS, purity 97%
Compound 7: naphthalene, C10H8, purity 99%
Compound 8: carbon dioxide, CO2
Compound 9: 1-butyl-3-methylimidazolium methylsulfate, C9H18N2O4S, purity 97%

System: benzothiazole + carbon dioxide + 1-butyl-3-methylimidazolium methylsulfate; phases: Gas, Liquid
Fixed: Mole fraction of benzothiazole = 0
Property: Mole fraction of benzothiazole (Gas); method: Chromatography
Temperature, K	Mole fraction of 1-butyl-3-methylimidazolium methylsulfate	Mole fraction of benzothiazole	uncertainty
313.2	.1229	.00123	.0001845
313.2	.1245	.00267	.0004005
313.2	.1263	.00649	.0009735
333.2	.0927	.000814	.0001221

System: thianaphthene + carbon dioxide + 1-butyl-3-methylimidazolium methylsulfate; phases: Gas, Liquid
Fixed: Mole fraction of thianaphthene = 0
Property: Mole fraction of thianaphthene (Gas); method: Chromatography
Temperature, K	Mole fraction of 1-butyl-3-methylimidazolium methylsulfate	Mole fraction of thianaphthene	uncertainty
313.2	.1229	.00301	.0004515
313.2	.1245	.00519	.0007785
313.2	.1263	.0114	.00171
333.2	.0927	.00192	.000288

System: carbon dioxide + dibenzothiophene + 1-butyl-3-methylimidazolium methylsulfate; phases: Gas, Liquid
Fixed: Mole fraction of dibenzothiophene = 0
Property: Mole fraction of dibenzothiophene (Gas); method: Chromatography
Temperature, K	Mole fraction of 1-butyl-3-methylimidazolium methylsulfate	Mole fraction of dibenzothiophene	uncertainty
313.2	.1263	.00226	.000339

System: carbon dioxide + phenoxathiin + 1-butyl-3-methylimidazolium methylsulfate; phases: Gas, Liquid
Fixed: Mole fraction of phenoxathiin = 0
Property: Mole fraction of phenoxathiin (Gas); method: Chromatography
Temperature, K	Mole fraction of 1-butyl-3-methylimidazolium methylsulfate	Mole fraction of phenoxathiin	uncertainty
313.2	.1263	.0039	.000585

System: di-o-phenylene disulfide + carbon dioxide + 1-butyl-3-methylimidazolium methylsulfate; phases: Gas, Liquid
Fixed: Mole fraction of di-o-phenylene disulfide = 0
Property: Mole fraction of di-o-phenylene disulfide (Gas); method: Chromatography
Temperature, K	Mole fraction of 1-butyl-3-methylimidazolium methylsulfate	Mole fraction of di-o-phenylene disulfide	uncertainty
313.2	.1263	.00176	.000264

System: naphthalene + carbon dioxide + 1-butyl-3-methylimidazolium methylsulfate; phases: Gas, Liquid
Fixed: Mole fraction of naphthalene = 0
Property: Mole fraction of naphthalene (Gas); method: Chromatography
Temperature, K	Mole fraction of 1-butyl-3-methylimidazolium methylsulfate	Mole fraction of naphthalene	uncertainty
313.2	.1229	.00491	.0007365
313.2	.1245	.0085	.001275
313.2	.1263	.0175	.002625
333.2	.0927	.00306	.000459
