Measured thermophysical data. Phase Behavior for the Carbon Dioxide + N-Pentadecane Binary System
Source: J. Chem. Eng. Data, 2010, 10.1021/je100404g
Compound 1: carbon dioxide, CO2, purity 99.7%
Compound 2: pentadecane, C15H32, purity 99%

System: carbon dioxide + pentadecane; phases: Liquid, Gas
Property: Vapor or sublimation pressure, kPa (Liquid); method: Closed cell (Static) method
Mole fraction of carbon dioxide	Temperature, K	Vapor or sublimation pressure, kPa	uncertainty
.1451	293.15	760	
.3061	293.15	1830	
.4021	293.15	2840	
.5459	293.15	4060	
.6096	293.15	4620	
.6837	293.15	5350	
.7482	293.15	5590	
.1191	303.15	720	
.2306	303.15	1700	
.3596	303.15	2850	
.4795	303.15	3970	
.5499	303.15	4810	
.6355	303.15	5810	
.7538	303.15	6850	

System: carbon dioxide + pentadecane; phases: Gas, Liquid
Property: Mole fraction of carbon dioxide (Gas); method: liquid samples of both phases were weighed with a precision balance
Mole fraction of carbon dioxide	Temperature, K	Mole fraction of carbon dioxide	uncertainty
.1451	293.15	.9965	.003
.3061	293.15	.9984	.003
.4021	293.15	.9997	.003
.5459	293.15	.9997	.003
.6096	293.15	.9992	.003
.6837	293.15	.9993	.003
.7482	293.15	.9982	.003
.1191	303.15	.9904	.003
.2306	303.15	.998	.003
.3596	303.15	.9978	.003
.4795	303.15	.9981	.003
.5499	303.15	.9976	.003
.6355	303.15	.999	.003
.7538	303.15	.999	.003

System: carbon dioxide + pentadecane; phases: Liquid mixture 1, Liquid mixture 2, Gas
Property: Mole fraction of carbon dioxide (Liquid mixture 1); method: liquid samples of both phases were weighed with a precision balance
Temperature, K	Mole fraction of carbon dioxide	uncertainty
293.15	.7583	.003
303.15	.7823	.003

System: carbon dioxide + pentadecane; phases: Liquid mixture 2, Liquid mixture 1, Gas
Property: Mole fraction of carbon dioxide (Liquid mixture 2); method: liquid samples of both phases were weighed with a precision balance
Temperature, K	Mole fraction of carbon dioxide	uncertainty
293.15	.9868	.003
303.15	.9822	.003

System: carbon dioxide + pentadecane; phases: Gas, Liquid mixture 1, Liquid mixture 2
Property: Mole fraction of carbon dioxide (Gas); method: liquid samples of both phases were weighed with a precision balance
Temperature, K	Mole fraction of carbon dioxide	uncertainty
293.15	.9979	.003
303.15	.9981	.003

System: carbon dioxide + pentadecane; phases: Liquid mixture 1, Liquid mixture 2, Gas
Property: Vapor or sublimation pressure, kPa (Liquid mixture 1); method: Closed cell (Static) method
Temperature, K	Vapor or sublimation pressure, kPa	uncertainty
293.15	5610	
303.15	7040	

System: carbon dioxide + pentadecane; phases: Liquid mixture 1, Liquid mixture 2
Property: Mole fraction of carbon dioxide (Liquid mixture 1); method: liquid samples of both phases were weighed with a precision balance
Temperature, K	Pressure, kPa	Mole fraction of carbon dioxide	uncertainty
293.15	5820	.7822	.003
293.15	6410	.8138	.003
293.15	8210	.8255	.003
293.15	8260	.8261	.003
293.15	11180	.8399	.003
293.15	12420	.8437	.003
293.15	13730	.863	.003
293.15	14120	.8686	.003
303.15	7260	.7958	.003
303.15	8120	.8176	.003
303.15	8870	.8318	.003
303.15	10030	.871	.003

System: carbon dioxide + pentadecane; phases: Liquid mixture 2, Liquid mixture 1
Property: Mole fraction of carbon dioxide (Liquid mixture 2); method: liquid samples of both phases were weighed with a precision balance
Temperature, K	Pressure, kPa	Mole fraction of carbon dioxide	uncertainty
293.15	5820	.9862	.003
293.15	6410	.9846	.003
293.15	8210	.9794	.003
293.15	8260	.9797	.003
293.15	11180	.9676	.003
293.15	12420	.9716	.003
293.15	13730	.9718	.003
293.15	14120	.9682	.003
303.15	7260	.9809	.003
303.15	8120	.981	.003
303.15	8870	.9808	.003
303.15	10030	.9797	.003

System: carbon dioxide + pentadecane; phases: Liquid, Gas
Property: Vapor or sublimation pressure, kPa (Liquid); method: Closed cell (Static) method
Mole fraction of carbon dioxide	Temperature, K	Vapor or sublimation pressure, kPa	uncertainty
.1088	313.15	560	
.2144	313.15	1850	
.3386	313.15	3400	
.3839	313.15	3860	
.5221	313.15	5580	
.6343	313.15	6680	
.7078	313.15	7650	
.7777	313.15	8690	
.8029	313.15	9730	
.8394	313.15	11030	
.0768	333.15	680	
.1894	333.15	1880	
.3243	333.15	3510	
.3768	333.15	4390	
.4402	333.15	5270	
.514	333.15	6390	
.5878	333.15	7810	
.6799	333.15	9250	
.7052	333.15	9970	
.7534	333.15	11190	
.7931	333.15	12170	
.8238	333.15	13240	
.8425	333.15	13940	
.0888	353.15	930	
.204	353.15	1880	
.3017	353.15	3480	
.4306	353.15	5490	
.5095	353.15	7270	
.5912	353.15	8810	
.6438	353.15	10230	
.6917	353.15	11690	
.7492	353.15	13160	
.7977	353.15	14560	
.8263	353.15	16030	
.8634	353.15	17500	

System: carbon dioxide + pentadecane; phases: Gas, Liquid
Property: Mole fraction of carbon dioxide (Gas); method: liquid samples of both phases were weighed with a precision balance
Mole fraction of carbon dioxide	Temperature, K	Mole fraction of carbon dioxide	uncertainty
.1088	313.15	.9924	.003
.2144	313.15	.9966	.003
.3386	313.15	.9975	.003
.3839	313.15	.9978	.003
.5221	313.15	.999	.003
.6343	313.15	.9993	.003
.7078	313.15	.9995	.003
.7777	313.15	.9997	.003
.8029	313.15	.9992	.003
.8394	313.15	.9988	.003
.0768	333.15	.9854	.003
.1894	333.15	.9903	.003
.3243	333.15	.9964	.003
.3768	333.15	.9973	.003
.4402	333.15	.9977	.003
.514	333.15	.9987	.003
.5878	333.15	.9994	.003
.6799	333.15	.9992	.003
.7052	333.15	.9992	.003
.7534	333.15	.9982	.003
.7931	333.15	.9961	.003
.8238	333.15	.9897	.003
.8425	333.15	.9878	.003
.0888	353.15	.9508	.003
.204	353.15	.984	.003
.3017	353.15	.9952	.003
.4306	353.15	.9985	.003
.5095	353.15	.9991	.003
.5912	353.15	.9992	.003
.6438	353.15	.9991	.003
.6917	353.15	.9984	.003
.7492	353.15	.9974	.003
.7977	353.15	.996	.003
.8263	353.15	.9927	.003
.8634	353.15	.9889	.003

System: carbon dioxide + pentadecane; phases: Liquid mixture 1, Liquid mixture 2, Gas
Property: Vapor or sublimation pressure, kPa (Liquid mixture 1); method: Closed cell (Static) method
Temperature, K	Vapor or sublimation pressure, kPa	uncertainty
292.85	55300	
293.15	56000	
293.75	56600	
294.65	57800	
295.15	58400	
296.55	60500	
298.15	62700	
298.65	63400	
299.65	64800	
301.95	68200	
303.15	70400	
303.85	71200	
305.25	73700	
308.05	78400	
308.65	79400	
309.15	80200	
