Measured thermophysical data. Solubility of Sulpiride in Pure Organic Solvents between (278 and 333) K
Source: J. Chem. Eng. Data, 2010, 10.1021/je1002016
Compound 1: sulpiride, C15H23N3O4S, purity 99.7%
Compound 2: ethanol, C2H6O
Compound 3: propanone, C3H6O
Compound 4: N,N-dimethylformamide, C3H7NO
Compound 5: tetramethylene oxide, C4H8O
Compound 6: methanol, CH4O
Compound 7: N-methyl-2-pyrrolidone, C5H9NO

System: ethanol + sulpiride; phases: Liquid, Crystal
Fixed: Pressure, kPa = 101
Property: Mole fraction of sulpiride (Liquid); method: monitored by a laser beam
Temperature, K	Mole fraction of sulpiride	uncertainty
288.76	.00045	.000009
294.01	.000576	.00001152
298.74	.0007638	.000015276
303.65	.0009904	.000019808
308	.00123	.0000246
313.4	.001561	.00003122
318.2	.002019	.00004038
324	.002687	.00005374
328.1	.003429	.00006858
332.7	.004334	.00008668

System: propanone + sulpiride; phases: Liquid, Crystal
Fixed: Pressure, kPa = 101
Property: Mole fraction of sulpiride (Liquid); method: monitored by a laser beam
Temperature, K	Mole fraction of sulpiride	uncertainty
278.25	.0009696	.000019392
283.3	.001229	.00002458
287.85	.00142	.0000284
293.5	.001757	.00003514
298.25	.002097	.00004194
303.05	.002499	.00004998
308	.003003	.00006006
313.5	.003565	.0000713
318.55	.004346	.00008692
323.45	.005213	.00010426

System: N,N-dimethylformamide + sulpiride; phases: Liquid, Crystal
Fixed: Pressure, kPa = 101
Property: Mole fraction of sulpiride (Liquid); method: monitored by a laser beam
Temperature, K	Mole fraction of sulpiride	uncertainty
277.95	.03884	.0007768
283.15	.04366	.0008732
288.3	.04878	.0009756
293.05	.05376	.0010752
297.95	.05931	.0011862
303	.06504	.0013008
308.03	.07165	.001433
313.13	.07874	.0015748
318.28	.08643	.0017286
323.05	.09444	.0018888
327.85	.1035	.00207
333.25	.111	.00222

System: tetramethylene oxide + sulpiride; phases: Liquid, Crystal
Fixed: Pressure, kPa = 101
Property: Mole fraction of sulpiride (Liquid); method: monitored by a laser beam
Temperature, K	Mole fraction of sulpiride	uncertainty
282.95	.001088	.00002176
288.3	.001373	.00002746
293.25	.001775	.0000355
298.15	.002244	.00004488
303.05	.002744	.00005488
308.05	.003326	.00006652
313.05	.003972	.00007944
318.25	.004825	.0000965
323.2	.005827	.00011654
328.25	.006941	.00013882
333.05	.008305	.0001661

System: methanol + sulpiride; phases: Liquid, Crystal
Fixed: Pressure, kPa = 101
Property: Mole fraction of sulpiride (Liquid); method: monitored by a laser beam
Temperature, K	Mole fraction of sulpiride	uncertainty
278.18	.0008554	.000017108
283.27	.001115	.0000223
288.2	.001417	.00002834
293.45	.001831	.00003662
298.55	.002209	.00004418
303.2	.002764	.00005528
308.21	.003496	.00006992
313.19	.004574	.00009148
318.26	.005678	.00011356
323.17	.007039	.00014078
328.28	.008932	.00017864
333.37	.01076	.0002152

System: N-methyl-2-pyrrolidone + sulpiride; phases: Liquid, Crystal
Fixed: Pressure, kPa = 101
Property: Mole fraction of sulpiride (Liquid); method: monitored by a laser beam
Temperature, K	Mole fraction of sulpiride	uncertainty
283.68	.08099	.0016198
288.5	.08742	.0017484
293.85	.09881	.0019762
298.75	.1106	.002212
303.2	.1187	.002374
308.5	.1235	.00247
313.5	.1334	.002668
318.5	.1404	.002808
