Measured thermophysical data. Electrical Conductivity Studies of Tetraalkylammonium Bromides in Aqueous Solutions at Several Temperatures
Source: J. Chem. Eng. Data, 2012, 10.1021/je101043c
Compound 1: tetramethylammonium bromide, C4H12BrN, purity 99.8%
Compound 2: tetraethylammonium bromide, C8H20BrN, purity 99.8%
Compound 3: tetrapropylammonium bromide, C12H28BrN, purity 99.8%
Compound 4: 1-butanaminium, N,N,N-tributyl-, bromide, C16H36BrN, purity 99.8%
Compound 5: water, H2O, purity 99.9%

System: tetramethylammonium bromide + water; phases: Liquid
Fixed: Pressure, kPa = 101
Property: Molar conductivity, S*m2/mol (Liquid); method: Alternating current cell with electrodes
Temperature, K	Molality, mol/kg of tetramethylammonium bromide	Molar conductivity, S*m2/mol	uncertainty
278.15	.002002	.007772	.000069948
278.15	.004008	.007578	.000068202
278.15	.006438	.00747	.00006723
278.15	.008018	.007397	.000066573
278.15	.00992	.007271	.000065439
278.15	.020064	.007054	.000063486
278.15	.024671	.006946	.000062514
278.15	.030021	.006843	.000061587
278.15	.034945	.006766	.000060894
278.15	.040165	.006663	.000059967
283.15	.002002	.008476	.000076284
283.15	.004008	.008256	.000074304
283.15	.006438	.00816	.00007344
283.15	.008018	.0081	.0000729
283.15	.00992	.008022	.000072198
283.15	.020064	.007689	.000069201
283.15	.024671	.007588	.000068292
283.15	.030021	.007492	.000067428
283.15	.034945	.007468	.000067212
283.15	.040165	.007297	.000065673
288.15	.002002	.009625	.000086625
288.15	.004008	.009449	.000085041
288.15	.006438	.009346	.000084114
288.15	.008018	.009234	.000083106
288.15	.00992	.009126	.000082134
288.15	.020064	.008892	.000080028
288.15	.024671	.008798	.000079182
288.15	.030021	.008682	.000078138
288.15	.034945	.008539	.000076851
288.15	.040165	.008427	.000075843
293.15	.002002	.010768	.000096912
293.15	.004008	.010556	.000095004
293.15	.006438	.010429	.000093861
293.15	.008018	.01029	.00009261
293.15	.00992	.010184	.000091656
293.15	.020064	.009927	.000089343
293.15	.024671	.009834	.000088506
293.15	.030021	.009701	.000087309
293.15	.034945	.009527	.000085743
293.15	.040165	.009439	.000084951
298.15	.002002	.011887	.000106983
298.15	.004008	.011691	.000105219
298.15	.006438	.011559	.000104031
298.15	.008018	.011389	.000102501
298.15	.00992	.011276	.000101484
298.15	.020064	.011016	.000099144
298.15	.024671	.010879	.000097911
298.15	.030021	.010765	.000096885
298.15	.034945	.010579	.000095211
298.15	.040165	.010561	.000095049

System: tetraethylammonium bromide + water; phases: Liquid
Fixed: Pressure, kPa = 101
Property: Molar conductivity, S*m2/mol (Liquid); method: Alternating current cell with electrodes
Temperature, K	Molality, mol/kg of tetraethylammonium bromide	Molar conductivity, S*m2/mol	uncertainty
278.15	.004038	.006751	.000060759
278.15	.00619	.006668	.000060012
278.15	.007967	.006555	.000058995
278.15	.010044	.006466	.000058194
278.15	.015026	.006311	.000056799
278.15	.020103	.006141	.000055269
278.15	.025232	.00604	.00005436
278.15	.02992	.005946	.000053514
278.15	.034745	.005833	.000052497
278.15	.040122	.005686	.000051174
283.15	.004038	.007378	.000066402
283.15	.00619	.007274	.000065466
283.15	.007967	.007156	.000064404
283.15	.010044	.00707	.00006363
283.15	.015026	.006893	.000062037
283.15	.020103	.006784	.000061056
283.15	.025232	.006607	.000059463
283.15	.02992	.006534	.000058806
283.15	.034745	.006428	.000057852
283.15	.040122	.006248	.000056232
288.15	.004038	.008442	.000075978
288.15	.00619	.008321	.000074889
288.15	.007967	.008199	.000073791
288.15	.010044	.008113	.000073017
288.15	.015026	.007938	.000071442
288.15	.020103	.00778	.00007002
288.15	.025232	.007606	.000068454
288.15	.02992	.00751	.00006759
288.15	.034745	.007387	.000066483
288.15	.040122	.00721	.00006489
293.15	.004038	.009485	.000085365
293.15	.00619	.009316	.000083844
293.15	.007967	.009189	.000082701
293.15	.010044	.009069	.000081621
293.15	.015026	.008866	.000079794
293.15	.020103	.008691	.000078219
293.15	.025232	.008526	.000076734
293.15	.02992	.008404	.000075636
293.15	.034745	.00826	.00007434
293.15	.040122	.008011	.000072099
298.15	.004038	.010503	.000094527
298.15	.00619	.010349	.000093141
298.15	.007967	.010221	.000091989
298.15	.010044	.010089	.000090801
298.15	.015026	.00982	.00008838
298.15	.020103	.009614	.000086526
298.15	.025232	.009396	.000084564
298.15	.02992	.009226	.000083034
298.15	.034745	.009026	.000081234
298.15	.040122	.008811	.000079299

System: tetrapropylammonium bromide + water; phases: Liquid
Fixed: Pressure, kPa = 101
Property: Molar conductivity, S*m2/mol (Liquid); method: Alternating current cell with electrodes
Temperature, K	Molality, mol/kg of tetrapropylammonium bromide	Molar conductivity, S*m2/mol	uncertainty
278.15	.004011	.006095	.000054855
278.15	.006014	.006017	.000054153
278.15	.008149	.005902	.000053118
278.15	.01009	.005827	.000052443
278.15	.014931	.005633	.000050697
278.15	.019969	.00552	.00004968
278.15	.024879	.005452	.000049068
278.15	.029992	.00533	.00004797
278.15	.034923	.005222	.000046998
278.15	.001999	.006335	.000057015
278.15	.040083	.005101	.000045909
283.15	.008149	.006524	.000058716
283.15	.01009	.006432	.000057888
283.15	.014931	.006201	.000055809
283.15	.019969	.006032	.000054288
283.15	.024879	.005982	.000053838
283.15	.029992	.005827	.000052443
283.15	.034923	.005736	.000051624
283.15	.004011	.006741	.000060669
283.15	.001999	.00693	.00006237
283.15	.006014	.006624	.000059616
283.15	.040083	.005587	.000050283
288.15	.014931	.00718	.00006462
288.15	.019969	.006982	.000062838
288.15	.024879	.00691	.00006219
288.15	.029992	.00678	.00006102
288.15	.034923	.006632	.000059688
288.15	.004011	.007693	.000069237
288.15	.006014	.007602	.000068418
288.15	.001999	.007833	.000070497
288.15	.008149	.007516	.000067644
288.15	.01009	.007421	.000066789
288.15	.040083	.006489	.000058401
293.15	.024879	.007702	.000069318
293.15	.029992	.007539	.000067851
293.15	.034923	.007432	.000066888
293.15	.004011	.00856	.00007704
293.15	.006014	.008422	.000075798
293.15	.008149	.008268	.000074412
293.15	.001999	.008715	.000078435
293.15	.01009	.008198	.000073782
293.15	.014931	.008005	.000072045
293.15	.019969	.007772	.000069948
293.15	.040083	.007291	.000065619
298.15	.034923	.008138	.000073242
298.15	.004011	.009563	.000086067
298.15	.006014	.009422	.000084798
298.15	.008149	.00928	.00008352
298.15	.01009	.009184	.000082656
298.15	.001999	.009781	.000088029
298.15	.014931	.008854	.000079686
298.15	.019969	.008636	.000077724
298.15	.024879	.008527	.000076743
298.15	.029992	.008283	.000074547
298.15	.040083	.008023	.000072207

System: 1-butanaminium, N,N,N-tributyl-, bromide + water; phases: Liquid
Fixed: Pressure, kPa = 101
Property: Molar conductivity, S*m2/mol (Liquid); method: Alternating current cell with electrodes
Temperature, K	Molality, mol/kg of 1-butanaminium, N,N,N-tributyl-, bromide	Molar conductivity, S*m2/mol	uncertainty
278.15	.002006	.006088	.000054792
278.15	.004041	.005971	.000053739
278.15	.01002	.005632	.000050688
278.15	.01495	.005413	.000048717
278.15	.01994	.005275	.000047475
278.15	.025101	.005092	.000045828
278.15	.030072	.004969	.000044721
278.15	.034982	.004845	.000043605
278.15	.039664	.004706	.000042354
283.15	.002006	.006635	.000059715
283.15	.004041	.006492	.000058428
283.15	.01002	.006185	.000055665
283.15	.01495	.005938	.000053442
283.15	.01994	.005805	.000052245
283.15	.025101	.005577	.000050193
283.15	.030072	.005458	.000049122
283.15	.034982	.005343	.000048087
283.15	.039664	.005192	.000046728
288.15	.002006	.007656	.000068904
288.15	.004041	.00753	.00006777
288.15	.01002	.007205	.000064845
288.15	.01495	.006916	.000062244
288.15	.01994	.006751	.000060759
288.15	.025101	.006483	.000058347
288.15	.030072	.006344	.000057096
288.15	.034982	.006194	.000055746
288.15	.039664	.006041	.000054369
288.15	.00205	.007682	.000069138
288.15	.00384	.007528	.000067752
288.15	.01023	.007181	.000064629
288.15	.01493	.006918	.000062262
288.15	.02	.006711	.000060399
288.15	.02481	.006433	.000057897
288.15	.03007	.006326	.000056934
288.15	.03502	.006158	.000055422
288.15	.03973	.005983	.000053847
293.15	.002006	.008636	.000077724
293.15	.004041	.008441	.000075969
293.15	.01002	.008041	.000072369
293.15	.01495	.007717	.000069453
293.15	.01994	.007477	.000067293
293.15	.025101	.007198	.000064782
293.15	.030072	.007085	.000063765
293.15	.034982	.006892	.000062028
293.15	.039664	.006724	.000060516
293.15	.00205	.008541	.000076869
293.15	.00384	.008351	.000075159
293.15	.01023	.007934	.000071406
293.15	.01493	.007615	.000068535
293.15	.02	.007376	.000066384
293.15	.02481	.007064	.000063576
293.15	.03007	.006962	.000062658
293.15	.03502	.006759	.000060831
293.15	.03973	.006603	.000059427
298.15	.002006	.009355	.000084195
298.15	.004041	.00916	.00008244
298.15	.01002	.008801	.000079209
298.15	.01495	.00841	.00007569
298.15	.01994	.008141	.000073269
298.15	.025101	.007842	.000070578
298.15	.030072	.007746	.000069714
298.15	.034982	.007537	.000067833
298.15	.039664	.007395	.000066555
