Measured thermophysical data. Enthalpic Interaction Coefficients of Several l-a-Amino Acids in Aqueous Sodium Chloride Solutions at 298.15 K
Source: J. Chem. Eng. Data, 2010, 10.1021/je100756z
Compound 1: L-isoleucine, C6H13NO2
Compound 2: (R)-2-amino-3-mercaptopropanoic acid, C3H7NO2S
Compound 3: L-aminosuccinic acid, C4H7NO4
Compound 4: glutamic acid, C5H9NO4
Compound 5: water, H2O
Compound 6: sodium chloride, ClNa

System: L-isoleucine + sodium chloride + water; phases: Liquid
Fixed: Mole fraction of L-isoleucine = 0
Fixed: Temperature, K = 298.15
Fixed: Pressure, kPa = 101
Property: Molar enthalpy of solution, kJ/mol (Liquid); method: Isoperibol calorimetry
Solvent: Molality, mol/kg of sodium chloride	Molar enthalpy of solution, kJ/mol	uncertainty
.5	3.38	.04
1	3.64	.05
1.5	3.74	.06
2	3.88	.05
2.5	3.96	.05
3	3.98	.05

System: (R)-2-amino-3-mercaptopropanoic acid + sodium chloride + water; phases: Liquid
Fixed: Mole fraction of (R)-2-amino-3-mercaptopropanoic acid = 0
Fixed: Temperature, K = 298.15
Fixed: Pressure, kPa = 101
Property: Molar enthalpy of solution, kJ/mol (Liquid); method: Isoperibol calorimetry
Solvent: Molality, mol/kg of sodium chloride	Molar enthalpy of solution, kJ/mol	uncertainty
.5	10.81	.05
1	10.55	.04
1.5	10.26	.05
2	10.04	.04
2.5	9.82	.05
3	9.62	.04

System: L-aminosuccinic acid + sodium chloride + water; phases: Liquid
Fixed: Mole fraction of L-aminosuccinic acid = 0
Fixed: Temperature, K = 298.15
Fixed: Pressure, kPa = 101
Property: Molar enthalpy of solution, kJ/mol (Liquid); method: Isoperibol calorimetry
Solvent: Molality, mol/kg of sodium chloride	Molar enthalpy of solution, kJ/mol	uncertainty
.5	24.64	.12
1	23.69	.12
1.5	22.82	.11
2	22.32	.11
2.5	21.72	.11
3	21.32	.11

System: glutamic acid + sodium chloride + water; phases: Liquid
Fixed: Mole fraction of glutamic acid = 0
Fixed: Temperature, K = 298.15
Fixed: Pressure, kPa = 101
Property: Molar enthalpy of solution, kJ/mol (Liquid); method: Isoperibol calorimetry
Solvent: Molality, mol/kg of sodium chloride	Molar enthalpy of solution, kJ/mol	uncertainty
.5	26.76	.13
1	25.97	.14
1.5	25.47	.13
2	25.04	.12
2.5	24.6	.11
3	24.41	.12
