Measured thermophysical data. Solubility of Carbonyl Sulfide in Aqueous Solutions of Ethylene Glycol at Temperatures from (308.15 K to 323.15) K
Source: J. Chem. Eng. Data, 2010, 10.1021/je100624p
Compound 1: carbonyl sulfide, COS
Compound 2: ethylene glycol, C2H6O2
Compound 3: water, H2O
Compound 4: ethanol, C2H6O
Compound 5: 2-propanol, C3H8O

System: ethylene glycol; phases: Liquid
Fixed: Pressure, kPa = 101.325
Property: Mass density, kg/m3 (Liquid); method: Vibrating tube method
Temperature, K	Mass density, kg/m3	uncertainty
298.15	1109.6	

System: water; phases: Liquid, Gas
Property: Vapor or sublimation pressure, kPa (Liquid); method: Closed cell (Static) method
Temperature, K	Vapor or sublimation pressure, kPa	uncertainty
303.15	4.186	.133
308.15	5.493	.133
313.15	7.346	.133
318.15	9.493	.133

System: ethanol; phases: Liquid, Gas
Property: Vapor or sublimation pressure, kPa (Liquid); method: Closed cell (Static) method
Temperature, K	Vapor or sublimation pressure, kPa	uncertainty
303.15	10.426	.133
313.15	17.839	.133

System: 2-propanol; phases: Liquid, Gas
Property: Vapor or sublimation pressure, kPa (Liquid); method: Closed cell (Static) method
Temperature, K	Vapor or sublimation pressure, kPa	uncertainty
303.15	7.933	.133
308.15	10.719	.133

System: ethylene glycol + carbonyl sulfide + water; phases: Liquid, Gas
Property: Mole fraction of carbonyl sulfide (Liquid); method: Pressure drop
Temperature, K	Partial pressure, kPa of carbonyl sulfide	Solvent: Mole fraction of ethylene glycol	Mole fraction of carbonyl sulfide	uncertainty
308.15	60.532	0	.000245	.000009506
308.15	30.864	0	.000094	.0000036472
308.15	13.999	0	.000075	.00000291
308.15	59.698	.031	.00074	.000028712
308.15	41.73	.031	.000478	.0000185464
308.15	28.012	.031	.00032	.000012416
308.15	41.73	.069	.000557	.0000216116
308.15	30.398	.069	.000327	.0000126876
308.15	21.465	.069	.00027	.000010476
308.15	49.196	.111	.000701	.0000271988
308.15	40.263	.111	.000497	.0000192836
308.15	20.136	.111	.000307	.0000119116
308.15	46.662	.162	.000701	.0000271988
308.15	31.971	.162	.000497	.0000192836
308.15	27.998	.162	.000307	.0000119116
308.15	50.263	.225	.000857	.0000332516
308.15	37.597	.225	.000572	.0000221936
308.15	31.331	.225	.000515	.000019982
308.15	53.663	.303	.000959	.0000372092
308.15	27.265	.303	.000413	.0000160244
308.15	13.8	.303	.000314	.0000121832
308.15	51.529	.403	.001074	.0000416712
308.15	36.197	.403	.00089	.000034532
308.15	14.399	.403	.000378	.0000146664
308.15	53.129	.537	.001174	.0000455512
308.15	27.998	.537	.00078	.000030264
308.15	19.198	.537	.00038	.000014744
308.15	53.196	.723	.001722	.0000668136
308.15	29.531	.723	.000829	.0000321652
308.15	16.799	.723	.000407	.0000157916
308.15	50.729	1	.002317	.0000898996
308.15	29.731	1	.00131	.000050828
308.15	14.799	1	.00085	.00003298
313.15	59.928	0	.000189	.0000073332
313.15	53.262	0	.000164	.0000063632
313.15	35.93	0	.000126	.0000048888
313.15	57.265	.031	.000621	.0000240948
313.15	42.13	.031	.000405	.000015714
313.15	32.797	.031	.000362	.0000140456
313.15	45.996	.069	.000554	.0000214952
313.15	27.998	.069	.000275	.00001067
313.15	10.532	.069	.00017	.000006596
313.15	45.463	.111	.000561	.0000217668
313.15	36.797	.111	.000407	.0000157916
313.15	23.865	.111	.000318	.0000123384
313.15	50.529	.162	.0007	.00002716
313.15	38.863	.162	.000483	.0000187404
313.15	33.797	.162	.00044	.000017072
313.15	52.929	.225	.000814	.0000315832
313.15	38.596	.225	.000531	.0000206028
313.15	20.132	.225	.000369	.0000143172
313.15	44.063	.303	.000752	.0000291776
313.15	29.197	.303	.000402	.0000155976
313.15	14.266	.303	.000286	.0000110968
313.15	49.063	.403	.001174	.0000455512
313.15	29.664	.403	.00068	.000026384
313.15	18.998	.403	.000261	.0000101268
313.15	54.529	.537	.00112	.000043456
313.15	33.397	.537	.000867	.0000336396
313.15	18.932	.537	.00036	.000013968
313.15	54.995	.723	.001609	.0000624292
313.15	32.531	.723	.001022	.0000396536
313.15	18.665	.723	.00045	.00001746
313.15	50.996	1	.001802	.0000699176
313.15	32.331	1	.001403	.0000544364
313.15	15.265	1	.000506	.0000196328
318.15	60.862	0	.000163	.0000063244
318.15	53.629	0	.000127	.0000049276
318.15	13.466	0	.000039	.0000015132
318.15	50.263	.031	.000524	.0000203312
318.15	36.33	.031	.000303	.0000117564
318.15	18.398	.031	.000182	.0000070616
318.15	52.691	.069	.000532	.0000206416
318.15	31.331	.069	.000294	.0000114072
318.15	20.536	.069	.000255	.000009894
318.15	51.529	.111	.000611	.0000237068
318.15	37.197	.111	.000353	.0000136964
318.15	25.011	.111	.00029	.000011252
318.15	54.396	.162	.00072	.000027936
318.15	43.063	.162	.000487	.0000188956
318.15	26.131	.162	.000336	.0000130368
318.15	54.263	.225	.000783	.0000303804
318.15	39.197	.225	.000491	.0000190508
318.15	18.399	.225	.000322	.0000124936
318.15	54.262	.303	.000837	.0000324756
318.15	36.53	.303	.000504	.0000195552
318.15	14.399	.303	.000311	.0000120668
318.15	51.062	.403	.001051	.0000407788
318.15	34.197	.403	.000659	.0000255692
318.15	20.932	.403	.000498	.0000193224
318.15	54.862	.537	.001202	.0000466376
318.15	37.197	.537	.00068	.000026384
318.15	15.599	.537	.000381	.0000147828
318.15	54.795	.723	.001521	.0000590148
318.15	35.997	.723	.000878	.0000340664
318.15	15.345	.723	.000493	.0000191284
318.15	55.462	1	.001803	.0000699564
318.15	35.13	1	.00147	.000057036
318.15	15.865	1	.000483	.0000187404
323.15	57.729	0	.000135	.000005238
323.15	45.596	0	.000081	.0000031428
323.15	12.932	0	.000016	.0000006208
323.15	57.582	.031	.000525	.00002037
323.15	45.596	.031	.000326	.0000126488
323.15	14.132	.031	.000151	.0000058588
323.15	41.597	.069	.000397	.0000154036
323.15	39.33	.069	.000336	.0000130368
323.15	29.531	.069	.000266	.0000103208
323.15	51.169	.111	.000545	.000021146
323.15	38.264	.111	.000345	.000013386
323.15	24.051	.111	.000272	.0000105536
323.15	48.663	.162	.000614	.0000238232
323.15	36.197	.162	.000367	.0000142396
323.15	24.401	.162	.000294	.0000114072
323.15	52.929	.225	.000732	.0000284016
323.15	36.864	.225	.000408	.0000158304
323.15	13.132	.225	.000234	.0000090792
323.15	50.596	.303	.00073	.000028324
323.15	31.065	.303	.00041	.000015908
323.15	19.799	.303	.000336	.0000130368
323.15	52.662	.403	.001004	.0000389552
323.15	37.73	.403	.000676	.0000262288
323.15	19.465	.403	.000342	.0000132696
323.15	54.129	.537	.001126	.0000436888
323.15	31.331	.537	.000703	.0000272764
323.15	20.798	.537	.000308	.0000119504
323.15	51.062	.723	.00136	.000052768
323.15	36.73	.723	.000852	.0000330576
323.15	15.465	.723	.000545	.000021146
323.15	57.195	1	.001871	.0000725948
323.15	34.131	1	.001183	.0000459004
323.15	16.665	1	.000769	.0000298372
