Measured thermophysical data. Vapor Pressures and Enthalpies of Vaporization of a Series of the Symmetric Linear n-Alkyl Esters of Dicarboxylic Acids
Source: J. Chem. Eng. Data, 2011, 10.1021/je100231g
Compound 1: diethyl oxalate, C6H10O4
Compound 2: diethyl malonate, C7H12O4
Compound 3: butanedioic acid, diethyl ester, C8H14O4
Compound 4: diethyl glutarate, C9H16O4
Compound 5: diethyl adipate, C10H18O4
Compound 6: dipropyl oxalate, C8H14O4
Compound 7: dipropyl malonate, C9H16O4
Compound 8: dipropyl succinate, C10H18O4
Compound 9: dipropyl glutarate, C11H20O4
Compound 10: dipropyl adipate, C12H22O4
Compound 11: dibutyl oxalate, C10H18O4
Compound 12: dibutyl malonate, C11H20O4
Compound 13: dibutyl succinate, C12H22O4
Compound 14: pentanedioic acid, dibutyl ester, C13H24O4
Compound 15: dibutyl adipate, C14H26O4

System: diethyl oxalate; phases: Liquid, Gas
Property: Vapor or sublimation pressure, kPa (Liquid); method: Gas Saturation Method
Temperature, K	Vapor or sublimation pressure, kPa	uncertainty
283.6	.0164	.000492
288.5	.0256	.000768
293.4	.0392	.001176
298.3	.0571	.001713
303.3	.0814	.002442
308.4	.1254	.003762
311.3	.1509	.004527
313.5	.175	.00525
316.4	.2075	.006225
318.3	.2434	.007302
321.4	.2972	.008916
325.4	.3834	.011502
329.5	.4832	.014496
333.5	.6275	.018825

System: diethyl malonate; phases: Liquid, Gas
Property: Vapor or sublimation pressure, kPa (Liquid); method: Gas Saturation Method
Temperature, K	Vapor or sublimation pressure, kPa	uncertainty
283.8	.00689	.0002067
286.2	.00858	.0002574
289.2	.0115	.000345
292.3	.015	.00045
295.2	.0193	.000579
298.2	.0251	.000753
301.3	.0321	.000963
304.2	.0405	.001215
304.7	.0428	.001284
307.3	.0513	.001539
310.2	.0646	.001938
313.3	.0814	.002442
316.3	.1005	.003015

System: butanedioic acid, diethyl ester; phases: Liquid, Gas
Property: Vapor or sublimation pressure, kPa (Liquid); method: Gas Saturation Method
Temperature, K	Vapor or sublimation pressure, kPa	uncertainty
290.2	.00495	.0001485
290.5	.00504	.0001512
293.5	.00678	.0002034
296.4	.00861	.0002583
301.4	.0134	.000402
306.4	.0208	.000624
311.4	.0313	.000939
313.4	.035	.00105
316.4	.0455	.001365
318.4	.0503	.001509
321.4	.0661	.001983
323.5	.0777	.002331
326.5	.0941	.002823
326.5	.0963	.002889
328.5	.1125	.003375
331.4	.133	.00399
331.6	.1351	.004053
333.6	.1517	.004551
336.5	.1864	.005592
339.4	.2221	.006663
342.4	.2658	.007974
345.5	.3425	.010275

System: diethyl glutarate; phases: Liquid, Gas
Property: Vapor or sublimation pressure, kPa (Liquid); method: Gas Saturation Method
Temperature, K	Vapor or sublimation pressure, kPa	uncertainty
298.3	.00352	.0001056
303.4	.00575	.0001725
308.6	.00877	.0002631
311.2	.0108	.000324
313.5	.0134	.000402
316.2	.0161	.000483
318.2	.0185	.000555
318.5	.02	.0006
322.2	.0254	.000762
323.3	.0277	.000831
328.2	.0405	.001215
333.2	.0601	.001803
338.2	.0874	.002622
343.2	.1236	.003708
347.9	.1725	.005175

System: diethyl adipate; phases: Liquid, Gas
Property: Vapor or sublimation pressure, kPa (Liquid); method: Gas Saturation Method
Temperature, K	Vapor or sublimation pressure, kPa	uncertainty
303.5	.0022	.000066
308.2	.00343	.0001029
313.3	.00523	.0001569
318.2	.00793	.0002379
323.1	.0118	.000354
328.2	.0185	.000555
329.6	.0209	.000627
333.2	.0273	.000819
335.2	.0323	.000969
338.2	.039	.00117
340.2	.0462	.001386
343.2	.0561	.001683
346.2	.0698	.002094
349.1	.0851	.002553
352.2	.1061	.003183

System: dipropyl oxalate; phases: Liquid, Gas
Property: Vapor or sublimation pressure, kPa (Liquid); method: Gas Saturation Method
Temperature, K	Vapor or sublimation pressure, kPa	uncertainty
293.6	.00943	.0002829
298.5	.0139	.000417
301.4	.0175	.000525
306.4	.0255	.000765
308.4	.0304	.000912
311.4	.0362	.001086
313.4	.0413	.001239
316.3	.052	.00156
318.6	.0626	.001878
321.4	.0741	.002223
323.3	.0903	.002709
326.3	.1085	.003255
328.3	.1248	.003744
330.4	.1423	.004269
333.5	.1801	.005403

System: dipropyl malonate; phases: Liquid, Gas
Property: Vapor or sublimation pressure, kPa (Liquid); method: Gas Saturation Method
Temperature, K	Vapor or sublimation pressure, kPa	uncertainty
293.3	.00356	.0001068
298.3	.00582	.0001746
299.4	.00652	.0001956
303.2	.00897	.0002691
307.3	.0129	.000387
308.2	.0135	.000405
311.3	.0178	.000534
313.3	.0199	.000597
315.3	.0245	.000735
318.5	.0296	.000888
319.4	.0332	.000996
323.4	.0426	.001278
328.5	.0622	.001866
333.5	.089	.00267
336.4	.1095	.003285
338.5	.13	.0039

System: dipropyl succinate; phases: Liquid, Gas
Property: Vapor or sublimation pressure, kPa (Liquid); method: Gas Saturation Method
Temperature, K	Vapor or sublimation pressure, kPa	uncertainty
308.3	.00487	.0001461
312.4	.00685	.0002055
316.4	.00936	.0002808
318.5	.0111	.000333
321.5	.0139	.000417
323.5	.0163	.000489
326.4	.0209	.000627
328.6	.0252	.000756
331.3	.0303	.000909
333.4	.0362	.001086
336.5	.0443	.001329
338.5	.0509	.001527
341.5	.0625	.001875
343.5	.0723	.002169

System: dipropyl glutarate; phases: Liquid, Gas
Property: Vapor or sublimation pressure, kPa (Liquid); method: Gas Saturation Method
Temperature, K	Vapor or sublimation pressure, kPa	uncertainty
313.3	.00276	.0000828
316.4	.00359	.0001077
318.5	.00444	.0001332
319.4	.00478	.0001434
322.5	.00609	.0001827
323.5	.00637	.0001911
325.4	.00778	.0002334
328.5	.01	.0003
329.5	.0109	.000327
331.4	.0128	.000384
333.6	.0149	.000447
336.4	.0184	.000552
338.5	.022	.00066
341.4	.0271	.000813
343.6	.031	.00093
346.4	.0385	.001155
348.4	.0432	.001296
350.5	.0504	.001512
353.5	.0628	.001884

System: dipropyl adipate; phases: Liquid, Gas
Property: Vapor or sublimation pressure, kPa (Liquid); method: Gas Saturation Method
Temperature, K	Vapor or sublimation pressure, kPa	uncertainty
318.8	.00173	.0000519
321.7	.00222	.0000666
323.5	.0026	.000078
327.4	.00367	.0001101
333.2	.00602	.0001806
336.1	.00765	.0002295
339.1	.00972	.0002916
342.1	.0122	.000366
345.5	.0152	.000456
348.3	.0196	.000588
351.5	.0253	.000759
354.2	.0306	.000918
357.1	.0373	.001119
361.2	.0485	.001455
365.3	.0639	.001917

System: dibutyl oxalate; phases: Liquid, Gas
Property: Vapor or sublimation pressure, kPa (Liquid); method: Gas Saturation Method
Temperature, K	Vapor or sublimation pressure, kPa	uncertainty
291.4	.00087	.0000261
293.4	.0011	.000033
295.7	.00143	.0000429
298.8	.00182	.0000546
300.4	.00209	.0000627
302.3	.00249	.0000747
302.8	.00276	.0000828
303.3	.00283	.0000849
305.2	.0034	.000102
305.3	.00334	.0001002
308.2	.00446	.0001338
308.3	.00433	.0001299
308.4	.00448	.0001344
311.3	.00565	.0001695
312.3	.00624	.0001872
313.2	.0066	.000198
314.3	.00737	.0002211
315.5	.00855	.0002565
317.4	.00937	.0002811
317.8	.0105	.000315
318.2	.0105	.000315
319.9	.0124	.000372
320.2	.0115	.000345
322.5	.0149	.000447
323.2	.0159	.000477
323.4	.0151	.000453
325.3	.0176	.000528
325.3	.018	.00054
326.4	.0193	.000579
327.5	.0215	.000645
328.2	.0223	.000669
328.5	.0226	.000678
330.3	.0254	.000762
331.1	.0289	.000867
331.4	.0292	.000876
333.2	.0339	.001017
333.5	.0346	.001038
333.5	.0333	.000999
335.2	.0375	.001125
336.3	.0414	.001242
337	.0434	.001302
338.1	.0475	.001425
338.6	.0475	.001425
340.2	.0543	.001629
340.8	.0586	.001758
341.4	.0568	.001704
343.2	.0651	.001953
343.4	.0693	.002079
343.5	.0645	.001935
345.2	.0741	.002223
348.3	.0962	.002886
351.2	.1137	.003411
353.1	.1332	.003996
358.2	.1811	.005433

System: dibutyl malonate; phases: Liquid, Gas
Property: Vapor or sublimation pressure, kPa (Liquid); method: Gas Saturation Method
Temperature, K	Vapor or sublimation pressure, kPa	uncertainty
303.2	.00138	.0000414
308.3	.00223	.0000669
313.3	.00366	.0001098
318.3	.00557	.0001671
323.2	.00878	.0002634
325.1	.0101	.000303
328.2	.0131	.000393
330.2	.0152	.000456
333.2	.0193	.000579
335.2	.0217	.000651
338.2	.0267	.000801
340.2	.0325	.000975
343.2	.0407	.001221
345.2	.0454	.001362
349.1	.0586	.001758
353.1	.0788	.002364
357.2	.1022	.003066
361.2	.1343	.004029
365.2	.1672	.005016
369.2	.2174	.006522

System: dibutyl succinate; phases: Liquid, Gas
Property: Vapor or sublimation pressure, kPa (Liquid); method: Gas Saturation Method
Temperature, K	Vapor or sublimation pressure, kPa	uncertainty
313.3	.00132	.0000396
316.2	.0017	.000051
318.3	.00205	.0000615
320.2	.00248	.0000744
323.2	.00325	.0000975
325.2	.00383	.0001149
328.2	.00489	.0001467
330.2	.00577	.0001731
333.2	.00743	.0002229
335.4	.00877	.0002631
338.2	.011	.00033
340.1	.0121	.000363
343.2	.0164	.000492
346.2	.0197	.000591
349.2	.0247	.000741
352.1	.0319	.000957
355.1	.0387	.001161
358.2	.0473	.001419

System: pentanedioic acid, dibutyl ester; phases: Liquid, Gas
Property: Vapor or sublimation pressure, kPa (Liquid); method: Gas Saturation Method
Temperature, K	Vapor or sublimation pressure, kPa	uncertainty
317.5	.00064	.0000192
318.3	.0007	.000021
322.4	.00103	.0000309
323.4	.00114	.0000342
323.4	.00113	.0000339
325.4	.00132	.0000396
326.5	.00145	.0000435
328.4	.00179	.0000537
328.4	.00173	.0000519
330.6	.0021	.000063
331.5	.00229	.0000687
333.5	.00273	.0000819
334.6	.00306	.0000918
334.7	.00298	.0000894
337.6	.00375	.0001125
338.6	.00404	.0001212
340.5	.00475	.0001425
343.3	.006	.00018
346.6	.00782	.0002346
349.6	.00973	.0002919
350.3	.0103	.000309
352.5	.0121	.000363
354.7	.0145	.000435
357.5	.0177	.000531
360.6	.0213	.000639
363.4	.026	.00078
366.4	.0318	.000954
369.5	.0403	.001209

System: dibutyl adipate; phases: Liquid, Gas
Property: Vapor or sublimation pressure, kPa (Liquid); method: Gas Saturation Method
Temperature, K	Vapor or sublimation pressure, kPa	uncertainty
313.2	.00018	.0000054
318.2	.0003	.000009
323.2	.00048	.0000144
328.2	.00079	.0000237
333.3	.00127	.0000381
338.4	.00202	.0000606
343.1	.00304	.0000912
348.2	.00467	.0001401
353.2	.00705	.0002115
358.2	.0102	.000306
363.2	.0143	.000429
368.2	.0201	.000603
373.2	.0285	.000855
