Measured thermophysical data. Solubility of Anthracene in C1-C3 Alcohols from (298.2 to 333.2) K and Their Mixtures with 2-Propanone at 298.2 K
Source: J. Chem. Eng. Data, 2010, 10.1021/je1001945
Compound 1: anthracene, C14H10, purity 96%
Compound 2: methanol, CH4O, purity 99%
Compound 3: ethanol, C2H6O, purity 99.9%
Compound 4: propan-1-ol, C3H8O, purity 99.5%
Compound 5: 2-propanol, C3H8O, purity 99.5%
Compound 6: propanone, C3H6O, purity 99%

System: anthracene; phases: Crystal, Liquid, Air at 1 atmosphere
Property: Normal melting temperature, K (Crystal); method: Visual observation
Normal melting temperature, K	uncertainty
488	

System: methanol + anthracene; phases: Liquid, Crystal
Fixed: Pressure, kPa = 101
Property: Mass density, kg/m3 (Liquid); method: Pycnometric method
Temperature, K	Mass density, kg/m3	uncertainty
298.2	796	1
303.2	784	1
313.2	779	1
323.2	776	1
333.2	770	1
298.2	820	1

System: methanol + anthracene; phases: Liquid, Crystal
Fixed: Pressure, kPa = 101
Property: Amount concentration (molarity), mol/dm3 of anthracene (Liquid); method: Spectrophotometry
Temperature, K	Amount concentration (molarity), mol/dm3 of anthracene	uncertainty
298.2	.006	
303.2	.007	
313.2	.008	
323.2	.011	
333.2	.014	

System: ethanol + anthracene; phases: Liquid, Crystal
Fixed: Pressure, kPa = 101
Property: Mass density, kg/m3 (Liquid); method: Pycnometric method
Temperature, K	Mass density, kg/m3	uncertainty
298.2	796	1
303.2	782	1
313.2	776	1
323.2	773	1
333.2	768	1
298.2	820	1

System: ethanol + anthracene; phases: Liquid, Crystal
Fixed: Pressure, kPa = 101
Property: Amount concentration (molarity), mol/dm3 of anthracene (Liquid); method: Spectrophotometry
Temperature, K	Amount concentration (molarity), mol/dm3 of anthracene	uncertainty
298.2	.009	
303.2	.009	
313.2	.013	
323.2	.019	
333.2	.026	

System: propan-1-ol + anthracene; phases: Liquid, Crystal
Fixed: Pressure, kPa = 101
Property: Mass density, kg/m3 (Liquid); method: Pycnometric method
Temperature, K	Mass density, kg/m3	uncertainty
298.2	796	1
303.2	796	1
313.2	792	1
323.2	788	1
333.2	783	1
298.2	801	1

System: propan-1-ol + anthracene; phases: Liquid, Crystal
Fixed: Pressure, kPa = 101
Property: Amount concentration (molarity), mol/dm3 of anthracene (Liquid); method: Spectrophotometry
Temperature, K	Amount concentration (molarity), mol/dm3 of anthracene	uncertainty
298.2	.009	
303.2	.01	
313.2	.014	
323.2	.023	
333.2	.033	

System: 2-propanol + anthracene; phases: Liquid, Crystal
Fixed: Pressure, kPa = 101
Property: Mass density, kg/m3 (Liquid); method: Pycnometric method
Temperature, K	Mass density, kg/m3	uncertainty
298.2	796	1
303.2	779	1
313.2	774	1
323.2	767	1
333.2	763	1
298.2	783	1

System: 2-propanol + anthracene; phases: Liquid, Crystal
Fixed: Pressure, kPa = 101
Property: Amount concentration (molarity), mol/dm3 of anthracene (Liquid); method: Spectrophotometry
Temperature, K	Amount concentration (molarity), mol/dm3 of anthracene	uncertainty
298.2	.006	
303.2	.008	
313.2	.01	
323.2	.016	
333.2	.025	

System: methanol + propanone + anthracene; phases: Liquid, Crystal
Fixed: Temperature, K = 298.2
Fixed: Pressure, kPa = 101
Property: Mass density, kg/m3 (Liquid); method: Pycnometric method
Solvent: Mole fraction of methanol	Mass density, kg/m3	uncertainty
1	820	1
.942	819	1
.879	823	1
.809	824	1
.731	823	1
.644	824	1
.547	823	1
.437	824	1
.312	828	1
.168	815	1
0	796	1

System: methanol + propanone + anthracene; phases: Liquid, Crystal
Fixed: Pressure, kPa = 101
Fixed: Temperature, K = 298.2
Property: Amount concentration (molarity), mol/dm3 of anthracene (Liquid); method: Spectrophotometry
Solvent: Mole fraction of methanol	Amount concentration (molarity), mol/dm3 of anthracene	uncertainty
1	.006	
.942	.009	
.879	.011	
.809	.015	
.731	.02	
.644	.023	
.547	.031	
.437	.037	
.312	.043	
.168	.047	
0	.053	

System: ethanol + propanone + anthracene; phases: Liquid, Crystal
Fixed: Temperature, K = 298.2
Fixed: Pressure, kPa = 101
Property: Mass density, kg/m3 (Liquid); method: Pycnometric method
Solvent: Mole fraction of ethanol	Mass density, kg/m3	uncertainty
1	820	1
.919	820	1
.835	821	1
.746	822	1
.654	822	1
.558	822	1
.457	821	1
.351	821	1
.24	820	1
.123	816	1
0	796	1

System: ethanol + propanone + anthracene; phases: Liquid, Crystal
Fixed: Pressure, kPa = 101
Fixed: Temperature, K = 298.2
Property: Amount concentration (molarity), mol/dm3 of anthracene (Liquid); method: Spectrophotometry
Solvent: Mole fraction of ethanol	Amount concentration (molarity), mol/dm3 of anthracene	uncertainty
1	.009	
.919	.014	
.835	.017	
.746	.023	
.654	.025	
.558	.029	
.457	.037	
.351	.043	
.24	.043	
.123	.047	
0	.053	

System: propanone + propan-1-ol + anthracene; phases: Liquid, Crystal
Fixed: Temperature, K = 298.2
Fixed: Pressure, kPa = 101
Property: Mass density, kg/m3 (Liquid); method: Pycnometric method
Solvent: Mole fraction of propan-1-ol	Mass density, kg/m3	uncertainty
1	801	1
.898	801	1
.797	800	1
.696	799	1
.596	797	1
.496	796	1
.396	795	1
.296	794	1
.197	793	1
.098	792	1
0	796	1

System: propanone + propan-1-ol + anthracene; phases: Liquid, Crystal
Fixed: Pressure, kPa = 101
Fixed: Temperature, K = 298.2
Property: Amount concentration (molarity), mol/dm3 of anthracene (Liquid); method: Spectrophotometry
Solvent: Mole fraction of propan-1-ol	Amount concentration (molarity), mol/dm3 of anthracene	uncertainty
1	.009	
.898	.014	
.797	.02	
.696	.024	
.596	.033	
.496	.037	
.396	.041	
.296	.044	
.197	.046	
.098	.047	
0	.053	

System: 2-propanol + propanone + anthracene; phases: Liquid, Crystal
Fixed: Temperature, K = 298.2
Fixed: Pressure, kPa = 101
Property: Mass density, kg/m3 (Liquid); method: Pycnometric method
Solvent: Mole fraction of 2-propanol	Mass density, kg/m3	uncertainty
1	783	1
.826	783	1
.678	783	1
.551	783	1
.441	784	1
.345	784	1
.26	786	1
.184	787	1
.116	789	1
.055	794	1
0	796	1

System: 2-propanol + propanone + anthracene; phases: Liquid, Crystal
Fixed: Pressure, kPa = 101
Fixed: Temperature, K = 298.2
Property: Amount concentration (molarity), mol/dm3 of anthracene (Liquid); method: Spectrophotometry
Solvent: Mole fraction of 2-propanol	Amount concentration (molarity), mol/dm3 of anthracene	uncertainty
1	.006	
.826	.011	
.678	.015	
.551	.022	
.441	.027	
.345	.031	
.26	.034	
.184	.041	
.116	.044	
.055	.047	
0	.053	

System: propanone + anthracene; phases: Liquid, Crystal
Property: Mass density, kg/m3 (Liquid); method: Pycnometric method
Temperature, K	Pressure, kPa	Mass density, kg/m3	uncertainty
298.2	101	796	1

System: propanone + anthracene; phases: Liquid, Crystal
Property: Amount concentration (molarity), mol/dm3 of anthracene (Liquid); method: Spectrophotometry
Pressure, kPa	Temperature, K	Amount concentration (molarity), mol/dm3 of anthracene	uncertainty
101	298.2	.053	
