Measured thermophysical data. Solubility of Benzoic Acid in Pure Solvents and Binary Mixtures
Source: J. Chem. Eng. Data, 2010, 10.1021/je100675r
Compound 1: phenylcarboxylic acid, C7H6O2
Compound 2: ethanol, C2H6O
Compound 3: heptane, C7H16
Compound 4: cyclohexane, C6H12
Compound 5: pentane, C5H12
Compound 6: toluene, C7H8
Compound 7: chloroform, CHCl3

System: ethanol + phenylcarboxylic acid; phases: Liquid, Crystal
Fixed: Pressure, kPa = 101
Property: Mass ratio of solute to solvent of phenylcarboxylic acid (Liquid); method: Gravimetric method
Temperature, K	Mass ratio of solute to solvent of phenylcarboxylic acid	uncertainty
278.15	.3885	.008
283.15	.4298	.008
293.15	.5273	.008
303.15	.6461	.008
313.15	.8091	.008
323.15	1.012	.008

System: phenylcarboxylic acid + chloroform; phases: Liquid, Crystal
Fixed: Pressure, kPa = 101
Property: Mass ratio of solute to solvent of phenylcarboxylic acid (Liquid); method: Gravimetric method
Temperature, K	Mass ratio of solute to solvent of phenylcarboxylic acid	uncertainty
278.15	.0817	.008
283.15	.0963	.008
293.15	.1317	.008
303.15	.1821	.008
313.15	.2491	.008
323.15	.3461	.008

System: phenylcarboxylic acid + toluene; phases: Liquid, Crystal
Fixed: Pressure, kPa = 101
Property: Mass ratio of solute to solvent of phenylcarboxylic acid (Liquid); method: Gravimetric method
Temperature, K	Mass ratio of solute to solvent of phenylcarboxylic acid	uncertainty
278.15	.0482	.008
283.15	.0592	.008
293.15	.0877	.008
303.15	.1308	.008
313.15	.1942	.008
323.15	.2868	.008

System: phenylcarboxylic acid + cyclohexane; phases: Liquid, Crystal
Fixed: Pressure, kPa = 101
Property: Mass ratio of solute to solvent of phenylcarboxylic acid (Liquid); method: Gravimetric method
Temperature, K	Mass ratio of solute to solvent of phenylcarboxylic acid	uncertainty
283.15	.0081	.008
293.15	.0134	.008
303.15	.0223	.008
313.15	.0374	.008
323.15	.0596	.008

System: phenylcarboxylic acid + pentane; phases: Liquid, Crystal
Fixed: Pressure, kPa = 101
Property: Mass ratio of solute to solvent of phenylcarboxylic acid (Liquid); method: Gravimetric method
Temperature, K	Mass ratio of solute to solvent of phenylcarboxylic acid	uncertainty
278.15	.0061	.008
283.15	.0079	.008
293.15	.0119	.008
303.15	.0189	.008

System: phenylcarboxylic acid + heptane; phases: Liquid, Crystal
Fixed: Pressure, kPa = 101
Property: Mass ratio of solute to solvent of phenylcarboxylic acid (Liquid); method: Gravimetric method
Temperature, K	Mass ratio of solute to solvent of phenylcarboxylic acid	uncertainty
278.15	.006	.008
283.15	.0077	.008
293.15	.0123	.008
303.15	.0185	.008
313.15	.0278	.008
323.15	.0413	.008

System: ethanol + phenylcarboxylic acid + heptane; phases: Liquid, Crystal
Fixed: Pressure, kPa = 101
Property: Mass ratio of solute to solvent of phenylcarboxylic acid (Liquid); method: Gravimetric method
Temperature, K	Solvent: Mass fraction of heptane	Mass ratio of solute to solvent of phenylcarboxylic acid	uncertainty
278.15	0	.3885	.008
283.15	0	.4298	.008
293.15	0	.5273	.008
303.15	0	.6461	.008
313.15	0	.8091	.008
323.15	0	1.012	.008
278.15	.1	.3645	.008
283.15	.1	.4031	.008
293.15	.1	.4975	.008
303.15	.1	.6152	.008
313.15	.1	.7777	.008
323.15	.1	.9856	.008
278.15	.2	.3345	.008
283.15	.2	.371	.008
293.15	.2	.4574	.008
303.15	.2	.5725	.008
313.15	.2	.7287	.008
323.15	.2	.955	.008
278.15	.3	.3022	.008
283.15	.3	.3294	.008
293.15	.3	.41381	.008
303.15	.3	.5213	.008
313.15	.3	.6748	.008
323.15	.3	.8636	.008
278.15	.4	.2672	.008
283.15	.4	.298	.008
293.15	.4	.3735	.008
303.15	.4	.4676	.008
313.15	.4	.6101	.008
323.15	.4	.7661	.008
278.15	.5	.2263	.008
283.15	.5	.2531	.008
293.15	.5	.3187	.008
303.15	.5	.4024	.008
313.15	.5	.5239	.008
323.15	.5	.6747	.008

System: ethanol + phenylcarboxylic acid + toluene; phases: Liquid, Crystal
Fixed: Pressure, kPa = 101
Property: Mass ratio of solute to solvent of phenylcarboxylic acid (Liquid); method: Gravimetric method
Temperature, K	Solvent: Mass fraction of toluene	Mass ratio of solute to solvent of phenylcarboxylic acid	uncertainty
278.15	0	.3885	.008
283.15	0	.4298	.008
293.15	0	.5273	.008
303.15	0	.6461	.008
313.15	0	.8091	.008
323.15	0	1.012	.008
278.15	.1	.3855	.008
283.15	.1	.425	.008
293.15	.1	.5161	.008
303.15	.1	.6378	.008
313.15	.1	.7975	.008
323.15	.1	.9935	.008
278.15	.2	.3793	.008
283.15	.2	.4193	.008
293.15	.2	.5073	.008
303.15	.2	.6273	.008
313.15	.2	.7775	.008
323.15	.2	.962	.008
278.15	.3	.3707	.008
283.15	.3	.4078	.008
293.15	.3	.4945	.008
303.15	.3	.607	.008
313.15	.3	.7555	.008
323.15	.3	.9399	.008
278.15	.4	.3573	.008
283.15	.4	.3956	.008
293.15	.4	.4766	.008
303.15	.4	.5864	.008
313.15	.4	.7231	.008
323.15	.4	.9046	.008
278.15	.5	.3342	.008
283.15	.5	.3686	.008
293.15	.5	.4494	.008
303.15	.5	.5501	.008
313.15	.5	.6748	.008
323.15	.5	.8517	.008
