Measured thermophysical data. Liquid-Liquid Equilibria of Water + Pentan-1-ol + 2,6,6-Trimethylbicyclo[3.1.1]hep-2-ene or 6,6-Dimethyl-2-methylenebicyclo[3.1.1]heptane at (293.15, 303.15, 313.15, and 323.15) K
Source: J. Chem. Eng. Data, 2011, 10.1021/je101119p
Compound 1: 2,6,6-trimethylbicyclo[3.1.1]hept-2-ene, C10H16, purity 99.1%
Compound 2: nopinen, C10H16, purity 99%
Compound 3: pentan-1-ol, C5H12O, purity 99.54%
Compound 4: water, H2O, purity 99.99%

System: pentan-1-ol + 2,6,6-trimethylbicyclo[3.1.1]hept-2-ene + water; phases: Liquid mixture 2, Liquid mixture 1
Property: Mole fraction of water (Liquid mixture 2); method: Chromatography
Property: Mole fraction of pentan-1-ol (Liquid mixture 1); method: Chromatography
Property: Mole fraction of water (Liquid mixture 1); method: Chromatography
Temperature, K	Pressure, kPa	Mole fraction of pentan-1-ol	Mole fraction of water	uncertainty	Mole fraction of pentan-1-ol	uncertainty	Mole fraction of water	uncertainty
293.15	1	.0017	.9983	.0005	.2198	.0005	.0069	.0005
293.15	1	.0018	.9982	.0005	.3581	.0005	.0407	.0005
293.15	1	.0019	.9981	.0005	.4745	.0005	.0586	.0005
293.15	1	.002	.998	.0005	.5245	.0005	.1003	.0005
293.15	1	.0021	.9979	.0005	.5649	.0005	.1182	.0005
293.15	1	.0022	.9978	.0005	.5973	.0005	.1821	.0005
293.15	1	.0024	.9976	.0005	.6306	.0005	.2193	.0005
293.15	1	.0025	.9975	.0005	.6349	.0005	.2553	.0005
303.15	1	.0015	.9985	.0005	.2386	.0005	.0153	.0005
303.15	1	.0016	.9984	.0005	.3104	.0005	.0312	.0005
303.15	1	.0017	.9983	.0005	.3897	.0005	.0325	.0005
303.15	1	.0018	.9982	.0005	.5107	.0005	.0791	.0005
303.15	1	.0019	.9981	.0005	.5449	.0005	.0982	.0005
303.15	1	.002	.998	.0005	.5937	.0005	.196	.0005
303.15	1	.0022	.9978	.0005	.6237	.0005	.2878	.0005
313.15	1	.0013	.9987	.0005	.2107	.0005	.054	.0005
313.15	1	.0014	.9986	.0005	.3553	.0005	.0957	.0005
313.15	1	.0015	.9985	.0005	.4449	.0005	.1118	.0005
313.15	1	.0016	.9984	.0005	.5284	.0005	.1566	.0005
313.15	1	.0017	.9983	.0005	.5802	.0005	.215	.0005
313.15	1	.0018	.9982	.0005	.6084	.0005	.2671	.0005
323.15	1	.001	.999	.0005	.2179	.0005	.0287	.0005
323.15	1	.0011	.9989	.0005	.3676	.0005	.0519	.0005
323.15	1	.0013	.9987	.0005	.4538	.0005	.1188	.0005
323.15	1	.0014	.9986	.0005	.4787	.0005	.1466	.0005
323.15	1	.0015	.9985	.0005	.5255	.0005	.1668	.0005
323.15	1	.0016	.9984	.0005	.5606	.0005	.2186	.0005
323.15	1	.0018	.9982	.0005	.5909	.0005	.2486	.0005

System: pentan-1-ol + nopinen + water; phases: Liquid mixture 1, Liquid mixture 2
Property: Mole fraction of pentan-1-ol (Liquid mixture 1); method: Chromatography
Property: Mole fraction of water (Liquid mixture 2); method: Chromatography
Property: Mole fraction of pentan-1-ol (Liquid mixture 2); method: Chromatography
Temperature, K	Pressure, kPa	Mole fraction of water	Mole fraction of pentan-1-ol	uncertainty	Mole fraction of water	uncertainty	Mole fraction of pentan-1-ol	uncertainty
293.15	1	.3438	.6562	.0005	.9951	.0005	.0049	.0005
293.15	1	.0496	.2246	.0005	.9984	.0005	.0016	.0005
293.15	1	.0597	.3538	.0005	.9982	.0005	.0018	.0005
293.15	1	.0658	.4576	.0005	.9979	.0005	.0021	.0005
293.15	1	.0688	.5359	.0005	.9978	.0005	.0022	.0005
293.15	1	.1793	.5803	.0005	.9974	.0005	.0026	.0005
303.15	1	.3516	.6484	.0005	.9953	.0005	.0047	.0005
303.15	1	.0336	.2093	.0005	.9984	.0005	.0016	.0005
303.15	1	.0648	.4779	.0005	.998	.0005	.002	.0005
303.15	1	.0891	.5236	.0005	.9979	.0005	.0021	.0005
303.15	1	.1659	.5679	.0005	.9976	.0005	.0024	.0005
303.15	1	.244	.5803	.0005	.9975	.0005	.0025	.0005
313.15	1	.3592	.6408	.0005	.9956	.0005	.0044	.0005
313.15	1	.0758	.1958	.0005	.9985	.0005	.0015	.0005
313.15	1	.088	.3311	.0005	.9984	.0005	.0016	.0005
313.15	1	.1258	.4231	.0005	.9981	.0005	.0019	.0005
313.15	1	.1988	.4934	.0005	.998	.0005	.002	.0005
313.15	1	.213	.513	.0005	.9979	.0005	.0021	.0005
323.15	1	.3755	.6245	.0005	.9954	.0005	.0042	.0005
323.15	1	.0767	.1864	.0005	.9986	.0005	.0014	.0005
323.15	1	.0579	.3615	.0005	.9985	.0005	.0015	.0005
323.15	1	.0776	.4567	.0005	.9983	.0005	.0017	.0005
323.15	1	.1798	.5393	.0005	.998	.0005	.002	.0005
323.15	1	.255	.5506	.0005	.9979	.0005	.0021	.0005

System: pentan-1-ol + water; phases: Liquid mixture 2, Liquid mixture 1
Property: Mole fraction of pentan-1-ol (Liquid mixture 2); method: Chromatography
Temperature, K	Pressure, kPa	Mole fraction of pentan-1-ol	uncertainty
293.15	101.325	.0017	.0005
293.15	101.325	.0018	.0005
293.15	101.325	.0019	.0005
293.15	101.325	.002	.0005
293.15	101.325	.0021	.0005
293.15	101.325	.0022	.0005
293.15	101.325	.0024	.0005
293.15	101.325	.0025	.0005
303.15	101.325	.0015	.0005
303.15	101.325	.0016	.0005
303.15	101.325	.0017	.0005
303.15	101.325	.0018	.0005
303.15	101.325	.0019	.0005
303.15	101.325	.002	.0005
303.15	101.325	.0022	.0005
313.15	101.325	.0013	.0005
313.15	101.325	.0014	.0005
313.15	101.325	.0015	.0005
313.15	101.325	.0016	.0005
313.15	101.325	.0017	.0005
313.15	101.325	.0018	.0005
323.15	101.325	.001	.0005
323.15	101.325	.0011	.0005
323.15	101.325	.0013	.0005
323.15	101.325	.0014	.0005
323.15	101.325	.0015	.0005
323.15	101.325	.0016	.0005
323.15	101.325	.0018	.0005
293.15	101.325	.0049	.0005
293.15	101.325	.0016	.0005
293.15	101.325	.0026	.0005
303.15	101.325	.0047	.0005
303.15	101.325	.0021	.0005
303.15	101.325	.0024	.0005
303.15	101.325	.0025	.0005
313.15	101.325	.0044	.0005
313.15	101.325	.0019	.0005
313.15	101.325	.002	.0005
313.15	101.325	.0021	.0005
323.15	101.325	.0017	.0005
323.15	101.325	.002	.0005
323.15	101.325	.0021	.0005

System: pentan-1-ol + water; phases: Liquid mixture 1, Liquid mixture 2
Property: Mole fraction of pentan-1-ol (Liquid mixture 1); method: Chromatography
Temperature, K	Pressure, kPa	Mole fraction of pentan-1-ol	uncertainty
293.15	101.325	.6562	.0005
303.15	101.325	.6484	.0005
313.15	101.325	.6408	.0005
323.15	101.325	.6245	.0005
