Measured thermophysical data. Density, Viscosity, and Thermal Conductivity of Mixtures of 1-Ethoxy-1,1,2,2,3,3,4,4,4-nonafluorobutane (HFE 7200) with Methanol and 1-Ethoxybutane
Source: J. Chem. Eng. Data, 2011, 10.1021/je1011828
Compound 1: 1-ethoxy-1,1,2,2,3,3,4,4,4-nonafluorobutane, C6H5F9O, purity 99%
Compound 2: methanol, CH4O, purity 99.9%
Compound 3: ether, ethyl butyl, C6H14O, purity 98%

System: 1-ethoxy-1,1,2,2,3,3,4,4,4-nonafluorobutane; phases: Liquid
Fixed: Pressure, kPa = 101.325
Property: Thermal conductivity, W/m/K (Liquid); method: Hot wire method
Temperature, K	Thermal conductivity, W/m/K	uncertainty
278.8	.0712	.001424
300.6	.0644	.001288
314.1	.0616	.001232
328.3	.059	.00118
344.1	.0563	.001126
298.2	.0662	.001324

System: 1-ethoxy-1,1,2,2,3,3,4,4,4-nonafluorobutane; phases: Liquid
Property: Viscosity, Pa*s (Liquid); method: Capillary tube (Ostwald; Ubbelohde) method
Pressure, kPa	Temperature, K	Viscosity, Pa*s	uncertainty
101	297.8	.0006065	.0000009704
101	298.2	.0006065	.0000009704

System: 1-ethoxy-1,1,2,2,3,3,4,4,4-nonafluorobutane; phases: Liquid
Property: Mass density, kg/m3 (Liquid); method: Pycnometric method
Pressure, kPa	Temperature, K	Mass density, kg/m3	uncertainty
101	297.8	1417	.001
101	298.2	1417	.001

System: methanol; phases: Liquid
Property: Viscosity, Pa*s (Liquid); method: Capillary tube (Ostwald; Ubbelohde) method
Pressure, kPa	Temperature, K	Viscosity, Pa*s	uncertainty
101	297.8	.0005463	.00000087408

System: methanol; phases: Liquid
Property: Mass density, kg/m3 (Liquid); method: Pycnometric method
Pressure, kPa	Temperature, K	Mass density, kg/m3	uncertainty
101	297.8	791.8	.001

System: ether, ethyl butyl; phases: Liquid
Fixed: Pressure, kPa = 101.325
Property: Thermal conductivity, W/m/K (Liquid); method: Hot wire method
Temperature, K	Thermal conductivity, W/m/K	uncertainty
299.62	.125	.0025
312.17	.1229	.002458
333.39	.1017	.002034
354.63	.0949	.001898
298.15	.1258	.002516

System: ether, ethyl butyl; phases: Liquid
Property: Viscosity, Pa*s (Liquid); method: Capillary tube (Ostwald; Ubbelohde) method
Pressure, kPa	Temperature, K	Viscosity, Pa*s	uncertainty
101	298.2	.0003868	.00000061888

System: ether, ethyl butyl; phases: Liquid
Property: Mass density, kg/m3 (Liquid); method: Pycnometric method
Pressure, kPa	Temperature, K	Mass density, kg/m3	uncertainty
101	298.2	743	.001

System: methanol + 1-ethoxy-1,1,2,2,3,3,4,4,4-nonafluorobutane; phases: Liquid
Fixed: Pressure, kPa = 101
Fixed: Temperature, K = 297.8
Property: Viscosity, Pa*s (Liquid); method: Capillary tube (Ostwald; Ubbelohde) method
Mass fraction of methanol	Viscosity, Pa*s	uncertainty
0	.0006065	.0000009704
.1	.0006034	.00000096544
.2	.0006802	.00000108832
.4	.0006089	.00000097424
.6	.000571	.0000009136
.8	.0005495	.0000008792
1	.0005463	.00000087408

System: methanol + 1-ethoxy-1,1,2,2,3,3,4,4,4-nonafluorobutane; phases: Liquid
Fixed: Pressure, kPa = 101
Fixed: Temperature, K = 297.8
Property: Mass density, kg/m3 (Liquid); method: Pycnometric method
Mass fraction of methanol	Mass density, kg/m3	uncertainty
0	1417	.001
.1	1357	.001
.2	1294.4	.001
.4	1058.4	.001
.6	946.5	.001
.8	852.6	.001
1	791.8	.001

System: methanol + 1-ethoxy-1,1,2,2,3,3,4,4,4-nonafluorobutane; phases: Liquid
Fixed: Temperature, K = 297.8
Fixed: Pressure, kPa = 101
Property: Thermal conductivity, W/m/K (Liquid); method: Hot wire method
Mass fraction of methanol	Thermal conductivity, W/m/K	uncertainty
.1	.0729	.0729
.2	.0794	.0794
.4	.0948	.0948
.6	.1108	.1108
.8	.1326	.1326

System: ether, ethyl butyl + 1-ethoxy-1,1,2,2,3,3,4,4,4-nonafluorobutane; phases: Liquid
Fixed: Pressure, kPa = 101
Fixed: Temperature, K = 298.2
Property: Viscosity, Pa*s (Liquid); method: Capillary tube (Ostwald; Ubbelohde) method
Mass fraction of ether, ethyl butyl	Viscosity, Pa*s	uncertainty
0	.0006065	.0000009704
.1	.0005458	.00000087328
.2	.0005042	.00000080672
.4	.0004379	.00000070064
.6	.0004077	.00000065232
.8	.000397	.0000006352
1	.0003868	.00000061888

System: ether, ethyl butyl + 1-ethoxy-1,1,2,2,3,3,4,4,4-nonafluorobutane; phases: Liquid
Fixed: Pressure, kPa = 101
Fixed: Temperature, K = 298.2
Property: Mass density, kg/m3 (Liquid); method: Pycnometric method
Mass fraction of ether, ethyl butyl	Mass density, kg/m3	uncertainty
0	1417	.001
.1	1293.4	.001
.2	1187.4	.001
.4	1024.9	.001
.6	907.4	.001
.8	813.7	.001
1	743	.001

System: ether, ethyl butyl + 1-ethoxy-1,1,2,2,3,3,4,4,4-nonafluorobutane; phases: Liquid
Fixed: Temperature, K = 298.2
Fixed: Pressure, kPa = 101
Property: Thermal conductivity, W/m/K (Liquid); method: Hot wire method
Mass fraction of ether, ethyl butyl	Thermal conductivity, W/m/K	uncertainty
0	.0662	.001324
.1	.0664	.001328
.2	.0707	.001414
.4	.0774	.001548
.6	.0921	.001842
.8	.1085	.00217
1	.1258	.002516
