Measured thermophysical data. Experimental Isobaric Vapor-Liquid Equilibrium for Binary Systems of Ethyl Methyl Carbonate + Methanol, + Ethanol, + Dimethyl Carbonate, or + Diethyl Carbonate at 101.3 kPa
Source: J. Chem. Eng. Data, 2010, 10.1021/je100494z
Compound 1: methanol, CH4O, purity 99.9%
Compound 2: ethanol, C2H6O, purity 99.9%
Compound 3: ethyl methyl carbonate, C4H8O3, purity 99.9%
Compound 4: dimethyl carbonate, C3H6O3, purity 99.8%
Compound 5: diethyl carbonate, C5H10O3, purity 99.9%

System: methanol + ethyl methyl carbonate; phases: Liquid, Gas
Property: Boiling temperature at pressure P, K (Liquid); method: Ebulliometric method (Recirculating still)
Mole fraction of methanol	Pressure, kPa	Boiling temperature at pressure P, K	uncertainty
.9594	101.33	337.95	.1
.904	101.33	338.15	.1
.8344	101.33	338.65	.1
.7719	101.33	339.15	.1
.7158	101.33	339.85	.1
.6804	101.33	340.65	.1
.5923	101.33	342.15	.1
.4598	101.33	344.05	.1
.2724	101.33	348.65	.1
.2041	101.33	352.15	.1
.1466	101.33	357.15	.1
.1169	101.33	360.65	.1
.0741	101.33	367.15	.1
.0441	101.33	372.35	.1
.0128	101.33	379.15	.1

System: methanol + ethyl methyl carbonate; phases: Gas, Liquid
Property: Mole fraction of methanol (Gas); method: Chromatography
Mole fraction of methanol	Pressure, kPa	Mole fraction of methanol	uncertainty
.9594	101.33	.9707	.001
.904	101.33	.9393	.001
.8344	101.33	.9192	.001
.7719	101.33	.8971	.001
.7158	101.33	.8821	.001
.6804	101.33	.8725	.001
.5923	101.33	.8466	.001
.4598	101.33	.8187	.001
.2724	101.33	.7323	.001
.2041	101.33	.6796	.001
.1466	101.33	.6037	.001
.1169	101.33	.5452	.001
.0741	101.33	.4305	.001
.0441	101.33	.303	.001
.0128	101.33	.1087	.001

System: ethanol + ethyl methyl carbonate; phases: Liquid, Gas
Property: Boiling temperature at pressure P, K (Liquid); method: Ebulliometric method (Recirculating still)
Mole fraction of ethanol	Pressure, kPa	Boiling temperature at pressure P, K	uncertainty
.9577	101.33	351.25	.1
.8649	101.33	351.35	.1
.8031	101.33	351.65	.1
.7245	101.33	352.15	.1
.6415	101.33	353.05	.1
.5271	101.33	354.15	.1
.4019	101.33	356.15	.1
.2799	101.33	359.15	.1
.2111	101.33	362.65	.1
.1366	101.33	366.35	.1
.0866	101.33	370.35	.1
.0534	101.33	374.15	.1
.0325	101.33	377.15	.1

System: ethanol + ethyl methyl carbonate; phases: Gas, Liquid
Property: Mole fraction of ethanol (Gas); method: Chromatography
Mole fraction of ethanol	Pressure, kPa	Mole fraction of ethanol	uncertainty
.9577	101.33	.9483	.001
.8649	101.33	.8856	.001
.8031	101.33	.8617	.001
.7245	101.33	.8225	.001
.6415	101.33	.7936	.001
.5271	101.33	.7579	.001
.4019	101.33	.7008	.001
.2799	101.33	.6396	.001
.2111	101.33	.5711	.001
.1366	101.33	.4868	.001
.0866	101.33	.3828	.001
.0534	101.33	.2706	.001
.0325	101.33	.1865	.001

System: dimethyl carbonate + ethyl methyl carbonate; phases: Liquid, Gas
Property: Boiling temperature at pressure P, K (Liquid); method: Ebulliometric method (Recirculating still)
Mole fraction of dimethyl carbonate	Pressure, kPa	Boiling temperature at pressure P, K	uncertainty
.9386	101.33	364.15	.1
.8752	101.33	365.15	.1
.7849	101.33	366.25	.1
.7106	101.33	367.35	.1
.6388	101.33	368.55	.1
.5647	101.33	369.95	.1
.4821	101.33	371.15	.1
.4009	101.33	372.65	.1
.3183	101.33	374.25	.1
.2284	101.33	376.15	.1
.1734	101.33	377.15	.1
.1285	101.33	378.25	.1
.0765	101.33	379.65	.1
.0469	101.33	380.25	.1

System: dimethyl carbonate + ethyl methyl carbonate; phases: Gas, Liquid
Property: Mole fraction of dimethyl carbonate (Gas); method: Chromatography
Mole fraction of dimethyl carbonate	Pressure, kPa	Mole fraction of dimethyl carbonate	uncertainty
.9386	101.33	.9619	.001
.8752	101.33	.9216	.001
.7849	101.33	.8605	.001
.7106	101.33	.8076	.001
.6388	101.33	.7541	.001
.5647	101.33	.6948	.001
.4821	101.33	.6217	.001
.4009	101.33	.5428	.001
.3183	101.33	.4538	.001
.2284	101.33	.3446	.001
.1734	101.33	.272	.001
.1285	101.33	.2075	.001
.0765	101.33	.128	.001
.0469	101.33	.0802	.001

System: diethyl carbonate + ethyl methyl carbonate; phases: Liquid, Gas
Property: Boiling temperature at pressure P, K (Liquid); method: Ebulliometric method (Recirculating still)
Mole fraction of ethyl methyl carbonate	Pressure, kPa	Boiling temperature at pressure P, K	uncertainty
.866	101.33	383.25	.1
.8002	101.33	384.5	.1
.7192	101.33	385.65	.1
.6514	101.33	386.95	.1
.5887	101.33	388.15	.1
.5224	101.33	389.25	.1
.4135	101.33	391.15	.1
.327	101.33	392.65	.1
.2573	101.33	394.15	.1
.1978	101.33	395.15	.1
.1155	101.33	396.95	.1
.0713	101.33	397.95	.1

System: diethyl carbonate + ethyl methyl carbonate; phases: Gas, Liquid
Property: Mole fraction of ethyl methyl carbonate (Gas); method: Chromatography
Mole fraction of ethyl methyl carbonate	Pressure, kPa	Mole fraction of ethyl methyl carbonate	uncertainty
.866	101.33	.9238	.001
.8002	101.33	.8804	.001
.7192	101.33	.8218	.001
.6514	101.33	.7687	.001
.5887	101.33	.7162	.001
.5224	101.33	.655	.001
.4135	101.33	.545	.001
.327	101.33	.4497	.001
.2573	101.33	.3678	.001
.1978	101.33	.2904	.001
.1155	101.33	.1778	.001
.0713	101.33	.1126	.001
