Measured thermophysical data. Vapor-Liquid Equilibrium Study of an Absorption Heat Transformer Working Fluid of (HFC-32 + DMF)
Source: J. Chem. Eng. Data, 2011, 10.1021/je1011295
Compound 1: methane, difluoro-, CH2F2, purity 99.9%
Compound 2: N,N-dimethylformamide, C3H7NO, purity 99.99%

System: N,N-dimethylformamide + methane, difluoro-; phases: Liquid, Gas
Property: Vapor or sublimation pressure, kPa (Liquid); method: Ebulliometric method (Recirculating still)
Temperature, K	Mole fraction of methane, difluoro-	Vapor or sublimation pressure, kPa	uncertainty
283.15	.1265	124.33	1.6
283.15	.2604	253.48	1.6
283.15	.3616	358.3	1.6
283.15	.4832	487.51	1.6
283.15	.5886	622.34	1.6
283.15	.6412	689.61	1.6
283.15	.7176	790.83	1.6
283.15	.747	820.04	1.6
283.15	.8116	902.22	1.6
283.15	.8603	953.38	1.6
283.15	.9657	1074.5	1.6
293.15	.1251	158.61	1.6
293.15	.2616	319.03	1.6
293.15	.362	451.72	1.6
293.15	.4859	629.86	1.6
293.15	.5856	801.65	1.6
293.15	.6404	905.02	1.6
293.15	.7164	1015.99	1.6
293.15	.7458	1072.41	1.6
293.15	.8112	1180.58	1.6
293.15	.86	1251.31	1.6
293.15	.9656	1425.99	1.6
303.15	.1244	192.74	1.6
303.15	.2563	388.47	1.6
303.15	.3632	562.43	1.6
303.15	.4875	796.69	1.6
303.15	.5845	1005.84	1.6
303.15	.6434	1150.56	1.6
303.15	.7221	1322.21	1.6
303.15	.7495	1379.4	1.6
303.15	.8107	1513.53	1.6
303.15	.8596	1604.5	1.6
303.15	.9655	1855.41	1.6
313.15	.1234	231.32	1.6
313.15	.2547	484.26	1.6
313.15	.3606	685.28	1.6
313.15	.4833	976.87	1.6
313.15	.5806	1239.73	1.6
313.15	.6385	1411.53	1.6
313.15	.7186	1623.17	1.6
313.15	.7473	1704.82	1.6
313.15	.8088	1862.57	1.6
313.15	.8582	1995.23	1.6
313.15	.9652	2347.44	1.6
323.15	.1217	285.55	1.6
323.15	.2521	585.93	1.6
323.15	.358	822.3	1.6
323.15	.4813	1166.93	1.6
323.15	.5789	1482.84	1.6
323.15	.638	1677.75	1.6
323.15	.7176	1917.24	1.6
323.15	.7444	2004.47	1.6
323.15	.8085	2229.34	1.6
323.15	.8576	2425.77	1.6
323.15	.965	2924.54	1.6
333.15	.1196	331.41	1.6
333.15	.2511	708.44	1.6
333.15	.3572	991.51	1.6
333.15	.4806	1392.93	1.6
333.15	.5781	1736.95	1.6
333.15	.6333	1908.18	1.6
333.15	.7112	2182.56	1.6
333.15	.7391	2281	1.6
333.15	.7984	2515.19	1.6
333.15	.8522	2798.85	1.6
343.15	.1181	382.44	1.6
343.15	.2499	804.87	1.6
343.15	.3561	1141.96	1.6
343.15	.4797	1598.84	1.6
343.15	.5773	1982.35	1.6
343.15	.6326	2201.78	1.6
343.15	.7109	2567.28	1.6
343.15	.7388	2698.64	1.6
343.15	.7931	2986.93	1.6
343.15	.847	3294.41	1.6
353.15	.1164	435.33	1.6
353.15	.2493	887	1.6
353.15	.3555	1288.62	1.6
353.15	.4792	1814.38	1.6
353.15	.577	2267.58	1.6
353.15	.6323	2568.05	1.6
353.15	.7102	3064.85	1.6
353.15	.7376	3255.26	1.6
363.15	.1144	462.78	1.6
363.15	.2484	1006.56	1.6
363.15	.3548	1447.71	1.6
363.15	.4776	2056.78	1.6
363.15	.5765	2713.13	1.6
