Measured thermophysical data. Water Activity Measurement for Alanine + Dipotassium Oxalate + Water and the Corresponding Binary Solutions at Different Temperatures
Source: J. Chem. Eng. Data, 2010, 10.1021/je100760v
Compound 1: L-alanine, C3H7NO2, purity 99.5%
Compound 2: potassium oxalate monohydrate, C2H2K2O5, purity 99.5%
Compound 3: water, H2O

System: potassium oxalate monohydrate + water; phases: Liquid, Gas
Property: Osmotic coefficient (Liquid); method: Isopiestic method
Temperature, K	Molality, mol/kg of potassium oxalate monohydrate	Osmotic coefficient	uncertainty
308.15	.197	.768	
308.15	.2519	.745	
298.15	.2731	.764	
318.15	.2751	.729	
308.15	.2974	.737	
318.15	.3201	.725	
318.15	.3228	.721	
298.15	.3247	.747	
308.15	.3637	.734	
298.15	.3721	.742	
318.15	.4383	.709	
298.15	.4551	.736	
308.15	.4596	.726	
318.15	.4892	.709	
298.15	.4898	.737	
308.15	.5269	.72	
308.15	.5465	.719	
298.15	.5836	.735	
308.15	.5956	.719	
318.15	.596	.705	
308.15	.6873	.722	
298.15	.7175	.741	
308.15	.7481	.721	
318.15	.7938	.704	
308.15	.8067	.719	
298.15	.8532	.747	
298.15	.879	.746	
318.15	.8879	.707	
308.15	.8889	.721	
308.15	.9189	.724	
318.15	1.0876	.715	
308.15	1.0881	.73	
298.15	1.1635	.76	
298.15	1.2237	.76	
318.15	1.2614	.72	
308.15	1.2687	.739	
318.15	1.2963	.725	
298.15	1.4027	.77	
298.15	1.4461	.771	
308.15	1.5413	.751	
298.15	1.5534	.775	
298.15	1.6311	.777	
318.15	1.6433	.749	
318.15	1.6715	.748	
318.15	1.7197	.754	
318.15	1.7383	.752	
308.15	1.754	.768	
298.15	1.7629	.782	
298.15	1.8602	.789	
298.15	1.8655	.787	
318.15	1.8691	.763	
308.15	1.9335	.777	
298.15	1.9611	.791	
308.15	1.9914	.782	
308.15	2.1077	.792	
298.15	2.1661	.801	
318.15	2.2171	.78	
308.15	2.3049	.804	

System: L-alanine + potassium oxalate monohydrate + water; phases: Liquid, Gas
Property: (Relative) activity of water (Liquid); method: Isopiestic method
Temperature, K	Mass fraction of L-alanine	Mass fraction of potassium oxalate monohydrate	(Relative) activity of water	uncertainty
298.15	.0597	0	.9866	.0002
298.15	.0319	.0232	.9866	.0002
298.15	.0239	.0287	.9866	.0002
298.15	0	.0491	.9866	.0002
298.15	.0616	0	.9864	.0002
298.15	.032	.0252	.9864	.0002
298.15	.0203	.0348	.9864	.0002
298.15	0	.0522	.9864	.0002
298.15	.0726	0	.984	.0002
298.15	.0407	.0266	.984	.0002
298.15	.0173	.0472	.984	.0002
298.15	0	.0611	.984	.0002
298.15	.0801	0	.9827	.0002
298.15	.0398	.0332	.9827	.0002
298.15	.0202	.0497	.9827	.0002
298.15	0	.0678	.9827	.0002
298.15	.0902	0	.9794	.0002
298.15	.0473	.0387	.9794	.0002
298.15	.0211	.0609	.9794	.0002
298.15	0	.08	.9794	.0002
298.15	.1119	0	.9764	.0002
298.15	.0641	.0413	.9764	.0002
298.15	.0228	.0757	.9764	.0002
298.15	0	.0957	.9764	.0002
298.15	.1036	0	.9743	.0002
298.15	.0527	.0429	.9743	.0002
298.15	.0227	.0685	.9743	.0002
298.15	0	.0876	.9743	.0002
298.15	.1231	0	.9713	.0002
298.15	.0635	.0516	.9713	.0002
298.15	.028	.0831	.9713	.0002
298.15	0	.1067	.9713	.0002
298.15	.1264	0	.971	.0002
298.15	.0649	.0532	.971	.0002
298.15	.0281	.0878	.971	.0002
298.15	0	.1136	.971	.0002
308.15	.0525	0	.9886	.0002
308.15	.0298	.0206	.9886	.0002
308.15	.0205	.0274	.9886	.0002
308.15	0	.0431	.9886	.0002
308.15	.0608	0	.9867	.0002
308.15	.0321	.0244	.9867	.0002
308.15	.0195	.0339	.9867	.0002
308.15	0	.0491	.9867	.0002
308.15	.0684	0	.9857	.0002
308.15	.0358	.0247	.9857	.0002
308.15	.0171	.0414	.9857	.0002
308.15	0	.0564	.9857	.0002
308.15	.0765	0	.9834	.0002
308.15	.0379	.0306	.9834	.0002
308.15	.0162	.0495	.9834	.0002
308.15	0	.0642	.9834	.0002
308.15	.0889	0	.9799	.0002
308.15	.0455	.0366	.9799	.0002
308.15	.0185	.0587	.9799	.0002
308.15	0	.0756	.9799	.0002
308.15	.1046	0	.9758	.0002
308.15	.0544	.042	.9758	.0002
308.15	.0217	.0688	.9758	.0002
308.15	0	.0885	.9758	.0002
308.15	.119	0	.9744	.0002
308.15	.058	.047	.9744	.0002
308.15	.0244	.0753	.9744	.0002
308.15	0	.0986	.9744	.0002
308.15	.1279	0	.9708	.0002
308.15	.0656	.0532	.9708	.0002
308.15	.0275	.0861	.9708	.0002
308.15	0	.1104	.9708	.0002
308.15	.1315	0	.9698	.0002
308.15	.0687	.0553	.9698	.0002
308.15	.0281	.0881	.9698	.0002
308.15	0	.1135	.9698	.0002
308.15	.1449	0	.9659	.0002
308.15	.0755	.0601	.9659	.0002
308.15	.0309	.0966	.9659	.0002
308.15	0	.124	.9659	.0002
318.15	.0556	0	.9877	.0002
318.15	.0318	.0222	.9877	.0002
318.15	.024	.0274	.9877	.0002
318.15	0	.05	.9877	.0002
318.15	.0588	0	.9863	.0002
318.15	.0325	.025	.9863	.0002
318.15	.0206	.0353	.9863	.0002
318.15	0	.0533	.9863	.0002
318.15	.0683	0	.9853	.0002
318.15	.0351	.0259	.9853	.0002
318.15	.0161	.0426	.9853	.0002
318.15	0	.0573	.9853	.0002
318.15	.0882	0	.9808	.0002
318.15	.0417	.0358	.9808	.0002
318.15	.0184	.0563	.9808	.0002
318.15	0	.073	.9808	.0002
318.15	.0947	0	.9789	.0002
318.15	.048	.039	.9789	.0002
318.15	.0201	.0625	.9789	.0002
318.15	0	.0774	.9789	.0002
318.15	.1075	0	.9759	.0002
318.15	.0572	.0461	.9759	.0002
318.15	.0235	.0725	.9759	.0002
318.15	0	.0929	.9759	.0002
318.15	.1204	0	.972	.0002
318.15	.0638	.0519	.972	.0002
318.15	.0277	.0839	.972	.0002
318.15	0	.1059	.972	.0002
318.15	.1317	0	.9713	.0002
318.15	.0661	.0534	.9713	.0002
318.15	.0275	.0867	.9713	.0002
318.15	0	.1117	.9713	.0002
318.15	.1343	0	.97	.0002
318.15	.0705	.0574	.97	.0002
318.15	.0296	.0927	.97	.0002
318.15	0	.119	.97	.0002
318.15	.1461	0	.9664	.0002
318.15	.0732	.0596	.9664	.0002
318.15	.0305	.0963	.9664	.0002
318.15	0	.1236	.9664	.0002
318.15	.1543	0	.9653	.0002
318.15	.0782	.0634	.9653	.0002
318.15	.0337	.1063	.9653	.0002
318.15	0	.1368	.9653	.0002

System: L-alanine + potassium oxalate monohydrate + water; phases: Liquid, Gas
Property: Vapor or sublimation pressure, kPa (Liquid); method: Isopiestic method
Temperature, K	Mass fraction of L-alanine	Mass fraction of potassium oxalate monohydrate	Vapor or sublimation pressure, kPa	uncertainty
298.15	.0597	0	3.132	
298.15	.0319	.0232	3.132	
298.15	.0239	.0287	3.132	
298.15	0	.0491	3.132	
298.15	.0616	0	3.132	
298.15	.032	.0252	3.132	
298.15	.0203	.0348	3.132	
298.15	0	.0522	3.132	
298.15	.0726	0	3.124	
298.15	.0407	.0266	3.124	
298.15	.0173	.0472	3.124	
298.15	0	.0611	3.124	
298.15	.0801	0	3.12	
298.15	.0398	.0332	3.12	
298.15	.0202	.0497	3.12	
298.15	0	.0678	3.12	
298.15	.0902	0	3.109	
298.15	.0473	.0387	3.109	
298.15	.0211	.0609	3.109	
298.15	0	.08	3.109	
298.15	.1119	0	3.1	
298.15	.0641	.0413	3.1	
298.15	.0228	.0757	3.1	
298.15	0	.0957	3.1	
298.15	.1036	0	3.093	
298.15	.0527	.0429	3.093	
298.15	.0227	.0685	3.093	
298.15	0	.0876	3.093	
298.15	.1231	0	3.084	
298.15	.0635	.0516	3.084	
298.15	.028	.0831	3.084	
298.15	0	.1067	3.084	
298.15	.1264	0	3.083	
298.15	.0649	.0532	3.083	
298.15	.0281	.0878	3.083	
298.15	0	.1136	3.083	
308.15	.0525	0	5.511	
308.15	.0298	.0206	5.511	
308.15	.0205	.0274	5.511	
308.15	0	.0431	5.511	
308.15	.0608	0	5.501	
308.15	.0321	.0244	5.501	
308.15	.0195	.0339	5.501	
308.15	0	.0491	5.501	
308.15	.0684	0	5.495	
308.15	.0358	.0247	5.495	
308.15	.0171	.0414	5.495	
308.15	0	.0564	5.495	
308.15	.0765	0	5.482	
308.15	.0379	.0306	5.482	
308.15	.0162	.0495	5.482	
308.15	0	.0642	5.482	
308.15	.0889	0	5.463	
308.15	.0455	.0366	5.463	
308.15	.0185	.0587	5.463	
308.15	0	.0756	5.463	
308.15	.1046	0	5.44	
308.15	.0544	.042	5.44	
308.15	.0217	.0688	5.44	
308.15	0	.0885	5.44	
308.15	.119	0	5.432	
308.15	.058	.047	5.432	
308.15	.0244	.0753	5.432	
308.15	0	.0986	5.432	
308.15	.1279	0	5.412	
308.15	.0656	.0532	5.412	
308.15	.0275	.0861	5.412	
308.15	0	.1104	5.412	
308.15	.1315	0	5.406	
308.15	.0687	.0553	5.406	
308.15	.0281	.0881	5.406	
308.15	0	.1135	5.406	
308.15	.1449	0	5.384	
308.15	.0755	.0601	5.384	
308.15	.0309	.0966	5.384	
308.15	0	.124	5.384	
318.15	.0556	0	9.391	
318.15	.0318	.0222	9.391	
318.15	.024	.0274	9.391	
318.15	0	.05	9.391	
318.15	.0588	0	9.377	
318.15	.0325	.025	9.377	
318.15	.0206	.0353	9.377	
318.15	0	.0533	9.377	
318.15	.0683	0	9.368	
318.15	.0351	.0259	9.368	
318.15	.0161	.0426	9.368	
318.15	0	.0573	9.368	
318.15	.0882	0	9.325	
318.15	.0417	.0358	9.325	
318.15	.0184	.0563	9.325	
318.15	0	.073	9.325	
318.15	.0947	0	9.307	
318.15	.048	.039	9.307	
318.15	.0201	.0625	9.307	
318.15	0	.0774	9.307	
318.15	.1075	0	9.278	
318.15	.0572	.0461	9.278	
318.15	.0235	.0725	9.278	
318.15	0	.0929	9.278	
318.15	.1204	0	9.241	
318.15	.0638	.0519	9.241	
318.15	.0277	.0839	9.241	
318.15	0	.1059	9.241	
318.15	.1317	0	9.234	
318.15	.0661	.0534	9.234	
318.15	.0275	.0867	9.234	
318.15	0	.1117	9.234	
318.15	.1343	0	9.222	
318.15	.0705	.0574	9.222	
318.15	.0296	.0927	9.222	
318.15	0	.119	9.222	
318.15	.1461	0	9.188	
318.15	.0732	.0596	9.188	
318.15	.0305	.0963	9.188	
318.15	0	.1236	9.188	
318.15	.1543	0	9.177	
318.15	.0782	.0634	9.177	
318.15	.0337	.1063	9.177	
318.15	0	.1368	9.177	
