Measured thermophysical data. Thermodynamic and Acoustic Properties of Mixtures of 1,6-Dichlorohexane with Heptane from (293 to 313) K
Source: J. Chem. Eng. Data, 2010, 10.1021/je100610v
Compound 1: heptane, C7H16, purity 99.8%
Compound 2: 1,6-dichlorohexane, C6H12Cl2

System: heptane; phases: Liquid
Property: Mass density, kg/m3 (Liquid); method: Vibrating tube method
Temperature, K	Pressure, kPa	Mass density, kg/m3	uncertainty
293.15	101	683.79	.05
298.15	101	679.56	.05
303.15	101	675.3	.05
308.15	101	671.02	.05
313.15	101	666.71	.05

System: heptane; phases: Liquid
Property: Speed of sound, m/s (Liquid); method: Pulse-echo method
Temperature, K	Pressure, kPa	Speed of sound, m/s	uncertainty
292.7	101	1154.11	.1
298	101	1131.06	.1
302.98	101	1109.45	.1
308.06	101	1087.42	.1
313.45	101	1064.29	.1

System: 1,6-dichlorohexane; phases: Liquid
Property: Molar heat capacity at constant pressure, J/K/mol (Liquid); method: Large sample (1 g) DSC
Temperature, K	Pressure, kPa	Molar heat capacity at constant pressure, J/K/mol	uncertainty
293.15	101	239.21	.358815
294.15	101	239.5	.35925
295.15	101	239.69	.359535
296.15	101	240.02	.36003
297.15	101	240.35	.360525
298.15	101	240.64	.36096
299.15	101	240.85	.361275
300.15	101	241.15	.361725
301.15	101	241.46	.36219
302.15	101	241.8	.3627
303.15	101	242.06	.36309
304.15	101	242.34	.36351
305.15	101	242.62	.36393
306.15	101	242.83	.364245
307.15	101	243.21	.364815
308.15	101	243.49	.365235
309.15	101	243.73	.365595
310.15	101	244	.366
311.15	101	244.35	.366525
312.15	101	244.68	.36702
313.15	101	244.91	.367365

System: 1,6-dichlorohexane; phases: Liquid
Property: Mass density, kg/m3 (Liquid); method: Vibrating tube method
Temperature, K	Pressure, kPa	Mass density, kg/m3	uncertainty
293.15	101	1068.33	.05
298.15	101	1063.61	.05
303.15	101	1058.87	.05
308.15	101	1054.14	.05
313.15	101	1049.39	.05

System: 1,6-dichlorohexane; phases: Liquid
Property: Speed of sound, m/s (Liquid); method: Pulse-echo method
Temperature, K	Pressure, kPa	Speed of sound, m/s	uncertainty
293.01	101	1337.76	.1
298.18	101	1319.69	.1
303.15	101	1302.36	.1
308.14	101	1284.96	.1
313.23	101	1267.39	.1

System: heptane + 1,6-dichlorohexane; phases: Liquid
Fixed: Pressure, kPa = 101
Property: Molar heat capacity at constant pressure, J/K/mol (Liquid); method: Large sample (1 g) DSC
Temperature, K	Mole fraction of 1,6-dichlorohexane	Molar heat capacity at constant pressure, J/K/mol	uncertainty
293.15	.1033	224.18	.33627
294.15	.1033	224.47	.336705
295.15	.1033	224.85	.337275
296.15	.1033	225.28	.33792
297.15	.1033	225.7	.33855
298.15	.1033	226.02	.33903
299.15	.1033	226.42	.33963
300.15	.1033	226.82	.34023
301.15	.1033	227.16	.34074
302.15	.1033	227.48	.34122
303.15	.1033	227.86	.34179
304.15	.1033	228.19	.342285
305.15	.1033	228.57	.342855
306.15	.1033	228.88	.34332
307.15	.1033	229.3	.34395
308.15	.1033	229.71	.344565
309.15	.1033	230.05	.345075
310.15	.1033	230.4	.3456
311.15	.1033	230.86	.34629
312.15	.1033	231.16	.34674
313.15	.1033	231.55	.347325
293.15	.2005	225.58	.33837
294.15	.2005	225.71	.338565
295.15	.2005	226.27	.339405
296.15	.2005	226.73	.340095
297.15	.2005	227.04	.34056
298.15	.2005	227.35	.341025
299.15	.2005	227.84	.34176
300.15	.2005	228.08	.34212
301.15	.2005	228.49	.342735
302.15	.2005	228.83	.343245
303.15	.2005	229.13	.343695
304.15	.2005	229.46	.34419
305.15	.2005	229.83	.344745
306.15	.2005	230.1	.34515
307.15	.2005	230.51	.345765
308.15	.2005	230.91	.346365
309.15	.2005	231.19	.346785
310.15	.2005	231.55	.347325
311.15	.2005	231.97	.347955
312.15	.2005	232.33	.348495
313.15	.2005	232.68	.34902
293.15	.3004	226.93	.340395
294.15	.3004	227.22	.34083
295.15	.3004	227.61	.341415
296.15	.3004	227.98	.34197
297.15	.3004	228.31	.342465
298.15	.3004	228.65	.342975
299.15	.3004	228.96	.34344
300.15	.3004	229.21	.343815
301.15	.3004	229.61	.344415
302.15	.3004	230	.345
303.15	.3004	230.36	.34554
304.15	.3004	230.7	.34605
305.15	.3004	230.91	.346365
306.15	.3004	231.36	.34704
307.15	.3004	231.65	.347475
308.15	.3004	232.08	.34812
309.15	.3004	232.35	.348525
310.15	.3004	232.73	.349095
311.15	.3004	233.11	.349665
312.15	.3004	233.45	.350175
313.15	.3004	233.79	.350685
293.15	.397	228.73	.343095
294.15	.397	229.08	.34362
295.15	.397	229.51	.344265
296.15	.397	229.89	.344835
297.15	.397	230.27	.345405
298.15	.397	230.41	.345615
299.15	.397	230.75	.346125
300.15	.397	231.06	.34659
301.15	.397	231.57	.347355
302.15	.397	231.8	.3477
303.15	.397	232.08	.34812
304.15	.397	232.56	.34884
305.15	.397	232.74	.34911
306.15	.397	233.13	.349695
307.15	.397	233.51	.350265
308.15	.397	233.76	.35064
309.15	.397	234.03	.351045
310.15	.397	234.35	.351525
311.15	.397	234.88	.35232
312.15	.397	235.01	.352515
313.15	.397	235.43	.353145
293.15	.5025	230.53	.345795
294.15	.5025	230.89	.346335
295.15	.5025	231.34	.34701
296.15	.5025	231.84	.34776
297.15	.5025	231.98	.34797
298.15	.5025	232.13	.348195
299.15	.5025	232.24	.34836
300.15	.5025	232.49	.348735
301.15	.5025	232.94	.34941
302.15	.5025	233.35	.350025
303.15	.5025	233.73	.350595
304.15	.5025	234.04	.35106
305.15	.5025	234.33	.351495
306.15	.5025	234.4	.3516
307.15	.5025	235.07	.352605
308.15	.5025	235.33	.352995
309.15	.5025	235.45	.353175
310.15	.5025	235.77	.353655
311.15	.5025	236.41	.354615
312.15	.5025	236.75	.355125
313.15	.5025	236.93	.355395
293.15	.5978	232.22	.34833
294.15	.5978	232.55	.348825
295.15	.5978	232.94	.34941
296.15	.5978	233.25	.349875
297.15	.5978	233.48	.35022
298.15	.5978	233.77	.350655
299.15	.5978	234	.351
300.15	.5978	234.22	.35133
301.15	.5978	234.6	.3519
302.15	.5978	234.96	.35244
303.15	.5978	235.31	.352965
304.15	.5978	235.48	.35322
305.15	.5978	235.88	.35382
306.15	.5978	236.03	.354045
307.15	.5978	236.5	.35475
308.15	.5978	236.85	.355275
309.15	.5978	237.17	.355755
310.15	.5978	237.52	.35628
311.15	.5978	237.89	.356835
312.15	.5978	238.16	.35724
313.15	.5978	238.39	.357585
293.15	.7012	233.79	.350685
294.15	.7012	234	.351
295.15	.7012	234.33	.351495
296.15	.7012	234.73	.352095
297.15	.7012	235.05	.352575
298.15	.7012	235.36	.35304
299.15	.7012	235.65	.353475
300.15	.7012	236.05	.354075
301.15	.7012	236.34	.35451
302.15	.7012	236.63	.354945
303.15	.7012	236.93	.355395
304.15	.7012	237.2	.3558
305.15	.7012	237.53	.356295
306.15	.7012	237.84	.35676
307.15	.7012	238.18	.35727
308.15	.7012	238.49	.357735
309.15	.7012	238.74	.35811
310.15	.7012	239.07	.358605
311.15	.7012	239.43	.359145
312.15	.7012	239.72	.35958
313.15	.7012	240.06	.36009
293.15	.7975	235.58	.35337
294.15	.7975	235.86	.35379
295.15	.7975	236.23	.354345
296.15	.7975	236.51	.354765
297.15	.7975	236.81	.355215
298.15	.7975	237.1	.35565
299.15	.7975	237.33	.355995
300.15	.7975	237.68	.35652
301.15	.7975	238.04	.35706
302.15	.7975	238.29	.357435
303.15	.7975	238.61	.357915
304.15	.7975	238.86	.35829
305.15	.7975	239.21	.358815
306.15	.7975	239.44	.35916
307.15	.7975	239.76	.35964
308.15	.7975	240.12	.36018
309.15	.7975	240.37	.360555
310.15	.7975	240.64	.36096
311.15	.7975	241.08	.36162
312.15	.7975	241.32	.36198
313.15	.7975	241.64	.36246
293.15	.8993	237.46	.35619
294.15	.8993	237.73	.356595
295.15	.8993	238.1	.35715
296.15	.8993	238.39	.357585
297.15	.8993	238.57	.357855
298.15	.8993	238.92	.35838
299.15	.8993	239.06	.35859
300.15	.8993	239.39	.359085
301.15	.8993	239.79	.359685
302.15	.8993	240.08	.36012
303.15	.8993	240.37	.360555
304.15	.8993	240.64	.36096
305.15	.8993	240.92	.36138
306.15	.8993	241.2	.3618
307.15	.8993	241.48	.36222
308.15	.8993	241.83	.362745
309.15	.8993	242.06	.36309
310.15	.8993	242.36	.36354
311.15	.8993	242.73	.364095
312.15	.8993	243.02	.36453
313.15	.8993	243.28	.36492
293.15	1	239.21	.358815
294.15	1	239.5	.35925
295.15	1	239.69	.359535
296.15	1	240.02	.36003
297.15	1	240.35	.360525
298.15	1	240.64	.36096
299.15	1	240.85	.361275
300.15	1	241.15	.361725
301.15	1	241.46	.36219
302.15	1	241.8	.3627
303.15	1	242.06	.36309
304.15	1	242.34	.36351
305.15	1	242.62	.36393
306.15	1	242.83	.364245
307.15	1	243.21	.364815
308.15	1	243.49	.365235
309.15	1	243.73	.365595
310.15	1	244	.366
311.15	1	244.35	.366525
312.15	1	244.68	.36702
313.15	1	244.91	.367365

System: heptane + 1,6-dichlorohexane; phases: Liquid
Fixed: Pressure, kPa = 101
Property: Mass density, kg/m3 (Liquid); method: Vibrating tube method
Temperature, K	Mole fraction of 1,6-dichlorohexane	Mass density, kg/m3	uncertainty
293.15	0	683.79	.05
293.15	.0998	722.22	.05
293.15	.1999	760.97	.05
293.15	.2998	799.74	.05
293.15	.4001	838.66	.05
293.15	.5001	877.38	.05
293.15	.6002	916.12	.05
293.15	.7	954.46	.05
293.15	.8002	992.78	.05
293.15	.9001	1030.7	.05
293.15	1	1068.33	.05
298.15	0	679.56	.05
298.15	.0998	717.96	.05
298.15	.1999	756.72	.05
298.15	.2998	795.42	.05
298.15	.4001	834.33	.05
298.15	.5001	873.04	.05
298.15	.6002	911.75	.05
298.15	.7	950.12	.05
298.15	.8002	988.4	.05
298.15	.9001	1026.11	.05
298.15	1	1063.61	.05
303.15	0	675.3	.05
303.15	.0998	713.61	.05
303.15	.1999	752.3	.05
303.15	.2998	791	.05
303.15	.4001	830	.05
303.15	.5001	868.59	.05
303.15	.6002	907.23	.05
303.15	.7	945.63	.05
303.15	.8002	983.71	.05
303.15	.9001	1021.49	.05
303.15	1	1058.87	.05
308.15	0	671.02	.05
308.15	.0998	709.34	.05
308.15	.1999	748.07	.05
308.15	.2998	786.58	.05
308.15	.4001	825.61	.05
308.15	.5001	864.37	.05
308.15	.6002	902.95	.05
308.15	.7	941.1	.05
308.15	.8002	979.09	.05
308.15	.9001	1016.82	.05
308.15	1	1054.14	.05
313.15	0	666.71	.05
313.15	.0998	704.96	.05
313.15	.1999	743.68	.05
313.15	.2998	782.17	.05
313.15	.4001	821.26	.05
313.15	.5001	859.93	.05
313.15	.6002	898.61	.05
313.15	.7	936.7	.05
313.15	.8002	974.58	.05
313.15	.9001	1012.12	.05
313.15	1	1049.39	.05

System: heptane + 1,6-dichlorohexane; phases: Liquid
Fixed: Pressure, kPa = 101
Property: Speed of sound, m/s (Liquid); method: Pulse-echo method
Mole fraction of 1,6-dichlorohexane	Temperature, K	Speed of sound, m/s	uncertainty
0	292.7	1154.11	.1
.1014	292.92	1167.57	.1
.1999	292.81	1181.63	.1
.3004	292.49	1199.1	.1
.4	292.91	1215.33	.1
.4999	292.79	1234.95	.1
.6004	292.81	1254.97	.1
.6998	292.56	1276.92	.1
.8001	292.8	1297.03	.1
.8957	292.8	1316.31	.1
1	293.01	1337.76	.1
0	298	1131.06	.1
.1014	298.21	1145.47	.1
.1999	298.21	1159.37	.1
.3004	298.17	1176.14	.1
.4	298.2	1194.95	.1
.4999	298.17	1214.49	.1
.6004	298.21	1235.23	.1
.6998	298.16	1256.2	.1
.8001	298.2	1277.52	.1
.8957	298.16	1297.1	.1
1	298.18	1319.69	.1
0	302.98	1109.45	.1
.1014	303.2	1124.68	.1
.1999	303.2	1138.92	.1
.3004	303.15	1156.1	.1
.4	303.19	1175.46	.1
.4999	303.14	1195.51	.1
.6004	303.2	1216.82	.1
.6998	303.14	1237.89	.1
.8001	303.19	1259.56	.1
.8957	303.14	1279.45	.1
1	303.15	1302.36	.1
0	308.06	1087.42	.1
.1014	308.18	1103.97	.1
.1999	308.19	1118.59	.1
.3004	308.13	1136.24	.1
.4	308.17	1156.12	.1
.4999	308.13	1176.55	.1
.6004	308.18	1198.3	.1
.6998	308.12	1219.79	.1
.8001	308.18	1241.65	.1
.8957	308.12	1261.91	.1
1	308.14	1284.96	.1
0	313.45	1064.29	.1
.1014	313.25	1082.87	.1
.1999	313.28	1098.01	.1
.3004	313.21	1116.15	.1
.4	313.26	1136.54	.1
.4999	313.22	1157.34	.1
.6004	313.28	1179.51	.1
.6998	313.21	1201.4	.1
.8001	313.26	1223.62	.1
.8957	313.21	1244.05	.1
1	313.23	1267.39	.1
