Measured thermophysical data. Temperature Dependence Measurements of the Density at 0.1 MPa for 1-Alkyl-3-methylimidazolium-Based Ionic Liquids with the Trifluoromethanesulfonate and Tetrafluoroborate Anion
Source: J. Chem. Eng. Data, 2010, 10.1021/je100185e
Compound 1: 1-ethyl-3-methylimidazolium trifluoromethanesulfonate, C7H11F3N2O3S, purity 99%
Compound 2: 1-butyl-3-methylimidazolium trifluoromethanesulfonate, C9H15F3N2O3S, purity 99%
Compound 3: 1-hexyl-3-methylimidazolium trifluoromethanesulfonate, C11H19F3N2O3S, purity 99%
Compound 4: 1-hexyl-3-methylimidazolium tetrafluoroborate, C10H19BF4N2, purity 99%
Compound 5: water, H2O, purity 99.9%

System: 1-ethyl-3-methylimidazolium trifluoromethanesulfonate; phases: Liquid
Fixed: Pressure, kPa = 101.325
Property: Mass density, kg/m3 (Liquid); method: Buoyancy - hydrostatic balance
Temperature, K	Mass density, kg/m3	uncertainty
268.45	1411.49	.3
272.2	1408.79	.3
276.54	1404.33	.3
281.04	1400.26	.3
287.65	1394.08	.3
292.97	1389.96	.3
297.94	1385.93	.3
303.19	1381.81	.3
308.26	1377.3	.3
313.3	1373.19	.3
318.37	1368.79	.3
323.27	1364.69	.3
328.15	1360.37	.3
332.94	1356	.3
338.05	1352.58	.3
342.99	1349.05	.3
348.1	1344.79	.3
355.9	1339.21	.3

System: 1-butyl-3-methylimidazolium trifluoromethanesulfonate; phases: Liquid
Fixed: Pressure, kPa = 101.325
Property: Mass density, kg/m3 (Liquid); method: Buoyancy - hydrostatic balance
Temperature, K	Mass density, kg/m3	uncertainty
293.37	1302.68	.3
298.22	1298.85	.3
303.1	1295.47	.3
308.06	1290.59	.3
313.53	1286.37	.3
318.46	1282.6	.3
322.88	1278.95	.3
328.12	1275.38	.3
332.67	1271.82	.3
337.79	1267.55	.3
343.18	1263.58	.3
348.16	1259.93	.3
355.85	1253.95	.3

System: 1-butyl-3-methylimidazolium trifluoromethanesulfonate; phases: Liquid
Fixed: Pressure, kPa = 101.325
Property: Mass density, kg/m3 (Liquid); method: Buoyancy - hydrostatic balance
Temperature, K	Mass density, kg/m3	uncertainty
292.94	1302.17	.3
298.09	1298.67	.3
303.18	1293.73	.3
308.19	1289.35	.3
313.13	1285.69	.3
318.2	1281.27	.3
323.13	1277.33	.3
328.08	1272.83	.3
332.91	1269.5	.3
337.95	1264.9	.3
342.95	1261.12	.3
348.12	1256.63	.3
355.79	1250.92	.3

System: 1-hexyl-3-methylimidazolium trifluoromethanesulfonate; phases: Liquid
Fixed: Pressure, kPa = 101.325
Property: Mass density, kg/m3 (Liquid); method: Buoyancy - hydrostatic balance
Temperature, K	Mass density, kg/m3	uncertainty
293.96	1242.34	.3
298.12	1239.33	.3
303.2	1235.32	.3
308.26	1231.38	.3
313.31	1227.72	.3
318.32	1223.93	.3
323.53	1220.11	.3
328.05	1216.35	.3
333.22	1212.82	.3
337.77	1209.27	.3
342.72	1205.63	.3
347.48	1202.25	.3
355.4	1196.19	.3

System: 1-hexyl-3-methylimidazolium tetrafluoroborate; phases: Liquid
Fixed: Pressure, kPa = 101.325
Property: Mass density, kg/m3 (Liquid); method: Buoyancy - hydrostatic balance
Temperature, K	Mass density, kg/m3	uncertainty
268.65	1166.57	.3
273.41	1163.18	.3
277.88	1160.54	.3
282.47	1157.37	.3
288.15	1153.14	.3
292.9	1149.66	.3
298.06	1145.96	.3
303.16	1141.66	.3
308.22	1139.01	.3
313.33	1135.27	.3
318.48	1131.84	.3
323.38	1128.4	.3
328.2	1125.24	.3
333.22	1121.97	.3
337.77	1118.96	.3
343.75	1115.56	.3
348.42	1111.52	.3
356.07	1106.63	.3

System: water + 1-butyl-3-methylimidazolium trifluoromethanesulfonate; phases: Liquid
Fixed: Pressure, kPa = 101.325
Fixed: Mole fraction of water = .00875
Property: Mass density, kg/m3 (Liquid); method: Buoyancy - hydrostatic balance
Temperature, K	Mass density, kg/m3	uncertainty
293.72	1293.55	.3
298.4	1290.29	.3
303.27	1286.57	.3
313.36	1278.22	.3
322.87	1271.35	.3
332.92	1263.85	.3
342.9	1255.97	.3
352.7	1248.2	.3
