Measured thermophysical data. Solubility of Small-Chain Carboxylic Acids in Supercritical Carbon Dioxide
Source: J. Chem. Eng. Data, 2010, 10.1021/je100504h
Compound 1: heptylic acid, C7H14O2, purity 98%
Compound 2: 1-heptanecarboxylic acid, C8H16O2, purity 99%
Compound 3: nonanoic acid, C9H18O2, purity 96%
Compound 4: carbon dioxide, CO2, purity 99%

System: heptylic acid + carbon dioxide; phases: Fluid (supercritical or subcritical phases), Crystal
Property: Mole fraction of heptylic acid (Fluid (supercritical or subcritical phases)); method: gravimetric analysis
Temperature, K	Pressure, kPa	Mole fraction of heptylic acid	uncertainty
313.15	10000	.01765	.00008
313.15	11500	.02558	.00031
313.15	15000	.03225	.00074
313.15	17500	.03858	.0009
313.15	20000	.04561	.00307
323.15	8500	.0001	.00005
323.15	10000	.00108	.00012
323.15	11500	.01674	.00153
323.15	15000	.03346	.00343
323.15	17500	.04629	.00034
323.15	20000	.05976	.00007
333.15	8500	.00016	.00001
333.15	10000	.00041	.00003
333.15	11500	.0012	.00009
333.15	15000	.01421	.00162
333.15	17500	.04742	.00049
333.15	20000	.05222	.00199

System: 1-heptanecarboxylic acid + carbon dioxide; phases: Fluid (supercritical or subcritical phases), Crystal
Property: Mole fraction of 1-heptanecarboxylic acid (Fluid (supercritical or subcritical phases)); method: gravimetric analysis
Temperature, K	Pressure, kPa	Mole fraction of 1-heptanecarboxylic acid	uncertainty
313.15	10000	.01456	.00085
313.15	13300	.01616	.00011
313.15	16700	.01579	.00113
313.15	20000	.01629	.00024
313.15	23300	.01791	.00253
313.15	26700	.02073	.00028
313.15	30000	.02504	.00006
323.15	10000	.00055	.00019
323.15	13300	.01704	.00175
323.15	16700	.02046	.00215
323.15	20000	.03183	.00232
323.15	23300	.03343	.00173
323.15	26700	.03496	.00125
333.15	10000	.00043	.0001
333.15	13300	.00107	.00009
333.15	16700	.00423	.00014
333.15	20000	.03395	.00093
333.15	23300	.04263	.00224
333.15	26700	.05445	.00061

System: nonanoic acid + carbon dioxide; phases: Fluid (supercritical or subcritical phases), Crystal
Property: Mole fraction of nonanoic acid (Fluid (supercritical or subcritical phases)); method: gravimetric analysis
Temperature, K	Pressure, kPa	Mole fraction of nonanoic acid	uncertainty
313.15	10000	.00707	.00019
313.15	13300	.00782	.00025
313.15	16700	.0075	.0004
313.15	20000	.00763	.00036
313.15	23300	.00764	.00021
313.15	26700	.00764	.0003
313.15	30000	.0077	.00018
323.15	10000	.00016	.00009
323.15	13300	.00703	.00017
323.15	16700	.00707	.00011
323.15	20000	.00679	.00029
323.15	23300	.0071	.00011
323.15	26700	.00707	.00012
323.15	30000	.0074	.00036
333.15	10000	.00013	.00007
333.15	13300	.00247	.00038
333.15	16700	.00675	.00098
333.15	20000	.00752	.00026
333.15	23300	.00765	.00042
333.15	26700	.00724	.00035
333.15	30000	.00709	.00061
