Measured thermophysical data. Isothermal Vapor-Liquid Equilibrium Data for the Binary Mixture Trifluoroethane (HFC-143a) + Ethyl Fluoride (HFC-161) over the Temperature Range (253.15 to 303.15) K
Source: J. Chem. Eng. Data, 2010, 10.1021/je100160d
Compound 1: ethane, 1,1,1-trifluoro-, C2H3F3, purity 99.99%
Compound 2: fluoroethane, C2H5F, purity 99.74%

System: fluoroethane + ethane, 1,1,1-trifluoro-; phases: Gas, Liquid
Property: Mole fraction of ethane, 1,1,1-trifluoro- (Gas); method: Chromatography
Mole fraction of ethane, 1,1,1-trifluoro-	Temperature, K	Mole fraction of ethane, 1,1,1-trifluoro-	uncertainty
.0808	253.15	.112	.003
.1697	253.15	.2315	.003
.2653	253.15	.3277	.003
.4043	253.15	.4705	.003
.5319	253.15	.6105	.003
.7137	253.15	.7628	.003
.7607	253.15	.8221	.003
.8755	253.15	.9049	.003
.9422	253.15	.9586	.003
.0699	258.15	.0829	.003
.2068	258.15	.2544	.003
.2933	258.15	.3634	.003
.3816	258.15	.4415	.003
.5002	258.15	.578	.003
.6408	258.15	.7061	.003
.7557	258.15	.8027	.003
.8919	258.15	.9155	.003
.9379	258.15	.9521	.003
.0551	263.15	.0755	.003
.1306	263.15	.1731	.003
.1699	263.15	.2162	.003
.2209	263.15	.2743	.003
.3191	263.15	.385	.003
.4454	263.15	.5112	.003
.5072	263.15	.5684	.003
.5767	263.15	.639	.003
.7429	263.15	.7895	.003
.8433	263.15	.8738	.003
.9242	263.15	.9393	.003
.0266	268.15	.0362	.003
.1236	268.15	.1565	.003
.2289	268.15	.2827	.003
.2511	268.15	.3117	.003
.3929	268.15	.4618	.003
.5363	268.15	.6006	.003
.6542	268.15	.7135	.003
.7216	268.15	.7732	.003
.8002	268.15	.8412	.003
.8545	268.15	.88	.003
.9203	268.15	.9396	.003
.0927	273.15	.1015	.003
.153	273.15	.1778	.003
.2275	273.15	.2783	.003
.2715	273.15	.3207	.003
.383	273.15	.4548	.003
.4704	273.15	.5256	.003
.564	273.15	.6307	.003
.7576	273.15	.7888	.003
.8204	273.15	.8712	.003
.8758	273.15	.8998	.003
.9444	273.15	.9542	.003
.0178	278.15	.0181	.003
.0865	278.15	.1098	.003
.1187	278.15	.1447	.003
.1566	278.15	.1899	.003
.2774	278.15	.3405	.003
.3798	278.15	.4526	.003
.5883	278.15	.6247	.003
.7026	278.15	.7521	.003
.8906	278.15	.918	.003
.9374	278.15	.9524	.003
.0784	283.15	.1004	.003
.185	283.15	.2294	.003
.3002	283.15	.3513	.003
.4046	283.15	.4371	.003
.4749	283.15	.514	.003
.7013	283.15	.7356	.003
.8351	283.15	.8567	.003
.8905	283.15	.901	.003
.9653	283.15	.9677	.003
.8877	288.15	.8983	.003
.9624	288.15	.9662	.003
.5944	288.15	.6305	.003
.6997	288.15	.7297	.003
.8189	288.15	.844	.003
.076	288.15	.0982	.003
.1855	288.15	.2271	.003
.2944	288.15	.3449	.003
.3788	288.15	.4324	.003
.4636	288.15	.5034	.003
.0745	293.15	.0967	.003
.182	293.15	.2214	.003
.2907	293.15	.3377	.003
.3749	293.15	.4249	.003
.4517	293.15	.4896	.003
.6099	293.15	.6251	.003
.7055	293.15	.7234	.003
.8126	293.15	.835	.003
.8854	293.15	.8964	.003
.9623	293.15	.9662	.003
.5782	298.15	.6025	.003
.0731	298.15	.0946	.003
.7032	298.15	.7154	.003
.8209	298.15	.8244	.003
.2918	298.15	.3294	.003
.3956	298.15	.4113	.003
.448	298.15	.4791	.003
.8884	298.15	.8921	.003
.9634	298.15	.9645	.003
.188	298.15	.217	.003
.1599	303.15	.1995	.003
.2611	303.15	.3046	.003
.4168	303.15	.4521	.003
.5348	303.15	.5746	.003
.6793	303.15	.6969	.003
.7505	303.15	.8019	.003
.8778	303.15	.8841	.003
.9569	303.15	.9604	.003
.0789	303.15	.0905	.003

System: fluoroethane + ethane, 1,1,1-trifluoro-; phases: Liquid, Gas
Property: Vapor or sublimation pressure, kPa (Liquid); method: Ebulliometric method (Recirculating still)
Mole fraction of ethane, 1,1,1-trifluoro-	Temperature, K	Vapor or sublimation pressure, kPa	uncertainty
.0808	253.15	220.3	1.6
.1697	253.15	230.7	1.6
.2653	253.15	239.9	1.6
.4043	253.15	253.8	1.6
.5319	253.15	268.1	1.6
.7137	253.15	284.6	1.6
.7607	253.15	291.2	1.6
.8755	253.15	300.9	1.6
.9422	253.15	307.8	1.6
.0784	283.15	621.5	1.6
.185	283.15	650.2	1.6
.3002	283.15	678.9	1.6
.4046	283.15	708.8	1.6
.4749	283.15	720.2	1.6
.7013	283.15	772.9	1.6
.8351	283.15	800.8	1.6
.8905	283.15	812.9	1.6
.9653	283.15	826.3	1.6
.0699	258.15	265	1.6
.2068	258.15	279.1	1.6
.2933	258.15	293.9	1.6
.3816	258.15	303.4	1.6
.5002	258.15	319.7	1.6
.6408	258.15	334.5	1.6
.7557	258.15	348	1.6
.8919	258.15	363.1	1.6
.9379	258.15	367.9	1.6
.076	288.15	721.7	1.6
.1855	288.15	754	1.6
.2944	288.15	787	1.6
.3788	288.15	810.2	1.6
.4636	288.15	832.9	1.6
.5944	288.15	865.8	1.6
.6997	288.15	893.2	1.6
.8189	288.15	924.3	1.6
.8877	288.15	937.5	1.6
.9624	288.15	954.5	1.6
.0551	263.15	318	1.6
.1306	263.15	330	1.6
.1699	263.15	333.9	1.6
.2209	263.15	341.4	1.6
.3191	263.15	356.5	1.6
.4454	263.15	373	1.6
.5072	263.15	380.4	1.6
.5767	263.15	390.3	1.6
.7429	263.15	413.2	1.6
.8433	263.15	426.1	1.6
.9242	263.15	436.5	1.6
.0745	293.15	834.3	1.6
.182	293.15	869.8	1.6
.2907	293.15	906.2	1.6
.3749	293.15	934.5	1.6
.4517	293.15	956.8	1.6
.6099	293.15	995.7	1.6
.7055	293.15	1025.9	1.6
.8126	293.15	1061.4	1.6
.8854	293.15	1076.4	1.6
.9623	293.15	1095.5	1.6
.0266	268.15	374.5	1.6
.1236	268.15	390	1.6
.2289	268.15	410.8	1.6
.2511	268.15	417.5	1.6
.3929	268.15	436.4	1.6
.5363	268.15	460	1.6
.6542	268.15	479.9	1.6
.7216	268.15	488.3	1.6
.8002	268.15	500.8	1.6
.8545	268.15	509.7	1.6
.9203	268.15	517.8	1.6
.0731	298.15	957.3	1.6
.188	298.15	998.4	1.6
.2918	298.15	1039.8	1.6
.3956	298.15	1068.5	1.6
.448	298.15	1093.9	1.6
.5782	298.15	1139.9	1.6
.7032	298.15	1173.8	1.6
.8209	298.15	1213.2	1.6
.8884	298.15	1230.1	1.6
.9634	298.15	1251.3	1.6
.0927	273.15	442.9	1.6
.153	273.15	464.6	1.6
.2275	273.15	482.1	1.6
.2715	273.15	488.6	1.6
.383	273.15	514.4	1.6
.4704	273.15	525.4	1.6
.564	273.15	544.9	1.6
.7576	273.15	575.8	1.6
.8204	273.15	593.8	1.6
.8758	273.15	600.7	1.6
.9444	273.15	611.7	1.6
.0789	303.15	1086.5	1.6
.1599	303.15	1127.9	1.6
.2611	303.15	1178.9	1.6
.4168	303.15	1236	1.6
.5348	303.15	1292.2	1.6
.6793	303.15	1335.8	1.6
.7505	303.15	1368.5	1.6
.8778	303.15	1398	1.6
.9569	303.15	1420.7	1.6
.0178	278.15	520.5	1.6
.0865	278.15	536.2	1.6
.1187	278.15	544.6	1.6
.1566	278.15	553	1.6
.2774	278.15	585.5	1.6
.3798	278.15	603.8	1.6
.5883	278.15	642	1.6
.7026	278.15	667.2	1.6
.8906	278.15	706.6	1.6
.9374	278.15	712.9	1.6
