Measured thermophysical data. Density, Speed of Sound, Surface Tension, and Electrical Conductivity of Sodium Dodecanoate Aqueous Solutions from T = (293.15 to 323.15) K
Source: J. Chem. Eng. Data, 2010, 10.1021/je100186x
Compound 1: sodium dodecanoate, C12H23NaO2, purity 98%
Compound 2: water, H2O

System: sodium dodecanoate + water; phases: Liquid
Fixed: Pressure, kPa = 101.32
Property: Mass density, kg/m3 (Liquid); method: Vibrating tube method
Temperature, K	Amount concentration (molarity), mol/dm3 of sodium dodecanoate	Mass density, kg/m3	uncertainty
293.15	0	998.24	.18
293.15	.00001	998.24	.18
293.15	.00005	998.24	.18
293.15	.0001	998.24	.18
293.15	.0005	998.25	.18
293.15	.001	998.26	.18
293.15	.0015	998.28	.18
293.15	.0025	998.31	.18
293.15	.004	998.36	.18
293.15	.005	998.39	.18
293.15	.0075	998.47	.18
293.15	.01	998.54	.18
293.15	.015	998.66	.18
293.15	.02	998.79	.18
293.15	.025	998.93	.18
293.15	.03	999.06	.18
293.15	.035	999.17	.18
293.15	.04	999.27	.18
293.15	.05	999.43	.18
293.15	.06	999.62	.18
293.15	.07	999.77	.18
293.15	.08	999.95	.18
293.15	.1	1000.19	.18
303.15	0	995.69	.18
303.15	.00001	995.69	.18
303.15	.00005	995.69	.18
303.15	.0001	995.69	.18
303.15	.0005	995.7	.18
303.15	.001	995.71	.18
303.15	.0015	995.72	.18
303.15	.0025	995.75	.18
303.15	.004	995.78	.18
303.15	.005	995.81	.18
303.15	.0075	995.88	.18
303.15	.01	995.95	.18
303.15	.015	996.06	.18
303.15	.02	996.16	.18
303.15	.025	996.28	.18
303.15	.03	996.4	.18
303.15	.035	996.51	.18
303.15	.04	996.58	.18
303.15	.05	996.74	.18
303.15	.06	996.91	.18
303.15	.07	997.06	.18
303.15	.08	997.22	.18
303.15	.1	997.43	.18
313.15	0	992.25	.18
313.15	.00001	992.25	.18
313.15	.00005	992.25	.18
313.15	.0001	992.25	.18
313.15	.0005	992.26	.18
313.15	.001	992.28	.18
313.15	.0015	992.29	.18
313.15	.0025	992.31	.18
313.15	.004	992.34	.18
313.15	.005	992.36	.18
313.15	.0075	992.42	.18
313.15	.01	992.48	.18
313.15	.015	992.57	.18
313.15	.02	992.68	.18
313.15	.025	992.79	.18
313.15	.03	992.88	.18
313.15	.035	992.97	.18
313.15	.04	993.05	.18
313.15	.05	993.19	.18
313.15	.06	993.33	.18
313.15	.07	993.46	.18
313.15	.08	993.58	.18
313.15	.1	993.8	.18
323.15	0	988.06	.18
323.15	.00001	988.06	.18
323.15	.00005	988.06	.18
323.15	.0001	988.06	.18
323.15	.0005	988.07	.18
323.15	.001	988.08	.18
323.15	.0015	988.09	.18
323.15	.0025	988.11	.18
323.15	.004	988.14	.18
323.15	.005	988.16	.18
323.15	.0075	988.21	.18
323.15	.01	988.25	.18
323.15	.015	988.36	.18
323.15	.02	988.45	.18
323.15	.025	988.54	.18
323.15	.03	988.64	.18
323.15	.035	988.72	.18
323.15	.04	988.79	.18
323.15	.05	988.91	.18
323.15	.06	989.03	.18
323.15	.07	989.13	.18
323.15	.08	989.21	.18
323.15	.1	989.36	.18

System: sodium dodecanoate + water; phases: Liquid
Fixed: Pressure, kPa = 101.325
Property: Speed of sound, m/s (Liquid); method: Pulse-echo method
Temperature, K	Amount concentration (molarity), mol/dm3 of sodium dodecanoate	Speed of sound, m/s	uncertainty
566.3	0	1483.1	.23
566.3	.00001	1483.1	.23
566.3	.00005	1483.1	.23
566.3	.0001	1483.2	.23
566.3	.0005	1483.2	.23
566.3	.001	1483.3	.23
566.3	.0015	1483.4	.23
566.3	.0025	1483.6	.23
566.3	.004	1484	.23
566.3	.005	1484.3	.23
566.3	.0075	1484.9	.23
566.3	.01	1485.6	.23
566.3	.015	1487.7	.23
566.3	.02	1487.7	.23
566.3	.025	1488.8	.23
566.3	.03	1489.5	.23
566.3	.035	1489.9	.23
566.3	.04	1490.2	.23
566.3	.05	1490.6	.23
566.3	.06	1490.9	.23
566.3	.07	1491.2	.23
566.3	.08	1491.6	.23
566.3	.1	1492.2	.23
576.3	0	1509	.23
576.3	.00001	1509.1	.23
576.3	.00005	1509.1	.23
576.3	.0001	1509.1	.23
576.3	.0005	1509.2	.23
576.3	.001	1509.3	.23
576.3	.0015	1509.5	.23
576.3	.0025	1509.8	.23
576.3	.004	1510.3	.23
576.3	.005	1510.6	.23
576.3	.0075	1511.3	.23
576.3	.01	1512.1	.23
576.3	.015	1513.1	.23
576.3	.02	1513.6	.23
576.3	.025	1514.3	.23
576.3	.03	1514.6	.23
576.3	.035	1514.8	.23
576.3	.04	1514.9	.23
576.3	.05	1515.1	.23
576.3	.06	1515.3	.23
576.3	.07	1515.4	.23
576.3	.08	1515.6	.23
576.3	.1	1515.9	.23
586.3	0	1528.4	.23
586.3	.00001	1528.4	.23
586.3	.00005	1528.4	.23
586.3	.0001	1528.5	.23
586.3	.0005	1528.6	.23
586.3	.001	1528.7	.23
586.3	.0015	1529	.23
586.3	.0025	1529.3	.23
586.3	.004	1529.8	.23
586.3	.005	1530.2	.23
586.3	.0075	1531	.23
586.3	.01	1531.4	.23
586.3	.015	1532.1	.23
586.3	.02	1532.6	.23
586.3	.025	1533	.23
586.3	.03	1533.3	.23
586.3	.035	1533.4	.23
586.3	.04	1533.4	.23
586.3	.05	1533.4	.23
586.3	.06	1533.4	.23
586.3	.07	1533.5	.23
586.3	.08	1533.4	.23
586.3	.1	1533.4	.23
596.3	0	1541.8	.23
596.3	.00001	1541.8	.23
596.3	.00005	1541.8	.23
596.3	.0001	1541.9	.23
596.3	.0005	1542.1	.23
596.3	.001	1542.4	.23
596.3	.0015	1542.7	.23
596.3	.0025	1543.1	.23
596.3	.004	1543.6	.23
596.3	.005	1543.8	.23
596.3	.0075	1544.3	.23
596.3	.01	1544.6	.23
596.3	.015	1545.4	.23
596.3	.02	1545.8	.23
596.3	.025	1546	.23
596.3	.03	1546	.23
596.3	.035	1546.1	.23
596.3	.04	1546.1	.23
596.3	.05	1546.1	.23
596.3	.06	1545.9	.23
596.3	.07	1545.8	.23
596.3	.08	1545.6	.23
596.3	.1	1545.3	.23

System: sodium dodecanoate + water; phases: Liquid, Air at 1 atmosphere
Property: Surface tension liquid-gas, N/m (Liquid); method: Ring tensiometer
Temperature, K	Amount concentration (molarity), mol/dm3 of sodium dodecanoate	Surface tension liquid-gas, N/m	uncertainty
293.15	0	.0727	.00009
293.15	.00001	.0692	.00009
293.15	.00005	.0614	.00009
293.15	.0001	.0565	.00009
293.15	.0005	.0484	.00009
293.15	.001	.0423	.00009
293.15	.0015	.0388	.00009
293.15	.0025	.0356	.00009
293.15	.004	.0314	.00009
293.15	.005	.0294	.00009
293.15	.0075	.0267	.00009
293.15	.01	.0249	.00009
293.15	.0125	.0237	.00009
293.15	.015	.0231	.00009
293.15	.02	.0229	.00009
293.15	.025	.023	.00009
293.15	.03	.0228	.00009
293.15	.035	.0226	.00009
293.15	.04	.0226	.00009
293.15	.05	.0225	.00009
293.15	.06	.0223	.00009
293.15	.07	.0225	.00009
293.15	.08	.0224	.00009
293.15	.1	.0727	.00009
303.15	0	.0713	.00009
303.15	.00001	.067	.00009
303.15	.00005	.0594	.00009
303.15	.0001	.0549	.00009
303.15	.0005	.0458	.00009
303.15	.001	.0387	.00009
303.15	.0015	.0348	.00009
303.15	.0025	.0316	.00009
303.15	.004	.0276	.00009
303.15	.005	.0259	.00009
303.15	.0075	.024	.00009
303.15	.01	.0228	.00009
303.15	.0125	.0222	.00009
303.15	.015	.022	.00009
303.15	.02	.0225	.00009
303.15	.025	.0218	.00009
303.15	.03	.0226	.00009
303.15	.035	.0222	.00009
303.15	.04	.022	.00009
303.15	.05	.022	.00009
303.15	.06	.0219	.00009
303.15	.07	.0217	.00009
303.15	.08	.0216	.00009
303.15	.1	.0713	.00009
313.15	0	.0693	.00009
313.15	.00001	.0667	.00009
313.15	.00005	.0588	.00009
313.15	.0001	.0535	.00009
313.15	.0005	.0411	.00009
313.15	.001	.0344	.00009
313.15	.0015	.0307	.00009
313.15	.0025	.0279	.00009
313.15	.004	.0248	.00009
313.15	.005	.0233	.00009
313.15	.0075	.0222	.00009
313.15	.01	.0218	.00009
313.15	.0125	.0214	.00009
313.15	.015	.0214	.00009
313.15	.02	.0213	.00009
313.15	.025	.0211	.00009
313.15	.03	.0213	.00009
313.15	.035	.0213	.00009
313.15	.04	.0213	.00009
313.15	.05	.0209	.00009
313.15	.06	.0209	.00009
313.15	.07	.0209	.00009
313.15	.08	.0211	.00009
313.15	.1	.0693	.00009
323.15	0	.0679	.00009
323.15	.00001	.066	.00009
323.15	.00005	.0563	.00009
323.15	.0001	.0519	.00009
323.15	.0005	.0379	.00009
323.15	.001	.0316	.00009
323.15	.0015	.0288	.00009
323.15	.0025	.026	.00009
323.15	.004	.0233	.00009
323.15	.005	.0222	.00009
323.15	.0075	.0211	.00009
323.15	.01	.0206	.00009
323.15	.0125	.0206	.00009
323.15	.015	.0203	.00009
323.15	.02	.0204	.00009
323.15	.025	.0203	.00009
323.15	.03	.0204	.00009
323.15	.035	.0202	.00009
323.15	.04	.0202	.00009
323.15	.05	.0201	.00009
323.15	.06	.02	.00009
323.15	.07	.0199	.00009
323.15	.08	.0199	.00009
323.15	.1	.0679	.00009

System: sodium dodecanoate + water; phases: Liquid
Fixed: Pressure, kPa = 101.325
Property: Electrical conductivity, S/m (Liquid); method: Metler-Toledo Sevenmulti conductimeter
Temperature, K	Amount concentration (molarity), mol/dm3 of sodium dodecanoate	Electrical conductivity, S/m	uncertainty
293.15	0	.000134	.0025
293.15	.00001	.000169	.0025
293.15	.00005	.000389	.0025
293.15	.0001	.000597	.0025
293.15	.0005	.00278	.0025
293.15	.001	.00557	.0025
293.15	.0015	.00821	.0025
293.15	.0025	.01327	.0025
293.15	.004	.0216	.0025
293.15	.005	.0268	.0025
293.15	.0075	.0386	.0025
293.15	.01	.0516	.0025
293.15	.015	.074	.0025
293.15	.02	.0956	.0025
293.15	.025	.1156	.0025
293.15	.03	.131	.0025
293.15	.035	.142	.0025
293.15	.04	.1552	.0025
293.15	.05	.172	.0025
293.15	.06	.1892	.0025
293.15	.07	.206	.0025
293.15	.08	.224	.0025
293.15	.1	.2569	.0025
303.15	0	.000154	.0025
303.15	.00001	.000222	.0025
303.15	.00005	.000512	.0025
303.15	.0001	.00078	.0025
303.15	.0005	.0036	.0025
303.15	.001	.00703	.0025
303.15	.0015	.01055	.0025
303.15	.0025	.01706	.0025
303.15	.004	.0276	.0025
303.15	.005	.0338	.0025
303.15	.0075	.0489	.0025
303.15	.01	.064	.0025
303.15	.015	.091	.0025
303.15	.02	.1177	.0025
303.15	.025	.1407	.0025
303.15	.03	.1564	.0025
303.15	.035	.171	.0025
303.15	.04	.1873	.0025
303.15	.05	.212	.0025
303.15	.06	.236	.0025
303.15	.07	.261	.0025
303.15	.08	.284	.0025
303.15	.1	.335	.0025
313.15	0	.00018	.0025
313.15	.00001	.000234	.0025
313.15	.00005	.000599	.0025
313.15	.0001	.000947	.0025
313.15	.0005	.00467	.0025
313.15	.001	.00869	.0025
313.15	.0015	.01279	.0025
313.15	.0025	.0208	.0025
313.15	.004	.0309	.0025
313.15	.005	.0399	.0025
313.15	.0075	.0589	.0025
313.15	.01	.0755	.0025
313.15	.015	.111	.0025
313.15	.02	.1453	.0025
313.15	.025	.172	.0025
313.15	.03	.192	.0025
313.15	.035	.208	.0025
313.15	.04	.229	.0025
313.15	.05	.263	.0025
313.15	.06	.2945	.0025
313.15	.07	.3258	.0025
313.15	.08	.357	.0025
313.15	.1	.418	.0025
323.15	0	.000201	.0025
323.15	.00001	.000341	.0025
323.15	.00005	.000684	.0025
323.15	.0001	.00125	.0025
323.15	.0005	.00569	.0025
323.15	.001	.01035	.0025
323.15	.0015	.01552	.0025
323.15	.0025	.0237	.0025
323.15	.004	.0371	.0025
323.15	.005	.0471	.0025
323.15	.0075	.069	.0025
323.15	.01	.0897	.0025
323.15	.015	.1298	.0025
323.15	.02	.1711	.0025
323.15	.025	.205	.0025
323.15	.03	.233	.0025
323.15	.035	.258	.0025
323.15	.04	.28	.0025
323.15	.05	.317	.0025
323.15	.06	.3525	.0025
323.15	.07	.3886	.0025
323.15	.08	.426	.0025
323.15	.1	.502	.0025
