Measured thermophysical data. Liquid-Liquid Equilibria in Ternary Systems of Aromatic Hydrocarbons (Toluene or Ethylbenzene) + Phenols + Water
Source: J. Chem. Eng. Data, 2011, 10.1021/je100069q
Compound 1: phenol, C6H6O, purity 98%
Compound 2: 2-methylphenol, C7H8O, purity 99%
Compound 3: 3-methylphenol, C7H8O, purity 99%
Compound 4: 4-methylphenol, C7H8O, purity 99%
Compound 5: toluene, C7H8, purity 99%
Compound 6: ethylbenzene, C8H10, purity 99%
Compound 7: water, H2O, purity 99.9%

System: phenol; phases: Liquid
Fixed: Pressure, kPa = 101.325
Property: Mass density, kg/m3 (Liquid); method: Vibrating tube method
Temperature, K	Mass density, kg/m3	uncertainty
313.15	1058.3	

System: 2-methylphenol; phases: Liquid
Fixed: Pressure, kPa = 101.325
Property: Mass density, kg/m3 (Liquid); method: Vibrating tube method
Temperature, K	Mass density, kg/m3	uncertainty
308.15	1032.73	

System: 3-methylphenol; phases: Liquid
Fixed: Pressure, kPa = 101.325
Property: Mass density, kg/m3 (Liquid); method: Vibrating tube method
Temperature, K	Mass density, kg/m3	uncertainty
293.15	1033.85	

System: 4-methylphenol; phases: Liquid
Fixed: Pressure, kPa = 101.325
Property: Mass density, kg/m3 (Liquid); method: Vibrating tube method
Temperature, K	Mass density, kg/m3	uncertainty
313.15	1018.8	

System: toluene; phases: Liquid
Fixed: Pressure, kPa = 101.325
Property: Mass density, kg/m3 (Liquid); method: Vibrating tube method
Temperature, K	Mass density, kg/m3	uncertainty
293.15	866.78	

System: ethylbenzene; phases: Liquid
Fixed: Pressure, kPa = 101.325
Property: Mass density, kg/m3 (Liquid); method: Vibrating tube method
Temperature, K	Mass density, kg/m3	uncertainty
298.15	862.59	

System: ethylbenzene + water; phases: Liquid mixture 1, Liquid mixture 2
Fixed: Pressure, kPa = 101.3
Property: Mole fraction of water (Liquid mixture 1); method: Chromatography
Temperature, K	Mole fraction of water	uncertainty
313.15	.00455	
318.15	.005251	
323.15	.005894	
328.15	.006652	
333.15	.007467	
338.15	.008717	

System: phenol + water; phases: Liquid mixture 1, Liquid mixture 2
Fixed: Pressure, kPa = 101.3
Property: Mole fraction of water (Liquid mixture 1); method: Chromatography
Temperature, K	Mole fraction of water	uncertainty
298.15	.6877	
313.15	.7245	
318.15	.74	
323.15	.758	
328.15	.7835	
333.15	.8068	

System: toluene + phenol + water; phases: Liquid mixture 1, Liquid mixture 2
Fixed: Pressure, kPa = 101.3
Property: Mole fraction of phenol (Liquid mixture 1); method: Chromatography
Temperature, K	Mole fraction of toluene	Mole fraction of phenol	uncertainty
298.15	0	.3123	.003
298.15	.052	.3946	.003
298.15	.1003	.4208	.003
298.15	.1583	.4268	.003
298.15	.2041	.4282	.003
298.15	.2691	.4141	.003
298.15	.3894	.3779	.003
298.15	.3894	.3779	.003
298.15	.4767	.3389	.003
298.15	.5371	.3103	.003
298.15	.6338	.2561	.003
298.15	.6809	.2295	.003
298.15	.7656	.1752	.003
298.15	.8772	.0895	.003
313.15	0	.2755	.003
313.15	.0519	.3709	.003
313.15	.1012	.3987	.003
313.15	.1423	.4128	.003
313.15	.1965	.4085	.003
313.15	.2356	.4064	.003
313.15	.3068	.3976	.003
313.15	.4004	.3723	.003
313.15	.4666	.347	.003
313.15	.5537	.2956	.003
313.15	.594	.2665	.003

System: 2-methylphenol + toluene + water; phases: Liquid mixture 1, Liquid mixture 2
Fixed: Pressure, kPa = 101.3
Property: Mole fraction of 2-methylphenol (Liquid mixture 1); method: Chromatography
Temperature, K	Mole fraction of toluene	Mole fraction of 2-methylphenol	uncertainty
298.15	0	.5093	.003
298.15	.0375	.516	.003
298.15	.0992	.5158	.003
298.15	.1003	.5216	.003
298.15	.1166	.5197	.003
298.15	.1177	.5247	.003
298.15	.1718	.5072	.003
298.15	.1728	.51	.003
298.15	.2114	.4972	.003
298.15	.2121	.4988	.003
298.15	.2694	.4686	.003
298.15	.2721	.4732	.003
298.15	.3105	.4534	.003
298.15	.3245	.4486	.003
298.15	.3273	.4524	.003
323.15	0	.4917	.003
323.15	.0459	.5004	.003
323.15	.0996	.4967	.003
323.15	.2034	.4784	.003
323.15	.3252	.4345	.003
323.15	.3007	.4432	.003
323.15	.9933	0	.003
298.15	.3731	.4293	.003
298.15	.3732	.4294	.003
298.15	.4604	.3847	.003
298.15	.5984	.3021	.003
298.15	.601	.3034	.003
298.15	.6748	.2468	.003
298.15	.6794	.2484	.003
298.15	.9964	0	.003

System: 3-methylphenol + toluene + water; phases: Liquid mixture 1, Liquid mixture 2
Fixed: Pressure, kPa = 101.3
Property: Mole fraction of 3-methylphenol (Liquid mixture 1); method: Chromatography
Temperature, K	Mole fraction of toluene	Mole fraction of 3-methylphenol	uncertainty
298.15	0	.5184	.003
298.15	.1358	.5087	.003
298.15	.1776	.4952	.003
298.15	.2195	.4835	.003
298.15	.2867	.4565	.003
298.15	.3295	.4375	.003
298.15	.4116	.3983	.003
298.15	.5338	.33	.003
298.15	.5791	.3022	.003
298.15	.696	.2252	.003
323.15	0	.4742	.003
323.15	.0724	.4826	.003
323.15	.1182	.4801	.003
323.15	.1615	.4696	.003
323.15	.1774	.4692	.003
323.15	.2037	.4668	.003
323.15	.2133	.4547	.003
323.15	.2756	.4362	.003
323.15	.3409	.4118	.003
323.15	.4912	.3408	.003
323.15	.5216	.3241	.003
323.15	.5891	.2847	.003
323.15	.7168	.2009	.003
323.15	.7527	.1692	.003
323.15	.7735	.1672	.003

System: 4-methylphenol + toluene + water; phases: Liquid mixture 1, Liquid mixture 2
Fixed: Pressure, kPa = 101.3
Property: Mole fraction of 4-methylphenol (Liquid mixture 1); method: Chromatography
Temperature, K	Mole fraction of toluene	Mole fraction of 4-methylphenol	uncertainty
298.15	0	.4814	.003
298.15	.0194	.4861	.003
298.15	.0707	.4941	.003
298.15	.1586	.4849	.003
298.15	.182	.481	.003
298.15	.297	.4427	.003
298.15	.4438	.3687	.003
298.15	.4851	.3554	.003
298.15	.5339	.3267	.003
298.15	.7025	.2218	.003
323.15	0	.438	.003
323.15	.083	.4589	.003
323.15	.0944	.4621	.003
323.15	.1968	.449	.003
323.15	.2197	.444	.003
323.15	.2318	.4407	.003
323.15	.3668	.3942	.003
323.15	.4401	.3606	.003
323.15	.5201	.3184	.003
323.15	.6205	.2626	.003
323.15	.7095	.2094	.003

System: ethylbenzene + phenol + water; phases: Liquid mixture 1, Liquid mixture 2
Fixed: Pressure, kPa = 101.3
Property: Mole fraction of phenol (Liquid mixture 1); method: Chromatography
Temperature, K	Mole fraction of ethylbenzene	Mole fraction of phenol	uncertainty
298.15	0	.3123	.003
298.15	.1331	.4343	.003
298.15	.1625	.4249	.003
298.15	.2312	.4333	.003
298.15	.3106	.4078	.003
298.15	.3321	.4002	.003
298.15	.3508	.3912	.003
298.15	.4985	.3291	.003
298.15	.5822	.2823	.003
298.15	.593	.2789	.003
298.15	.6696	.224	.003
298.15	.6886	.2251	.003
298.15	.9239	.0226	.003
323.15	0	.242	.003
323.15	.0411	.3553	.003
323.15	.0525	.367	.003
323.15	.0592	.3721	.003
323.15	.1189	.4121	.003
323.15	.1463	.415	.003
323.15	.1613	.4179	.003
323.15	.1624	.4144	.003
323.15	.185	.4145	.003
323.15	.2131	.4125	.003
323.15	.2491	.41	.003
323.15	.2882	.404	.003
323.15	.2892	.404	.003
323.15	.3644	.379	.003
323.15	.503	.3186	.003
323.15	.7504	.1736	.003

System: 2-methylphenol + ethylbenzene + water; phases: Liquid mixture 1, Liquid mixture 2
Fixed: Pressure, kPa = 101.3
Property: Mole fraction of 2-methylphenol (Liquid mixture 1); method: Chromatography
Temperature, K	Mole fraction of ethylbenzene	Mole fraction of 2-methylphenol	uncertainty
298.15	0	.5093	.003
298.15	.0156	.5288	.003
298.15	.0369	.5353	.003
298.15	.062	.5379	.003
298.15	.1162	.5361	.003
298.15	.1719	.5244	.003
298.15	.2347	.5062	.003
298.15	.2976	.481	.003
298.15	.3539	.4568	.003
298.15	.4137	.4207	.003
298.15	.4729	.3887	.003
298.15	.5296	.3533	.003
298.15	.589	.3152	.003
298.15	.654	.2718	.003
298.15	.7153	.2292	.003
298.15	.7562	.1988	.003
298.15	.8052	.1613	.003
298.15	.8716	.1077	.003
323.15	0	.4917	.003
323.15	.015	.5095	.003
323.15	.0358	.5181	.003
323.15	.0598	.519	.003
323.15	.1301	.5221	.003
323.15	.1878	.5086	.003
323.15	.2738	.4747	.003
323.15	.3776	.4282	.003
323.15	.4626	.3817	.003
323.15	.5198	.3504	.003
323.15	.5789	.314	.003
323.15	.6503	.2681	.003
323.15	.6997	.2383	.003
323.15	.7531	.2044	.003
323.15	.8221	.1523	.003

System: ethylbenzene + 3-methylphenol + water; phases: Liquid mixture 1, Liquid mixture 2
Fixed: Pressure, kPa = 101.3
Property: Mole fraction of 3-methylphenol (Liquid mixture 1); method: Chromatography
Temperature, K	Mole fraction of ethylbenzene	Mole fraction of 3-methylphenol	uncertainty
298.15	0	.5184	.003
298.15	.1277	.5183	.003
298.15	.1811	.5057	.003
298.15	.2488	.4811	.003
298.15	.269	.4719	.003
298.15	.3045	.4572	.003
298.15	.3461	.4377	.003
298.15	.3783	.4219	.003
298.15	.6007	.2947	.003
298.15	.6136	.2848	.003
298.15	.6336	.2733	.003
298.15	.7265	.214	.003
298.15	.8141	.1485	.003
298.15	.8379	.1278	.003
323.15	0	.4742	.003
323.15	.2312	.4653	.003
323.15	.2317	.4614	.003
323.15	.2904	.4412	.003
323.15	.3105	.4362	.003
323.15	.3485	.4209	.003
323.15	.3545	.4123	.003
323.15	.4498	.3694	.003
323.15	.5024	.3454	.003
323.15	.5152	.3318	.003
323.15	.5288	.3257	.003
323.15	.5595	.3083	.003

System: ethylbenzene + 4-methylphenol + water; phases: Liquid mixture 1, Liquid mixture 2
Fixed: Pressure, kPa = 101.3
Property: Mole fraction of 4-methylphenol (Liquid mixture 1); method: Chromatography
Temperature, K	Mole fraction of ethylbenzene	Mole fraction of 4-methylphenol	uncertainty
298.15	0	.4814	.003
298.15	.0432	.4929	.003
298.15	.0979	.4947	.003
298.15	.1465	.49	.003
298.15	.2133	.4759	.003
298.15	.2841	.4503	.003
298.15	.3868	.4019	.003
298.15	.4907	.365	.003
298.15	.5862	.3016	.003
298.15	.6845	.2315	.003
298.15	.8153	.1406	.003
323.15	0	.438	.003
323.15	.0282	.4539	.003
323.15	.0491	.4595	.003
323.15	.0858	.468	.003
323.15	.1435	.4599	.003
323.15	.2091	.4448	.003
323.15	.2725	.4274	.003
323.15	.3207	.4075	.003
323.15	.3884	.3811	.003
323.15	.4935	.3313	.003
323.15	.5192	.303	.003
323.15	.6425	.2522	.003
323.15	.7969	.1527	.003
