Measured thermophysical data. Experimental Dynamic Viscosities of Dipentaerythritol Ester Lubricants at High Pressure
Source: J. Chem. Eng. Data, 2010, 10.1021/je100057b
Compound 1: dipentaerythritol hexapentanoate, C40H70O13
Compound 2: dipentaerythritol hexaheptanoate, C52H100O13

System: dipentaerythritol hexapentanoate; phases: Liquid
Fixed: Pressure, kPa = 101.325
Property: Viscosity, Pa*s (Liquid); method: Falling or rolling sphere viscometry
Temperature, K	Viscosity, Pa*s	uncertainty
283.15	.259	.01036
288.15	.1892	.007568
293.15	.1412	.005648
298.15	.1076	.004304
303.15	.08352	.0033408
308.15	.06588	.0026352
313.15	.05273	.0021092
318.15	.0428	.001712
323.15	.03518	.0014072
328.15	.02924	.0011696
333.15	.02455	.000982
338.15	.02081	.0008324
343.15	.01779	.0007116
348.15	.01534	.0006136
353.15	.01333	.0005332
358.15	.01166	.0004664
363.15	.01026	.0004104
368.15	.00908	.0003632
373.15	.00809	.0003236
283.15	.2579	.010316
288.15	.1885	.00754
293.15	.1408	.005632
298.15	.1073	.004292
303.15	.08331	.0033324
308.15	.06572	.0026288
313.15	.05264	.0021056
318.15	.04275	.00171
323.15	.03515	.001406
328.15	.02925	.00117
333.15	.02459	.0009836
338.15	.02088	.0008352
343.15	.01788	.0007152
348.15	.01544	.0006176
353.15	.01342	.0005368
358.15	.01176	.0004704
363.15	.01036	.0004144
368.15	.00918	.0003672
373.15	.00818	.0003272

System: dipentaerythritol hexapentanoate; phases: Liquid
Property: Viscosity, Pa*s (Liquid); method: Falling or rolling sphere viscometry
Temperature, K	Pressure, kPa	Viscosity, Pa*s	uncertainty
303.15	100	.0859	.003436
303.15	1000	.0872	.003488
303.15	5000	.0932	.003728
303.15	10000	.101	.00404
303.15	20000	.119	.00476
303.15	30000	.139	.00556
303.15	40000	.163	.00652
303.15	50000	.189	.00756
303.15	60000	.219	.00876
313.15	100	.0543	.002172
313.15	1000	.0551	.002204
313.15	5000	.0588	.002352
313.15	10000	.0636	.002544
313.15	20000	.0744	.002976
313.15	30000	.0866	.003464
313.15	40000	.1	.004
313.15	50000	.116	.00464
313.15	60000	.133	.00532
333.15	100	.025	.001
333.15	1000	.0254	.001016
333.15	5000	.0269	.001076
333.15	10000	.029	.00116
333.15	20000	.0336	.001344
333.15	30000	.0386	.001544
333.15	40000	.0442	.001768
333.15	50000	.0503	.002012
333.15	60000	.0569	.002276
353.15	100	.0135	.00054
353.15	1000	.0136	.000544
353.15	5000	.0144	.000576
353.15	10000	.01545	.000618
353.15	20000	.0177	.000708
353.15	30000	.0201	.000804
353.15	40000	.0228	.000912
353.15	50000	.0257	.001028
353.15	60000	.0288	.001152
373.15	100	.00822	.0003288
373.15	1000	.00832	.0003328
373.15	5000	.00878	.0003512
373.15	10000	.00938	.0003752
373.15	20000	.0106	.000424
373.15	30000	.012	.00048
373.15	40000	.0135	.00054
373.15	50000	.0152	.000608
373.15	60000	.0169	.000676

System: dipentaerythritol hexaheptanoate; phases: Liquid
Fixed: Pressure, kPa = 101.325
Property: Viscosity, Pa*s (Liquid); method: Falling or rolling sphere viscometry
Temperature, K	Viscosity, Pa*s	uncertainty
283.15	.2607	.010428
288.15	.1911	.007644
293.15	.1431	.005724
298.15	.1092	.004368
303.15	.08489	.0033956
308.15	.06704	.0026816
313.15	.05373	.0021492
318.15	.04366	.0017464
323.15	.03593	.0014372
328.15	.02991	.0011964
333.15	.02518	.0010072
338.15	.02139	.0008556
343.15	.01832	.0007328
348.15	.01582	.0006328
353.15	.01377	.0005508
358.15	.01206	.0004824
363.15	.01064	.0004256
368.15	.00944	.0003776
373.15	.00842	.0003368
283.15	.2591	.010364
288.15	.19	.0076
293.15	.1422	.005688
298.15	.1085	.00434
303.15	.08439	.0033756
308.15	.06667	.0026668
313.15	.05345	.002138
318.15	.04345	.001738
323.15	.03577	.0014308
328.15	.02979	.0011916
333.15	.02507	.0010028
338.15	.02131	.0008524
343.15	.01827	.0007308
348.15	.01579	.0006316
353.15	.01375	.00055
358.15	.01206	.0004824
363.15	.01064	.0004256
368.15	.00945	.000378
373.15	.00843	.0003372

System: dipentaerythritol hexaheptanoate; phases: Liquid
Property: Viscosity, Pa*s (Liquid); method: Falling or rolling sphere viscometry
Temperature, K	Pressure, kPa	Viscosity, Pa*s	uncertainty
303.15	100	.0863	.003452
303.15	1000	.0877	.003508
303.15	5000	.0939	.003756
303.15	10000	.102	.00408
303.15	20000	.121	.00484
303.15	30000	.142	.00568
303.15	40000	.167	.00668
303.15	50000	.194	.00776
303.15	60000	.226	.00904
313.15	100	.0558	.002232
313.15	1000	.0566	.002264
313.15	5000	.0603	.002412
313.15	10000	.0653	.002612
313.15	20000	.0763	.003052
313.15	30000	.0889	.003556
313.15	40000	.103	.00412
313.15	50000	.119	.00476
313.15	60000	.138	.00552
333.15	100	.0255	.00102
333.15	1000	.0259	.001036
333.15	5000	.0275	.0011
333.15	10000	.0296	.001184
333.15	20000	.0343	.001372
333.15	30000	.0395	.00158
333.15	40000	.0453	.001812
333.15	50000	.0517	.002068
333.15	60000	.0588	.002352
353.15	100	.0138	.000552
353.15	1000	.014	.00056
353.15	5000	.0148	.000592
353.15	10000	.0159	.000636
353.15	20000	.0182	.000728
353.15	30000	.0208	.000832
353.15	40000	.0236	.000944
353.15	50000	.0266	.001064
353.15	60000	.03	.0012
373.15	100	.00846	.0003384
373.15	1000	.00856	.0003424
373.15	5000	.00904	.0003616
373.15	10000	.00966	.0003864
373.15	20000	.011	.00044
373.15	30000	.0124	.000496
373.15	40000	.014	.00056
373.15	50000	.0157	.000628
373.15	60000	.0175	.0007
