Measured thermophysical data. Measurement and Correlation of Vapor-Liquid Equilibrium Data for ss-Pinene + p-Cymene + (S)-(-)-Limonene at Atmospheric Pressure
Source: J. Chem. Eng. Data, 2011, 10.1021/je101151f
Compound 1: nopinen, C10H16, purity 99%
Compound 2: p-cymene, C10H14, purity 98%
Compound 3: p-mentha-1,8-diene, (S)-(-)-, C10H16, purity 95%

System: nopinen; phases: Liquid, Gas
Property: Normal boiling temperature, K (Liquid); method: Manometric method
Normal boiling temperature, K	uncertainty
438.95	.01

System: p-cymene; phases: Liquid, Gas
Property: Normal boiling temperature, K (Liquid); method: Manometric method
Normal boiling temperature, K	uncertainty
449.39	.01

System: p-mentha-1,8-diene, (S)-(-)-; phases: Liquid, Gas
Property: Normal boiling temperature, K (Liquid); method: Manometric method
Normal boiling temperature, K	uncertainty
450.34	.01

System: p-cymene + nopinen; phases: Liquid, Gas
Fixed: Pressure, kPa = 100.7
Property: Boiling temperature at pressure P, K (Liquid); method: Ebulliometric method (Recirculating still)
Mole fraction of nopinen	Boiling temperature at pressure P, K	uncertainty
.0632	448.8	.01
.1123	448.02	.01
.1579	447.39	.01
.2285	446.44	.01
.2833	445.75	.01
.3161	445.35	.01
.3672	444.75	.01
.4259	444.09	.01
.4786	443.53	.01
.5283	443.02	.01
.5977	442.35	.01
.6542	441.84	.01
.7001	441.44	.01
.7838	440.74	.01
.8594	440.13	.01
.9332	439.59	.01
.9765	439.31	.01

System: p-cymene + nopinen; phases: Gas, Liquid
Fixed: Pressure, kPa = 100.7
Property: Mole fraction of nopinen (Gas); method: Chromatography
Mole fraction of nopinen	Mole fraction of nopinen	uncertainty
.0632	.0864	
.1123	.1513	
.1579	.2081	
.2285	.2927	
.2833	.3526	
.3161	.3876	
.3672	.4406	
.4259	.4996	
.4786	.5505	
.5283	.5967	
.5977	.6587	
.6542	.7085	
.7001	.7493	
.7838	.8201	
.8594	.8837	
.9332	.9448	
.9765	.9808	

System: nopinen + p-mentha-1,8-diene, (S)-(-)-; phases: Liquid, Gas
Fixed: Pressure, kPa = 100.7
Property: Boiling temperature at pressure P, K (Liquid); method: Ebulliometric method (Recirculating still)
Mole fraction of nopinen	Boiling temperature at pressure P, K	uncertainty
.0735	449.36	.01
.1015	448.93	.01
.1314	448.56	.01
.1662	448.05	.01
.2018	447.53	.01
.2459	446.97	.01
.3001	446.24	.01
.3605	445.41	.01
.4213	444.74	.01
.5019	443.78	.01
.5723	442.95	.01
.6258	442.4	.01
.7198	441.43	.01
.8532	440.17	.01
.9198	439.57	.01
.9803	439.02	.01

System: nopinen + p-mentha-1,8-diene, (S)-(-)-; phases: Gas, Liquid
Fixed: Pressure, kPa = 100.7
Property: Mole fraction of nopinen (Gas); method: Chromatography
Mole fraction of nopinen	Mole fraction of nopinen	uncertainty
.0735	.1003	
.1015	.1377	
.1314	.1739	
.1662	.2182	
.2018	.2588	
.2459	.3086	
.3001	.3697	
.3605	.4352	
.4213	.4949	
.5019	.5743	
.5723	.6373	
.6258	.6822	
.7198	.7661	
.8532	.8795	
.9198	.9352	
.9803	.9846	

System: p-cymene + nopinen + p-mentha-1,8-diene, (S)-(-)-; phases: Liquid, Gas
Fixed: Pressure, kPa = 100.7
Property: Mole fraction of p-cymene (Liquid); method: Chromatography
Property: Mole fraction of nopinen (Gas); method: Chromatography
Property: Mole fraction of p-cymene (Gas); method: Chromatography
Temperature, K	Mole fraction of nopinen	Mole fraction of p-cymene	uncertainty	Mole fraction of nopinen	uncertainty	Mole fraction of p-cymene	uncertainty
448.87	.0584	.8255	.0001	.082		.8116	
448.07	.1108	.7854	.0001	.1489		.7564	
447.23	.1751	.7113	.0001	.2244		.6711	
446.26	.2451	.6501	.0001	.3053		.6032	
445.48	.2887	.6025	.0001	.3567		.553	
444.99	.3214	.5661	.0001	.3885		.5128	
444.45	.3758	.5171	.0001	.4423		.4645	
444.13	.4189	.4735	.0001	.4838		.423	
443.31	.4786	.4168	.0001	.5442		.3671	
442.76	.5421	.3445	.0001	.601		.3046	
442.08	.6042	.2901	.0001	.6604		.2531	
441.76	.6654	.2289	.0001	.7159		.198	
441.37	.7149	.1751	.0001	.7597		.1511	
440.66	.7915	.1025	.0001	.8234		.0919	
439.9	.8504	.0512	.0001	.877		.0387	
448.83	.075	.7187	.0001	.0998		.7029	
447.89	.1256	.6764	.0001	.1652		.6495	
446.83	.1867	.6112	.0001	.2386		.5664	
445.89	.2435	.5497	.0001	.304		.5071	
445.38	.3004	.5023	.0001	.3648		.4586	
444.62	.3843	.4175	.0001	.449		.3729	
443.96	.4464	.3526	.0001	.5095		.3158	
443.22	.5233	.2768	.0001	.5826		.2464	
442.62	.5638	.2078	.0001	.6226		.1774	
448.76	.0523	.5472	.0001	.0713		.5428	
447.94	.0986	.502	.0001	.1306		.4896	
447.28	.1466	.4521	.0001	.1898		.4353	
446.57	.2034	.4013	.0001	.2553		.3741	
446.08	.2531	.3517	.0001	.3124		.3295	
445.35	.3124	.2979	.0001	.3745		.2786	
444.51	.3843	.2115	.0001	.4491		.1977	
443.88	.4404	.1585	.0001	.5016		.1505	
443.18	.5073	.1007	.0001	.5694		.0881	
442.62	.5632	.0355	.0001	.6253		.0289	
448.78	.0625	.4286	.0001	.0856		.4249	
447.75	.1221	.3745	.0001	.1602		.3658	
446.76	.1836	.3204	.0001	.2324		.3023	
446.18	.2341	.2695	.0001	.2893		.2595	
445.49	.2791	.2251	.0001	.3396		.2079	
445.07	.3303	.1625	.0001	.3931		.1573	
444.78	.3798	.1266	.0001	.4468		.1153	
444.5	.4337	.0604	.0001	.4971		.0645	
448.49	.075	.304	.0001	.1042		.2971	
447.78	.1467	.2254	.0001	.1895		.226	
446.94	.2134	.1631	.0001	.2694		.1548	
446.62	.2531	.1287	.0001	.3177		.125	
445.95	.3121	.0763	.0001	.3811		.0753	
445.62	.3487	.0457	.0001	.4136		.0504	
441.81	.6449	.1321	.0001	.6951		.1202	
441.51	.7035	.0758	.0001	.7501		.0702	
447.88	.083	.6175	.0001	.1119		.6022	
446.98	.1346	.5571	.0001	.1744		.5359	
446.53	.2007	.4934	.0001	.254		.4666	
445.58	.2647	.4326	.0001	.3251		.3941	
445.17	.3182	.3671	.0001	.3798		.3393	
444.93	.3596	.3337	.0001	.4225		.3067	
444.38	.4251	.2585	.0001	.4917		.2306	
443.26	.5245	.1765	.0001	.5864		.1537	
442.85	.5739	.1248	.0001	.6286		.1165	
442.27	.6222	.0678	.0001	.6765		.0585	
449.03	.0388	.2552	.0001	.0524		.2548	
448.16	.1034	.1965	.0001	.1392		.1991	
447.54	.1476	.1572	.0001	.1936		.1587	
447.03	.1952	.1054	.0001	.2496		.1011	
446.65	.2453	.0504	.0001	.3076		.0486	
449.41	.0402	.1568	.0001	.0535		.1602	
448.56	.0901	.1131	.0001	.121		.1201	
448.12	.1271	.0815	.0001	.1709		.0839	
447.72	.1673	.0325	.0001	.22		.0289	
449.85	.0389	.0631	.0001	.0591		.0633	
449.34	.0642	.0357	.0001	.0876		.0411	
