Measured thermophysical data. Viscosity of Liquid Di-isodecyl Phthalate at Temperatures Between (274 and 373) K and at Pressures up to 140 MPa
Source: J. Chem. Eng. Data, 2011, 10.1021/je101256z
Compound 1: 1,2-benzenedicarboxylic acid, diisodecyl ester, C28H46O4, purity 99.8%
Compound 2: 1-methylnaphthalene, C11H10, purity 98%

System: 1,2-benzenedicarboxylic acid, diisodecyl ester; phases: Liquid
Property: Viscosity, Pa*s (Liquid); method: Vibrating wire viscometry
Temperature, K	Pressure, kPa	Viscosity, Pa*s	uncertainty
298.15	200	.08757	.0017514
298.15	200	.08758	.0017516
298.15	200	.08762	.0017524
298.15	200	.08763	.0017526
298.15	200	.08763	.0017526
298.15	200	.08764	.0017528
298.15	200	.08771	.0017542
298.15	10000	.11208	.0022416
298.15	10000	.11208	.0022416
298.15	10000	.11226	.0022452
298.15	20000	.14341	.0028682
298.15	20000	.14342	.0028684
298.15	20000	.14367	.0028734
298.15	40000	.23093	.0046186
298.15	40000	.23101	.0046202
298.15	40000	.23109	.0046218
298.15	40000	.23139	.0046278
298.15	40000	.23155	.004631
298.15	40000	.23161	.0046322
298.15	200	.08761	.0017522
298.15	200	.08766	.0017532
298.15	200	.08771	.0017542
305.15	200	.05704	.0011408
305.15	200	.0571	.001142
305.15	200	.05712	.0011424
305.15	200	.05713	.0011426
305.15	200	.05718	.0011436
313.15	200	.03738	.0007476
313.15	200	.03738	.0007476
313.15	200	.03732	.0007464
313.15	10100	.04634	.0009268
313.15	10100	.04633	.0009266
313.15	10100	.04623	.0009246
313.15	20000	.05728	.0011456
313.15	20000	.05735	.001147
313.15	20000	.05732	.0011464
313.15	40000	.08715	.001743
313.15	40000	.08713	.0017426
313.15	40000	.08703	.0017406
313.15	59900	.13049	.0026098
313.15	59900	.13029	.0026058
313.15	60000	.13033	.0026066
313.15	80000	.19408	.0038816
313.15	80000	.19441	.0038882
313.15	80000	.1952	.003904
313.15	200	.03708	.0007416
313.15	200	.03706	.0007412
313.15	200	.0371	.000742
343.15	200	.0112	.000224
343.15	200	.01119	.0002238
343.15	200	.0112	.000224
343.15	10100	.01333	.0002666
343.15	10100	.01333	.0002666
343.15	10100	.01335	.000267
343.15	20100	.01585	.000317
343.15	20100	.01586	.0003172
343.15	20100	.01586	.0003172
343.15	40000	.02204	.0004408
343.15	40000	.02205	.000441
343.15	40000	.02205	.000441
343.15	80100	.04122	.0008244
343.15	80100	.04124	.0008248
343.15	80100	.04124	.0008248
343.15	137100	.09556	.0019112
343.15	137100	.09561	.0019122
343.15	137100	.09561	.0019122
343.15	200	.01099	.0002198
343.15	200	.01097	.0002194
343.15	200	.01096	.0002192
368.15	300	.00565	.000113
368.15	300	.00565	.000113
368.15	300	.00565	.000113
368.15	300	.00565	.000113
373.15	300	.00504	.0001008
373.15	300	.00505	.000101
373.15	300	.00505	.000101
373.15	20100	.006876	.00013752
373.15	20100	.006876	.00013752
373.15	20100	.006866	.00013732
373.15	40000	.009055	.0001811
373.15	40000	.009075	.0001815
373.15	40000	.009085	.0001817
373.15	80100	.01522	.0003044
373.15	80100	.01523	.0003046
373.15	80100	.01523	.0003046
373.15	137200	.03011	.0006022
373.15	137200	.03012	.0006024
373.15	137200	.03015	.000603
373.15	300	.00492	.0000984
373.15	300	.00492	.0000984
373.15	300	.00492	.0000984

System: 1,2-benzenedicarboxylic acid, diisodecyl ester; phases: Liquid
Property: Viscosity, Pa*s (Liquid); method: Vibrating wire viscometry
Pressure, kPa	Temperature, K	Viscosity, Pa*s	uncertainty
100	274.07	.6067	.012134
100	274.35	.5886	.011772
100	283.03	.2659	.005318
100	282.95	.2702	.005404
100	298.25	.08767	.0017534
100	305.26	.05743	.0011486
100	313.27	.03741	.0007482
100	327.83	.01932	.0003864
100	343.53	.01115	.000223
100	343.33	.01109	.0002218
100	343.24	.0111	.000222
100	368.54	.005577	.00011154
100	368.21	.005627	.00011254

System: 1-methylnaphthalene; phases: Liquid
Property: Viscosity, Pa*s (Liquid); method: Vibrating wire viscometry
Temperature, K	Pressure, kPa	Viscosity, Pa*s	uncertainty
298.15	200	.0029	.000058
298.15	200	.00289	.0000578
298.15	1000	.00293	.0000586
298.15	1000	.00292	.0000584
298.15	10000	.00324	.0000648
298.15	10000	.00324	.0000648
298.15	40000	.00442	.0000884
298.15	40000	.00442	.0000884
298.15	80000	.00665	.000133
298.15	80000	.00668	.0001336
298.15	120100	.01012	.0002024
298.15	120100	.01017	.0002034
298.15	79900	.00667	.0001334
298.15	79900	.00665	.000133
298.15	39900	.00441	.0000882
298.15	39900	.0044	.000088
298.15	1000	.00294	.0000588
298.15	1000	.00293	.0000586
