Measured thermophysical data. Influence of Typical Impurities on the Surface Tension Measurements of Binary Mixtures of Water and the Ionic Liquids 1-Butyl-3-Methylimidazolium Tetrafluoroborate and Chloride
Source: J. Chem. Eng. Data, 2010, 10.1021/je100949x
Compound 1: 1-butyl-3-methylimidazolium tetrafluoroborate, C8H15BF4N2
Compound 2: 1-butyl-3-methylimidazolium chloride, C8H15ClN2
Compound 3: ethanol, C2H6O, purity 99.98%
Compound 4: propanone, C3H6O, purity 99.9%
Compound 5: 1-methylimidazole, C4H6N2, purity 99%
Compound 6: water, H2O
Compound 7: potassium chloride, ClK

System: water + 1-butyl-3-methylimidazolium tetrafluoroborate; phases: Liquid, Gas
Property: Surface tension liquid-gas, N/m (Liquid); method: Maximal bubble pressure
Mole fraction of 1-butyl-3-methylimidazolium tetrafluoroborate	Temperature, K	Surface tension liquid-gas, N/m	uncertainty
0	298.9	.0718	
.004	299	.0603	
.01	298.8	.0532	
.014	298.7	.0507	
.026	298.6	.0485	
.05	298.7	.0483	
.061	298.6	.0484	
.109	298.5	.0484	
.163	298.5	.0482	
.233	298.6	.0479	
.319	298.8	.0477	
.392	298.9	.0475	
.51	299.2	.0473	
0	298.5	.0719	
.004	298.4	.0608	
.006	298.5	.0561	
.009	298.5	.0532	
.013	298.5	.0507	
.019	298.4	.0489	
.028	298.4	.048	
.068	298.3	.0481	
.114	298.4	.0481	
.17	298.4	.0481	
.228	298.4	.0479	
.292	298.6	.0476	
.355	298.6	.0475	
.42	298.7	.0474	
.435	298.9	.0472	
0	298.1	.072	
.007	298.2	.0604	
.014	298.1	.0524	
.021	298.2	.0492	
.029	298.3	.0478	
.033	298.3	.0479	
.046	298.1	.0478	
.053	298	.0477	
.114	298	.0481	
.186	298.3	.0481	

System: water + 1-butyl-3-methylimidazolium chloride; phases: Liquid, Gas
Property: Surface tension liquid-gas, N/m (Liquid); method: Maximal bubble pressure
Mole fraction of 1-butyl-3-methylimidazolium chloride	Temperature, K	Surface tension liquid-gas, N/m	uncertainty
0	299.7	.0716	
.002	299.7	.0705	
.011	299.7	.0671	
.017	299.7	.0656	
.028	299.6	.0641	
.033	299.5	.0633	
.037	299.5	.063	
.077	300.3	.0596	
.134	300.6	.0559	
.198	300.5	.0549	
.268	301.2	.0548	
.329	301.6	.0546	
.398	302.1	.0544	
0	298.9	.0717	
.004	299.1	.0689	
.009	299.2	.0665	
.016	299.2	.065	
.023	299.2	.0638	
.03	299.3	.0628	
.048	300	.061	
.067	299.9	.0593	
.089	300.4	.0579	
.11	300.3	.057	
.139	300.5	.0558	
.163	300.7	.0554	
.225	301.1	.0544	
.292	300.4	.0537	
.36	300.9	.0538	
.422	300.1	.0543	
.48	300.6	.0541	
0	298.1	.0719	
.004	298.2	.0699	
.007	298.3	.0688	
.011	298.1	.0662	
.015	298.1	.0655	
.018	298.1	.0647	
.025	298.2	.0645	
.031	298.2	.0637	
.053	298.3	.0617	
.073	298.3	.0599	
.112	298.9	.0576	
.142	298.7	.0567	
.188	299	.0554	
.226	298.9	.055	
.303	299.2	.055	
.374	299.5	.0549	

System: potassium chloride + water + 1-butyl-3-methylimidazolium tetrafluoroborate; phases: Liquid, Gas
Fixed: Solvent: Amount concentration (molarity), mol/dm3 of potassium chloride = .4
Property: Surface tension liquid-gas, N/m (Liquid); method: Maximal bubble pressure
Mole fraction of 1-butyl-3-methylimidazolium tetrafluoroborate	Temperature, K	Surface tension liquid-gas, N/m	uncertainty
0	300.2	.0716	.0004
.002	300.3	.0687	.0008
.003	300.4	.0668	.0004
.005	300.5	.064	.0003
.008	300.6	.061	.0005
.01	300.5	.0576	.0011
.013	300.5	.0541	.0004
.015	300.5	.0524	.0006
.021	300.5	.0484	.0002
.027	300.5	.0484	.0002
.061	300.2	.0472	.0007

System: potassium chloride + water + 1-butyl-3-methylimidazolium chloride; phases: Liquid, Gas
Fixed: Solvent: Amount concentration (molarity), mol/dm3 of potassium chloride = .4
Property: Surface tension liquid-gas, N/m (Liquid); method: Maximal bubble pressure
Mole fraction of 1-butyl-3-methylimidazolium chloride	Temperature, K	Surface tension liquid-gas, N/m	uncertainty
0	298.2	.0719	.0002
0	298.2	.0735	.0001
.002	298.4	.0698	.0002
.006	298.5	.0686	.0002
.009	298.5	.0675	.0002
.013	298.5	.0663	.0002
.018	298.6	.0653	.0003
.027	298.7	.0636	.0002
.032	298.6	.063	.0002
.051	299.1	.0608	.0002
.068	298.9	.0594	.0002
.092	299.3	.0577	.0002
.113	299.2	.0567	.0003
.138	299.6	.0558	.0002
.163	299.5	.0554	.0003
.196	299.7	.0551	.0002

System: propanone + water + 1-butyl-3-methylimidazolium tetrafluoroborate; phases: Liquid, Gas
Property: Surface tension liquid-gas, N/m (Liquid); method: Maximal bubble pressure
Mass fraction of propanone	Mole fraction of 1-butyl-3-methylimidazolium tetrafluoroborate	Temperature, K	Surface tension liquid-gas, N/m	uncertainty
.0401	0	298.7	.0595	.0006
.0401	.006	298.6	.0517	.0003
.0401	.02	298.4	.0461	.0004
.0401	.027	298.5	.0457	.0003
.0401	.031	298.5	.0459	.0003
.0401	.065	298.2	.046	.0004
.0401	.104	298.3	.0462	.0006
.0401	.152	298.1	.0463	.0005
.0401	.206	298.4	.0461	.0004
.0401	.26	298.5	.0459	.0004
.0401	.326	298.6	.046	.0005
.0401	.401	298.6	.0457	.0009
.0401	.478	298.8	.0459	.0003

System: ethanol + water + 1-butyl-3-methylimidazolium tetrafluoroborate; phases: Liquid, Gas
Property: Surface tension liquid-gas, N/m (Liquid); method: Maximal bubble pressure
Mass fraction of ethanol	Mole fraction of 1-butyl-3-methylimidazolium tetrafluoroborate	Temperature, K	Surface tension liquid-gas, N/m	uncertainty
.037	0	299.4	.0615	.0002
.037	.001	299.5	.0599	.0004
.037	.004	299.6	.0569	.0002
.037	.008	299.6	.0532	.0002
.037	.012	299.7	.0507	.0006
.037	.015	299.9	.0497	.0003
.037	.022	299.8	.0486	.0002
.037	.028	299.8	.0485	.0003
.037	.047	300.1	.0486	.0002
.037	.067	299.8	.0485	.0004
.037	.113	300.2	.0488	.0002
.037	.165	300.2	.0487	.0004

System: 1-methylimidazole + water + 1-butyl-3-methylimidazolium tetrafluoroborate; phases: Liquid, Gas
Property: Surface tension liquid-gas, N/m (Liquid); method: Maximal bubble pressure
Mass fraction of 1-methylimidazole	Mole fraction of 1-butyl-3-methylimidazolium tetrafluoroborate	Temperature, K	Surface tension liquid-gas, N/m	uncertainty
.028	0	299.5	.0716	.0002
.028	.001	299.8	.0666	.0001
.028	.003	299.9	.0618	.0001
.028	.006	300	.0571	.0001
.028	.008	300	.0541	.0002
.028	.012	300	.0512	.0004
.028	.016	300.1	.0493	.0002
.028	.021	300.1	.0485	.0002
.028	.026	300.1	.048	.0004
.028	.062	300.1	.0478	.0002
.028	.109	300.2	.0478	.0001
.028	.163	300.6	.0476	.0002
.028	.23	300.8	.0473	.0002
.028	.31	301	.0471	.0001
.028	.399	301.3	.0468	.0002
.028	.474	301.8	.0466	.0005

System: propanone + water + 1-butyl-3-methylimidazolium chloride; phases: Liquid, Gas
Property: Surface tension liquid-gas, N/m (Liquid); method: Maximal bubble pressure
Mass fraction of propanone	Mole fraction of 1-butyl-3-methylimidazolium chloride	Temperature, K	Surface tension liquid-gas, N/m	uncertainty
.045	0	297.8	.0589	.0003
.045	.003	297.8	.0598	.0007
.045	.007	297.9	.0604	.0005
.045	.011	297.8	.0611	.002
.045	.015	297.9	.061	.0002
.045	.021	297.9	.0609	.0002
.045	.026	297.9	.0611	.0002
.045	.057	298.3	.0592	.0002
.045	.091	298.2	.0577	.0002
.045	.133	298.4	.0564	.0004
.045	.161	298.5	.0559	.0001

System: ethanol + water + 1-butyl-3-methylimidazolium chloride; phases: Liquid, Gas
Property: Surface tension liquid-gas, N/m (Liquid); method: Maximal bubble pressure
Mass fraction of ethanol	Mole fraction of 1-butyl-3-methylimidazolium chloride	Temperature, K	Surface tension liquid-gas, N/m	uncertainty
.0387	0	299.9	.0578	.0007
.0387	.002	299.9	.058	.0008
.0387	.009	300.1	.0576	.0004
.0387	.017	300.1	.0571	.0004
.0387	.022	300.1	.057	.0005
.0387	.035	300.1	.0561	.0002
.0387	.048	300.6	.0552	.0002
.0387	.065	300.5	.0544	.0004
.0387	.08	300.5	.054	.0007
.0387	.097	299.4	.0535	.0007
.0387	.112	299.9	.0535	.0005
.0387	.145	299.7	.0535	.0003
.0387	.182	300.1	.0534	.0002
.0387	.221	300.3	.0536	.0004

System: 1-methylimidazole + water + 1-butyl-3-methylimidazolium chloride; phases: Liquid, Gas
Property: Surface tension liquid-gas, N/m (Liquid); method: Maximal bubble pressure
Mass fraction of 1-methylimidazole	Mole fraction of 1-butyl-3-methylimidazolium chloride	Temperature, K	Surface tension liquid-gas, N/m	uncertainty
.0428	0	299	.0718	.0005
.0428	.003	298.9	.0708	.0004
.0428	.007	298.9	.0694	.0004
.0428	.012	298.9	.0681	.0009
.0428	.018	298.9	.0663	.0006
.0428	.024	298.8	.065	.0004
.0428	.029	298.8	.0643	.0005
.0428	.049	299.3	.0616	.0004
.0428	.065	299.3	.0599	.0007
.0428	.085	299.8	.0583	.0003
.0428	.103	299.6	.0573	.0003
.0428	.147	300.1	.0558	.0003
.0428	.185	300.4	.055	.0003
.0428	.207	300.4	.0546	.0003
