Measured thermophysical data. Liquid-Liquid Equilibrium in Systems with an Ionic Liquid: Experimental Data for an Example of the Biphasic Acid Scavenging Utilizing Ionic Liquids Process
Source: J. Chem. Eng. Data, 2010, 10.1021/je1004966
Compound 1: butan-1-ol, C4H10O, purity 99.9%
Compound 2: acetic acid, butyl ester, C6H12O2, purity 99.5%
Compound 3: 1-methylimidazolium chloride, C4H7ClN2, purity 95%
Compound 4: 1-methylimidazole, C4H6N2, purity 99%

System: 1-methylimidazolium chloride; phases: Crystal, Liquid, Air at 1 atmosphere
Property: Normal melting temperature, K (Crystal); method: DSC/DTA
Normal melting temperature, K	uncertainty
359.15	.5

System: acetic acid, butyl ester + 1-methylimidazolium chloride; phases: Liquid mixture 1, Liquid mixture 2
Fixed: Pressure, kPa = 101.3
Property: Mass fraction of 1-methylimidazolium chloride (Liquid mixture 1); method: Chromatography
Temperature, K	Mass fraction of 1-methylimidazolium chloride	uncertainty
356.4	.000106	.00001
361.2	.000104	.000012
365.9	.000112	.00001
370.8	.000119	.00001
375.6	.000118	.00001
380.6	.000137	.000025

System: acetic acid, butyl ester + 1-methylimidazolium chloride; phases: Liquid mixture 2, Liquid mixture 1
Fixed: Pressure, kPa = 101.3
Property: Mass fraction of acetic acid, butyl ester (Liquid mixture 2); method: Chromatography
Temperature, K	Mass fraction of acetic acid, butyl ester	uncertainty
356.4	.0108	.001
361.2	.0114	.0014
365.9	.0122	.001
370.8	.0154	.002
375.6	.0108	.002
380.6	.0115	.002

System: butan-1-ol + acetic acid, butyl ester + 1-methylimidazolium chloride; phases: Liquid mixture 1, Liquid mixture 2
Fixed: Pressure, kPa = 101.3
Property: Mass fraction of 1-methylimidazolium chloride (Liquid mixture 1); method: Chromatography
Property: Mass fraction of butan-1-ol (Liquid mixture 2); method: Chromatography
Property: Mass fraction of acetic acid, butyl ester (Liquid mixture 2); method: Chromatography
Temperature, K	Mass fraction of butan-1-ol	Mass fraction of 1-methylimidazolium chloride	uncertainty	Mass fraction of butan-1-ol	uncertainty	Mass fraction of acetic acid, butyl ester	uncertainty
363.7	.0079	.000195	.00000585	.0051	.000153	.0106	.000318
363.7	.0152	.000406	.00001218	.0087	.000261	.0122	.000366
363.7	.0236	.000234	.00000702	.0133	.000399	.0117	.000351
363.7	.0371	.000367	.00001101	.0197	.000591	.0131	.000393
363.7	.0569	.000521	.00001563	.0279	.000837	.0133	.000399
363.7	.0659	.000787	.00002361	.0342	.001026	.0152	.000456
363.7	.094	.00123	.0000369	.0515	.001545	.0158	.000474
363.7	.101	.00166	.0000498	.0536	.001608	.0152	.000456
373.9	.0098	.000157	.00000471	.006	.00018	.0115	.000345
373.9	.0055	.000168	.00000504	.0043	.000129	.012	.00036
373.9	.0158	.000192	.00000576	.0081	.000243	.0147	.000441
373.9	.0106	.000199	.00000597	.0055	.000165	.0133	.000399
373.9	.0185	.000211	.00000633	.0088	.000264	.0138	.000414
373.9	.0338	.000318	.00000954	.0161	.000483	.0148	.000444
373.9	.041	.000447	.00001341	.0218	.000654	.0133	.000399
373.9	.0577	.000701	.00002103	.0296	.000888	.0155	.000465
373.9	.111	.00268	.0000804	.0601	.001803	.0168	.000504

System: acetic acid, butyl ester + 1-methylimidazole + 1-methylimidazolium chloride; phases: Liquid mixture 2, Liquid mixture 1
Fixed: Pressure, kPa = 101.3
Property: Mass fraction of acetic acid, butyl ester (Liquid mixture 2); method: Chromatography
Property: Mass fraction of 1-methylimidazole (Liquid mixture 1); method: Chromatography
Property: Mass fraction of 1-methylimidazolium chloride (Liquid mixture 1); method: Chromatography
Temperature, K	Mass fraction of 1-methylimidazole	Mass fraction of acetic acid, butyl ester	uncertainty	Mass fraction of 1-methylimidazole	uncertainty	Mass fraction of 1-methylimidazolium chloride	uncertainty
363.5	.0082	.0149	.000447	.0046	.000138	.000089	.00000267
363.5	.0188	.0162	.000486	.008	.00024	.000103	.00000309
363.5	.0433	.0174	.000522	.0215	.000645	.000162	.00000486
363.5	.0562	.0187	.000561	.0289	.000867	.000163	.00000489
363.5	.0733	.0195	.000585	.0368	.001104	.000186	.00000558
363.5	.087	.0197	.000591	.047	.00141	.000219	.00000657
363.5	.0885	.0194	.000582	.0453	.001359	.000219	.00000657
363.5	.0964	.0181	.000543	.0565	.001695	.000244	.00000732
363.5	.0295	.0177	.000531	.0141	.000423	.000281	.00000843
363.5	.0997	.0184	.000552	.0591	.001773	.000303	.00000909
373.1	.0069	.0165	.000495	.0035	.000105	.00009	.0000027
373.1	.0134	.017	.00051	.0069	.000207	.000106	.00000318
373.1	.0277	.0175	.000525	.0142	.000426	.000115	.00000345
373.1	.0591	.0186	.000558	.0321	.000963	.000176	.00000528
373.1	.0421	.0183	.000549	.0219	.000657	.00018	.0000054
373.1	.0748	.0192	.000576	.0408	.001224	.000234	.00000702
373.1	.0965	.0206	.000618	.0547	.001641	.00025	.0000075
373.1	.0609	.0192	.000576	.0336	.001008	.000259	.00000777
373.1	.104	.0212	.000636	.0601	.001803	.000324	.00000972
