Measured thermophysical data. Volumetric Properties of Amino Acids in Aqueous N-Methylformamide Solutions at T = 298.15 K
Source: J. Chem. Eng. Data, 2010, 10.1021/je1003466
Compound 1: glycine, C2H5NO2
Compound 2: L-alanine, C3H7NO2
Compound 3: L-serine, C3H7NO3
Compound 4: NMF, C2H5NO
Compound 5: water, H2O

System: glycine + NMF + water; phases: Liquid
Fixed: Temperature, K = 298.15
Fixed: Pressure, kPa = 101
Property: Mass density, kg/m3 (Liquid); method: Vibrating tube method
Molality, mol/kg of NMF	Molality, mol/kg of glycine	Mass density, kg/m3	uncertainty
.1996	0	997.54	.1
.1996	.1243	1001.48	.1
.1996	.217	1004.37	.1
.1996	.2795	1006.29	.1
.1996	.3804	1009.36	.1
.1996	.4827	1012.41	.1
.1996	.5621	1014.76	.1
.5044	0	998.28	.1
.5044	.1088	1001.72	.1
.5044	.1637	1003.44	.1
.5044	.2003	1004.58	.1
.5044	.3138	1008.06	.1
.5044	.4214	1011.29	.1
.5044	.5115	1013.97	.1
.9919	0	999.46	.1
.9919	.1081	1002.86	.1
.9919	.153	1004.26	.1
.9919	.2465	1007.13	.1
.9919	.3069	1008.98	.1
.9919	.4053	1011.92	.1
.9919	.5127	1015.12	.1
1.5053	0	1000.65	.1
1.5053	.1136	1004.21	.1
1.5053	.1571	1005.56	.1
1.5053	.2197	1007.48	.1
1.5053	.327	1010.74	.1
1.5053	.3963	1012.81	.1
1.5053	.5016	1015.93	.1
2.0112	0	1001.79	.1
2.0112	.1036	1005.03	.1
2.0112	.1611	1006.8	.1
2.0112	.2282	1008.85	.1
2.0112	.3082	1011.28	.1
2.0112	.4082	1014.25	.1
2.0112	.5038	1017.06	.1
2.5131	0	1002.86	.1
2.5131	.1127	1006.36	.1
2.5131	.1625	1007.89	.1
2.5131	.2094	1009.32	.1
2.5131	.3184	1012.62	.1
2.5131	.3998	1015.04	.1
2.5131	.5017	1018.01	.1
3.0496	0	1003.95	.1
3.0496	.1023	1007.12	.1
3.0496	.1516	1008.63	.1
3.0496	.2278	1010.95	.1
3.0496	.3112	1013.45	.1
3.0496	.4034	1016.18	.1
3.0496	.5285	1019.83	.1
3.4987	0	1004.81	.1
3.4987	.1057	1008.07	.1
3.4987	.1695	1010.02	.1
3.4987	.2226	1011.63	.1
3.4987	.309	1014.22	.1
3.4987	.4049	1017.06	.1
3.4987	.5008	1019.87	.1
3.9924	0	1005.74	.1
3.9924	.1125	1009.18	.1
3.9924	.1485	1010.27	.1
3.9924	.2126	1012.2	.1
3.9924	.303	1014.9	.1
3.9924	.4052	1017.91	.1
3.9924	.5064	1020.84	.1

System: L-alanine + NMF + water; phases: Liquid
Fixed: Temperature, K = 298.15
Fixed: Pressure, kPa = 101
Property: Mass density, kg/m3 (Liquid); method: Vibrating tube method
Molality, mol/kg of NMF	Molality, mol/kg of L-alanine	Mass density, kg/m3	uncertainty
.2	0	997.53	.1
.2	.1074	1000.6	.1
.2	.1651	1002.22	.1
.2	.2866	1005.58	.1
.2	.354	1007.42	.1
.2	.4001	1008.65	.1
.2	.4833	1010.87	.1
.3493	0	997.91	.1
.3493	.1143	1001.17	.1
.3493	.1742	1002.85	.1
.3493	.231	1004.43	.1
.3493	.3126	1006.67	.1
.3493	.3884	1008.73	.1
.3493	.4721	1010.95	.1
.5343	0	998.34	.1
.5343	.1011	1001.23	.1
.5343	.1646	1003.02	.1
.5343	.218	1004.51	.1
.5343	.3123	1007.09	.1
.5343	.402	1009.52	.1
.5343	.5034	1012.22	.1
1.0109	0	999.49	.1
1.0109	.1228	1002.99	.1
1.0109	.1528	1003.83	.1
1.0109	.2062	1005.32	.1
1.0109	.3053	1008.04	.1
1.0109	.4073	1010.8	.1
1.0109	.5119	1013.58	.1
1.4994	0	1000.63	.1
1.4994	.1047	1003.61	.1
1.4994	.1587	1005.13	.1
1.4994	.2203	1006.84	.1
1.4994	.3272	1009.76	.1
1.4994	.4137	1012.09	.1
1.4994	.5269	1015.08	.1
2.0118	0	1001.79	.1
2.0118	.1094	1004.89	.1
2.0118	.1645	1006.43	.1
2.0118	.2066	1007.59	.1
2.0118	.3043	1010.27	.1
2.0118	.4061	1013.02	.1
2.0118	.5015	1015.54	.1
2.4699	0	1002.77	.1
2.4699	.1059	1005.76	.1
2.4699	.1494	1006.98	.1
2.4699	.2047	1008.51	.1
2.4699	.3082	1011.33	.1
2.4699	.4054	1013.94	.1
2.4699	.4977	1016.37	.1
3.0225	0	1003.9	.1
3.0225	.1067	1006.91	.1
3.0225	.1621	1008.45	.1
3.0225	.2017	1009.54	.1
3.0225	.2979	1012.16	.1
3.0225	.4097	1015.15	.1
3.0225	.5038	1017.62	.1
3.496	0	1004.81	.1
3.496	.1004	1007.64	.1
3.496	.154	1009.13	.1
3.496	.2028	1010.47	.1
3.496	.3027	1013.19	.1
3.496	.4137	1016.15	.1
3.496	.5015	1018.46	.1
3.9967	0	1005.73	.1
3.9967	.1096	1008.81	.1
3.9967	.1549	1010.06	.1
3.9967	.2022	1011.35	.1
3.9967	.3145	1014.39	.1
3.9967	.4019	1016.71	.1
3.9967	.516	1019.69	.1

System: L-serine + NMF + water; phases: Liquid
Fixed: Temperature, K = 298.15
Fixed: Pressure, kPa = 101
Property: Mass density, kg/m3 (Liquid); method: Vibrating tube method
Molality, mol/kg of NMF	Molality, mol/kg of L-serine	Mass density, kg/m3	uncertainty
.2	0	997.55	.1
.2	.102	1002.05	.1
.2	.1475	1004.04	.1
.2	.207	1006.61	.1
.2	.2986	1010.5	.1
.2	.417	1015.46	.1
.2	.5283	1020.05	.1
.5018	0	998.28	.1
.5018	.1222	1003.66	.1
.5018	.159	1005.25	.1
.5018	.214	1007.61	.1
.5018	.3329	1012.65	.1
.5018	.3893	1014.98	.1
.5018	.4992	1019.5	.1
.9779	0	999.42	.1
.9779	.1142	1004.432	.1
.9779	.1602	1006.42	.1
.9779	.2172	1008.86	.1
.9779	.3085	1012.72	.1
.9779	.4067	1016.82	.1
.9779	.5086	1020.99	.1
2.0063	0	1001.79	.1
2.0063	.1069	1006.46	.1
2.0063	.159	1008.7	.1
2.0063	.2024	1010.55	.1
2.0063	.301	1014.7	.1
2.0063	.3957	1018.61	.1
2.0063	.4745	1021.83	.1
2.4969	0	1002.77	.1
2.4969	.1014	1007.19	.1
2.4969	.1587	1009.65	.1
2.4969	.2135	1011.98	.1
2.4969	.3112	1016.07	.1
2.4969	.4219	1020.62	.1
2.4969	.4984	1023.71	.1
3.0684	0	1004	.1
3.0684	.1014	1008.4	.1
3.0684	.1556	1010.72	.1
3.0684	.2046	1012.8	.1
3.0684	.3091	1017.16	.1
3.0684	.406	1021.13	.1
3.0684	.4995	1024.92	.1
3.4995	0	1004.82	.1
3.4995	.1047	1009.35	.1
3.4995	.1547	1011.48	.1
3.4995	.2156	1014.05	.1
3.4995	.303	1017.7	.1
3.4995	.4195	1022.46	.1
3.4995	.4988	1025.64	.1
3.9886	0	1005.73	.1
3.9886	.1063	1010.3	.1
3.9886	.1579	1012.49	.1
3.9886	.204	1014.43	.1
3.9886	.3119	1018.91	.1
3.9886	.4208	1023.36	.1
3.9886	.5005	1026.54	.1

System: NMF + water; phases: Liquid
Property: Mass density, kg/m3 (Liquid); method: Vibrating tube method
Molality, mol/kg of NMF	Temperature, K	Pressure, kPa	Mass density, kg/m3	uncertainty
.1996	298.15	101	997.54	.1
.5044	298.15	101	998.28	.1
.9919	298.15	101	999.46	.1
1.5053	298.15	101	1000.65	.1
2.0112	298.15	101	1001.79	.1
2.5131	298.15	101	1002.86	.1
3.0496	298.15	101	1003.95	.1
3.4987	298.15	101	1004.81	.1
3.9924	298.15	101	1005.74	.1
.2	298.15	101	997.53	.1
.3493	298.15	101	997.91	.1
.5343	298.15	101	998.34	.1
1.0109	298.15	101	999.49	.1
1.4994	298.15	101	1000.63	.1
2.0118	298.15	101	1001.79	.1
2.4699	298.15	101	1002.77	.1
3.0225	298.15	101	1003.9	.1
3.496	298.15	101	1004.81	.1
3.9967	298.15	101	1005.73	.1
.2	298.15	101	997.55	.1
.5018	298.15	101	998.28	.1
.9779	298.15	101	999.42	.1
1.4995	298.15	101	1000.62	.1
2.0063	298.15	101	1001.79	.1
2.4969	298.15	101	1002.77	.1
3.0684	298.15	101	1004	.1
3.4995	298.15	101	1004.82	.1
3.9886	298.15	101	1005.73	.1
