Measured thermophysical data. Study of the Solution Properties of Ternary Mixtures of 1,3-Dioxolane (1), Diethyl Ether (2), and n-Amyl Alcohol (3) and the Corresponding Binary Mixtures by Density, Viscosity, Refractivity, and Ultrasonic Speed Measurements at 298.15 K
Source: J. Chem. Eng. Data, 2010, 10.1021/je100594u
Compound 1: 1,3-dioxolane, C3H6O2, purity 99%
Compound 2: pentan-1-ol, C5H12O, purity 99%
Compound 3: ethane, 1,1'-oxybis-, C4H10O, purity 99%

System: 1,3-dioxolane; phases: Liquid
Property: Mass density, kg/m3 (Liquid); method: Pycnometric method
Temperature, K	Pressure, kPa	Mass density, kg/m3	uncertainty
298.15	101.3	1058.7	.3

System: 1,3-dioxolane; phases: Liquid
Property: Viscosity, Pa*s (Liquid); method: Capillary tube (Ostwald; Ubbelohde) method
Temperature, K	Pressure, kPa	Viscosity, Pa*s	uncertainty
298.15	101.3	.0005894	.0000002

System: 1,3-dioxolane; phases: Liquid
Property: Speed of sound, m/s (Liquid); method: Linear variable-path acoustic interferometer
Temperature, K	Pressure, kPa	Speed of sound, m/s	uncertainty
298.15	101.3	1339.4	.2
298.15	101.3	1339.5	.2

System: 1,3-dioxolane; phases: Liquid
Fixed: Pressure, kPa = 101.325
Property: Refractive index (Na D-line) (Liquid); method: Standard Abbe refractometry
Temperature, K	Refractive index (Na D-line)	uncertainty
298.15	1.3985	.0002

System: pentan-1-ol; phases: Liquid
Property: Mass density, kg/m3 (Liquid); method: Pycnometric method
Temperature, K	Pressure, kPa	Mass density, kg/m3	uncertainty
298.15	101.3	811.2	.3

System: pentan-1-ol; phases: Liquid
Property: Viscosity, Pa*s (Liquid); method: Capillary tube (Ostwald; Ubbelohde) method
Temperature, K	Pressure, kPa	Viscosity, Pa*s	uncertainty
298.15	101.3	.003504	.0000002
298.15	101.3	.003404	.0000002

System: pentan-1-ol; phases: Liquid
Property: Speed of sound, m/s (Liquid); method: Linear variable-path acoustic interferometer
Temperature, K	Pressure, kPa	Speed of sound, m/s	uncertainty
298.15	101.3	1271.6	.2

System: pentan-1-ol; phases: Liquid
Fixed: Pressure, kPa = 101.325
Property: Refractive index (Na D-line) (Liquid); method: Standard Abbe refractometry
Temperature, K	Refractive index (Na D-line)	uncertainty
298.15	1.41	.0002

System: ethane, 1,1'-oxybis-; phases: Liquid
Property: Mass density, kg/m3 (Liquid); method: Pycnometric method
Temperature, K	Pressure, kPa	Mass density, kg/m3	uncertainty
298.15	101.3	708.3	.3

System: ethane, 1,1'-oxybis-; phases: Liquid
Property: Viscosity, Pa*s (Liquid); method: Capillary tube (Ostwald; Ubbelohde) method
Temperature, K	Pressure, kPa	Viscosity, Pa*s	uncertainty
298.15	101.3	.0002469	.0000002

System: ethane, 1,1'-oxybis-; phases: Liquid
Property: Speed of sound, m/s (Liquid); method: Linear variable-path acoustic interferometer
Temperature, K	Pressure, kPa	Speed of sound, m/s	uncertainty
298.15	101.3	982.3	.2

System: ethane, 1,1'-oxybis-; phases: Liquid
Fixed: Pressure, kPa = 101.325
Property: Refractive index (Na D-line) (Liquid); method: Standard Abbe refractometry
Temperature, K	Refractive index (Na D-line)	uncertainty
298.15	1.3515	.0002

System: ethane, 1,1'-oxybis- + 1,3-dioxolane; phases: Liquid
Fixed: Temperature, K = 298.15
Fixed: Pressure, kPa = 101.3
Property: Mass density, kg/m3 (Liquid); method: Pycnometric method
Mole fraction of 1,3-dioxolane	Mass density, kg/m3	uncertainty
0	708.3	.3
.1	736.4	.3
.2	765.6	.3
.3001	796.3	.3
.4001	829	.3
.5001	863.4	.3
.6001	899.7	.3
.7001	938.2	.3
.8	977	.3
.9	1018.4	.3
1	1058.7	.3

System: ethane, 1,1'-oxybis- + 1,3-dioxolane; phases: Liquid
Fixed: Temperature, K = 298.15
Fixed: Pressure, kPa = 101.3
Property: Viscosity, Pa*s (Liquid); method: Capillary tube (Ostwald; Ubbelohde) method
Mole fraction of 1,3-dioxolane	Viscosity, Pa*s	uncertainty
0	.0002469	.0000002
.1	.0002656	.0000002
.2	.0002844	.0000002
.3001	.0003055	.0000002
.4001	.000331	.0000002
.5001	.0003604	.0000002
.6001	.0003944	.0000002
.7001	.0004345	.0000002
.8	.0004784	.0000002
.9	.0005305	.0000002
1	.0005894	.0000002

System: ethane, 1,1'-oxybis- + 1,3-dioxolane; phases: Liquid
Fixed: Temperature, K = 298.15
Fixed: Pressure, kPa = 101.3
Property: Speed of sound, m/s (Liquid); method: Linear variable-path acoustic interferometer
Mole fraction of 1,3-dioxolane	Speed of sound, m/s	uncertainty
0	982.3	.2
.1	1003.9	.2
.2	1033.4	.2
.3001	1067.4	.2
.4001	1108.5	.2
.5001	1152.8	.2
.6001	1191.4	.2
.7001	1230.9	.2
.8	1265.3	.2
.9	1302.4	.2
1	1339.4	.2
.5001	1149.2	.2

System: ethane, 1,1'-oxybis- + 1,3-dioxolane; phases: Liquid
Fixed: Temperature, K = 298.15
Fixed: Pressure, kPa = 101.3
Property: Refractive index (Na D-line) (Liquid); method: Standard Abbe refractometry
Mole fraction of 1,3-dioxolane	Refractive index (Na D-line)	uncertainty
0	1.3515	.0002
.1	1.3568	.0002
.2	1.3604	.0002
.3001	1.3649	.0002
.4001	1.3696	.0002
.5001	1.3743	.0002
.6001	1.3791	.0002
.7001	1.3842	.0002
.8	1.3893	.0002
.9	1.3956	.0002
1	1.3985	.0002
.5001	1.375	.0002

System: pentan-1-ol + 1,3-dioxolane; phases: Liquid
Fixed: Temperature, K = 298.15
Fixed: Pressure, kPa = 101.3
Property: Mass density, kg/m3 (Liquid); method: Pycnometric method
Mole fraction of 1,3-dioxolane	Mass density, kg/m3	uncertainty
0	811.2	.3
.1168	832.9	.3
.2293	854.5	.3
.3377	876.6	.3
.4424	899.2	.3
.5434	922.5	.3
.6409	946.8	.3
.7352	972.5	.3
.8264	999.3	.3
.9146	1028.2	.3
1	1058.7	.3

System: pentan-1-ol + 1,3-dioxolane; phases: Liquid
Fixed: Temperature, K = 298.15
Fixed: Pressure, kPa = 101.3
Property: Viscosity, Pa*s (Liquid); method: Capillary tube (Ostwald; Ubbelohde) method
Mole fraction of 1,3-dioxolane	Viscosity, Pa*s	uncertainty
0	.003504	.0000002
.1168	.0025046	.0000002
.2293	.0018849	.0000002
.3377	.0014396	.0000002
.4424	.0010627	.0000002
.5434	.0009063	.0000002
.6409	.000756	.0000002
.7352	.0006472	.0000002
.8264	.0005704	.0000002
.9146	.0005413	.0000002
1	.0005894	.0000002

System: pentan-1-ol + 1,3-dioxolane; phases: Liquid
Fixed: Temperature, K = 298.15
Fixed: Pressure, kPa = 101.3
Property: Speed of sound, m/s (Liquid); method: Linear variable-path acoustic interferometer
Mole fraction of 1,3-dioxolane	Speed of sound, m/s	uncertainty
0	1271.6	.2
.1168	1278.8	.2
.2293	1287.5	.2
.3377	1296.8	.2
.4424	1305	.2
.5434	1313.4	.2
.6409	1321.5	.2
.7352	1327.1	.2
.8264	1332.7	.2
.9146	1337	.2
1	1339.5	.2

System: pentan-1-ol + 1,3-dioxolane; phases: Liquid
Fixed: Temperature, K = 298.15
Fixed: Pressure, kPa = 101.3
Property: Refractive index (Na D-line) (Liquid); method: Standard Abbe refractometry
Mole fraction of 1,3-dioxolane	Refractive index (Na D-line)	uncertainty
0	1.41	.0002
.1168	1.4085	.0002
.2293	1.4072	.0002
.3377	1.406	.0002
.4424	1.405	.0002
.5434	1.404	.0002
.6409	1.403	.0002
.7352	1.4022	.0002
.8264	1.401	.0002
.9146	1.4	.0002
1	1.3985	.0002

System: ethane, 1,1'-oxybis- + pentan-1-ol; phases: Liquid
Fixed: Temperature, K = 298.15
Fixed: Pressure, kPa = 101.3
Property: Mass density, kg/m3 (Liquid); method: Pycnometric method
Mole fraction of ethane, 1,1'-oxybis-	Mass density, kg/m3	uncertainty
0	811.2	.3
.1167	805.2	.3
.2292	797.5	.3
.3377	788.9	.3
.4423	779.7	.3
.5433	770.4	.3
.6409	759.5	.3
.7352	747.9	.3
.8263	736.1	.3
.9146	723	.3
1	708.3	.3

System: ethane, 1,1'-oxybis- + pentan-1-ol; phases: Liquid
Fixed: Temperature, K = 298.15
Fixed: Pressure, kPa = 101.3
Property: Viscosity, Pa*s (Liquid); method: Capillary tube (Ostwald; Ubbelohde) method
Mole fraction of ethane, 1,1'-oxybis-	Viscosity, Pa*s	uncertainty
0	.003504	.0000002
.1167	.0026513	.0000002
.2292	.0019664	.0000002
.3377	.0014908	.0000002
.4423	.0011233	.0000002
.5433	.0008294	.0000002
.6409	.0006199	.0000002
.7352	.0004811	.0000002
.8263	.000382	.0000002
.9146	.0003141	.0000002
1	.0002469	.0000002

System: ethane, 1,1'-oxybis- + pentan-1-ol; phases: Liquid
Fixed: Temperature, K = 298.15
Fixed: Pressure, kPa = 101.3
Property: Speed of sound, m/s (Liquid); method: Linear variable-path acoustic interferometer
Mole fraction of ethane, 1,1'-oxybis-	Speed of sound, m/s	uncertainty
0	1271.6	.2
.1167	1241.8	.2
.2292	1216.7	.2
.3377	1193.9	.2
.4423	1172.2	.2
.5433	1141.6	.2
.6409	1110.7	.2
.7352	1077.3	.2
.8263	1046.3	.2
.9146	1011.2	.2
1	982.3	.2

System: ethane, 1,1'-oxybis- + pentan-1-ol; phases: Liquid
Fixed: Temperature, K = 298.15
Fixed: Pressure, kPa = 101.3
Property: Refractive index (Na D-line) (Liquid); method: Standard Abbe refractometry
Mole fraction of ethane, 1,1'-oxybis-	Refractive index (Na D-line)	uncertainty
0	1.41	.0002
.1167	1.4043	.0002
.2292	1.3977	.0002
.3377	1.3922	.0002
.4423	1.3874	.0002
.5433	1.3825	.0002
.6409	1.3774	.0002
.7352	1.3724	.0002
.8263	1.3664	.0002
.9146	1.3601	.0002
1	1.3515	.0002

System: ethane, 1,1'-oxybis- + pentan-1-ol + 1,3-dioxolane; phases: Liquid
Fixed: Temperature, K = 298.15
Fixed: Pressure, kPa = 101.3
Property: Mass density, kg/m3 (Liquid); method: Pycnometric method
Mole fraction of 1,3-dioxolane	Mole fraction of ethane, 1,1'-oxybis-	Mass density, kg/m3	uncertainty
.5001	.4999	863.4	.3
.4574	.4572	860.2	.3
.4132	.4131	856.7	.3
.3676	.3675	852.5	.3
.3205	.3204	847.7	.3
.2717	.2716	842.4	.3
.2212	.2211	836.7	.3
.1689	.1688	830.7	.3
.1146	.1146	824.6	.3
.0584	.0584	818.1	.3
0	0	811.2	.3

System: ethane, 1,1'-oxybis- + pentan-1-ol + 1,3-dioxolane; phases: Liquid
Fixed: Temperature, K = 298.15
Fixed: Pressure, kPa = 101.3
Property: Viscosity, Pa*s (Liquid); method: Capillary tube (Ostwald; Ubbelohde) method
Mole fraction of 1,3-dioxolane	Mole fraction of ethane, 1,1'-oxybis-	Viscosity, Pa*s	uncertainty
.5001	.4999	.0003604	.0000002
.4574	.4572	.0004307	.0000002
.4132	.4131	.0004804	.0000002
.3676	.3675	.0005518	.0000002
.3205	.3204	.0006508	.0000002
.2717	.2716	.0007592	.0000002
.2212	.2211	.0009659	.0000002
.1689	.1688	.001243	.0000002
.1146	.1146	.0016816	.0000002
.0584	.0584	.0023038	.0000002
0	0	.003404	.0000002

System: ethane, 1,1'-oxybis- + pentan-1-ol + 1,3-dioxolane; phases: Liquid
Fixed: Temperature, K = 298.15
Fixed: Pressure, kPa = 101.3
Property: Speed of sound, m/s (Liquid); method: Linear variable-path acoustic interferometer
Mole fraction of 1,3-dioxolane	Mole fraction of ethane, 1,1'-oxybis-	Speed of sound, m/s	uncertainty
.5001	.4999	1149.2	.2
.4574	.4572	1165.9	.2
.4132	.4131	1183.4	.2
.3676	.3675	1196.6	.2
.3205	.3204	1207.6	.2
.2717	.2716	1213.9	.2
.2212	.2211	1224.6	.2
.1689	.1688	1235.8	.2
.1146	.1146	1246.7	.2
.0584	.0584	1258.2	.2
0	0	1271.6	.2

System: ethane, 1,1'-oxybis- + pentan-1-ol + 1,3-dioxolane; phases: Liquid
Fixed: Temperature, K = 298.15
Fixed: Pressure, kPa = 101.3
Property: Refractive index (Na D-line) (Liquid); method: Standard Abbe refractometry
Mole fraction of 1,3-dioxolane	Mole fraction of ethane, 1,1'-oxybis-	Refractive index (Na D-line)	uncertainty
.5001	.4999	1.375	.0002
.4574	.4572	1.3775	.0002
.4132	.4131	1.3805	.0002
.3676	.3675	1.385	.0002
.3205	.3204	1.3875	.0002
.2717	.2716	1.3925	.0002
.2212	.2211	1.3945	.0002
.1689	.1688	1.398	.0002
.1146	.1146	1.4005	.0002
.0584	.0584	1.4035	.0002
0	0	1.41	.0002
