Measured thermophysical data. Solubility and Crystal Size of Sirolimus in Different Organic Solvents
Source: J. Chem. Eng. Data, 2010, 10.1021/je100626x
Compound 1: sirolimus, C51H79NO13
Compound 2: propanone, C3H6O
Compound 3: chloroform, CHCl3
Compound 4: methylene chloride, CH2Cl2
Compound 5: ethanol, C2H6O
Compound 6: methanol, CH4O

System: propanone + sirolimus; phases: Liquid, Crystal
Fixed: Pressure, kPa = 101
Property: Mole fraction of sirolimus (Liquid); method: Gravimetric
Temperature, K	Mole fraction of sirolimus	uncertainty
295	.0031623	.000063246
300	.0032145	.00006429
305	.0034287	.000068574
310	.0038756	.000077512
315	.0043269	.000086538
320	.0046985	.00009397
325	.0048723	.000097446
330	.0051056	.000102112
335	.0054523	.000109046
340	.0062674	.000125348
345	.007214	.00014428

System: chloroform + sirolimus; phases: Liquid, Crystal
Fixed: Pressure, kPa = 101
Property: Mole fraction of sirolimus (Liquid); method: Gravimetric
Temperature, K	Mole fraction of sirolimus	uncertainty
295	.0027232	.000054464
300	.0028911	.000057822
305	.0031052	.000062104
310	.0032532	.000065064
315	.0034598	.000069196
320	.0036925	.00007385
325	.0038624	.000077248
330	.0041287	.000082574
335	.0043695	.00008739
340	.0045837	.000091674
345	.0049523	.000099046

System: methylene chloride + sirolimus; phases: Liquid, Crystal
Fixed: Pressure, kPa = 101
Property: Mole fraction of sirolimus (Liquid); method: Gravimetric
Temperature, K	Mole fraction of sirolimus	uncertainty
295	.0019032	.000038064
300	.0020087	.000040174
305	.0021982	.000043964
310	.0024568	.000049136
315	.0027145	.00005429
320	.0027892	.000055784
325	.0030596	.000061192
330	.0033345	.00006669
335	.0035125	.00007025
340	.0039712	.000079424
345	.0043289	.000086578

System: ethanol + sirolimus; phases: Liquid, Crystal
Fixed: Pressure, kPa = 101
Property: Mole fraction of sirolimus (Liquid); method: Gravimetric
Temperature, K	Mole fraction of sirolimus	uncertainty
295	.0013725	.00002745
300	.0014289	.000028578
305	.0016321	.000032642
310	.0018412	.000036824
315	.0019678	.000039356
320	.0020956	.000041912
325	.0023698	.000047396
330	.0025894	.000051788
335	.0027522	.000055044
340	.0029106	.000058212
345	.0031654	.000063308

System: methanol + sirolimus; phases: Liquid, Crystal
Fixed: Pressure, kPa = 101
Property: Mole fraction of sirolimus (Liquid); method: Gravimetric
Temperature, K	Mole fraction of sirolimus	uncertainty
295	.0007227	.000014454
300	.0008842	.000017684
305	.0010671	.000021342
310	.0012257	.000024514
315	.0014258	.000028516
320	.0014587	.000029174
325	.0016327	.000032654
330	.0017145	.00003429
335	.0018347	.000036694
340	.0018825	.00003765
345	.0020452	.000040904
