Measured thermophysical data. Measurement and Correlation of Solubilities of Cefpirome Sulfate in Aqueous Alcohol Solution between (278.15 and 308.15) K
Source: J. Chem. Eng. Data, 2010, 10.1021/je100870x
Compound 1: cefpirome sulfate, C22H24N6O9S3, purity 99%
Compound 2: water, H2O
Compound 3: methanol, CH4O, purity 99.8%
Compound 4: ethanol, C2H6O, purity 99.8%
Compound 5: propan-1-ol, C3H8O, purity 99.8%
Compound 6: 2-propanol, C3H8O, purity 99.8%

System: methanol + water + cefpirome sulfate; phases: Liquid, Crystal
Fixed: Pressure, kPa = 101.3
Property: Mole fraction of cefpirome sulfate (Liquid); method: Laser Observation
Solvent: Mole fraction of methanol	Temperature, K	Mole fraction of cefpirome sulfate	uncertainty
0	278.15	.0002931	.0000014655
0	283.15	.0003667	.0000018335
0	288.15	.0004506	.000002253
0	293.15	.0005609	.0000028045
0	298.15	.0006844	.000003422
0	303.15	.0008301	.0000041505
0	308.15	.00102	.0000051
.1046	278.15	.0001939	.0000009695
.1046	283.15	.0002478	.000001239
.1046	288.15	.0003181	.0000015905
.1046	293.15	.000404	.00000202
.1046	298.15	.000501	.000002505
.1046	303.15	.0006186	.000003093
.1046	308.15	.0007601	.0000038005
.2004	278.15	.0001205	.0000006025
.2004	283.15	.0001536	.000000768
.2004	288.15	.0001996	.000000998
.2004	293.15	.0002548	.000001274
.2004	298.15	.0003213	.0000016065
.2004	303.15	.000402	.00000201
.2004	308.15	.000505	.000002525
.3006	278.15	.00006321	.00000031605
.3006	283.15	.00008297	.00000041485
.3006	288.15	.0001088	.000000544
.3006	293.15	.0001404	.000000702
.3006	298.15	.0001767	.0000008835
.3006	303.15	.0002262	.000001131
.3006	308.15	.0002882	.000001441
.3998	278.15	.00002866	.0000001433
.3998	283.15	.00003792	.0000001896
.3998	288.15	.00005073	.00000025365
.3998	293.15	.0000652	.000000326
.3998	298.15	.00008627	.00000043135
.3998	303.15	.000109	.000000545
.3998	308.15	.0001412	.000000706
.4999	278.15	.00001288	.0000000644
.4999	283.15	.00001687	.00000008435
.4999	288.15	.00002277	.00000011385
.4999	293.15	.00003043	.00000015215
.4999	298.15	.00003947	.00000019735
.4999	303.15	.00005212	.0000002606
.4999	308.15	.00006753	.00000033765
.6	278.15	.000006008	.00000003004
.6	283.15	.000008442	.00000004221
.6	288.15	.0000117	.0000000585
.6	293.15	.0000158	.000000079
.6	298.15	.00002107	.00000010535
.6	303.15	.00002769	.00000013845
.6	308.15	.00003619	.00000018095
.7012	278.15	.000003436	.00000001718
.7012	283.15	.000004794	.00000002397
.7012	288.15	.000006681	.000000033405
.7012	293.15	.000009141	.000000045705
.7012	298.15	.00001226	.0000000613
.7012	303.15	.00001638	.0000000819
.7012	308.15	.00002176	.0000001088
.8017	278.15	.000003046	.00000001523
.8017	283.15	.000003924	.00000001962
.8017	288.15	.000005266	.00000002633
.8017	293.15	.000007135	.000000035675
.8017	298.15	.00000946	.0000000473
.8017	303.15	.00001299	.00000006495
.8017	308.15	.00001815	.00000009075

System: ethanol + water + cefpirome sulfate; phases: Liquid, Crystal
Fixed: Pressure, kPa = 101.3
Property: Mole fraction of cefpirome sulfate (Liquid); method: Laser Observation
Solvent: Mole fraction of ethanol	Temperature, K	Mole fraction of cefpirome sulfate	uncertainty
.1025	278.15	.0001767	.0000008835
.1025	283.15	.0002233	.0000011165
.1025	288.15	.0002794	.000001397
.1025	293.15	.0003516	.000001758
.1025	298.15	.0004373	.0000021865
.1025	303.15	.0005346	.000002673
.1025	308.15	.0006655	.0000033275
.2016	278.15	.00009449	.00000047245
.2016	283.15	.0001225	.0000006125
.2016	288.15	.0001563	.0000007815
.2016	293.15	.0002008	.000001004
.2016	298.15	.000252	.00000126
.2016	303.15	.0003185	.0000015925
.2016	308.15	.0003882	.000001941
.3022	278.15	.00004027	.00000020135
.3022	283.15	.00005285	.00000026425
.3022	288.15	.00006972	.0000003486
.3022	293.15	.00008837	.00000044185
.3022	298.15	.0001144	.000000572
.3022	303.15	.0001445	.0000007225
.3022	308.15	.0001803	.0000009015
.4	278.15	.00001438	.0000000719
.4	283.15	.00001883	.00000009415
.4	288.15	.00002492	.0000001246
.4	293.15	.00003231	.00000016155
.4	298.15	.00004149	.00000020745
.4	303.15	.00005403	.00000027015
.4	308.15	.00006841	.00000034205
.5004	278.15	.000005081	.000000025405
.5004	283.15	.000006859	.000000034295
.5004	288.15	.000009075	.000000045375
.5004	293.15	.00001213	.00000006065
.5004	298.15	.00001589	.00000007945
.5004	303.15	.0000204	.000000102
.5004	308.15	.00002646	.0000001323
.6092	278.15	.000001204	.00000000602
.6092	283.15	.000001641	.000000008205
.6092	288.15	.000002283	.000000011415
.6092	293.15	.000003051	.000000015255
.6092	298.15	.000003997	.000000019985
.6092	303.15	.000005236	.00000002618
.6092	308.15	.000006859	.000000034295

System: propan-1-ol + water + cefpirome sulfate; phases: Liquid, Crystal
Fixed: Pressure, kPa = 101.3
Property: Mole fraction of cefpirome sulfate (Liquid); method: Laser Observation
Solvent: Mole fraction of propan-1-ol	Temperature, K	Mole fraction of cefpirome sulfate	uncertainty
.1022	278.15	.0001597	.0000007985
.1022	283.15	.0002073	.0000010365
.1022	288.15	.0002568	.000001284
.1022	293.15	.0003195	.0000015975
.1022	298.15	.0003985	.0000019925
.1022	303.15	.0004948	.000002474
.1022	308.15	.0006062	.000003031
.2003	278.15	.00007875	.00000039375
.2003	283.15	.0001043	.0000005215
.2003	288.15	.0001326	.000000663
.2003	293.15	.0001672	.000000836
.2003	298.15	.0002114	.000001057
.2003	303.15	.0002626	.000001313
.2003	308.15	.0003244	.000001622
.3004	278.15	.00003109	.00000015545
.3004	283.15	.00004078	.0000002039
.3004	288.15	.00005202	.0000002601
.3004	293.15	.00006787	.00000033935
.3004	298.15	.00008656	.0000004328
.3004	303.15	.0001084	.000000542
.3004	308.15	.0001367	.0000006835
.4	278.15	.00001183	.00000005915
.4	283.15	.00001554	.0000000777
.4	288.15	.00002019	.00000010095
.4	293.15	.00002604	.0000001302
.4	298.15	.00003364	.0000001682
.4	303.15	.00004338	.0000002169
.4	308.15	.00005509	.00000027545
.5003	278.15	.000003438	.00000001719
.5003	283.15	.000004573	.000000022865
.5003	288.15	.000005929	.000000029645
.5003	293.15	.000007705	.000000038525
.5003	298.15	.00001002	.0000000501
.5003	303.15	.00001322	.0000000661
.5003	308.15	.00001698	.0000000849
.6	278.15	.0000008043	.0000000040215
.6	283.15	.000001097	.000000005485
.6	288.15	.000001475	.000000007375
.6	293.15	.000001958	.00000000979
.6	298.15	.000002563	.000000012815
.6	303.15	.000003372	.00000001686
.6	308.15	.000004391	.000000021955

System: 2-propanol + water + cefpirome sulfate; phases: Liquid, Crystal
Fixed: Pressure, kPa = 101.3
Property: Mole fraction of cefpirome sulfate (Liquid); method: Laser Observation
Solvent: Mole fraction of 2-propanol	Temperature, K	Mole fraction of cefpirome sulfate	uncertainty
.1092	278.15	.000133	.000000665
.1092	283.15	.0001673	.0000008365
.1092	288.15	.0002128	.000001064
.1092	293.15	.000262	.00000131
.1092	298.15	.0003275	.0000016375
.1092	303.15	.0003992	.000001996
.1092	308.15	.0004995	.0000024975
.2005	278.15	.00006875	.00000034375
.2005	283.15	.00008863	.00000044315
.2005	288.15	.0001136	.000000568
.2005	293.15	.0001432	.000000716
.2005	298.15	.0001792	.000000896
.2005	303.15	.0002226	.000001113
.2005	308.15	.0002774	.000001387
.3009	278.15	.00002809	.00000014045
.3009	283.15	.0000368	.000000184
.3009	288.15	.00004782	.0000002391
.3009	293.15	.00006147	.00000030735
.3009	298.15	.00007806	.0000003903
.3009	303.15	.00009815	.00000049075
.3009	308.15	.000123	.000000615
.4009	278.15	.00001023	.00000005115
.4009	283.15	.00001354	.0000000677
.4009	288.15	.00001809	.00000009045
.4009	293.15	.00002394	.0000001197
.4009	298.15	.00003074	.0000001537
.4009	303.15	.00003908	.0000001954
.4009	308.15	.00004889	.00000024445
.5007	278.15	.000003288	.00000001644
.5007	283.15	.000004373	.000000021865
.5007	288.15	.000005729	.000000028645
.5007	293.15	.000007505	.000000037525
.5007	298.15	.000009636	.00000004818
.5007	303.15	.00001262	.0000000631
.5007	308.15	.00001637	.00000008185
.6005	278.15	.0000007553	.0000000037765
.6005	283.15	.000001027	.000000005135
.6005	288.15	.000001385	.000000006925
.6005	293.15	.000001778	.00000000889
.6005	298.15	.000002353	.000000011765
.6005	303.15	.000003082	.00000001541
.6005	308.15	.000004078	.00000002039

System: water + cefpirome sulfate; phases: Liquid, Crystal
Property: Mole fraction of cefpirome sulfate (Liquid); method: Laser Observation
Temperature, K	Pressure, kPa	Mole fraction of cefpirome sulfate	uncertainty
278.15	101.3	.0002931	.0000014655
283.15	101.3	.0003667	.0000018335
288.15	101.3	.0004506	.000002253
293.15	101.3	.0005609	.0000028045
298.15	101.3	.0006844	.000003422
303.15	101.3	.0008301	.0000041505
308.15	101.3	.00102	.0000051
