Measured thermophysical data. Isobaric Vapor-Liquid Equilibria for Binary and Ternary Mixtures of Propanal, Propanol, and Propanoic Acid
Source: J. Chem. Eng. Data, 2010, 10.1021/je100912t
Compound 1: n-propionaldehyde, C3H6O
Compound 2: propan-1-ol, C3H8O
Compound 3: ethanecarboxylic acid, C3H6O2

System: n-propionaldehyde; phases: Liquid
Fixed: Pressure, kPa = 101.325
Property: Mass density, kg/m3 (Liquid); method: Pycnometric method
Temperature, K	Mass density, kg/m3	uncertainty
298.15	797.21	.01

System: n-propionaldehyde; phases: Liquid
Fixed: Pressure, kPa = 101.325
Property: Refractive index (Na D-line) (Liquid); method: Standard Abbe refractometry
Temperature, K	Refractive index (Na D-line)	uncertainty
298.15	1.3634	.0001

System: n-propionaldehyde; phases: Liquid, Gas
Property: Vapor or sublimation pressure, kPa (Liquid); method: Ebulliometric method (Recirculating still)
Temperature, K	Vapor or sublimation pressure, kPa	uncertainty
321.18	101.325	

System: propan-1-ol; phases: Liquid
Fixed: Pressure, kPa = 101.325
Property: Mass density, kg/m3 (Liquid); method: Pycnometric method
Temperature, K	Mass density, kg/m3	uncertainty
298.15	803.62	.01

System: propan-1-ol; phases: Liquid
Fixed: Pressure, kPa = 101.325
Property: Refractive index (Na D-line) (Liquid); method: Standard Abbe refractometry
Temperature, K	Refractive index (Na D-line)	uncertainty
298.15	1.3856	.0001

System: propan-1-ol; phases: Liquid, Gas
Property: Vapor or sublimation pressure, kPa (Liquid); method: Ebulliometric method (Recirculating still)
Temperature, K	Vapor or sublimation pressure, kPa	uncertainty
370.27	101.325	

System: ethanecarboxylic acid; phases: Liquid
Fixed: Pressure, kPa = 101.325
Property: Mass density, kg/m3 (Liquid); method: Pycnometric method
Temperature, K	Mass density, kg/m3	uncertainty
298.15	992.86	.01

System: ethanecarboxylic acid; phases: Liquid
Fixed: Pressure, kPa = 101.325
Property: Refractive index (Na D-line) (Liquid); method: Standard Abbe refractometry
Temperature, K	Refractive index (Na D-line)	uncertainty
298.15	1.3858	.0001

System: ethanecarboxylic acid; phases: Liquid, Gas
Property: Vapor or sublimation pressure, kPa (Liquid); method: Ebulliometric method (Recirculating still)
Temperature, K	Vapor or sublimation pressure, kPa	uncertainty
412.91	101.325	

System: propan-1-ol + n-propionaldehyde; phases: Liquid, Gas
Fixed: Pressure, kPa = 101.325
Property: Boiling temperature at pressure P, K (Liquid); method: Ebulliometric method (Recirculating still)
Mole fraction of n-propionaldehyde	Boiling temperature at pressure P, K	uncertainty
0	370.27	.1
.0399	367.65	.1
.08	364.4	.1
.1199	361.7	.1
.1599	359.08	.1
.1999	356.55	.1
.2399	354.1	.1
.2798	351.72	.1
.3198	349.43	.1
.3598	347.2	.1
.3998	345.11	.1
.4398	342.99	.1
.4799	340.99	.1
.5199	339.08	.1
.5602	337.23	.1
.6002	335.38	.1
.6402	333.77	.1
.6819	332.07	.1
.7201	330.58	.1
.7601	329.07	.1
.8001	327.63	.1
.8402	326.22	.1
.8801	324.89	.1
.9201	323.64	.1
.9601	322.35	.1
1	321.18	.1

System: ethanecarboxylic acid + n-propionaldehyde; phases: Liquid, Gas
Fixed: Pressure, kPa = 101.325
Property: Boiling temperature at pressure P, K (Liquid); method: Ebulliometric method (Recirculating still)
Mole fraction of n-propionaldehyde	Boiling temperature at pressure P, K	uncertainty
0	412.91	.1
.04	400.83	.1
.08	391.16	.1
.12	382.83	.1
.16	375.66	.1
.2	369.5	.1
.2396	364.22	.1
.28	359.51	.1
.32	355.4	.1
.3601	351.35	.1
.4001	348.46	.1
.44	345.53	.1
.4801	342.83	.1
.52	340.39	.1
.56	338.14	.1
.6	336.06	.1
.64	334.2	.1
.68	332.36	.1
.7201	331.07	.1
.7601	329.09	.1
.8001	327.6	.1
.84	326.2	.1
.88	324.86	.1
.9201	323.58	.1
.96	322.36	.1
1	321.18	.1
.0772	391.59	.1

System: propan-1-ol + ethanecarboxylic acid; phases: Liquid, Gas
Fixed: Pressure, kPa = 101.325
Property: Boiling temperature at pressure P, K (Liquid); method: Ebulliometric method (Recirculating still)
Mole fraction of propan-1-ol	Boiling temperature at pressure P, K	uncertainty
0	412.91	.1
.0399	408.17	.1
.0801	404.83	.1
.12	401.87	.1
.16	399.2	.1
.2	396.77	.1
.2399	394.54	.1
.2798	392.49	.1
.3199	390.58	.1
.3599	388.8	.1
.4	387.13	.1
.4399	385.6	.1
.48	384.1	.1
.52	382.72	.1
.56	381.35	.1
.6	380.16	.1
.64	378.98	.1
.68	377.86	.1
.7201	376.77	.1
.7601	375.74	.1
.8001	374.76	.1
.84	373.81	.1
.88	372.9	.1
.9201	372.03	.1
.9118	372.2	.1

System: propan-1-ol + ethanecarboxylic acid + n-propionaldehyde; phases: Liquid, Gas
Fixed: Pressure, kPa = 101.325
Property: Boiling temperature at pressure P, K (Liquid); method: Ebulliometric method (Recirculating still)
Mole fraction of n-propionaldehyde	Mole fraction of propan-1-ol	Boiling temperature at pressure P, K	uncertainty
.8686	.0914	325.11	.1
.8324	.0876	326.37	.1
.7962	.0838	327.68	.1
.76	.08	329.06	.1
.7238	.0762	330.5	.1
.6876	.0724	332.02	.1
.6515	.0685	333.63	.1
.6153	.0647	335.34	.1
.5601	.4012	337.06	.1
.5791	.0609	337.15	.1
.5429	.0571	339.1	.1
.4801	.4741	340.98	.1
.5067	.0533	341.18	.1
.4399	.5106	343.08	.1
.44	.5106	343.08	.1
.4705	.0495	343.42	.1
.4001	.5471	345.26	.1
.4343	.0457	345.86	.1
.3601	.5836	347.55	.1
.3981	.0419	348.51	.1
.3619	.0381	351.41	.1
.28	.6565	352.43	.1
.3257	.0343	354.61	.1
.24	.693	355.01	.1
.2895	.0305	358.16	.1
.1998	.7294	357.7	.1
.1599	.7659	360.45	.1
.2533	.0267	362.14	.1
.1201	.8024	363.28	.1
.0801	.8389	366.19	.1
.2172	.0228	366.62	.1
.04	.8753	369.17	.1
0	.9118	372.2	.1
.0185	.7601	373.77	.1
.0216	.72	374.39	.1
.0247	.6801	375.03	.1
.0278	.6399	375.7	.1
.0309	.5998	376.39	.1
.034	.5599	377.11	.1
.037	.5198	377.86	.1
.0401	.4801	378.62	.1
.0432	.4401	379.42	.1
.0463	.4001	380.26	.1
.0494	.3598	381.14	.1
.0525	.3199	382.05	.1
.0556	.2799	383.01	.1
.0587	.2398	384.02	.1
.0617	.2	385.1	.1
.0648	.1601	386.23	.1
.0679	.1199	387.44	.1
.071	.08	388.72	.1
.0741	.0399	390.1	.1
.0772	0	391.59	.1
