Measured thermophysical data. Solubilities of Cefepime Hydrochloride in Water + (Ethanol, 1-Propanol, or 2-Propanol) from (278.15 to 308.15) K
Source: J. Chem. Eng. Data, 2010, 10.1021/je100301p
Compound 1: cefepime dihydrochloride, C19H25ClN6O5S2, purity 99%
Compound 2: ethanol, C2H6O, purity 99.7%
Compound 3: propan-1-ol, C3H8O, purity 99.7%
Compound 4: 2-propanol, C3H8O, purity 99.7%
Compound 5: water, H2O

System: ethanol + water + cefepime dihydrochloride; phases: Liquid, Crystal
Fixed: Pressure, kPa = 101
Property: Mole fraction of cefepime dihydrochloride (Liquid); method: laser monitoring system
Solvent: Mole fraction of ethanol	Temperature, K	Mole fraction of cefepime dihydrochloride	uncertainty
0	278.15	.001221	.00002442
0	283.15	.00177	.0000354
0	288.15	.002526	.00005052
0	293.15	.003727	.00007454
0	298.15	.005293	.00010586
0	303.15	.007346	.00014692
0	308.15	.01027	.0002054
.1005	278.15	.001011	.00002022
.1005	283.15	.001466	.00002932
.1005	288.15	.002104	.00004208
.1005	293.15	.003114	.00006228
.1005	298.15	.004401	.00008802
.1005	303.15	.006207	.00012414
.1005	308.15	.008704	.00017408
.2003	278.15	.0008028	.000016056
.2003	283.15	.001185	.0000237
.2003	288.15	.001736	.00003472
.2003	293.15	.002521	.00005042
.2003	298.15	.003567	.00007134
.2003	303.15	.005022	.00010044
.2003	308.15	.007183	.00014366
.3006	278.15	.0006264	.000012528
.3006	283.15	.0009378	.000018756
.3006	288.15	.001369	.00002738
.3006	293.15	.001958	.00003916
.3006	298.15	.002831	.00005662
.3006	303.15	.004078	.00008156
.3006	308.15	.005747	.00011494
.3998	278.15	.0004646	.000009292
.3998	283.15	.0007025	.00001405
.3998	288.15	.001031	.00002062
.3998	293.15	.001508	.00003016
.3998	298.15	.002173	.00004346
.3998	303.15	.003064	.00006128
.3998	308.15	.004436	.00008872
.5	278.15	.0003195	.00000639
.5	283.15	.0004866	.000009732
.5	288.15	.0007144	.000014288
.5	293.15	.001048	.00002096
.5	298.15	.001529	.00003058
.5	303.15	.002166	.00004332
.5	308.15	.003142	.00006284
.6	278.15	.0001912	.000003824
.6	283.15	.0002916	.000005832
.6	288.15	.0004373	.000008746
.6	293.15	.0006423	.000012846
.6	298.15	.0009146	.000018292
.6	303.15	.001321	.00002642
.6	308.15	.001932	.00003864
.701	278.15	.00009422	.0000018844
.701	283.15	.000144	.00000288
.701	288.15	.0002161	.000004322
.701	293.15	.0003178	.000006356
.701	298.15	.0004606	.000009212
.701	303.15	.0006789	.000013578
.701	308.15	.000977	.00001954
.8014	278.15	.00002993	.0000005986
.8014	283.15	.00004	.0000008
.8014	288.15	.00007007	.0000014014
.8014	293.15	.0001052	.000002104
.8014	298.15	.0001556	.000003112
.8014	303.15	.000231	.00000462
.8014	308.15	.0003275	.00000655
.9011	278.15	.000006186	.00000012372
.9011	283.15	.000009616	.00000019232
.9011	288.15	.00001481	.0000002962
.9011	293.15	.00002232	.0000004464
.9011	298.15	.0000333	.000000666
.9011	303.15	.00004874	.0000009748
.9011	308.15	.00007035	.000001407

System: propan-1-ol + water + cefepime dihydrochloride; phases: Liquid, Crystal
Fixed: Pressure, kPa = 101
Property: Mole fraction of cefepime dihydrochloride (Liquid); method: laser monitoring system
Solvent: Mole fraction of propan-1-ol	Temperature, K	Mole fraction of cefepime dihydrochloride	uncertainty
0	278.15	.001221	.00002442
0	283.15	.00177	.0000354
0	288.15	.002526	.00005052
0	293.15	.003727	.00007454
0	298.15	.005293	.00010586
0	303.15	.007346	.00014692
0	308.15	.01027	.0002054
.1	278.15	.0006409	.000012818
.1	283.15	.0009481	.000018962
.1	288.15	.001363	.00002726
.1	293.15	.001967	.00003934
.1	298.15	.002803	.00005606
.1	303.15	.00393	.0000786
.1	308.15	.005533	.00011066
.2002	278.15	.0004368	.000008736
.2002	283.15	.0006523	.000013046
.2002	288.15	.0009519	.000019038
.2002	293.15	.001363	.00002726
.2002	298.15	.001948	.00003896
.2002	303.15	.002748	.00005496
.2002	308.15	.003887	.00007774
.3001	278.15	.0002922	.000005844
.3001	283.15	.0004364	.000008728
.3001	288.15	.0006318	.000012636
.3001	293.15	.0009101	.000018202
.3001	298.15	.001299	.00002598
.3001	303.15	.001868	.00003736
.3001	308.15	.002629	.00005258
.4007	278.15	.0001857	.000003714
.4007	283.15	.0002794	.000005588
.4007	288.15	.0004122	.000008244
.4007	293.15	.0005914	.000011828
.4007	298.15	.0008485	.00001697
.4007	303.15	.001193	.00002386
.4007	308.15	.001731	.00003462
.5001	278.15	.0001137	.000002274
.5001	283.15	.0001732	.000003464
.5001	288.15	.0002485	.00000497
.5001	293.15	.0003682	.000007364
.5001	298.15	.0005335	.00001067
.5001	303.15	.0007571	.000015142
.5001	308.15	.001087	.00002174
.6009	278.15	.00005315	.000001063
.6009	283.15	.00008125	.000001625
.6009	288.15	.0001194	.000002388
.6009	293.15	.0001739	.000003478
.6009	298.15	.000249	.00000498
.6009	303.15	.0003587	.000007174
.6009	308.15	.0005193	.000010386
.7009	278.15	.00001834	.0000003668
.7009	283.15	.00002781	.0000005562
.7009	288.15	.00004067	.0000008134
.7009	293.15	.0000608	.000001216
.7009	298.15	.00008775	.000001755
.7009	303.15	.000127	.00000254
.7009	308.15	.0001828	.000003656
.8005	278.15	.000005449	.00000010898
.8005	283.15	.000008294	.00000016588
.8005	288.15	.0000125	.00000025
.8005	293.15	.00001864	.0000003728
.8005	298.15	.00002699	.0000005398
.8005	303.15	.00003908	.0000007816
.8005	308.15	.00005657	.0000011314
.8998	278.15	.000001569	.00000003138
.8998	283.15	.000002424	.00000004848
.8998	288.15	.000003617	.00000007234
.8998	293.15	.000005362	.00000010724
.8998	298.15	.000007743	.00000015486
.8998	303.15	.00001147	.0000002294
.8998	308.15	.00001654	.0000003308

System: 2-propanol + water + cefepime dihydrochloride; phases: Liquid, Crystal
Fixed: Pressure, kPa = 101
Property: Mole fraction of cefepime dihydrochloride (Liquid); method: laser monitoring system
Solvent: Mole fraction of 2-propanol	Temperature, K	Mole fraction of cefepime dihydrochloride	uncertainty
0	278.15	.001221	.00002442
0	283.15	.00177	.0000354
0	288.15	.002526	.00005052
0	293.15	.003727	.00007454
0	298.15	.005293	.00010586
0	303.15	.007346	.00014692
0	308.15	.01027	.0002054
.1008	278.15	.0006204	.000012408
.1008	283.15	.0009146	.000018292
.1008	288.15	.001322	.00002644
.1008	293.15	.001923	.00003846
.1008	298.15	.002709	.00005418
.1008	303.15	.003769	.00007538
.1008	308.15	.005359	.00010718
.202	278.15	.0003854	.000007708
.202	283.15	.0005788	.000011576
.202	288.15	.0008522	.000017044
.202	293.15	.001234	.00002468
.202	298.15	.001765	.0000353
.202	303.15	.002495	.0000499
.202	308.15	.003488	.00006976
.2987	278.15	.0002548	.000005096
.2987	283.15	.0003861	.000007722
.2987	288.15	.0005751	.000011502
.2987	293.15	.0008276	.000016552
.2987	298.15	.001177	.00002354
.2987	303.15	.001687	.00003374
.2987	308.15	.002365	.0000473
.3999	278.15	.0001642	.000003284
.3999	283.15	.0002538	.000005076
.3999	288.15	.0003711	.000007422
.3999	293.15	.000541	.00001082
.3999	298.15	.0007755	.00001551
.3999	303.15	.001097	.00002194
.3999	308.15	.001565	.0000313
.4987	278.15	.0001052	.000002104
.4987	283.15	.0001602	.000003204
.4987	288.15	.0002362	.000004724
.4987	293.15	.0003416	.000006832
.4987	298.15	.0004886	.000009772
.4987	303.15	.0006947	.000013894
.4987	308.15	.001003	.00002006
.5992	278.15	.00004858	.0000009716
.5992	283.15	.00007389	.0000014778
.5992	288.15	.0001098	.000002196
.5992	293.15	.0001623	.000003246
.5992	298.15	.0002357	.000004714
.5992	303.15	.0003348	.000006696
.5992	308.15	.0004803	.000009606
.6993	278.15	.00001658	.0000003316
.6993	283.15	.00002593	.0000005186
.6993	288.15	.00003869	.0000007738
.6993	293.15	.00005691	.0000011382
.6993	298.15	.00008397	.0000016794
.6993	303.15	.0001206	.000002412
.6993	308.15	.0001717	.000003434
.7969	278.15	.000004652	.00000009304
.7969	283.15	.00000721	.0000001442
.7969	288.15	.00001086	.0000002172
.7969	293.15	.00001589	.0000003178
.7969	298.15	.00002347	.0000004694
.7969	303.15	.00003397	.0000006794
.7969	308.15	.00004859	.0000009718
.9001	278.15	.000001425	.0000000285
.9001	283.15	.000002238	.00000004476
.9001	288.15	.000003406	.00000006812
.9001	293.15	.000004931	.00000009862
.9001	298.15	.00000721	.0000001442
.9001	303.15	.00001065	.000000213
.9001	308.15	.00001526	.0000003052

System: water + cefepime dihydrochloride; phases: Liquid, Crystal
Property: Mole fraction of cefepime dihydrochloride (Liquid); method: laser monitoring system
Temperature, K	Pressure, kPa	Mole fraction of cefepime dihydrochloride	uncertainty
278.15	101	.001221	.00002442
283.15	101	.00177	.0000354
288.15	101	.002526	.00005052
293.15	101	.003727	.00007454
298.15	101	.005293	.00010586
303.15	101	.007346	.00014692
308.15	101	.01027	.0002054
