Measured thermophysical data. Volumetric Properties of Some a,w-Aminocarboxylic Acids in Aqueous Sodium Acetate and Magnesium Acetate Solutions at T = (288.15 to 318.15) K
Source: J. Chem. Eng. Data, 2010, 10.1021/je100476h
Compound 1: acetic acid, sodium salt, C2H3NaO2, purity 98%
Compound 2: magnesium acetate, C2H4Mg0.5O2, purity 98%
Compound 3: glycine, C2H5NO2, purity 99%
Compound 4: 4-aminobutyric acid, C4H9NO2, purity 99%
Compound 5: 6-aminohexanoic acid, C6H13NO2, purity 99%
Compound 6: water, H2O

System: glycine + water; phases: Liquid
Fixed: Pressure, kPa = 101
Property: Mass density, kg/m3 (Liquid); method: Vibrating tube method
Temperature, K	Molality, mol/kg of glycine	Mass density, kg/m3	uncertainty
288.15	.1429	1003.762	
288.15	.27091	1007.854	
288.15	.38117	1011.334	
288.15	.41023	1012.232	
288.15	.48013	1014.396	
288.15	.57315	1017.272	
298.15	.1429	1001.557	
298.15	.27091	1005.539	
298.15	.38117	1008.928	
298.15	.41023	1009.802	
298.15	.48013	1011.917	
298.15	.57315	1014.71	
308.15	.1429	998.477	
308.15	.27091	1002.401	
308.15	.38117	1005.733	
308.15	.41023	1006.593	
308.15	.48013	1008.665	
308.15	.57315	1011.414	
318.15	.1429	994.636	
318.15	.27091	998.503	
318.15	.38117	1001.794	
318.15	.41023	1002.635	
318.15	.48013	1004.67	
318.15	.57315	1007.374	

System: acetic acid, sodium salt + water; phases: Liquid
Fixed: Pressure, kPa = 101
Property: Mass density, kg/m3 (Liquid); method: Vibrating tube method
Temperature, K	Molality, mol/kg of acetic acid, sodium salt	Mass density, kg/m3	uncertainty
288.15	0	999.129	
288.15	.1	1003.458	
288.15	.25	1009.6	
288.15	.5	1019.378	
288.15	1	1037.22	
298.15	0	997.047	
298.15	.1	1001.312	
298.15	.25	1007.387	
298.15	.5	1017.068	
298.15	1	1034.76	
308.15	0	994.063	
308.15	.1	998.243	
308.15	.25	1004.268	
308.15	.5	1013.888	
308.15	1	1031.54	
318.15	0	990.244	
318.15	.1	994.384	
318.15	.25	1000.347	
318.15	.5	1009.85	
318.15	1	1027.23	

System: magnesium acetate + water; phases: Liquid
Fixed: Pressure, kPa = 101
Property: Mass density, kg/m3 (Liquid); method: Vibrating tube method
Temperature, K	Molality, mol/kg of magnesium acetate	Mass density, kg/m3	uncertainty
288.15	.1	1007.015	
288.15	.25	1018.199	
288.15	.5	1035.44	
288.15	1	1064.68	
298.15	.1	1004.898	
298.15	.25	1016.051	
298.15	.5	1033.147	
298.15	1	1061.743	
308.15	.1	1001.842	
308.15	.25	1012.893	
308.15	.5	1030.053	
308.15	1	1059.65	
318.15	.1	998.062	
318.15	.25	1009.151	
318.15	.5	1026.24	
318.15	1	1055.19	

System: 4-aminobutyric acid + water; phases: Liquid
Fixed: Pressure, kPa = 101
Property: Mass density, kg/m3 (Liquid); method: Vibrating tube method
Temperature, K	Molality, mol/kg of 4-aminobutyric acid	Mass density, kg/m3	uncertainty
288.15	.04607	1000.545	
288.15	.09549	1002.049	
288.15	.11554	1002.652	
288.15	.18823	1004.829	
288.15	.16518	1004.133	
288.15	.22768	1005.987	
298.15	.04607	998.428	
298.15	.09549	999.894	
298.15	.11554	1000.482	
298.15	.18823	1002.606	
298.15	.16518	1001.928	
298.15	.22768	1003.732	
308.15	.04607	995.406	
308.15	.09549	996.864	
308.15	.11554	997.447	
308.15	.18823	999.542	
308.15	.16518	998.889	
308.15	.22768	1000.665	
318.15	.04607	991.616	
318.15	.09549	993.071	
318.15	.11554	993.654	
318.15	.18823	995.747	
318.15	.16518	995.086	
318.15	.22768	996.868	

System: 6-aminohexanoic acid + water; phases: Liquid
Fixed: Pressure, kPa = 101
Property: Mass density, kg/m3 (Liquid); method: Vibrating tube method
Temperature, K	Molality, mol/kg of 6-aminohexanoic acid	Mass density, kg/m3	uncertainty
288.15	.05814	1000.758	
288.15	.09073	1001.657	
288.15	.17976	1004.088	
288.15	.19453	1004.479	
288.15	.26701	1006.409	
288.15	.35223	1008.641	
298.15	.05814	998.622	
298.15	.09073	999.493	
298.15	.17976	1001.843	
298.15	.19453	1002.219	
298.15	.26701	1004.082	
298.15	.35223	1006.234	
308.15	.05814	995.592	
308.15	.09073	996.454	
308.15	.17976	998.775	
308.15	.19453	999.147	
308.15	.26701	1000.989	
308.15	.35223	1003.12	
318.15	.05814	991.793	
318.15	.09073	992.649	
318.15	.17976	994.956	
318.15	.19453	995.328	
318.15	.26701	997.158	
318.15	.35223	999.27	

System: glycine + acetic acid, sodium salt + water; phases: Liquid
Fixed: Pressure, kPa = 101
Property: Mass density, kg/m3 (Liquid); method: Vibrating tube method
Temperature, K	Molality, mol/kg of acetic acid, sodium salt	Molality, mol/kg of glycine	Mass density, kg/m3	uncertainty
288.15	.1	.10023	1006.662	
288.15	.1	.14254	1008.003	
288.15	.1	.23015	1010.762	
288.15	.1	.33025	1013.885	
288.15	.1	.46002	1017.888	
288.15	.1	.61257	1022.513	
288.15	.25	.11256	1013.15	
288.15	.25	.16024	1014.639	
288.15	.25	.32568	1019.758	
288.15	.25	.39851	1021.979	
288.15	.25	.54216	1026.326	
288.15	.25	.70236	1031.093	
288.15	.5	.10452	1022.604	
288.15	.5	.2537	1027.152	
288.15	.5	.31256	1028.921	
288.15	.5	.43562	1032.593	
288.15	.5	.47256	1033.676	
288.15	.5	.57264	1036.611	
288.15	1	.11256	1040.548	
288.15	1	.21456	1043.525	
288.15	1	.35215	1047.495	
288.15	1	.41256	1049.22	
288.15	1	.48725	1051.324	
288.15	1	.57124	1053.668	
298.15	.1	.10681	1004.6	
298.15	.1	.15911	1006.196	
298.15	.1	.26101	1009.278	
298.15	.1	.3615	1012.293	
298.15	.1	.46417	1015.335	
298.15	.1	.6464	1020.668	
298.15	.25	.10543	1010.576	
298.15	.25	.16648	1012.404	
298.15	.25	.34275	1017.626	
298.15	.25	.38864	1018.969	
298.15	.25	.56075	1023.961	
298.15	.25	.71964	1028.488	
298.15	.5	.10327	1020.107	
298.15	.5	.24626	1024.262	
298.15	.5	.34658	1027.143	
298.15	.5	.42567	1029.389	
298.15	.5	.43257	1029.571	
298.15	.5	.56986	1033.427	
298.15	1	.12347	1038.207	
298.15	1	.23466	1041.274	
298.15	1	.34215	1044.203	
298.15	1	.40246	1045.827	
298.15	1	.49653	1048.338	
298.15	1	.56853	1050.726	
308.15	.1	.10681	1001.431	
308.15	.1	.15911	1002.977	
308.15	.1	.26101	1005.969	
308.15	.1	.3615	1008.884	
308.15	.1	.46417	1011.836	
308.15	.1	.6464	1016.995	
308.15	.25	.10543	1007.341	
308.15	.25	.16648	1009.104	
308.15	.25	.34275	1014.131	
308.15	.25	.38864	1015.42	
308.15	.25	.56075	1020.218	
308.15	.25	.71964	1024.572	
308.15	.5	.10327	1016.828	
308.15	.5	.24626	1020.848	
308.15	.5	.34658	1023.624	
308.15	.5	.42567	1025.798	
308.15	.5	.43257	1025.978	
308.15	.5	.56986	1029.698	
308.15	1	.12347	1034.817	
308.15	1	.23466	1037.73	
308.15	1	.34215	1040.514	
308.15	1	.40246	1042.057	
308.15	1	.49653	1044.441	
308.15	1	.56853	1046.695	
318.15	.1	.10681	997.842	
318.15	.1	.15911	998.984	
318.15	.1	.26101	1001.891	
318.15	.1	.3615	1004.72	
318.15	.1	.46417	1007.58	
318.15	.1	.6464	1012.586	
318.15	.25	.10543	1003.327	
318.15	.25	.16648	1005.034	
318.15	.25	.34275	1009.912	
318.15	.25	.38864	1011.162	
318.15	.25	.56075	1015.812	
318.15	.25	.71964	1020.024	
318.15	.5	.10327	1012.682	
318.15	.5	.24626	1016.554	
318.15	.5	.34658	1019.23	
318.15	.5	.42567	1021.319	
318.15	.5	.43257	1021.492	
318.15	.5	.56986	1025.072	
318.15	1	.12347	1030.417	
318.15	1	.23466	1033.248	
318.15	1	.34215	1035.956	
318.15	1	.40246	1037.459	
318.15	1	.49653	1039.782	
318.15	1	.56853	1041.974	

System: 4-aminobutyric acid + acetic acid, sodium salt + water; phases: Liquid
Fixed: Pressure, kPa = 101
Property: Mass density, kg/m3 (Liquid); method: Vibrating tube method
Temperature, K	Molality, mol/kg of acetic acid, sodium salt	Molality, mol/kg of 4-aminobutyric acid	Mass density, kg/m3	uncertainty
288.15	.1	.03426	1004.474	
288.15	.1	.08216	1005.885	
288.15	.1	.11254	1006.772	
288.15	.1	.13526	1007.429	
288.15	.1	.19254	1009.079	
288.15	.1	.27154	1011.332	
288.15	.25	.04023	1010.76	
288.15	.25	.05631	1011.22	
288.15	.25	.10235	1012.532	
288.15	.25	.16523	1014.305	
288.15	.25	.20156	1015.318	
288.15	.25	.24827	1017.604	
288.15	.5	.06582	1021.198	
288.15	.5	.11256	1022.477	
288.15	.5	.21536	1025.255	
288.15	.5	.26541	1026.586	
288.15	.5	.29359	1027.328	
288.15	.5	.32156	1028.058	
288.15	1	.04256	1038.319	
288.15	1	.08264	1039.343	
288.15	1	.12658	1040.458	
288.15	1	.20146	1042.337	
288.15	1	.23514	1043.169	
288.15	1	.27136	1044.058	
298.15	.1	.03913	1002.422	
298.15	.1	.08697	1003.767	
298.15	.1	.1111	1004.44	
298.15	.1	.14391	1005.351	
298.15	.1	.21453	1007.296	
298.15	.1	.25557	1008.414	
298.15	.25	.04144	1008.522	
298.15	.25	.05813	1008.975	
298.15	.25	.11702	1010.567	
298.15	.25	.17698	1012.169	
298.15	.25	.21995	1013.307	
298.15	.25	.25327	1014.177	
298.15	.5	.07609	1019.041	
298.15	.5	.14399	1020.78	
298.15	.5	.20453	1022.314	
298.15	.5	.24827	1023.41	
298.15	.5	.28323	1024.281	
298.15	.5	.31251	1025.003	
298.15	1	.04354	1035.809	
298.15	1	.09752	1037.098	
298.15	1	.14654	1038.255	
298.15	1	.1987	1039.476	
298.15	1	.21436	1039.839	
298.15	1	.24657	1040.582	
308.15	.1	.03913	999.33	
308.15	.1	.08697	1000.648	
308.15	.1	.1111	1001.307	
308.15	.1	.14391	1002.201	
308.15	.1	.21453	1004.104	
308.15	.1	.25557	1005.197	
308.15	.25	.04144	1005.366	
308.15	.25	.05813	1005.805	
308.15	.25	.11702	1007.346	
308.15	.25	.17698	1008.898	
308.15	.25	.21995	1009.999	
308.15	.25	.25327	1010.843	
308.15	.5	.07609	1015.788	
308.15	.5	.14399	1017.462	
308.15	.5	.20453	1018.937	
308.15	.5	.24827	1019.993	
308.15	.5	.28323	1020.829	
308.15	.5	.31251	1021.523	
308.15	1	.04354	1032.567	
308.15	1	.09752	1033.83	
308.15	1	.14654	1034.964	
308.15	1	.1987	1036.16	
308.15	1	.21436	1036.513	
308.15	1	.24657	1037.243	
318.15	.1	.03913	995.45	
318.15	.1	.08697	996.742	
318.15	.1	.1111	997.387	
318.15	.1	.14391	998.262	
318.15	.1	.21453	1000.129	
318.15	.1	.25557	1001.202	
318.15	.25	.04144	1001.421	
318.15	.25	.05813	1001.85	
318.15	.25	.11702	1003.358	
318.15	.25	.17698	1004.876	
318.15	.25	.21995	1005.951	
318.15	.25	.25327	1006.779	
318.15	.5	.07609	1011.722	
318.15	.5	.14399	1013.373	
318.15	.5	.20453	1014.829	
318.15	.5	.24827	1015.868	
318.15	.5	.28323	1016.692	
318.15	.5	.31251	1017.369	
318.15	1	.04354	1028.23	
318.15	1	.09752	1029.459	
318.15	1	.14654	1030.563	
318.15	1	.1987	1031.728	
318.15	1	.21436	1032.072	
318.15	1	.24657	1032.778	

System: 6-aminohexanoic acid + acetic acid, sodium salt + water; phases: Liquid
Fixed: Pressure, kPa = 101
Property: Mass density, kg/m3 (Liquid); method: Vibrating tube method
Temperature, K	Molality, mol/kg of acetic acid, sodium salt	Molality, mol/kg of 6-aminohexanoic acid	Mass density, kg/m3	uncertainty
288.15	.1	.03013	1004.246	
288.15	.1	.07259	1005.345	
288.15	.1	.15624	1007.482	
288.15	.1	.21305	1008.909	
288.15	.1	.25861	1010.036	
288.15	.1	.29532	1010.927	
288.15	.25	.06002	1011.101	
288.15	.25	.14653	1013.228	
288.15	.25	.19315	1014.354	
288.15	.25	.25631	1015.86	
288.15	.25	.32105	1017.379	
288.15	.25	.37817	1018.694	
288.15	.5	.03521	1020.199	
288.15	.5	.09852	1021.657	
288.15	.5	.12541	1022.26	
288.15	.5	.17259	1023.328	
288.15	.5	.21035	1024.169	
288.15	.5	.27156	1025.517	
288.15	1	.05236	1038.309	
288.15	1	.09254	1039.134	
288.15	1	.11256	1039.539	
288.15	1	.17259	1040.747	
288.15	1	.20146	1041.32	
288.15	1	.25366	1042.348	
298.15	.1	.03465	1002.168	
298.15	.1	.08653	1003.435	
298.15	.1	.14356	1004.812	
298.15	.1	.19456	1006.026	
298.15	.1	.23136	1006.89	
298.15	.1	.27235	1007.845	
298.15	.25	.06149	1008.814	
298.15	.25	.14812	1010.79	
298.15	.25	.18391	1011.594	
298.15	.25	.24274	1012.9	
298.15	.25	.30821	1014.333	
298.15	.25	.35586	1015.357	
298.15	.5	.03466	1017.817	
298.15	.5	.08653	1018.925	
298.15	.5	.12465	1019.731	
298.15	.5	.15478	1020.361	
298.15	.5	.19565	1021.207	
298.15	.5	.24354	1022.188	
298.15	1	.04326	1035.574	
298.15	1	.07659	1036.194	
298.15	1	.10462	1036.712	
298.15	1	.15623	1037.655	
298.15	1	.18643	1038.199	
298.15	1	.23326	1039.034	
308.15	.1	.03465	999.065	
308.15	.1	.08653	1000.282	
308.15	.1	.14356	1001.602	
308.15	.1	.19456	1002.767	
308.15	.1	.23136	1003.597	
308.15	.1	.27235	1004.513	
308.15	.25	.06149	1005.639	
308.15	.25	.14812	1007.538	
308.15	.25	.18391	1008.311	
308.15	.25	.24274	1009.566	
308.15	.25	.30821	1010.942	
308.15	.25	.35586	1011.932	
308.15	.5	.03466	1014.608	
308.15	.5	.08653	1015.674	
308.15	.5	.12465	1016.448	
308.15	.5	.15478	1017.053	
308.15	.5	.19565	1017.867	
308.15	.5	.24354	1018.81	
308.15	1	.04326	1032.331	
308.15	1	.07659	1032.934	
308.15	1	.10462	1033.437	
308.15	1	.15623	1034.353	
308.15	1	.18643	1034.879	
308.15	1	.23326	1035.689	
318.15	.1	.03465	995.189	
318.15	.1	.08653	996.382	
318.15	.1	.14356	997.678	
318.15	.1	.19456	998.82	
318.15	.1	.23136	999.634	
318.15	.1	.27235	1000.532	
318.15	.25	.06149	1001.678	
318.15	.25	.14812	1003.522	
318.15	.25	.18391	1004.272	
318.15	.25	.24274	1005.49	
318.15	.25	.30821	1006.826	
318.15	.25	.35586	1007.783	
318.15	.5	.03466	1010.549	
318.15	.5	.08653	1011.583	
318.15	.5	.12465	1012.334	
318.15	.5	.15478	1012.921	
318.15	.5	.19565	1013.711	
318.15	.5	.24354	1014.626	
318.15	1	.04326	1027.99	
318.15	1	.07659	1028.569	
318.15	1	.10462	1029.052	
318.15	1	.15623	1029.932	
318.15	1	.18643	1030.44	
318.15	1	.23326	1031.22	

System: glycine + magnesium acetate + water; phases: Liquid
Fixed: Pressure, kPa = 101
Property: Mass density, kg/m3 (Liquid); method: Vibrating tube method
Temperature, K	Molality, mol/kg of magnesium acetate	Molality, mol/kg of glycine	Mass density, kg/m3	uncertainty
288.15	.1	.15632	1011.922	
288.15	.1	.15324	1011.825	
288.15	.1	.25142	1014.867	
288.15	.1	.34625	1017.778	
288.15	.1	.43652	1020.523	
288.15	.1	.52145	1023.076	
288.15	.25	.09214	1021.069	
288.15	.25	.15246	1022.932	
288.15	.25	.33514	1028.514	
288.15	.25	.38241	1029.94	
288.15	.25	.45215	1032.021	
288.15	.25	.57214	1035.58	
288.15	.5	.10542	1038.615	
288.15	.5	.21456	1041.866	
288.15	.5	.32564	1045.137	
288.15	.5	.40352	1047.41	
288.15	.5	.47215	1049.393	
288.15	.5	.52364	1050.862	
288.15	1	.10125	1067.58	
288.15	1	.20425	1070.499	
288.15	1	.29588	1073.066	
288.15	1	.36352	1074.938	
288.15	1	.46253	1077.661	
288.15	1	.53214	1079.554	
298.15	.1	.1143	1008.352	
298.15	.1	.16438	1009.85	
298.15	.1	.24329	1012.199	
298.15	.1	.33437	1014.886	
298.15	.1	.42686	1017.584	
298.15	.1	.5435	1020.951	
298.15	.25	.09463	1018.854	
298.15	.25	.17653	1021.256	
298.15	.25	.32466	1025.557	
298.15	.25	.39456	1027.559	
298.15	.25	.46533	1029.566	
298.15	.25	.56436	1032.352	
298.15	.5	.10036	1036.018	
298.15	.5	.22488	1039.539	
298.15	.5	.33469	1042.608	
298.15	.5	.41113	1044.719	
298.15	.5	.46236	1046.115	
298.15	.5	.51309	1047.493	
298.15	1	.10069	1064.451	
298.15	1	.2147	1067.48	
298.15	1	.30226	1069.778	
298.15	1	.38656	1071.972	
298.15	1	.45624	1073.765	
298.15	1	.52478	1075.508	
308.15	.1	.1143	1005.204	
308.15	.1	.16438	1006.665	
308.15	.1	.24329	1008.95	
308.15	.1	.33437	1011.564	
308.15	.1	.42686	1014.194	
308.15	.1	.5435	1017.471	
308.15	.25	.09463	1015.614	
308.15	.25	.17653	1017.945	
308.15	.25	.32466	1022.115	
308.15	.25	.39456	1024.052	
308.15	.25	.46533	1025.997	
308.15	.25	.56436	1028.703	
308.15	.5	.10036	1032.833	
308.15	.5	.22488	1036.24	
308.15	.5	.33469	1039.202	
308.15	.5	.41113	1041.243	
308.15	.5	.46236	1042.592	
308.15	.5	.51309	1043.913	
308.15	1	.10069	1062.248	
308.15	1	.2147	1065.153	
308.15	1	.30226	1067.36	
308.15	1	.38656	1069.456	
308.15	1	.45624	1071.174	
308.15	1	.52478	1072.837	
318.15	.1	.1143	1001.338	
318.15	.1	.16438	1002.759	
318.15	.1	.24329	1004.987	
318.15	.1	.33437	1007.533	
318.15	.1	.42686	1010.09	
318.15	.1	.5435	1013.28	
318.15	.25	.09463	1011.771	
318.15	.25	.17653	1014.016	
318.15	.25	.32466	1018.027	
318.15	.25	.39456	1019.89	
318.15	.25	.46533	1021.766	
318.15	.25	.56436	1024.363	
318.15	.5	.10036	1028.912	
318.15	.5	.22488	1032.183	
318.15	.5	.33469	1035.031	
318.15	.5	.41113	1036.991	
318.15	.5	.46236	1038.286	
318.15	.5	.51309	1039.56	
318.15	1	.10069	1057.694	
318.15	1	.2147	1060.492	
318.15	1	.30226	1062.614	
318.15	1	.38656	1064.636	
318.15	1	.45624	1066.29	
318.15	1	.52478	1067.896	

System: 4-aminobutyric acid + magnesium acetate + water; phases: Liquid
Fixed: Pressure, kPa = 101
Property: Mass density, kg/m3 (Liquid); method: Vibrating tube method
Temperature, K	Molality, mol/kg of magnesium acetate	Molality, mol/kg of 4-aminobutyric acid	Mass density, kg/m3	uncertainty
288.15	.1	.04425	1008.295	
288.15	.1	.09246	1009.678	
288.15	.1	.13256	1010.82	
288.15	.1	.18245	1012.227	
288.15	.1	.23652	1013.74	
288.15	.1	.29352	1015.317	
288.15	.25	.05123	1019.64	
288.15	.25	.09241	1020.788	
288.15	.25	.15245	1022.447	
288.15	.25	.18325	1023.292	
288.15	.25	.23524	1024.704	
288.15	.25	.28315	1025.993	
288.15	.5	.06215	1037.09	
288.15	.5	.10234	1038.146	
288.15	.5	.15324	1039.475	
288.15	.5	.20145	1040.719	
288.15	.5	.27145	1042.506	
288.15	.5	.35214	1044.54	
288.15	1	.05314	1065.951	
288.15	1	.09125	1066.852	
288.15	1	.15246	1068.29	
288.15	1	.18324	1069.004	
288.15	1	.27145	1071.032	
288.15	1	.34125	1072.611	
298.15	.1	.04568	1006.174	
298.15	.1	.0993	1007.658	
298.15	.1	.14327	1008.865	
298.15	.1	.19553	1010.288	
298.15	.1	.22335	1011.037	
298.15	.1	.2834	1012.642	
298.15	.25	.05306	1017.46	
298.15	.25	.09643	1018.602	
298.15	.25	.14358	1019.832	
298.15	.25	.19862	1021.258	
298.15	.25	.22349	1021.89	
298.15	.25	.29962	1023.825	
298.15	.5	.06343	1034.686	
298.15	.5	.11356	1035.889	
298.15	.5	.16899	1037.205	
298.15	.5	.2248	1038.25	
298.15	.5	.28735	1039.882	
298.15	.5	.36512	1041.756	
298.15	1	.05433	1062.941	
298.15	1	.09832	1063.902	
298.15	1	.13348	1064.664	
298.15	1	.1832	1065.732	
298.15	1	.22004	1066.515	
298.15	1	.26479	1067.458	
308.15	.1	.04568	1003.09	
308.15	.1	.0993	1004.542	
308.15	.1	.14327	1005.721	
308.15	.1	.19553	1007.11	
308.15	.1	.22335	1007.842	
308.15	.1	.2834	1009.413	
308.15	.25	.05306	1014.247	
308.15	.25	.09643	1015.344	
308.15	.25	.14358	1016.527	
308.15	.25	.19862	1017.893	
308.15	.25	.22349	1018.504	
308.15	.25	.29962	1020.363	
308.15	.5	.06343	1031.551	
308.15	.5	.11356	1032.722	
308.15	.5	.16899	1034.002	
308.15	.5	.2248	1035.278	
308.15	.5	.28735	1036.603	
308.15	.5	.36512	1038.424	
308.15	1	.05433	1060.803	
308.15	1	.09832	1061.727	
308.15	1	.13348	1062.459	
308.15	1	.1832	1063.483	
308.15	1	.22004	1064.235	
308.15	1	.26479	1065.144	
318.15	.1	.04568	999.29	
318.15	.1	.0993	1000.72	
318.15	.1	.14327	1001.881	
318.15	.1	.19553	1003.248	
318.15	.1	.22335	1003.969	
318.15	.1	.2834	1005.518	
318.15	.25	.05306	1010.48	
318.15	.25	.09643	1011.553	
318.15	.25	.14358	1012.712	
318.15	.25	.19862	1014.05	
318.15	.25	.22349	1014.646	
318.15	.25	.29962	1016.465	
318.15	.5	.06343	1027.702	
318.15	.5	.11356	1028.844	
318.15	.5	.16899	1030.095	
318.15	.5	.2248	1031.343	
318.15	.5	.28735	1032.636	
318.15	.5	.36512	1034.418	
318.15	1	.05433	1056.316	
318.15	1	.09832	1057.217	
318.15	1	.13348	1057.931	
318.15	1	.1832	1058.932	
318.15	1	.22004	1059.667	
318.15	1	.26479	1060.552	

System: 6-aminohexanoic acid + magnesium acetate + water; phases: Liquid
Fixed: Pressure, kPa = 101
Property: Mass density, kg/m3 (Liquid); method: Vibrating tube method
Temperature, K	Molality, mol/kg of magnesium acetate	Molality, mol/kg of 6-aminohexanoic acid	Mass density, kg/m3	uncertainty
288.15	.1	.04125	1008.072	
288.15	.1	.08514	1009.185	
288.15	.1	.15262	1010.874	
288.15	.1	.21456	1012.401	
288.15	.1	.25417	1013.362	
288.15	.1	.30142	1014.496	
288.15	.25	.05432	1019.499	
288.15	.25	.13251	1021.339	
288.15	.25	.18635	1022.586	
288.15	.25	.24635	1023.96	
288.15	.25	.32152	1025.649	
288.15	.25	.37145	1026.751	
288.15	.5	.05682	1036.662	
288.15	.5	.09142	1037.396	
288.15	.5	.15324	1038.695	
288.15	.5	.19354	1039.53	
288.15	.5	.23586	1040.396	
288.15	.5	.27468	1041.179	
288.15	1	.05286	1065.626	
288.15	1	.08756	1066.238	
288.15	1	.13658	1067.093	
288.15	1	.19852	1068.161	
288.15	1	.26541	1069.29	
288.15	1	.29358	1069.754	
298.15	.1	.04325	1005.936	
298.15	.1	.08787	1006.995	
298.15	.1	.16325	1008.759	
298.15	.1	.20358	1009.688	
298.15	.1	.24524	1010.639	
298.15	.1	.29863	1011.841	
298.15	.25	.05543	1017.273	
298.15	.25	.12469	1018.776	
298.15	.25	.19842	1020.351	
298.15	.25	.258	1021.601	
298.15	.25	.31041	1022.683	
298.15	.25	.36432	1023.779	
298.15	.5	.05532	1034.236	
298.15	.5	.09465	1034.999	
298.15	.5	.13465	1035.769	
298.15	.5	.18694	1036.763	
298.15	.5	.22547	1037.483	
298.15	.5	.26024	1038.124	
298.15	1	.05536	1062.627	
298.15	1	.08963	1063.167	
298.15	1	.12864	1063.776	
298.15	1	.18644	1064.664	
298.15	1	.24327	1065.522	
298.15	1	.28965	1066.213	
308.15	.1	.04325	1002.841	
308.15	.1	.08787	1003.859	
308.15	.1	.16325	1005.558	
308.15	.1	.20358	1006.452	
308.15	.1	.24524	1007.364	
308.15	.1	.29863	1008.52	
308.15	.25	.05543	1014.056	
308.15	.25	.12469	1015.486	
308.15	.25	.19842	1016.983	
308.15	.25	.258	1018.172	
308.15	.25	.31041	1019.199	
308.15	.25	.36432	1020.241	
308.15	.5	.05532	1031.074	
308.15	.5	.09465	1031.79	
308.15	.5	.13465	1032.498	
308.15	.5	.18694	1033.423	
308.15	.5	.22547	1034.098	
308.15	.5	.26024	1034.699	
308.15	1	.05536	1060.475	
308.15	1	.08963	1060.978	
308.15	1	.12864	1061.543	
308.15	1	.18644	1062.372	
308.15	1	.24327	1063.17	
308.15	1	.28965	1063.81	
318.15	.1	.04325	999.037	
318.15	.1	.08787	1000.031	
318.15	.1	.16325	1001.69	
318.15	.1	.20358	1002.563	
318.15	.1	.24524	1003.453	
318.15	.1	.29863	1004.581	
318.15	.25	.05543	1010.275	
318.15	.25	.12469	1011.659	
318.15	.25	.19842	1013.105	
318.15	.25	.258	1014.254	
318.15	.25	.31041	1015.247	
318.15	.25	.36432	1016.254	
318.15	.5	.05532	1027.251	
318.15	.5	.09465	1027.961	
318.15	.5	.13465	1028.674	
318.15	.5	.18694	1029.598	
318.15	.5	.22547	1030.263	
318.15	.5	.26024	1030.858	
318.15	1	.05536	1055.997	
318.15	1	.08963	1056.489	
318.15	1	.12864	1057.045	
318.15	1	.18644	1057.855	
318.15	1	.24327	1058.637	
318.15	1	.28965	1059.263	
