Measured thermophysical data. Liquid-Liquid Equilibria Measurement of Systems Involving Alkanes (Heptane and Dodecane), Aromatics (Benzene or Toluene), and Furfural
Source: J. Chem. Eng. Data, 2011, 10.1021/je100908f
Compound 1: heptane, C7H16
Compound 2: dodecane, C12H26
Compound 3: benzene, C6H6
Compound 4: toluene, C7H8
Compound 5: 2-furaldehyde, C5H4O2

System: benzene + 2-furaldehyde + heptane; phases: Liquid mixture 1, Liquid mixture 2
Property: Mole fraction of benzene (Liquid mixture 1); method: Chromatography
Property: Mole fraction of benzene (Liquid mixture 2); method: Chromatography
Property: Mole fraction of heptane (Liquid mixture 2); method: Chromatography
Temperature, K	Pressure, kPa	Mole fraction of heptane	Mole fraction of benzene	uncertainty	Mole fraction of benzene	uncertainty	Mole fraction of heptane	uncertainty
298.15	1	.9069	.0291	.005	.0242	.005	.0544	.005
298.15	1	.8509	.0759	.005	.063	.005	.0639	.005
298.15	1	.7984	.1197	.005	.103	.005	.0715	.005
298.15	1	.7496	.1618	.005	.1382	.005	.0754	.005
298.15	1	.7081	.1961	.005	.1868	.005	.0939	.005
298.15	1	.6031	.2626	.005	.244	.005	.1307	.005
303.15	1	.8418	.0377	.005	.0251	.005	.0569	.005
303.15	1	.7897	.085	.005	.0631	.005	.0618	.005
303.15	1	.744	.1215	.005	.1035	.005	.0715	.005
303.15	1	.6987	.1632	.005	.138	.005	.0799	.005
303.15	1	.6308	.2136	.005	.1892	.005	.0897	.005
303.15	1	.5306	.2728	.005	.2536	.005	.1232	.005

System: 2-furaldehyde + toluene + heptane; phases: Liquid mixture 1, Liquid mixture 2
Property: Mole fraction of heptane (Liquid mixture 1); method: Chromatography
Property: Mole fraction of toluene (Liquid mixture 2); method: Chromatography
Property: Mole fraction of heptane (Liquid mixture 2); method: Chromatography
Temperature, K	Pressure, kPa	Mole fraction of toluene	Mole fraction of heptane	uncertainty	Mole fraction of toluene	uncertainty	Mole fraction of heptane	uncertainty
298.15	1	.0426	.8474	.005	.0192	.005	.0543	.005
298.15	1	.1118	.7787	.005	.052	.005	.0612	.005
298.15	1	.1666	.7244	.005	.0771	.005	.065	.005
298.15	1	.2247	.6522	.005	.1326	.005	.0824	.005
298.15	1	.2712	.5872	.005	.189	.005	.0994	.005
298.15	1	.299	.5455	.005	.2244	.005	.1058	.005
303.15	1	.0598	.7945	.005	.0183	.005	.0535	.005
303.15	1	.1356	.7236	.005	.0455	.005	.0596	.005
303.15	1	.1963	.652	.005	.0752	.005	.0661	.005
303.15	1	.2756	.5719	.005	.147	.005	.0929	.005
303.15	1	.3249	.4848	.005	.2169	.005	.1231	.005
