Measured thermophysical data. Densities, Speeds of Sound, Excess Molar Volumes, and Excess Isentropic Compressibilities at T = (298.15 and 308.15) K for Methyl Methacrylate + 1-Alkanols (1-Butanol, 1-Pentanol, and 1-Heptanol) + Cyclohexane, + Benzene, + Toluene, + p-Xylene, and + Ethylbenzene
Source: J. Chem. Eng. Data, 2011, 10.1021/je100652b
Compound 1: methyl methacrylate, C5H8O2, purity 99.5%
Compound 2: butan-1-ol, C4H10O, purity 99%
Compound 3: pentan-1-ol, C5H12O, purity 99%
Compound 4: 1-heptanol, C7H16O, purity 99%
Compound 5: benzene, C6H6, purity 99.5%
Compound 6: cyclohexane, C6H12, purity 99.5%
Compound 7: toluene, C7H8, purity 99.5%
Compound 8: 1,4-dimethylbenzene, C8H10, purity 99.5%
Compound 9: ethylbenzene, C8H10, purity 99.5%

System: methyl methacrylate; phases: Liquid
Fixed: Pressure, kPa = 101.325
Property: Mass density, kg/m3 (Liquid); method: Vibrating tube method
Temperature, K	Mass density, kg/m3	uncertainty
298.15	937.6	.069
308.15	925.7	.069

System: methyl methacrylate; phases: Liquid
Fixed: Pressure, kPa = 101.325
Property: Speed of sound, m/s (Liquid); method: Sing-around technique in a fixed-path interferometer
Temperature, K	Speed of sound, m/s	uncertainty
298.15	1182	.8
308.15	1152	.8

System: butan-1-ol; phases: Liquid
Fixed: Pressure, kPa = 101.325
Property: Mass density, kg/m3 (Liquid); method: Vibrating tube method
Temperature, K	Mass density, kg/m3	uncertainty
298.15	805.91	.069
308.15	798.21	.069

System: butan-1-ol; phases: Liquid
Fixed: Pressure, kPa = 101.325
Property: Speed of sound, m/s (Liquid); method: Sing-around technique in a fixed-path interferometer
Temperature, K	Speed of sound, m/s	uncertainty
298.15	1244	.8
308.15	1212	.8

System: pentan-1-ol; phases: Liquid
Fixed: Pressure, kPa = 101.325
Property: Mass density, kg/m3 (Liquid); method: Vibrating tube method
Temperature, K	Mass density, kg/m3	uncertainty
298.15	810.76	.069
308.15	803.41	.069

System: pentan-1-ol; phases: Liquid
Fixed: Pressure, kPa = 101.325
Property: Speed of sound, m/s (Liquid); method: Sing-around technique in a fixed-path interferometer
Temperature, K	Speed of sound, m/s	uncertainty
298.15	1274	.8
308.15	1240	.8

System: 1-heptanol; phases: Liquid
Fixed: Pressure, kPa = 101.325
Property: Mass density, kg/m3 (Liquid); method: Vibrating tube method
Temperature, K	Mass density, kg/m3	uncertainty
298.15	818.91	.069
308.15	811.94	.069

System: 1-heptanol; phases: Liquid
Fixed: Pressure, kPa = 101.325
Property: Speed of sound, m/s (Liquid); method: Sing-around technique in a fixed-path interferometer
Temperature, K	Speed of sound, m/s	uncertainty
298.15	1330	.8
308.15	1292	.8

System: benzene; phases: Liquid
Fixed: Pressure, kPa = 101.325
Property: Mass density, kg/m3 (Liquid); method: Vibrating tube method
Temperature, K	Mass density, kg/m3	uncertainty
298.15	873.58	.069
308.15	862.96	.069

System: benzene; phases: Liquid
Fixed: Pressure, kPa = 101.325
Property: Speed of sound, m/s (Liquid); method: Sing-around technique in a fixed-path interferometer
Temperature, K	Speed of sound, m/s	uncertainty
298.15	1300	.8
308.15	1260	.8

System: cyclohexane; phases: Liquid
Fixed: Pressure, kPa = 101.325
Property: Mass density, kg/m3 (Liquid); method: Vibrating tube method
Temperature, K	Mass density, kg/m3	uncertainty
298.15	773.86	.069
308.15	764.46	.069

System: cyclohexane; phases: Liquid
Fixed: Pressure, kPa = 101.325
Property: Speed of sound, m/s (Liquid); method: Sing-around technique in a fixed-path interferometer
Temperature, K	Speed of sound, m/s	uncertainty
298.15	1254	.8
308.15	1212	.8

System: toluene; phases: Liquid
Fixed: Pressure, kPa = 101.325
Property: Mass density, kg/m3 (Liquid); method: Vibrating tube method
Temperature, K	Mass density, kg/m3	uncertainty
298.15	862.21	.069
308.15	852.86	.069

System: toluene; phases: Liquid
Fixed: Pressure, kPa = 101.325
Property: Speed of sound, m/s (Liquid); method: Sing-around technique in a fixed-path interferometer
Temperature, K	Speed of sound, m/s	uncertainty
298.15	1304	.8
308.15	1262	.8

System: 1,4-dimethylbenzene; phases: Liquid
Fixed: Pressure, kPa = 101.325
Property: Mass density, kg/m3 (Liquid); method: Vibrating tube method
Temperature, K	Mass density, kg/m3	uncertainty
298.15	856.7	.069
308.15	847.88	.069

System: 1,4-dimethylbenzene; phases: Liquid
Fixed: Pressure, kPa = 101.325
Property: Speed of sound, m/s (Liquid); method: Sing-around technique in a fixed-path interferometer
Temperature, K	Speed of sound, m/s	uncertainty
298.15	1314	.8
308.15	1272	.8

System: ethylbenzene; phases: Liquid
Fixed: Pressure, kPa = 101.325
Property: Mass density, kg/m3 (Liquid); method: Vibrating tube method
Temperature, K	Mass density, kg/m3	uncertainty
298.15	862.63	.069
308.15	853.89	.069

System: ethylbenzene; phases: Liquid
Fixed: Pressure, kPa = 101.325
Property: Speed of sound, m/s (Liquid); method: Sing-around technique in a fixed-path interferometer
Temperature, K	Speed of sound, m/s	uncertainty
298.15	1319	.8
308.15	1276	.8

System: butan-1-ol + methyl methacrylate + cyclohexane; phases: Liquid
Fixed: Pressure, kPa = 101
Property: Mass density, kg/m3 (Liquid); method: Vibrating tube method
Temperature, K	Mole fraction of methyl methacrylate	Mole fraction of butan-1-ol	Mass density, kg/m3	uncertainty
298.15	.0512	.1911	784.5	.069
298.15	.1005	.1845	791.14	.069
298.15	.2006	.1574	805.08	.069
298.15	.2805	.1425	817.03	.069
298.15	.3721	.1245	831.18	.069
298.15	.487	.1098	849.78	.069
298.15	.591	.0865	866.52	.069
298.15	.6921	.0695	883.4	.069
298.15	.7642	.0451	894.99	.069
298.15	.0545	.3785	789.94	.069
298.15	.1154	.3561	798.5	.069
298.15	.2064	.3146	811.51	.069
298.15	.3065	.2665	826.15	.069
298.15	.4036	.2345	841.25	.069
298.15	.5001	.1925	855.98	.069
298.15	.584	.1664	869.4	.069
298.15	.7045	.1198	888.45	.069
298.15	.8156	.071	906.05	.069
298.15	.0545	.5625	795.63	.069
298.15	.1132	.534	804.31	.069
298.15	.2018	.4785	817.19	.069
298.15	.3925	.3684	845.67	.069
298.15	.4869	.3078	859.49	.069
298.15	.5789	.2484	872.9	.069
298.15	.6874	.1895	889.37	.069
298.15	.9354	.0375	927.06	.069
298.15	.3046	.4485	833.9	.069
298.15	.811	.1241	908.52	.069
298.15	.0445	.7245	800.05	.069
298.15	.0908	.7965	811.98	.069
298.15	.1992	.68	826.31	.069
298.15	.3135	.559	841.2	.069
298.15	.4152	.4977	856.81	.069
298.15	.2084	.3949	814.9	.069
298.15	.6016	.3175	881.06	.069
298.15	.7065	.2312	895.46	.069
298.15	.7935	.1756	908.49	.069
298.15	.7086	.2453	896.74	.069
298.15	.2586	.605	833.43	.069
298.15	.1922	.444	814.13	.069
298.15	.1345	.3126	800.05	.069
298.15	.0695	.1633	786.26	.069
298.15	.3762	.3786	843.27	.069
298.15	.2751	.2964	822.12	.069
298.15	.178	.1765	802.28	.069
298.15	.5879	.26	875.19	.069
298.15	.448	.1931	846.98	.069
298.15	.3092	.1379	821.46	.069
308.15	.0512	.1911	774.46	.069
308.15	.1005	.1845	780.85	.069
308.15	.2006	.1574	794.33	.069
308.15	.2805	.1425	806.03	.069
308.15	.3721	.1245	820.05	.069
308.15	.487	.1098	838.71	.069
308.15	.591	.0865	855.64	.069
308.15	.6921	.0695	872.73	.069
308.15	.7642	.0451	884.41	.069
308.15	.0545	.3785	780.33	.069
308.15	.1154	.3561	788.59	.069
308.15	.2064	.3146	801.17	.069
308.15	.3065	.2665	815.46	.069
308.15	.4036	.2345	830.43	.069
308.15	.5001	.1925	845.13	.069
308.15	.584	.1664	858.65	.069
308.15	.7045	.1198	877.83	.069
308.15	.8156	.071	895.38	.069
308.15	.0545	.5625	786.58	.069
308.15	.1132	.534	795.03	.069
308.15	.2018	.4785	807.5	.069
308.15	.3925	.3684	835.39	.069
308.15	.4869	.3078	849.05	.069
308.15	.5789	.2484	862.39	.069
308.15	.6874	.1895	878.84	.069
308.15	.9354	.0375	915.78	.069
308.15	.3046	.4485	823.97	.069
308.15	.811	.1241	897.82	.069
308.15	.0445	.7245	791.45	.069
308.15	.0908	.7965	803.56	.069
308.15	.1992	.68	817.41	.069
308.15	.3135	.559	831.76	.069
308.15	.4152	.4977	847.14	.069
308.15	.2084	.3949	804.87	.069
308.15	.6016	.3175	870.82	.069
308.15	.7065	.2312	885.02	.069
308.15	.7935	.1756	897.83	.069
308.15	.7086	.2453	886.32	.069
308.15	.2586	.605	824.2	.069
308.15	.1922	.444	804.32	.069
308.15	.1345	.3126	789.92	.069
308.15	.0695	.1633	776.11	.069
308.15	.3762	.3786	833.03	.069
308.15	.2751	.2964	811.58	.069
308.15	.178	.1765	791.64	.069
308.15	.5879	.26	864.73	.069
308.15	.448	.1931	836.06	.069
308.15	.3092	.1379	810.4	.069

System: butan-1-ol + methyl methacrylate + cyclohexane; phases: Liquid
Fixed: Pressure, kPa = 101
Property: Speed of sound, m/s (Liquid); method: Sing-around technique in a fixed-path interferometer
Temperature, K	Mole fraction of methyl methacrylate	Mole fraction of butan-1-ol	Speed of sound, m/s	uncertainty
298.15	.0512	.1911	1226	.8
298.15	.1005	.1845	1213	.8
298.15	.2006	.1574	1176	.8
298.15	.2805	.1425	1148	.8
298.15	.3721	.1245	1126	.8
298.15	.487	.1098	1123	.8
298.15	.591	.0865	1135	.8
298.15	.6921	.0695	1156	.8
298.15	.7642	.0451	1168	.8
298.15	.0545	.3785	1222	.8
298.15	.1154	.3561	1215	.8
298.15	.2064	.3146	1199	.8
298.15	.3065	.2665	1181	.8
298.15	.4036	.2345	1174	.8
298.15	.5001	.1925	1168	.8
298.15	.584	.1664	1174	.8
298.15	.7045	.1198	1179	.8
298.15	.8156	.071	1181	.8
298.15	.0545	.5625	1225	.8
298.15	.1132	.534	1224	.8
298.15	.2018	.4785	1222	.8
298.15	.3925	.3684	1213	.8
298.15	.4869	.3078	1206	.8
298.15	.5789	.2484	1200	.8
298.15	.6874	.1895	1193	.8
298.15	.9354	.0375	1183	.8
298.15	.3046	.4485	1218	.8
298.15	.811	.1241	1187	.8
298.15	.0445	.7245	1228	.8
298.15	.0908	.7965	1230	.8
298.15	.1992	.68	1217	.8
298.15	.3135	.559	1199	.8
298.15	.4152	.4977	1182	.8
298.15	.2084	.3949	1214	.8
298.15	.6016	.3175	1184	.8
298.15	.7065	.2312	1187	.8
298.15	.7935	.1756	1186	.8
298.15	.7086	.2453	1184	.8
298.15	.2586	.605	1208	.8
298.15	.1922	.444	1220	.8
298.15	.1345	.3126	1209	.8
298.15	.0695	.1633	1223	.8
298.15	.3762	.3786	1214	.8
298.15	.2751	.2964	1192	.8
298.15	.178	.1765	1186	.8
298.15	.5879	.26	1199	.8
298.15	.448	.1931	1158	.8
308.15	.0512	.1911	1182	.8
308.15	.1005	.1845	1170	.8
308.15	.2006	.1574	1140	.8
308.15	.2805	.1425	1117	.8
308.15	.3721	.1245	1100	.8
308.15	.487	.1098	1097	.8
308.15	.591	.0865	1107	.8
308.15	.6921	.0695	1124	.8
308.15	.7642	.0451	1133	.8
308.15	.0545	.3785	1181	.8
308.15	.1154	.3561	1173	.8
308.15	.2064	.3146	1159	.8
308.15	.3065	.2665	1144	.8
308.15	.4036	.2345	1139	.8
308.15	.5001	.1925	1134	.8
308.15	.584	.1664	1138	.8
308.15	.7045	.1198	1142	.8
308.15	.8156	.071	1144	.8
308.15	.0545	.5625	1185	.8
308.15	.1132	.534	1183	.8
308.15	.2018	.4785	1179	.8
308.15	.3925	.3684	1169	.8
308.15	.4869	.3078	1164	.8
308.15	.5789	.2484	1159	.8
308.15	.6874	.1895	1155	.8
308.15	.9354	.0375	1147	.8
308.15	.3046	.4485	1174	.8
308.15	.811	.1241	1150	.8
308.15	.0445	.7245	1191	.8
308.15	.0908	.7965	1192	.8
308.15	.1992	.68	1177	.8
308.15	.3135	.559	1160	.8
308.15	.4152	.4977	1146	.8
308.15	.2084	.3949	1171	.8
308.15	.6016	.3175	1148	.8
308.15	.7065	.2312	1150	.8
308.15	.7935	.1756	1150	.8
308.15	.7086	.2453	1149	.8
308.15	.2586	.605	1169	.8
308.15	.1922	.444	1176	.8
308.15	.1345	.3126	1167	.8
308.15	.0695	.1633	1179	.8
308.15	.3762	.3786	1170	.8
308.15	.2751	.2964	1153	.8
308.15	.178	.1765	1148	.8
308.15	.5879	.26	1159	.8
308.15	.448	.1931	1126	.8
298.15	.3092	.1379	1140	.8
308.15	.3092	.1379	1111	.8

System: butan-1-ol + benzene + methyl methacrylate; phases: Liquid
Fixed: Pressure, kPa = 101
Property: Mass density, kg/m3 (Liquid); method: Vibrating tube method
Temperature, K	Mole fraction of methyl methacrylate	Mole fraction of butan-1-ol	Mass density, kg/m3	uncertainty
298.15	.049	.1901	861.28	.069
298.15	.1004	.18	865.72	.069
298.15	.2005	.1588	874.41	.069
298.15	.2812	.1439	881.16	.069
298.15	.3723	.1257	888.77	.069
298.15	.4879	.1027	898.26	.069
298.15	.5907	.0817	906.56	.069
298.15	.6917	.0617	914.5	.069
298.15	.7642	.0475	920.07	.069
298.15	.0546	.377	848.52	.069
298.15	.1152	.353	854.66	.069
298.15	.208	.3169	863.91	.069
298.15	.3055	.2766	873.63	.069
298.15	.4039	.2384	883.1	.069
298.15	.5005	.1996	892.32	.069
298.15	.598	.1609	901.43	.069
298.15	.7049	.1178	911.28	.069
298.15	.8199	.072	921.65	.069
298.15	.0528	.5646	836.37	.069
298.15	.1134	.5302	843.17	.069
298.15	.2021	.4772	853.17	.069
298.15	.3924	.3648	874.03	.069
298.15	.4873	.3084	884.2	.069
298.15	.5873	.2471	894.88	.069
298.15	.6872	.1887	905.22	.069
298.15	.9353	.0374	931.02	.069
298.15	.3042	.419	864.32	.069
298.15	.81	.1142	917.98	.069
298.15	.0445	.7646	823.53	.069
298.15	.0919	.7264	829.56	.069
298.15	.1994	.6402	843.02	.069
298.15	.3137	.5492	856.98	.069
298.15	.4153	.4675	869.21	.069
298.15	.5087	.3931	880.25	.069
298.15	.6012	.319	891.08	.069
298.15	.7062	.2302	903.59	.069
298.15	.7931	.1655	913.33	.069
298.15	.7081	.2332	903.5	.069
298.15	.2588	.6037	849.66	.069
298.15	.192	.4469	854.32	.069
298.15	.1349	.3155	858.64	.069
298.15	.0692	.1604	864.98	.069
298.15	.3761	.3762	872.16	.069
298.15	.275	.2762	871.48	.069
298.15	.1783	.1781	871.42	.069
298.15	.5881	.2529	894.55	.069
298.15	.4489	.1928	889.29	.069
298.15	.3091	.133	883.89	.069
308.15	.049	.1901	850.93	.069
308.15	.1004	.18	855.28	.069
308.15	.2005	.1588	863.82	.069
308.15	.2812	.1439	870.47	.069
308.15	.3723	.1257	877.94	.069
308.15	.4879	.1027	887.2	.069
308.15	.5907	.0817	895.26	.069
308.15	.6917	.0617	902.95	.069
308.15	.7642	.0475	908.36	.069
308.15	.0546	.377	838.59	.069
308.15	.1152	.353	844.63	.069
308.15	.208	.3169	853.73	.069
308.15	.3055	.2766	863.28	.069
308.15	.4039	.2384	872.56	.069
308.15	.5005	.1996	881.56	.069
308.15	.598	.1609	890.43	.069
308.15	.7049	.1178	900.01	.069
308.15	.8199	.072	910.1	.069
308.15	.0528	.5646	826.98	.069
308.15	.1134	.5302	833.68	.069
308.15	.2021	.4772	843.49	.069
308.15	.3924	.3648	863.89	.069
308.15	.4873	.3084	873.82	.069
308.15	.5873	.2471	884.23	.069
308.15	.6872	.1887	894.31	.069
308.15	.9353	.0374	919.34	.069
308.15	.3042	.419	854.4	.069
308.15	.81	.1142	906.72	.069
308.15	.0445	.7646	814.88	.069
308.15	.0919	.7264	820.8	.069
308.15	.1994	.6402	833.93	.069
308.15	.3137	.5492	847.52	.069
308.15	.4153	.4675	859.42	.069
308.15	.5087	.3931	870.17	.069
308.15	.6012	.319	880.73	.069
308.15	.7062	.2302	892.91	.069
308.15	.7931	.1655	902.4	.069
308.15	.7081	.2332	892.84	.069
308.15	.2588	.6037	840.43	.069
308.15	.192	.4469	844.54	.069
308.15	.1349	.3155	848.5	.069
308.15	.0692	.1604	854.53	.069
308.15	.3761	.3762	862.07	.069
308.15	.275	.2762	861.15	.069
308.15	.1783	.1781	860.9	.069
308.15	.5881	.2529	883.92	.069
308.15	.4489	.1928	878.57	.069
308.15	.3091	.133	873.14	.069

System: butan-1-ol + benzene + methyl methacrylate; phases: Liquid
Fixed: Pressure, kPa = 101
Property: Speed of sound, m/s (Liquid); method: Sing-around technique in a fixed-path interferometer
Temperature, K	Mole fraction of methyl methacrylate	Mole fraction of butan-1-ol	Speed of sound, m/s	uncertainty
298.15	.049	.1901	1273	.8
298.15	.1004	.18	1272	.8
298.15	.2005	.1588	1266	.8
298.15	.2812	.1439	1259	.8
298.15	.3723	.1257	1250	.8
298.15	.4879	.1027	1238	.8
298.15	.5907	.0817	1226	.8
298.15	.6917	.0617	1215	.8
298.15	.7642	.0475	1207	.8
298.15	.0546	.377	1258	.8
298.15	.1152	.353	1256	.8
298.15	.208	.3169	1253	.8
298.15	.3055	.2766	1247	.8
298.15	.4039	.2384	1239	.8
298.15	.5005	.1996	1230	.8
298.15	.598	.1609	1220	.8
298.15	.7049	.1178	1209	.8
298.15	.8199	.072	1198	.8
298.15	.0528	.5646	1247	.8
298.15	.1134	.5302	1244	.8
298.15	.2021	.4772	1238	.8
298.15	.3924	.3648	1224	.8
298.15	.4873	.3084	1217	.8
298.15	.5873	.2471	1210	.8
298.15	.6872	.1887	1202	.8
298.15	.9353	.0374	1186	.8
298.15	.3042	.419	1231	.8
298.15	.81	.1142	1194	.8
298.15	.0445	.7646	1240	.8
298.15	.0919	.7264	1237	.8
298.15	.1994	.6402	1226	.8
298.15	.3137	.5492	1214	.8
298.15	.4153	.4675	1206	.8
298.15	.5087	.3931	1201	.8
298.15	.6012	.319	1197	.8
298.15	.7062	.2302	1194	.8
298.15	.7931	.1655	1190	.8
298.15	.7081	.2332	1193	.8
298.15	.2588	.6037	1219	.8
298.15	.192	.4469	1242	.8
298.15	.1349	.3155	1258	.8
298.15	.0692	.1604	1275	.8
298.15	.3761	.3762	1225	.8
298.15	.275	.2762	1250	.8
298.15	.1783	.1781	1266	.8
298.15	.5881	.2529	1209	.8
298.15	.4489	.1928	1237	.8
308.15	.049	.1901	1233	.8
308.15	.1004	.18	1230	.8
308.15	.2005	.1588	1221	.8
308.15	.2812	.1439	1212	.8
308.15	.3723	.1257	1202	.8
308.15	.4879	.1027	1192	.8
308.15	.5907	.0817	1184	.8
308.15	.6917	.0617	1177	.8
308.15	.7642	.0475	1172	.8
308.15	.0546	.377	1222	.8
308.15	.1152	.353	1220	.8
308.15	.208	.3169	1215	.8
308.15	.3055	.2766	1207	.8
308.15	.4039	.2384	1198	.8
308.15	.5005	.1996	1190	.8
308.15	.598	.1609	1183	.8
308.15	.7049	.1178	1174	.8
308.15	.8199	.072	1164	.8
308.15	.0528	.5646	1214	.8
308.15	.1134	.5302	1213	.8
308.15	.2021	.4772	1211	.8
308.15	.3924	.3648	1200	.8
308.15	.4873	.3084	1192	.8
308.15	.5873	.2471	1183	.8
308.15	.6872	.1887	1174	.8
308.15	.9353	.0374	1152	.8
308.15	.3042	.419	1206	.8
308.15	.81	.1142	1163	.8
308.15	.0445	.7646	1208	.8
308.15	.0919	.7264	1206	.8
308.15	.1994	.6402	1203	.8
308.15	.3137	.5492	1198	.8
308.15	.4153	.4675	1191	.8
308.15	.5087	.3931	1184	.8
308.15	.6012	.319	1176	.8
308.15	.7062	.2302	1167	.8
308.15	.7931	.1655	1160	.8
308.15	.7081	.2332	1167	.8
308.15	.2588	.6037	1199	.8
308.15	.192	.4469	1212	.8
308.15	.1349	.3155	1220	.8
308.15	.0692	.1604	1234	.8
308.15	.3761	.3762	1201	.8
308.15	.275	.2762	1209	.8
308.15	.1783	.1781	1222	.8
308.15	.5881	.2529	1183	.8
308.15	.4489	.1928	1194	.8
298.15	.3091	.133	1257	.8
308.15	.3091	.133	1209	.8

System: butan-1-ol + methyl methacrylate + toluene; phases: Liquid
Fixed: Pressure, kPa = 101
Property: Mass density, kg/m3 (Liquid); method: Vibrating tube method
Temperature, K	Mole fraction of methyl methacrylate	Mole fraction of butan-1-ol	Mass density, kg/m3	uncertainty
298.15	.05	.1915	856.37	.069
298.15	.1002	.1849	860.65	.069
298.15	.2003	.1578	869.91	.069
298.15	.281	.1429	876.95	.069
298.15	.3722	.1247	884.85	.069
298.15	.4874	.1097	894.18	.069
298.15	.5906	.0867	902.87	.069
298.15	.6912	.0697	910.94	.069
298.15	.764	.0455	917.45	.069
298.15	.0546	.3787	846.79	.069
298.15	.1155	.3563	852.74	.069
298.15	.206	.3149	861.98	.069
298.15	.305	.2666	872.15	.069
298.15	.4035	.2344	881.26	.069
298.15	.5	.1926	890.58	.069
298.15	.595	.1669	898.78	.069
298.15	.7042	.1198	909.09	.069
298.15	.8195	.0712	920	.069
298.15	.0522	.5626	836.53	.069
298.15	.1131	.5342	842.79	.069
298.15	.202	.4789	852.67	.069
298.15	.3921	.3688	872.98	.069
298.15	.4872	.309	883.19	.069
298.15	.587	.2491	893.62	.069
298.15	.6871	.1898	903.97	.069
298.15	.9352	.0379	930.42	.069
298.15	.3045	.4487	862.05	.069
298.15	.8105	.1242	916.39	.069
298.15	.0449	.7246	826.69	.069
298.15	.091	.7964	825.82	.069
298.15	.1998	.6802	840.92	.069
298.15	.3136	.5592	856.39	.069
298.15	.4151	.4975	867.28	.069
298.15	.5089	.3951	879.82	.069
298.15	.6019	.3178	890.75	.069
298.15	.7067	.2315	902.98	.069
298.15	.7939	.1795	912.08	.069
298.15	.7085	.2452	902.33	.069
298.15	.2585	.6045	849.72	.069
298.15	.1924	.4444	853.85	.069
298.15	.1345	.3125	856.57	.069
298.15	.0699	.1634	859.4	.069
298.15	.3766	.3782	871.32	.069
298.15	.2754	.2962	868.3	.069
298.15	.1782	.1765	867.21	.069
298.15	.5888	.2589	893.19	.069
298.15	.4482	.1935	886.77	.069
298.15	.3098	.1389	879.37	.069
308.15	.05	.1915	823.84	.069
308.15	.1002	.1849	829.31	.069
308.15	.2003	.1578	840.47	.069
308.15	.281	.1429	849.22	.069
308.15	.3722	.1247	859.02	.069
308.15	.4874	.1097	871.02	.069
308.15	.5906	.0867	881.84	.069
308.15	.6912	.0697	892.22	.069
308.15	.764	.0455	900.01	.069
308.15	.0546	.3787	820.03	.069
308.15	.1155	.3563	827.02	.069
308.15	.206	.3149	837.51	.069
308.15	.305	.2666	848.92	.069
308.15	.4035	.2344	859.75	.069
308.15	.5	.1926	870.45	.069
308.15	.595	.1669	880.54	.069
308.15	.7042	.1198	892.49	.069
308.15	.8195	.0712	905.17	.069
308.15	.0522	.5626	815.59	.069
308.15	.1131	.5342	822.72	.069
308.15	.202	.4789	833.37	.069
308.15	.3921	.3688	855.55	.069
308.15	.4872	.309	866.56	.069
308.15	.587	.2491	877.94	.069
308.15	.6871	.1898	889.3	.069
308.15	.9352	.0379	917.97	.069
308.15	.3045	.4487	844.73	.069
308.15	.8105	.1242	903.23	.069
308.15	.0449	.7246	810.99	.069
308.15	.091	.7964	814.01	.069
308.15	.1998	.6802	828.39	.069
308.15	.3136	.5592	843.1	.069
308.15	.4151	.4975	854.93	.069
308.15	.5089	.3951	866.8	.069
308.15	.6019	.3178	877.93	.069
308.15	.7067	.2315	890.41	.069
308.15	.7939	.1795	900.44	.069
308.15	.7085	.2452	890.31	.069
308.15	.2585	.6045	836.33	.069
308.15	.1924	.4444	833.15	.069
308.15	.1345	.3125	830.03	.069
308.15	.0699	.1634	826.59	.069
308.15	.3766	.3782	853.75	.069
308.15	.2754	.2962	845.18	.069
308.15	.1782	.1765	837.73	.069
308.15	.5888	.2589	877.91	.069
308.15	.4482	.1935	865.21	.069
308.15	.3098	.1389	852.29	.069

System: butan-1-ol + methyl methacrylate + toluene; phases: Liquid
Fixed: Pressure, kPa = 101
Property: Speed of sound, m/s (Liquid); method: Sing-around technique in a fixed-path interferometer
Temperature, K	Mole fraction of methyl methacrylate	Mole fraction of butan-1-ol	Speed of sound, m/s	uncertainty
298.15	.05	.1915	1281	.8
298.15	.1002	.1849	1278	.8
298.15	.2003	.1578	1271	.8
298.15	.281	.1429	1263	.8
298.15	.3722	.1247	1253	.8
298.15	.4874	.1097	1240	.8
298.15	.5906	.0867	1229	.8
298.15	.6912	.0697	1218	.8
298.15	.764	.0455	1210	.8
298.15	.0546	.3787	1265	.8
298.15	.1155	.3563	1262	.8
298.15	.206	.3149	1257	.8
298.15	.305	.2666	1250	.8
298.15	.4035	.2344	1241	.8
298.15	.5	.1926	1232	.8
298.15	.595	.1669	1222	.8
298.15	.7042	.1198	1211	.8
298.15	.8195	.0712	1200	.8
298.15	.0522	.5626	1253	.8
298.15	.1131	.5342	1249	.8
298.15	.202	.4789	1242	.8
298.15	.3921	.3688	1226	.8
298.15	.4872	.309	1219	.8
298.15	.587	.2491	1212	.8
298.15	.6871	.1898	1204	.8
298.15	.9352	.0379	1187	.8
298.15	.3045	.4487	1230	.8
298.15	.8105	.1242	1194	.8
298.15	.0449	.7246	1245	.8
298.15	.091	.7964	1237	.8
298.15	.1998	.6802	1226	.8
298.15	.3136	.5592	1216	.8
298.15	.4151	.4975	1206	.8
298.15	.5089	.3951	1202	.8
298.15	.6019	.3178	1199	.8
298.15	.7067	.2315	1195	.8
298.15	.7939	.1795	1189	.8
298.15	.7085	.2452	1193	.8
298.15	.2585	.6045	1222	.8
298.15	.1924	.4444	1247	.8
298.15	.1345	.3125	1264	.8
298.15	.0699	.1634	1282	.8
298.15	.3766	.3782	1228	.8
298.15	.2754	.2962	1251	.8
298.15	.1782	.1765	1271	.8
298.15	.5888	.2589	1210	.8
298.15	.4482	.1935	1239	.8
298.15	.3098	.1389	1259	.8
308.15	.05	.1915	1235	.8
308.15	.1002	.1849	1230	.8
308.15	.2003	.1578	1221	.8
308.15	.281	.1429	1212	.8
308.15	.3722	.1247	1203	.8
308.15	.4874	.1097	1191	.8
308.15	.5906	.0867	1183	.8
308.15	.6912	.0697	1175	.8
308.15	.764	.0455	1171	.8
308.15	.0546	.3787	1222	.8
308.15	.1155	.3563	1216	.8
308.15	.206	.3149	1207	.8
308.15	.305	.2666	1198	.8
308.15	.4035	.2344	1189	.8
308.15	.5	.1926	1183	.8
308.15	.595	.1669	1176	.8
308.15	.7042	.1198	1169	.8
308.15	.8195	.0712	1162	.8
308.15	.0522	.5626	1213	.8
308.15	.1131	.5342	1207	.8
308.15	.202	.4789	1199	.8
308.15	.3921	.3688	1184	.8
308.15	.4872	.309	1177	.8
308.15	.587	.2491	1171	.8
308.15	.6871	.1898	1166	.8
308.15	.9352	.0379	1151	.8
308.15	.3045	.4487	1189	.8
308.15	.8105	.1242	1158	.8
308.15	.0449	.7246	1208	.8
308.15	.091	.7964	1200	.8
308.15	.1998	.6802	1190	.8
308.15	.3136	.5592	1183	.8
308.15	.4151	.4975	1175	.8
308.15	.5089	.3951	1171	.8
308.15	.6019	.3178	1166	.8
308.15	.7067	.2315	1161	.8
308.15	.7939	.1795	1155	.8
308.15	.7085	.2452	1159	.8
308.15	.2585	.6045	1187	.8
308.15	.1924	.4444	1202	.8
308.15	.1345	.3125	1216	.8
308.15	.0699	.1634	1235	.8
308.15	.3766	.3782	1185	.8
308.15	.2754	.2962	1200	.8
308.15	.1782	.1765	1222	.8
308.15	.5888	.2589	1171	.8
308.15	.4482	.1935	1188	.8
308.15	.3098	.1389	1209	.8

System: butan-1-ol + methyl methacrylate + 1,4-dimethylbenzene; phases: Liquid
Fixed: Pressure, kPa = 101
Property: Mass density, kg/m3 (Liquid); method: Vibrating tube method
Temperature, K	Mole fraction of methyl methacrylate	Mole fraction of butan-1-ol	Mass density, kg/m3	uncertainty
298.15	.054	.1916	852.36	.069
298.15	.098	.1845	849.59	.069
298.15	.2009	.1564	864.45	.069
298.15	.2795	.1423	870.96	.069
298.15	.3715	.1212	878.98	.069
298.15	.4865	.1095	888.74	.069
298.15	.5945	.0856	898.72	.069
298.15	.6945	.0654	908.1	.069
298.15	.7655	.0421	915.23	.069
298.15	.0556	.3654	844.87	.069
298.15	.1123	.3564	849.37	.069
298.15	.2056	.3123	858.25	.069
298.15	.3046	.2564	868.22	.069
298.15	.4021	.2465	876.35	.069
298.15	.5478	.1925	890.5	.069
298.15	.5845	.1654	894.68	.069
298.15	.7045	.1178	906.81	.069
298.15	.8156	.0745	918.22	.069
298.15	.0465	.5426	835.94	.069
298.15	.3326	.5321	858.14	.069
298.15	.2045	.4589	851.63	.069
298.15	.3945	.3645	870.73	.069
298.15	.4856	.3046	880.69	.069
298.15	.5879	.2561	891.19	.069
298.15	.6895	.1798	902.94	.069
298.15	.9345	.0345	930.3	.069
298.15	.3012	.4326	860.3	.069
298.15	.7956	.1168	914.66	.069
298.15	.0445	.7156	826.9	.069
298.15	.089	.7895	825.95	.069
298.15	.1897	.6856	839.29	.069
298.15	.3156	.5487	856	.069
298.15	.4189	.4985	866.62	.069
298.15	.5145	.3565	880.81	.069
298.15	.6012	.3048	890.2	.069
298.15	.7065	.2312	902.16	.069
298.15	.7926	.1658	912.26	.069
298.15	.7056	.2398	901.71	.069
298.15	.2565	.6021	848.75	.069
298.15	.1948	.4498	851.31	.069
298.15	.1323	.3098	852.89	.069
298.15	.0678	.1548	854.89	.069
298.15	.3564	.3598	867.89	.069
298.15	.2745	.2345	866.8	.069
298.15	.1795	.1548	862.93	.069
298.15	.5842	.2346	891.79	.069
298.15	.4479	.1958	882.14	.069
298.15	.3012	.1354	872.91	.069
308.15	.054	.1916	843.38	.069
308.15	.098	.1845	840.76	.069
308.15	.2009	.1564	854.98	.069
308.15	.2795	.1423	861.24	.069
308.15	.3715	.1212	869	.069
308.15	.4865	.1095	878.49	.069
308.15	.5945	.0856	888.22	.069
308.15	.6945	.0654	897.37	.069
308.15	.7655	.0421	904.3	.069
308.15	.0556	.3654	836.02	.069
308.15	.1123	.3564	840.36	.069
308.15	.2056	.3123	848.92	.069
308.15	.3046	.2564	858.56	.069
308.15	.4021	.2465	866.45	.069
308.15	.5478	.1925	880.23	.069
308.15	.5845	.1654	884.3	.069
308.15	.7045	.1178	896.15	.069
308.15	.8156	.0745	907.22	.069
308.15	.0465	.5426	827.29	.069
308.15	.3326	.5321	848.88	.069
308.15	.2045	.4589	842.51	.069
308.15	.3945	.3645	861.03	.069
308.15	.4856	.3046	870.71	.069
308.15	.5879	.2561	880.96	.069
308.15	.6895	.1798	892.41	.069
308.15	.9345	.0345	918.81	.069
308.15	.3012	.4326	850.92	.069
308.15	.7956	.1168	903.8	.069
308.15	.0445	.7156	818.46	.069
308.15	.089	.7895	817.63	.069
308.15	.1897	.6856	830.6	.069
308.15	.3156	.5487	846.8	.069
308.15	.4189	.4985	857.13	.069
308.15	.5145	.3565	870.88	.069
308.15	.6012	.3048	880.05	.069
308.15	.7065	.2312	891.71	.069
308.15	.7926	.1658	901.52	.069
308.15	.7056	.2398	891.28	.069
308.15	.2565	.6021	839.77	.069
308.15	.1948	.4498	842.2	.069
308.15	.1323	.3098	843.77	.069
308.15	.0678	.1548	845.85	.069
308.15	.3564	.3598	858.26	.069
308.15	.2745	.2345	857.19	.069
308.15	.1795	.1548	853.52	.069
308.15	.5842	.2346	881.53	.069
308.15	.4479	.1958	872.07	.069
308.15	.3012	.1354	863.13	.069

System: butan-1-ol + methyl methacrylate + 1,4-dimethylbenzene; phases: Liquid
Fixed: Pressure, kPa = 101
Property: Speed of sound, m/s (Liquid); method: Sing-around technique in a fixed-path interferometer
Temperature, K	Mole fraction of methyl methacrylate	Mole fraction of butan-1-ol	Speed of sound, m/s	uncertainty
298.15	.054	.1916	1294	.8
298.15	.098	.1845	1299	.8
298.15	.2009	.1564	1279	.8
298.15	.2795	.1423	1271	.8
298.15	.3715	.1212	1261	.8
298.15	.4865	.1095	1247	.8
298.15	.5945	.0856	1234	.8
298.15	.6945	.0654	1222	.8
298.15	.7655	.0421	1214	.8
298.15	.0556	.3654	1280	.8
298.15	.1123	.3564	1273	.8
298.15	.2056	.3123	1265	.8
298.15	.3046	.2564	1257	.8
298.15	.4021	.2465	1244	.8
298.15	.5478	.1925	1228	.8
298.15	.5845	.1654	1226	.8
298.15	.7045	.1178	1213	.8
298.15	.8156	.0745	1201	.8
298.15	.0465	.5426	1266	.8
298.15	.3326	.5321	1220	.8
298.15	.2045	.4589	1250	.8
298.15	.3945	.3645	1230	.8
298.15	.4856	.3046	1223	.8
298.15	.5879	.2561	1212	.8
298.15	.6895	.1798	1207	.8
298.15	.9345	.0345	1188	.8
298.15	.3012	.4326	1237	.8
298.15	.7956	.1168	1198	.8
298.15	.0445	.7156	1251	.8
298.15	.089	.7895	1239	.8
298.15	.1897	.6856	1230	.8
298.15	.3156	.5487	1221	.8
298.15	.4189	.4985	1209	.8
298.15	.5145	.3565	1210	.8
298.15	.6012	.3048	1203	.8
298.15	.7065	.2312	1196	.8
298.15	.7926	.1658	1192	.8
298.15	.7056	.2398	1195	.8
298.15	.2565	.6021	1226	.8
298.15	.1948	.4498	1252	.8
298.15	.1323	.3098	1275	.8
298.15	.0678	.1548	1295	.8
298.15	.3564	.3598	1237	.8
298.15	.2745	.2345	1263	.8
298.15	.1795	.1548	1282	.8
298.15	.5842	.2346	1216	.8
298.15	.4479	.1958	1243	.8
298.15	.3012	.1354	1269	.8
308.15	.054	.1916	1246	.8
308.15	.098	.1845	1252	.8
308.15	.2009	.1564	1227	.8
308.15	.2795	.1423	1217	.8
308.15	.3715	.1212	1207	.8
308.15	.4865	.1095	1195	.8
308.15	.5945	.0856	1187	.8
308.15	.6945	.0654	1179	.8
308.15	.7655	.0421	1174	.8
308.15	.0556	.3654	1234	.8
308.15	.1123	.3564	1226	.8
308.15	.2056	.3123	1214	.8
308.15	.3046	.2564	1204	.8
308.15	.4021	.2465	1194	.8
308.15	.5478	.1925	1182	.8
308.15	.5845	.1654	1180	.8
308.15	.7045	.1178	1172	.8
308.15	.8156	.0745	1164	.8
308.15	.0465	.5426	1224	.8
308.15	.3326	.5321	1189	.8
308.15	.2045	.4589	1207	.8
308.15	.3945	.3645	1191	.8
308.15	.4856	.3046	1184	.8
308.15	.5879	.2561	1176	.8
308.15	.6895	.1798	1170	.8
308.15	.9345	.0345	1152	.8
308.15	.3012	.4326	1198	.8
308.15	.7956	.1168	1162	.8
308.15	.0445	.7156	1213	.8
308.15	.089	.7895	1203	.8
308.15	.1897	.6856	1196	.8
308.15	.3156	.5487	1190	.8
308.15	.4189	.4985	1181	.8
308.15	.5145	.3565	1179	.8
308.15	.6012	.3048	1172	.8
308.15	.7065	.2312	1164	.8
308.15	.7926	.1658	1158	.8
308.15	.7056	.2398	1163	.8
308.15	.2565	.6021	1194	.8
308.15	.1948	.4498	1209	.8
308.15	.1323	.3098	1226	.8
308.15	.0678	.1548	1247	.8
308.15	.3564	.3598	1195	.8
308.15	.2745	.2345	1210	.8
308.15	.1795	.1548	1230	.8
308.15	.5842	.2346	1177	.8
308.15	.4479	.1958	1192	.8
308.15	.3012	.1354	1215	.8

System: butan-1-ol + methyl methacrylate + ethylbenzene; phases: Liquid
Fixed: Pressure, kPa = 101
Property: Mass density, kg/m3 (Liquid); method: Vibrating tube method
Temperature, K	Mole fraction of methyl methacrylate	Mole fraction of butan-1-ol	Mass density, kg/m3	uncertainty
298.15	.048	.19	861.15	.069
298.15	.1005	.1806	864.77	.069
298.15	.2006	.1584	872.11	.069
298.15	.2815	.1438	878.02	.069
298.15	.3722	.1254	884.9	.069
298.15	.4877	.1028	893.81	.069
298.15	.5906	.0815	902	.069
298.15	.6915	.0615	910.2	.069
298.15	.7642	.048	916.24	.069
298.15	.0545	.3774	851.35	.069
298.15	.1151	.3528	856.38	.069
298.15	.2079	.3165	864.17	.069
298.15	.3052	.2765	872.59	.069
298.15	.4037	.2385	881.13	.069
298.15	.5008	.1997	889.74	.069
298.15	.5984	.1612	898.52	.069
298.15	.7045	.1175	908.36	.069
298.15	.8201	.074	919.23	.069
298.15	.0525	.5645	840.31	.069
298.15	.1135	.53	846.11	.069
298.15	.2025	.4775	854.79	.069
298.15	.3921	.3648	873.58	.069
298.15	.4872	.3083	883.11	.069
298.15	.5874	.247	893.32	.069
298.15	.6875	.189	903.5	.069
298.15	.9352	.0376	930.25	.069
298.15	.3042	.4191	864.72	.069
298.15	.7989	.114	915.61	.069
298.15	.0445	.7648	826.68	.069
298.15	.0915	.7269	832.13	.069
298.15	.1996	.6409	844.57	.069
298.15	.3135	.549	857.71	.069
298.15	.415	.4678	869.3	.069
298.15	.5052	.3936	879.68	.069
298.15	.601	.3195	890.44	.069
298.15	.7056	.2305	902.7	.069
298.15	.7929	.1654	912.58	.069
298.15	.7085	.2334	902.76	.069
298.15	.2584	.6039	850.7	.069
298.15	.1926	.4465	855.96	.069
298.15	.1345	.3154	859.63	.069
298.15	.0695	.1609	863.97	.069
298.15	.3759	.3761	871.88	.069
298.15	.2754	.2756	870.7	.069
298.15	.1782	.1782	869.66	.069
298.15	.5882	.2526	893.09	.069
298.15	.4482	.1935	886.47	.069
298.15	.3078	.1336	880.25	.069
308.15	.048	.19	847.56	.069
308.15	.1005	.1806	851.27	.069
308.15	.2006	.1584	858.74	.069
308.15	.2815	.1438	864.78	.069
308.15	.3722	.1254	871.8	.069
308.15	.4877	.1028	880.93	.069
308.15	.5906	.0815	889.34	.069
308.15	.6915	.0615	897.79	.069
308.15	.7642	.048	904.01	.069
308.15	.0545	.3774	838.93	.069
308.15	.1151	.3528	844.02	.069
308.15	.2079	.3165	851.87	.069
308.15	.3052	.2765	860.34	.069
308.15	.4037	.2385	868.94	.069
308.15	.5008	.1997	877.63	.069
308.15	.5984	.1612	886.51	.069
308.15	.7045	.1175	896.46	.069
308.15	.8201	.074	907.45	.069
308.15	.0525	.5645	829.12	.069
308.15	.1135	.53	834.95	.069
308.15	.2025	.4775	843.61	.069
308.15	.3921	.3648	862.29	.069
308.15	.4872	.3083	871.77	.069
308.15	.5874	.247	881.95	.069
308.15	.6875	.189	892.13	.069
308.15	.9352	.0376	918.57	.069
308.15	.3042	.4191	853.5	.069
308.15	.7989	.114	904.11	.069
308.15	.0445	.7648	816.97	.069
308.15	.0915	.7269	822.38	.069
308.15	.1996	.6409	834.66	.069
308.15	.3135	.549	847.54	.069
308.15	.415	.4678	858.91	.069
308.15	.5052	.3936	869.11	.069
308.15	.601	.3195	879.74	.069
308.15	.7056	.2305	891.78	.069
308.15	.7929	.1654	901.53	.069
308.15	.7085	.2334	891.88	.069
308.15	.2584	.6039	840.75	.069
308.15	.1926	.4465	844.51	.069
308.15	.1345	.3154	847.08	.069
308.15	.0695	.1609	850.27	.069
308.15	.3759	.3761	860.6	.069
308.15	.2754	.2756	858.34	.069
308.15	.1782	.1782	856.36	.069
308.15	.5882	.2526	881.76	.069
308.15	.4482	.1935	874.12	.069
308.15	.3078	.1336	867.02	.069

System: butan-1-ol + methyl methacrylate + ethylbenzene; phases: Liquid
Fixed: Pressure, kPa = 101
Property: Speed of sound, m/s (Liquid); method: Sing-around technique in a fixed-path interferometer
Temperature, K	Mole fraction of methyl methacrylate	Mole fraction of butan-1-ol	Speed of sound, m/s	uncertainty
298.15	.048	.19	1299	.8
298.15	.1005	.1806	1295	.8
298.15	.2006	.1584	1285	.8
298.15	.2815	.1438	1276	.8
298.15	.3722	.1254	1265	.8
298.15	.4877	.1028	1250	.8
298.15	.5906	.0815	1237	.8
298.15	.6915	.0615	1224	.8
298.15	.7642	.048	1215	.8
298.15	.0545	.3774	1284	.8
298.15	.1151	.3528	1279	.8
298.15	.2079	.3165	1271	.8
298.15	.3052	.2765	1262	.8
298.15	.4037	.2385	1251	.8
298.15	.5008	.1997	1240	.8
298.15	.5984	.1612	1228	.8
298.15	.7045	.1175	1216	.8
298.15	.8201	.074	1202	.8
298.15	.0525	.5645	1268	.8
298.15	.1135	.53	1262	.8
298.15	.2025	.4775	1253	.8
298.15	.3921	.3648	1233	.8
298.15	.4872	.3083	1224	.8
298.15	.5874	.247	1215	.8
298.15	.6875	.189	1207	.8
298.15	.9352	.0376	1187	.8
298.15	.3042	.4191	1242	.8
298.15	.7989	.114	1199	.8
298.15	.0445	.7648	1252	.8
298.15	.0915	.7269	1247	.8
298.15	.1996	.6409	1233	.8
298.15	.3135	.549	1220	.8
298.15	.415	.4678	1210	.8
298.15	.5052	.3936	1204	.8
298.15	.601	.3195	1199	.8
298.15	.7056	.2305	1196	.8
298.15	.7929	.1654	1191	.8
298.15	.7085	.2334	1195	.8
298.15	.2584	.6039	1225	.8
298.15	.1926	.4465	1259	.8
298.15	.1345	.3154	1280	.8
298.15	.0695	.1609	1299	.8
298.15	.3759	.3761	1234	.8
298.15	.2754	.2756	1266	.8
298.15	.1782	.1782	1287	.8
298.15	.5882	.2526	1214	.8
298.15	.4482	.1935	1249	.8
298.15	.3078	.1336	1273	.8
308.15	.048	.19	1252	.8
308.15	.1005	.1806	1245	.8
308.15	.2006	.1584	1231	.8
308.15	.2815	.1438	1219	.8
308.15	.3722	.1254	1209	.8
308.15	.4877	.1028	1197	.8
308.15	.5906	.0815	1188	.8
308.15	.6915	.0615	1180	.8
308.15	.7642	.048	1174	.8
308.15	.0545	.3774	1237	.8
308.15	.1151	.3528	1229	.8
308.15	.2079	.3165	1217	.8
308.15	.3052	.2765	1205	.8
308.15	.4037	.2385	1195	.8
308.15	.5008	.1997	1187	.8
308.15	.5984	.1612	1180	.8
308.15	.7045	.1175	1173	.8
308.15	.8201	.074	1164	.8
308.15	.0525	.5645	1225	.8
308.15	.1135	.53	1218	.8
308.15	.2025	.4775	1208	.8
308.15	.3921	.3648	1191	.8
308.15	.4872	.3083	1183	.8
308.15	.5874	.247	1176	.8
308.15	.6875	.189	1169	.8
308.15	.9352	.0376	1152	.8
308.15	.3042	.4191	1198	.8
308.15	.7989	.114	1162	.8
308.15	.0445	.7648	1214	.8
308.15	.0915	.7269	1209	.8
308.15	.1996	.6409	1199	.8
308.15	.3135	.549	1190	.8
308.15	.415	.4678	1183	.8
308.15	.5052	.3936	1176	.8
308.15	.601	.3195	1170	.8
308.15	.7056	.2305	1164	.8
308.15	.7929	.1654	1158	.8
308.15	.7085	.2334	1163	.8
308.15	.2584	.6039	1193	.8
308.15	.1926	.4465	1211	.8
308.15	.1345	.3154	1228	.8
308.15	.0695	.1609	1251	.8
308.15	.3759	.3761	1192	.8
308.15	.2754	.2756	1209	.8
308.15	.1782	.1782	1232	.8
308.15	.5882	.2526	1176	.8
308.15	.4482	.1935	1193	.8
308.15	.3078	.1336	1217	.8

System: pentan-1-ol + methyl methacrylate + cyclohexane; phases: Liquid
Fixed: Pressure, kPa = 101
Property: Mass density, kg/m3 (Liquid); method: Vibrating tube method
Temperature, K	Mole fraction of methyl methacrylate	Mole fraction of pentan-1-ol	Mass density, kg/m3	uncertainty
298.15	.0611	.1915	787.26	.069
298.15	.0987	.1849	792.05	.069
298.15	.1999	.1578	805.47	.069
298.15	.2798	.1429	817.02	.069
298.15	.3698	.1247	830.52	.069
298.15	.4854	.1097	848.84	.069
298.15	.5912	.0867	865.72	.069
298.15	.6901	.0697	882.12	.069
298.15	.7654	.0455	894.48	.069
298.15	.0541	.3787	792.7	.069
298.15	.1123	.3563	799.99	.069
298.15	.2015	.3149	811.58	.069
298.15	.3035	.2666	825.54	.069
298.15	.4032	.2344	840.34	.069
298.15	.4926	.1926	853.43	.069
298.15	.5941	.1669	869.55	.069
298.15	.7056	.1198	886.95	.069
298.15	.8154	.0712	904.66	.069
298.15	.0518	.5626	799.1	.069
298.15	.1126	.5342	806.81	.069
298.15	.2018	.4789	818.15	.069
298.15	.3918	.3688	844.11	.069
298.15	.4865	.309	857.35	.069
298.15	.5789	.2491	870.46	.069
298.15	.6865	.1898	886.58	.069
298.15	.9425	.0379	927.53	.069
298.15	.3012	.4487	832.71	.069
298.15	.8095	.1242	905.85	.069
298.15	.0435	.7246	804.4	.069
298.15	.0909	.7964	814.82	.069
298.15	.1985	.6802	826.48	.069
298.15	.3088	.5592	838.9	.069
298.15	.4098	.4975	852.91	.069
298.15	.2102	.3951	816.05	.069
298.15	.6048	.3178	877.98	.069
298.15	.707	.2315	892.04	.069
298.15	.7945	.1795	905.52	.069
298.15	.7023	.2452	891.82	.069
298.15	.2578	.6045	832.6	.069
298.15	.1922	.4444	815.26	.069
298.15	.1365	.3125	801.86	.069
298.15	.0659	.1634	786.96	.069
298.15	.3765	.3782	841.99	.069
298.15	.2732	.2962	821.93	.069
298.15	.1795	.1765	803.16	.069
298.15	.5846	.2589	871.87	.069
298.15	.4501	.1935	846.39	.069
298.15	.3084	.1389	821.32	.069
308.15	.0611	.1915	777.63	.069
308.15	.0987	.1849	782.2	.069
308.15	.1999	.1578	795.1	.069
308.15	.2798	.1429	806.36	.069
308.15	.3698	.1247	819.68	.069
308.15	.4854	.1097	838.01	.069
308.15	.5912	.0867	855.03	.069
308.15	.6901	.0697	871.6	.069
308.15	.7654	.0455	884	.069
308.15	.0541	.3787	783.56	.069
308.15	.1123	.3563	790.56	.069
308.15	.2015	.3149	801.7	.069
308.15	.3035	.2666	815.25	.069
308.15	.4032	.2344	829.87	.069
308.15	.4926	.1926	842.88	.069
308.15	.5941	.1669	859.1	.069
308.15	.7056	.1198	876.55	.069
308.15	.8154	.0712	894.15	.069
308.15	.0518	.5626	790.43	.069
308.15	.1126	.5342	797.91	.069
308.15	.2018	.4789	808.86	.069
308.15	.3918	.3688	834.2	.069
308.15	.4865	.309	847.26	.069
308.15	.5789	.2491	860.27	.069
308.15	.6865	.1898	876.34	.069
308.15	.9425	.0379	916.28	.069
308.15	.3012	.4487	823.16	.069
308.15	.8095	.1242	895.41	.069
308.15	.0435	.7246	796.15	.069
308.15	.0909	.7964	806.74	.069
308.15	.1985	.6802	817.93	.069
308.15	.3088	.5592	829.81	.069
308.15	.4098	.4975	843.58	.069
308.15	.2102	.3951	806.43	.069
308.15	.6048	.3178	868.09	.069
308.15	.707	.2315	881.93	.069
308.15	.7945	.1795	895.19	.069
308.15	.7023	.2452	881.75	.069
308.15	.2578	.6045	823.72	.069
308.15	.1922	.4444	805.86	.069
308.15	.1365	.3125	792.2	.069
308.15	.0659	.1634	777.25	.069
308.15	.3765	.3782	832.12	.069
308.15	.2732	.2962	811.8	.069
308.15	.1795	.1765	792.91	.069
308.15	.5846	.2589	861.73	.069
308.15	.4501	.1935	835.79	.069
308.15	.3084	.1389	810.59	.069

System: pentan-1-ol + methyl methacrylate + cyclohexane; phases: Liquid
Fixed: Pressure, kPa = 101
Property: Speed of sound, m/s (Liquid); method: Sing-around technique in a fixed-path interferometer
Temperature, K	Mole fraction of methyl methacrylate	Mole fraction of pentan-1-ol	Speed of sound, m/s	uncertainty
298.15	.0611	.1915	1231	.8
298.15	.0987	.1849	1225	.8
298.15	.1999	.1578	1212	.8
298.15	.2798	.1429	1203	.8
298.15	.3698	.1247	1195	.8
298.15	.4854	.1097	1188	.8
298.15	.5912	.0867	1184	.8
298.15	.6901	.0697	1183	.8
298.15	.7654	.0455	1182	.8
298.15	.0541	.3787	1229	.8
298.15	.1123	.3563	1221	.8
298.15	.2015	.3149	1211	.8
298.15	.3035	.2666	1201	.8
298.15	.4032	.2344	1195	.8
298.15	.4926	.1926	1190	.8
298.15	.5941	.1669	1187	.8
298.15	.7056	.1198	1184	.8
298.15	.8154	.0712	1183	.8
298.15	.0518	.5626	1233	.8
298.15	.1126	.5342	1225	.8
298.15	.2018	.4789	1216	.8
298.15	.3918	.3688	1201	.8
298.15	.4865	.309	1195	.8
298.15	.5789	.2491	1191	.8
298.15	.6865	.1898	1187	.8
298.15	.9425	.0379	1182	.8
298.15	.3012	.4487	1209	.8
298.15	.8095	.1242	1185	.8
298.15	.0435	.7246	1242	.8
298.15	.0909	.7964	1245	.8
298.15	.1985	.6802	1230	.8
298.15	.3088	.5592	1217	.8
298.15	.4098	.4975	1211	.8
298.15	.2102	.3951	1212	.8
298.15	.6048	.3178	1196	.8
298.15	.707	.2315	1190	.8
298.15	.7945	.1795	1187	.8
298.15	.7023	.2452	1191	.8
298.15	.2578	.6045	1222	.8
298.15	.1922	.4444	1215	.8
298.15	.1365	.3125	1218	.8
298.15	.0659	.1634	1231	.8
298.15	.3765	.3782	1202	.8
298.15	.2732	.2962	1204	.8
298.15	.1795	.1765	1214	.8
298.15	.5846	.2589	1192	.8
298.15	.4501	.1935	1191	.8
298.15	.3084	.1389	1200	.8
308.15	.0611	.1915	1187	.8
308.15	.0987	.1849	1182	.8
308.15	.1999	.1578	1171	.8
308.15	.2798	.1429	1163	.8
308.15	.3698	.1247	1157	.8
308.15	.4854	.1097	1151	.8
308.15	.5912	.0867	1147	.8
308.15	.6901	.0697	1145	.8
308.15	.7654	.0455	1144	.8
308.15	.0541	.3787	1189	.8
308.15	.1123	.3563	1183	.8
308.15	.2015	.3149	1174	.8
308.15	.3035	.2666	1166	.8
308.15	.4032	.2344	1160	.8
308.15	.4926	.1926	1155	.8
308.15	.5941	.1669	1151	.8
308.15	.7056	.1198	1148	.8
308.15	.8154	.0712	1145	.8
308.15	.0518	.5626	1195	.8
308.15	.1126	.5342	1190	.8
308.15	.2018	.4789	1181	.8
308.15	.3918	.3688	1167	.8
308.15	.4865	.309	1161	.8
308.15	.5789	.2491	1156	.8
308.15	.6865	.1898	1151	.8
308.15	.9425	.0379	1146	.8
308.15	.3012	.4487	1175	.8
308.15	.8095	.1242	1148	.8
308.15	.0435	.7246	1206	.8
308.15	.0909	.7964	1209	.8
308.15	.1985	.6802	1195	.8
308.15	.3088	.5592	1182	.8
308.15	.4098	.4975	1175	.8
308.15	.2102	.3951	1177	.8
308.15	.6048	.3178	1160	.8
308.15	.707	.2315	1153	.8
308.15	.7945	.1795	1150	.8
308.15	.7023	.2452	1154	.8
308.15	.2578	.6045	1187	.8
308.15	.1922	.4444	1180	.8
308.15	.1365	.3125	1180	.8
308.15	.0659	.1634	1187	.8
308.15	.3765	.3782	1168	.8
308.15	.2732	.2962	1169	.8
308.15	.1795	.1765	1173	.8
308.15	.5846	.2589	1156	.8
308.15	.4501	.1935	1156	.8
308.15	.3084	.1389	1161	.8

System: pentan-1-ol + benzene + methyl methacrylate; phases: Liquid
Fixed: Pressure, kPa = 101
Property: Mass density, kg/m3 (Liquid); method: Vibrating tube method
Temperature, K	Mole fraction of methyl methacrylate	Mole fraction of pentan-1-ol	Mass density, kg/m3	uncertainty
298.15	.043	.1898	860.2	.069
298.15	.1	.1784	864.14	.069
298.15	.2012	.158	872.47	.069
298.15	.2811	.1432	877.25	.069
298.15	.372	.1256	886.36	.069
298.15	.4875	.1025	895.09	.069
298.15	.5905	.0815	903.62	.069
298.15	.6915	.062	911.88	.069
298.15	.7642	.0478	917.45	.069
298.15	.0542	.3775	848.24	.069
298.15	.1152	.3529	852.8	.069
298.15	.2079	.3156	861.04	.069
298.15	.3052	.2765	869.59	.069
298.15	.4035	.2384	878.18	.069
298.15	.5002	.1998	887.14	.069
298.15	.6985	.161	896.05	.069
298.15	.7056	.1175	906.41	.069
298.15	.8195	.0716	917.63	.069
298.15	.0521	.5648	838.18	.069
298.15	.1132	.5315	843.34	.069
298.15	.2019	.4769	850.49	.069
298.15	.392	.3649	868.8	.069
298.15	.487	.3082	877.5	.069
298.15	.587	.2469	888.23	.069
298.15	.687	.1891	898.38	.069
298.15	.9352	.0378	928.78	.069
298.15	.3042	.4189	860.25	.069
298.15	.8102	.1146	912.37	.069
298.15	.045	.7642	829.1	.069
298.15	.0912	.7269	833.22	.069
298.15	.199	.6401	841.87	.069
298.15	.3135	.5489	852.36	.069
298.15	.415	.4656	862.34	.069
298.15	.509	.3928	872.38	.069
298.15	.601	.3194	882.41	.069
298.15	.7065	.23	895.23	.069
298.15	.7934	.1652	905.95	.069
298.15	.7086	.2337	895.25	.069
298.15	.2598	.6035	846.86	.069
298.15	.1924	.4462	851.76	.069
298.15	.1348	.3154	856.63	.069
298.15	.069	.1602	863.92	.069
298.15	.3748	.3759	866.45	.069
298.15	.276	.2758	867.75	.069
298.15	.178	.1784	869.23	.069
298.15	.5886	.2525	887.18	.069
298.15	.4485	.1926	884.56	.069
298.15	.3096	.1335	880.91	.069
308.15	.043	.1898	850.11	.069
308.15	.1	.1784	854.69	.069
308.15	.2012	.158	862.92	.069
308.15	.2811	.1432	869.32	.069
308.15	.372	.1256	876.63	.069
308.15	.4875	.1025	885.88	.069
308.15	.5905	.0815	894.05	.069
308.15	.6915	.062	901.86	.069
308.15	.7642	.0478	907.44	.069
308.15	.0542	.3775	838.38	.069
308.15	.1152	.3529	843.87	.069
308.15	.2079	.3156	852.34	.069
308.15	.3052	.2765	861.32	.069
308.15	.4035	.2384	870.31	.069
308.15	.5002	.1998	879.22	.069
308.15	.6985	.161	894.24	.069
308.15	.7056	.1175	898.12	.069
308.15	.8195	.0716	908.68	.069
308.15	.0521	.5648	827.55	.069
308.15	.1132	.5315	833.25	.069
308.15	.2019	.4769	842.04	.069
308.15	.392	.3649	861.03	.069
308.15	.487	.3082	870.71	.069
308.15	.587	.2469	881.12	.069
308.15	.687	.1891	891.39	.069
308.15	.9352	.0378	918.42	.069
308.15	.3042	.4189	852.06	.069
308.15	.8102	.1146	904.53	.069
308.15	.045	.7642	816.91	.069
308.15	.0912	.7269	821.59	.069
308.15	.199	.6401	832.76	.069
308.15	.3135	.5489	844.92	.069
308.15	.415	.4656	856.11	.069
308.15	.509	.3928	866.41	.069
308.15	.601	.3194	876.82	.069
308.15	.7065	.23	889.44	.069
308.15	.7934	.1652	899.46	.069
308.15	.7086	.2337	889.28	.069
308.15	.2598	.6035	838.53	.069
308.15	.1924	.4462	843.23	.069
308.15	.1348	.3154	847.55	.069
308.15	.069	.1602	854.01	.069
308.15	.3748	.3759	859.24	.069
308.15	.276	.2758	859.46	.069
308.15	.178	.1784	859.86	.069
308.15	.5886	.2525	880.81	.069
308.15	.4485	.1926	876.49	.069
308.15	.3096	.1335	871.94	.069

System: pentan-1-ol + benzene + methyl methacrylate; phases: Liquid
Fixed: Pressure, kPa = 101
Property: Speed of sound, m/s (Liquid); method: Sing-around technique in a fixed-path interferometer
Temperature, K	Mole fraction of methyl methacrylate	Mole fraction of pentan-1-ol	Speed of sound, m/s	uncertainty
298.15	.043	.1898	1273	.8
298.15	.1	.1784	1272	.8
298.15	.2012	.158	1267	.8
298.15	.2811	.1432	1260	.8
298.15	.372	.1256	1251	.8
298.15	.4875	.1025	1238	.8
298.15	.5905	.0815	1227	.8
298.15	.6915	.062	1216	.8
298.15	.7642	.0478	1208	.8
298.15	.0542	.3775	1262	.8
298.15	.1152	.3529	1261	.8
298.15	.2079	.3156	1258	.8
298.15	.3052	.2765	1252	.8
298.15	.4035	.2384	1243	.8
298.15	.5002	.1998	1234	.8
298.15	.6985	.161	1207	.8
298.15	.7056	.1175	1211	.8
298.15	.8195	.0716	1198	.8
298.15	.0521	.5648	1257	.8
298.15	.1132	.5315	1254	.8
298.15	.2019	.4769	1247	.8
298.15	.392	.3649	1230	.8
298.15	.487	.3082	1221	.8
298.15	.587	.2469	1213	.8
298.15	.687	.1891	1204	.8
298.15	.9352	.0378	1186	.8
298.15	.3042	.4189	1237	.8
298.15	.8102	.1146	1195	.8
298.15	.045	.7642	1258	.8
298.15	.0912	.7269	1253	.8
298.15	.199	.6401	1238	.8
298.15	.3135	.5489	1222	.8
298.15	.415	.4656	1211	.8
298.15	.509	.3928	1204	.8
298.15	.601	.3194	1199	.8
298.15	.7065	.23	1195	.8
298.15	.7934	.1652	1191	.8
298.15	.7086	.2337	1195	.8
298.15	.2598	.6035	1229	.8
298.15	.1924	.4462	1250	.8
298.15	.1348	.3154	1262	.8
298.15	.069	.1602	1274	.8
298.15	.3748	.3759	1231	.8
298.15	.276	.2758	1254	.8
298.15	.178	.1784	1267	.8
298.15	.5886	.2525	1212	.8
298.15	.4485	.1926	1241	.8
298.15	.3096	.1335	1257	.8
308.15	.043	.1898	1229	.8
308.15	.1	.1784	1221	.8
308.15	.2012	.158	1208	.8
308.15	.2811	.1432	1199	.8
308.15	.372	.1256	1190	.8
308.15	.4875	.1025	1182	.8
308.15	.5905	.0815	1176	.8
308.15	.6915	.062	1171	.8
308.15	.7642	.0478	1167	.8
308.15	.0542	.3775	1216	.8
308.15	.1152	.3529	1208	.8
308.15	.2079	.3156	1197	.8
308.15	.3052	.2765	1187	.8
308.15	.4035	.2384	1179	.8
308.15	.5002	.1998	1173	.8
308.15	.6985	.161	1163	.8
308.15	.7056	.1175	1165	.8
308.15	.8195	.0716	1159	.8
308.15	.0521	.5648	1214	.8
308.15	.1132	.5315	1206	.8
308.15	.2019	.4769	1198	.8
308.15	.392	.3649	1183	.8
308.15	.487	.3082	1177	.8
308.15	.587	.2469	1170	.8
308.15	.687	.1891	1164	.8
308.15	.9352	.0378	1150	.8
308.15	.3042	.4189	1190	.8
308.15	.8102	.1146	1157	.8
308.15	.045	.7642	1219	.8
308.15	.0912	.7269	1213	.8
308.15	.199	.6401	1203	.8
308.15	.3135	.5489	1196	.8
308.15	.415	.4656	1188	.8
308.15	.509	.3928	1180	.8
308.15	.601	.3194	1172	.8
308.15	.7065	.23	1162	.8
308.15	.7934	.1652	1155	.8
308.15	.7086	.2337	1162	.8
308.15	.2598	.6035	1200	.8
308.15	.1924	.4462	1198	.8
308.15	.1348	.3154	1207	.8
308.15	.069	.1602	1228	.8
308.15	.3748	.3759	1185	.8
308.15	.276	.2758	1190	.8
308.15	.178	.1784	1209	.8
308.15	.5886	.2525	1170	.8
308.15	.4485	.1926	1177	.8
308.15	.3096	.1335	1196	.8

System: pentan-1-ol + methyl methacrylate + toluene; phases: Liquid
Fixed: Pressure, kPa = 101
Property: Mass density, kg/m3 (Liquid); method: Vibrating tube method
Temperature, K	Mole fraction of methyl methacrylate	Mole fraction of pentan-1-ol	Mass density, kg/m3	uncertainty
298.15	.043	.1912	854.6	.069
298.15	.1012	.1835	858.4	.069
298.15	.2011	.1565	867.03	.069
298.15	.2795	.1432	873.76	.069
298.15	.3719	.124	881.14	.069
298.15	.4874	.1087	890.93	.069
298.15	.5895	.0865	899.25	.069
298.15	.6915	.0684	908.03	.069
298.15	.7645	.0445	915.41	.069
298.15	.0541	.3784	845.46	.069
298.15	.1154	.3559	850.27	.069
298.15	.2059	.3138	858.24	.069
298.15	.3045	.2654	867.47	.069
298.15	.4032	.2323	876.15	.069
298.15	.4995	.192	885.29	.069
298.15	.5948	.1658	893.78	.069
298.15	.7046	.1189	904.33	.069
298.15	.8154	.0722	916.04	.069
298.15	.053	.5636	837.24	.069
298.15	.1132	.5341	841.67	.069
298.15	.2019	.4784	849.33	.069
298.15	.3915	.3678	866.79	.069
298.15	.4869	.3078	876.26	.069
298.15	.548	.2484	886.01	.069
298.15	.687	.1878	896.56	.069
298.15	.9351	.0375	928.36	.069
298.15	.3045	.4478	856.94	.069
298.15	.8104	.1252	909.9	.069
298.15	.0442	.7245	830.44	.069
298.15	.0894	.7954	829.72	.069
298.15	.1995	.6806	839.28	.069
298.15	.3134	.5595	851.18	.069
298.15	.4098	.4986	860.38	.069
298.15	.5079	.3945	872.1	.069
298.15	.6015	.3168	882.08	.069
298.15	.7065	.2323	894.05	.069
298.15	.7937	.1789	903.74	.069
298.15	.7084	.2457	892.92	.069
298.15	.2584	.6035	846.01	.069
298.15	.1925	.4245	850.3	.069
298.15	.1341	.3154	853.46	.069
298.15	.0687	.1652	856.4	.069
298.15	.3759	.3784	864.99	.069
298.15	.2752	.2954	863.5	.069
298.15	.1778	.1754	863.88	.069
298.15	.5879	.2568	885.62	.069
298.15	.4451	.1932	882.31	.069
298.15	.3078	.1365	876.92	.069
308.15	.043	.1912	822.47	.069
308.15	.1012	.1835	828.59	.069
308.15	.2011	.1565	839.48	.069
308.15	.2795	.1432	847.82	.069
308.15	.3719	.124	857.7	.069
308.15	.4874	.1087	869.68	.069
308.15	.5895	.0865	880.46	.069
308.15	.6915	.0684	891.12	.069
308.15	.7645	.0445	899.24	.069
308.15	.0541	.3784	819.93	.069
308.15	.1154	.3559	826.37	.069
308.15	.2059	.3138	836.18	.069
308.15	.3045	.2654	847.08	.069
308.15	.4032	.2323	857.66	.069
308.15	.4995	.192	868.23	.069
308.15	.5948	.1658	878.3	.069
308.15	.7046	.1189	890.59	.069
308.15	.8154	.0722	903.31	.069
308.15	.053	.5636	816.48	.069
308.15	.1132	.5341	822.66	.069
308.15	.2019	.4784	832.16	.069
308.15	.3915	.3678	852.82	.069
308.15	.4869	.3078	863.55	.069
308.15	.548	.2484	871.16	.069
308.15	.687	.1878	886.49	.069
308.15	.9351	.0375	917.08	.069
308.15	.3045	.4478	842.55	.069
308.15	.8104	.1252	900.84	.069
308.15	.0442	.7245	812.67	.069
308.15	.0894	.7954	815.18	.069
308.15	.1995	.6806	827.4	.069
308.15	.3134	.5595	840.6	.069
308.15	.4098	.4986	851	.069
308.15	.5079	.3945	862.99	.069
308.15	.6015	.3168	874.11	.069
308.15	.7065	.2323	886.87	.069
308.15	.7937	.1789	897.25	.069
308.15	.7084	.2457	886.6	.069
308.15	.2584	.6035	834.52	.069
308.15	.1925	.4245	832.44	.069
308.15	.1341	.3154	829.04	.069
308.15	.0687	.1652	825.68	.069
308.15	.3759	.3784	851.06	.069
308.15	.2752	.2954	843.45	.069
308.15	.1778	.1754	836.62	.069
308.15	.5879	.2568	874.71	.069
308.15	.4451	.1932	862.89	.069
308.15	.3078	.1365	850.88	.069

System: pentan-1-ol + methyl methacrylate + toluene; phases: Liquid
Fixed: Pressure, kPa = 101
Property: Speed of sound, m/s (Liquid); method: Sing-around technique in a fixed-path interferometer
Temperature, K	Mole fraction of methyl methacrylate	Mole fraction of pentan-1-ol	Speed of sound, m/s	uncertainty
298.15	.043	.1912	1282	.8
298.15	.1012	.1835	1280	.8
298.15	.2011	.1565	1273	.8
298.15	.2795	.1432	1266	.8
298.15	.3719	.124	1256	.8
298.15	.4874	.1087	1243	.8
298.15	.5895	.0865	1231	.8
298.15	.6915	.0684	1219	.8
298.15	.7645	.0445	1211	.8
298.15	.0541	.3784	1272	.8
298.15	.1154	.3559	1269	.8
298.15	.2059	.3138	1264	.8
298.15	.3045	.2654	1257	.8
298.15	.4032	.2323	1247	.8
298.15	.4995	.192	1237	.8
298.15	.5948	.1658	1226	.8
298.15	.7046	.1189	1213	.8
298.15	.8154	.0722	1201	.8
298.15	.053	.5636	1265	.8
298.15	.1132	.5341	1260	.8
298.15	.2019	.4784	1253	.8
298.15	.3915	.3678	1235	.8
298.15	.4869	.3078	1226	.8
298.15	.548	.2484	1224	.8
298.15	.687	.1878	1207	.8
298.15	.9351	.0375	1187	.8
298.15	.3045	.4478	1240	.8
298.15	.8104	.1252	1195	.8
298.15	.0442	.7245	1262	.8
298.15	.0894	.7954	1256	.8
298.15	.1995	.6806	1241	.8
298.15	.3134	.5595	1227	.8
298.15	.4098	.4986	1215	.8
298.15	.5079	.3945	1209	.8
298.15	.6015	.3168	1203	.8
298.15	.7065	.2323	1198	.8
298.15	.7937	.1789	1191	.8
298.15	.7084	.2457	1196	.8
298.15	.2584	.6035	1234	.8
298.15	.1925	.4245	1258	.8
298.15	.1341	.3154	1270	.8
298.15	.0687	.1652	1283	.8
298.15	.3759	.3784	1236	.8
298.15	.2752	.2954	1258	.8
298.15	.1778	.1754	1274	.8
298.15	.5879	.2568	1215	.8
298.15	.4451	.1932	1245	.8
298.15	.3078	.1365	1263	.8
308.15	.043	.1912	1237	.8
308.15	.1012	.1835	1230	.8
308.15	.2011	.1565	1219	.8
308.15	.2795	.1432	1209	.8
308.15	.3719	.124	1199	.8
308.15	.4874	.1087	1187	.8
308.15	.5895	.0865	1180	.8
308.15	.6915	.0684	1173	.8
308.15	.7645	.0445	1169	.8
308.15	.0541	.3784	1226	.8
308.15	.1154	.3559	1219	.8
308.15	.2059	.3138	1208	.8
308.15	.3045	.2654	1198	.8
308.15	.4032	.2323	1188	.8
308.15	.4995	.192	1181	.8
308.15	.5948	.1658	1174	.8
308.15	.7046	.1189	1167	.8
308.15	.8154	.0722	1160	.8
308.15	.053	.5636	1222	.8
308.15	.1132	.5341	1215	.8
308.15	.2019	.4784	1206	.8
308.15	.3915	.3678	1190	.8
308.15	.4869	.3078	1182	.8
308.15	.548	.2484	1177	.8
308.15	.687	.1878	1166	.8
308.15	.9351	.0375	1150	.8
308.15	.3045	.4478	1197	.8
308.15	.8104	.1252	1156	.8
308.15	.0442	.7245	1223	.8
308.15	.0894	.7954	1218	.8
308.15	.1995	.6806	1206	.8
308.15	.3134	.5595	1196	.8
308.15	.4098	.4986	1187	.8
308.15	.5079	.3945	1179	.8
308.15	.6015	.3168	1171	.8
308.15	.7065	.2323	1162	.8
308.15	.7937	.1789	1154	.8
308.15	.7084	.2457	1160	.8
308.15	.2584	.6035	1201	.8
308.15	.1925	.4245	1208	.8
308.15	.1341	.3154	1218	.8
308.15	.0687	.1652	1236	.8
308.15	.3759	.3784	1191	.8
308.15	.2752	.2954	1200	.8
308.15	.1778	.1754	1220	.8
308.15	.5879	.2568	1173	.8
308.15	.4451	.1932	1186	.8
308.15	.3078	.1365	1206	.8

System: pentan-1-ol + methyl methacrylate + 1,4-dimethylbenzene; phases: Liquid
Fixed: Pressure, kPa = 101
Property: Mass density, kg/m3 (Liquid); method: Vibrating tube method
Temperature, K	Mole fraction of methyl methacrylate	Mole fraction of pentan-1-ol	Mass density, kg/m3	uncertainty
298.15	.0432	.1946	850.29	.069
298.15	.105	.185	848.8	.069
298.15	.2004	.1523	862.4	.069
298.15	.2787	.1421	867.92	.069
298.15	.3564	.122	876.22	.069
298.15	.4854	.1094	885.81	.069
298.15	.5898	.0845	895.52	.069
298.15	.6978	.0645	904.97	.069
298.15	.7598	.0418	912.39	.069
298.15	.0549	.3665	844	.069
298.15	.1145	.3545	847.47	.069
298.15	.2046	.3102	854.69	.069
298.15	.3048	.256	864.17	.069
298.15	.4035	.2456	871.26	.069
298.15	.5578	.193	884.37	.069
298.15	.5848	.1655	889.39	.069
298.15	.705	.1174	902.38	.069
298.15	.8168	.075	913.79	.069
298.15	.0487	.5421	836.74	.069
298.15	.3333	.5332	853.3	.069
298.15	.2048	.4584	849.24	.069
298.15	.3949	.3641	864.52	.069
298.15	.4879	.3035	893.41	.069
298.15	.5978	.255	883.61	.069
298.15	.6889	.1784	895.73	.069
298.15	.9365	.0343	927.52	.069
298.15	.3102	.4316	856.5	.069
298.15	.7948	.1162	908.87	.069
298.15	.0441	.7154	830.42	.069
298.15	.0885	.789	829.77	.069
298.15	.1886	.6845	838.68	.069
298.15	.3154	.5481	851.12	.069
298.15	.4178	.4952	859.82	.069
298.15	.52	.3562	873.09	.069
298.15	.6045	.2989	882.14	.069
298.15	.7048	.2215	893.98	.069
298.15	.7921	.1645	904.49	.069
298.15	.7048	.2356	893.59	.069
298.15	.2555	.6012	845.73	.069
298.15	.1932	.4489	848.65	.069
298.15	.132	.3045	850.88	.069
298.15	.069	.1578	853.66	.069
298.15	.3551	.3578	862.86	.069
298.15	.2715	.2365	863.36	.069
298.15	.1785	.1546	860.9	.069
298.15	.5812	.2315	885.11	.069
298.15	.4432	.1954	877.22	.069
298.15	.3001	.1364	870.45	.069
308.15	.0432	.1946	842.31	.069
308.15	.105	.185	840.67	.069
308.15	.2004	.1523	854.41	.069
308.15	.2787	.1421	860.33	.069
308.15	.3564	.122	866.88	.069
308.15	.4854	.1094	877.29	.069
308.15	.5898	.0845	886.8	.069
308.15	.6978	.0645	896.68	.069
308.15	.7598	.0418	903.1	.069
308.15	.0549	.3665	835.85	.069
308.15	.1145	.3545	840.07	.069
308.15	.2046	.3102	847.84	.069
308.15	.3048	.256	857.11	.069
308.15	.4035	.2456	864.69	.069
308.15	.5578	.193	878.85	.069
308.15	.5848	.1655	882.32	.069
308.15	.705	.1174	894.4	.069
308.15	.8168	.075	905.88	.069
308.15	.0487	.5421	827.98	.069
308.15	.3333	.5332	846.23	.069
308.15	.2048	.4584	841.3	.069
308.15	.3949	.3641	858.52	.069
308.15	.4879	.3035	868.14	.069
308.15	.5978	.255	878.77	.069
308.15	.6889	.1784	889.81	.069
308.15	.9365	.0343	918.19	.069
308.15	.3102	.4316	849.5	.069
308.15	.7948	.1162	901.67	.069
308.15	.0441	.7154	819.89	.069
308.15	.0885	.789	818.81	.069
308.15	.1886	.6845	829.72	.069
308.15	.3154	.5481	844.33	.069
308.15	.4178	.4952	853.78	.069
308.15	.52	.3562	867.88	.069
308.15	.6045	.2989	876.99	.069
308.15	.7048	.2215	888.68	.069
308.15	.7921	.1645	898.62	.069
308.15	.7048	.2356	887.9	.069
308.15	.2555	.6012	837.9	.069
308.15	.1932	.4489	840.97	.069
308.15	.132	.3045	843.32	.069
308.15	.069	.1578	845.48	.069
308.15	.3551	.3578	856.02	.069
308.15	.2715	.2365	855.64	.069
308.15	.1785	.1546	852.82	.069
308.15	.5812	.2315	878.71	.069
308.15	.4432	.1954	869.98	.069
308.15	.3001	.1364	862.12	.069

System: pentan-1-ol + methyl methacrylate + 1,4-dimethylbenzene; phases: Liquid
Fixed: Pressure, kPa = 101
Property: Speed of sound, m/s (Liquid); method: Sing-around technique in a fixed-path interferometer
Temperature, K	Mole fraction of methyl methacrylate	Mole fraction of pentan-1-ol	Speed of sound, m/s	uncertainty
298.15	.0432	.1946	1292	.8
298.15	.105	.185	1296	.8
298.15	.2004	.1523	1279	.8
298.15	.2787	.1421	1271	.8
298.15	.3564	.122	1263	.8
298.15	.4854	.1094	1247	.8
298.15	.5898	.0845	1235	.8
298.15	.6978	.0645	1222	.8
298.15	.7598	.0418	1215	.8
298.15	.0549	.3665	1281	.8
298.15	.1145	.3545	1275	.8
298.15	.2046	.3102	1268	.8
298.15	.3048	.256	1259	.8
298.15	.4035	.2456	1247	.8
298.15	.5578	.193	1230	.8
298.15	.5848	.1655	1228	.8
298.15	.705	.1174	1215	.8
298.15	.8168	.075	1202	.8
298.15	.0487	.5421	1273	.8
298.15	.3333	.5332	1230	.8
298.15	.2048	.4584	1257	.8
298.15	.3949	.3641	1236	.8
298.15	.4879	.3035	1228	.8
298.15	.5978	.255	1215	.8
298.15	.6889	.1784	1210	.8
298.15	.9365	.0343	1187	.8
298.15	.3102	.4316	1243	.8
298.15	.7948	.1162	1200	.8
298.15	.0441	.7154	1267	.8
298.15	.0885	.789	1259	.8
298.15	.1886	.6845	1246	.8
298.15	.3154	.5481	1232	.8
298.15	.4178	.4952	1220	.8
298.15	.52	.3562	1216	.8
298.15	.6045	.2989	1208	.8
298.15	.7048	.2215	1201	.8
298.15	.7921	.1645	1193	.8
298.15	.7048	.2356	1199	.8
298.15	.2555	.6012	1239	.8
298.15	.1932	.4489	1259	.8
298.15	.132	.3045	1276	.8
298.15	.069	.1578	1292	.8
298.15	.3551	.3578	1243	.8
298.15	.2715	.2365	1265	.8
298.15	.1785	.1546	1281	.8
298.15	.5812	.2315	1221	.8
298.15	.4432	.1954	1246	.8
298.15	.3001	.1364	1268	.8
308.15	.0432	.1946	1248	.8
308.15	.105	.185	1252	.8
308.15	.2004	.1523	1231	.8
308.15	.2787	.1421	1222	.8
308.15	.3564	.122	1214	.8
308.15	.4854	.1094	1200	.8
308.15	.5898	.0845	1190	.8
308.15	.6978	.0645	1180	.8
308.15	.7598	.0418	1175	.8
308.15	.0549	.3665	1237	.8
308.15	.1145	.3545	1231	.8
308.15	.2046	.3102	1221	.8
308.15	.3048	.256	1211	.8
308.15	.4035	.2456	1201	.8
308.15	.5578	.193	1186	.8
308.15	.5848	.1655	1185	.8
308.15	.705	.1174	1174	.8
308.15	.8168	.075	1163	.8
308.15	.0487	.5421	1232	.8
308.15	.3333	.5332	1199	.8
308.15	.2048	.4584	1216	.8
308.15	.3949	.3641	1198	.8
308.15	.4879	.3035	1190	.8
308.15	.5978	.255	1178	.8
308.15	.6889	.1784	1171	.8
308.15	.9365	.0343	1151	.8
308.15	.3102	.4316	1206	.8
308.15	.7948	.1162	1162	.8
308.15	.0441	.7154	1229	.8
308.15	.0885	.789	1222	.8
308.15	.1886	.6845	1211	.8
308.15	.3154	.5481	1201	.8
308.15	.4178	.4952	1189	.8
308.15	.52	.3562	1183	.8
308.15	.6045	.2989	1175	.8
308.15	.7048	.2215	1165	.8
308.15	.7921	.1645	1157	.8
308.15	.7048	.2356	1164	.8
308.15	.2555	.6012	1206	.8
308.15	.1932	.4489	1218	.8
308.15	.132	.3045	1231	.8
308.15	.069	.1578	1247	.8
308.15	.3551	.3578	1203	.8
308.15	.2715	.2365	1216	.8
308.15	.1785	.1546	1234	.8
308.15	.5812	.2315	1182	.8
308.15	.4432	.1954	1198	.8
308.15	.3001	.1364	1219	.8

System: pentan-1-ol + methyl methacrylate + ethylbenzene; phases: Liquid
Fixed: Pressure, kPa = 101
Property: Mass density, kg/m3 (Liquid); method: Vibrating tube method
Temperature, K	Mole fraction of methyl methacrylate	Mole fraction of pentan-1-ol	Mass density, kg/m3	uncertainty
298.15	.043	.1901	859.46	.069
298.15	.101	.18	862.7	.069
298.15	.2012	.1588	869.73	.069
298.15	.2798	.1439	875.41	.069
298.15	.3659	.1257	882.24	.069
298.15	.4879	.1027	891.15	.069
298.15	.5915	.0817	899.36	.069
298.15	.6948	.0617	907.82	.069
298.15	.7559	.0475	914.2	.069
298.15	.0554	.377	849.25	.069
298.15	.1146	.353	853.49	.069
298.15	.2074	.3169	860.39	.069
298.15	.3049	.2766	868.22	.069
298.15	.4039	.2384	876.55	.069
298.15	.501	.1996	884.77	.069
298.15	.5978	.1609	891.29	.069
298.15	.7045	.1178	903.84	.069
298.15	.8198	.072	915.68	.069
298.15	.0519	.5646	839.75	.069
298.15	.1132	.5302	844.06	.069
298.15	.2014	.4772	851.06	.069
298.15	.3948	.3648	867.5	.069
298.15	.4856	.3084	876.68	.069
298.15	.5946	.2471	886.24	.069
298.15	.6848	.1887	896.82	.069
298.15	.9605	.0374	927.97	.069
298.15	.3048	.419	859.88	.069
298.15	.7984	.1142	911.19	.069
298.15	.0441	.7646	830.21	.069
298.15	.0912	.7264	833.78	.069
298.15	.12	.6402	842.35	.069
298.15	.3129	.5492	852.58	.069
298.15	.4195	.4675	862.33	.069
298.15	.5084	.3931	871.88	.069
298.15	.6032	.3175	882.36	.069
298.15	.7054	.2316	894.45	.069
298.15	.7898	.1665	905.29	.069
298.15	.7065	.2348	894.45	.069
298.15	.2564	.6048	847.08	.069
298.15	.1918	.4475	852.24	.069
298.15	.1345	.3154	856.91	.069
298.15	.0659	.16	862.28	.069
298.15	.3742	.3754	865.96	.069
298.15	.2748	.2765	866.55	.069
298.15	.1776	.1778	867.33	.069
298.15	.5875	.2521	886	.069
298.15	.4456	.1924	882.19	.069
298.15	.3098	.1321	877.83	.069
308.15	.043	.1901	847.42	.069
308.15	.101	.18	851.26	.069
308.15	.2012	.1588	858.35	.069
308.15	.2798	.1439	864.04	.069
308.15	.3659	.1257	870.57	.069
308.15	.4879	.1027	880.03	.069
308.15	.5915	.0817	888.46	.069
308.15	.6948	.0617	897.15	.069
308.15	.7559	.0475	902.6	.069
308.15	.0554	.377	839.67	.069
308.15	.1146	.353	844.08	.069
308.15	.2074	.3169	851.21	.069
308.15	.3049	.2766	859.16	.069
308.15	.4039	.2384	867.42	.069
308.15	.501	.1996	875.89	.069
308.15	.5978	.1609	884.65	.069
308.15	.7045	.1178	894.74	.069
308.15	.8198	.072	906.18	.069
308.15	.0519	.5646	830.49	.069
308.15	.1132	.5302	835.39	.069
308.15	.2014	.4772	842.91	.069
308.15	.3948	.3648	860.24	.069
308.15	.4856	.3084	869.05	.069
308.15	.5946	.2471	879.69	.069
308.15	.6848	.1887	889.3	.069
308.15	.9605	.0374	919.89	.069
308.15	.3048	.419	851.9	.069
308.15	.7984	.1142	902.04	.069
308.15	.0441	.7646	819.4	.069
308.15	.0912	.7264	823.75	.069
308.15	.12	.6402	829.95	.069
308.15	.3129	.5492	845.28	.069
308.15	.4195	.4675	856.1	.069
308.15	.5084	.3931	865.81	.069
308.15	.6032	.3175	876.3	.069
308.15	.7054	.2316	888.32	.069
308.15	.7898	.1665	898.32	.069
308.15	.7065	.2348	888.21	.069
308.15	.2564	.6048	839.02	.069
308.15	.1918	.4475	843.88	.069
308.15	.1345	.3154	846.98	.069
308.15	.0659	.16	850.11	.069
308.15	.3742	.3754	858.4	.069
308.15	.2748	.2765	857.29	.069
308.15	.1776	.1778	855.99	.069
308.15	.5875	.2521	878.93	.069
308.15	.4456	.1924	872.53	.069
308.15	.3098	.1321	866.56	.069

System: pentan-1-ol + methyl methacrylate + ethylbenzene; phases: Liquid
Fixed: Pressure, kPa = 101
Property: Speed of sound, m/s (Liquid); method: Sing-around technique in a fixed-path interferometer
Temperature, K	Mole fraction of methyl methacrylate	Mole fraction of pentan-1-ol	Speed of sound, m/s	uncertainty
298.15	.043	.1901	1298	.8
298.15	.101	.18	1293	.8
298.15	.2012	.1588	1284	.8
298.15	.2798	.1439	1275	.8
298.15	.3659	.1257	1265	.8
298.15	.4879	.1027	1250	.8
298.15	.5915	.0817	1237	.8
298.15	.6948	.0617	1224	.8
298.15	.7559	.0475	1216	.8
298.15	.0554	.377	1284	.8
298.15	.1146	.353	1279	.8
298.15	.2074	.3169	1271	.8
298.15	.3049	.2766	1262	.8
298.15	.4039	.2384	1252	.8
298.15	.501	.1996	1241	.8
298.15	.5978	.1609	1229	.8
298.15	.7045	.1178	1216	.8
298.15	.8198	.072	1202	.8
298.15	.0519	.5646	1273	.8
298.15	.1132	.5302	1267	.8
298.15	.2014	.4772	1259	.8
298.15	.3948	.3648	1240	.8
298.15	.4856	.3084	1231	.8
298.15	.5946	.2471	1219	.8
298.15	.6848	.1887	1211	.8
298.15	.9605	.0374	1183	.8
298.15	.3048	.419	1249	.8
298.15	.7984	.1142	1200	.8
298.15	.0441	.7646	1266	.8
298.15	.0912	.7264	1260	.8
298.15	.12	.6402	1260	.8
298.15	.3129	.5492	1235	.8
298.15	.4195	.4675	1224	.8
298.15	.5084	.3931	1217	.8
298.15	.6032	.3175	1209	.8
298.15	.7054	.2316	1201	.8
298.15	.7898	.1665	1194	.8
298.15	.7065	.2348	1200	.8
298.15	.2564	.6048	1241	.8
298.15	.1918	.4475	1263	.8
298.15	.1345	.3154	1280	.8
298.15	.0659	.16	1298	.8
298.15	.3742	.3754	1242	.8
298.15	.2748	.2765	1266	.8
298.15	.1776	.1778	1285	.8
298.15	.5875	.2521	1220	.8
298.15	.4456	.1924	1250	.8
298.15	.3098	.1321	1272	.8
308.15	.043	.1901	1251	.8
308.15	.101	.18	1242	.8
308.15	.2012	.1588	1226	.8
308.15	.2798	.1439	1215	.8
308.15	.3659	.1257	1205	.8
308.15	.4879	.1027	1193	.8
308.15	.5915	.0817	1185	.8
308.15	.6948	.0617	1177	.8
308.15	.7559	.0475	1173	.8
308.15	.0554	.377	1237	.8
308.15	.1146	.353	1228	.8
308.15	.2074	.3169	1214	.8
308.15	.3049	.2766	1201	.8
308.15	.4039	.2384	1191	.8
308.15	.501	.1996	1183	.8
308.15	.5978	.1609	1176	.8
308.15	.7045	.1178	1170	.8
308.15	.8198	.072	1162	.8
308.15	.0519	.5646	1231	.8
308.15	.1132	.5302	1222	.8
308.15	.2014	.4772	1212	.8
308.15	.3948	.3648	1194	.8
308.15	.4856	.3084	1186	.8
308.15	.5946	.2471	1176	.8
308.15	.6848	.1887	1169	.8
308.15	.9605	.0374	1146	.8
308.15	.3048	.419	1202	.8
308.15	.7984	.1142	1160	.8
308.15	.0441	.7646	1229	.8
308.15	.0912	.7264	1222	.8
308.15	.12	.6402	1220	.8
308.15	.3129	.5492	1203	.8
308.15	.4195	.4675	1194	.8
308.15	.5084	.3931	1185	.8
308.15	.6032	.3175	1175	.8
308.15	.7054	.2316	1165	.8
308.15	.7898	.1665	1157	.8
308.15	.7065	.2348	1164	.8
308.15	.2564	.6048	1208	.8
308.15	.1918	.4475	1213	.8
308.15	.1345	.3154	1226	.8
308.15	.0659	.16	1249	.8
308.15	.3742	.3754	1196	.8
308.15	.2748	.2765	1205	.8
308.15	.1776	.1778	1228	.8
308.15	.5875	.2521	1177	.8
308.15	.4456	.1924	1188	.8
308.15	.3098	.1321	1212	.8

System: methyl methacrylate + cyclohexane + 1-heptanol; phases: Liquid
Fixed: Pressure, kPa = 101
Property: Mass density, kg/m3 (Liquid); method: Vibrating tube method
Temperature, K	Mole fraction of methyl methacrylate	Mole fraction of 1-heptanol	Mass density, kg/m3	uncertainty
298.15	.05	.19	788.96	.069
298.15	.1002	.1835	794.89	.069
298.15	.2003	.1565	807.14	.069
298.15	.281	.142	818.18	.069
298.15	.3722	.124	831.26	.069
298.15	.4874	.11	848.88	.069
298.15	.5906	.0865	864.87	.069
298.15	.6912	.0687	881.22	.069
298.15	.764	.0451	893.27	.069
298.15	.0546	.3784	798.09	.069
298.15	.1155	.3556	804.61	.069
298.15	.206	.3145	814.88	.069
298.15	.305	.2656	826.93	.069
298.15	.4035	.2342	840.42	.069
298.15	.5	.1923	853.82	.069
298.15	.595	.1656	868.06	.069
298.15	.7042	.1187	884.68	.069
298.15	.8195	.071	903.59	.069
298.15	.0522	.5623	805.78	.069
298.15	.1131	.5321	811.93	.069
298.15	.202	.4778	821.27	.069
298.15	.3921	.3598	843.59	.069
298.15	.4872	.3084	855.99	.069
298.15	.587	.2475	869.39	.069
298.15	.6871	.1884	883.67	.069
298.15	.9352	.0365	924.66	.069
298.15	.3045	.4465	834.28	.069
298.15	.8105	.1243	902.93	.069
298.15	.0449	.7232	811.78	.069
298.15	.091	.7954	820.44	.069
298.15	.1998	.6812	829.54	.069
298.15	.3136	.5584	840.12	.069
298.15	.4151	.4965	852.27	.069
298.15	.5089	.3899	862.22	.069
298.15	.6019	.3165	873.92	.069
298.15	.7067	.2308	887.97	.069
298.15	.7939	.1787	901.13	.069
298.15	.7085	.2456	888.64	.069
298.15	.2585	.6041	834.29	.069
298.15	.1924	.4432	818.51	.069
298.15	.1345	.3098	805.05	.069
298.15	.0699	.1602	789.98	.069
298.15	.3766	.3784	842.02	.069
298.15	.2754	.2954	823.87	.069
298.15	.1782	.1754	804.91	.069
298.15	.5888	.2588	870.04	.069
298.15	.4482	.1945	845.79	.069
298.15	.3098	.1365	822.25	.069
308.15	.05	.19	779.61	.069
308.15	.1002	.1835	785.27	.069
308.15	.2003	.1565	796.98	.069
308.15	.281	.142	807.71	.069
308.15	.3722	.124	820.59	.069
308.15	.4874	.11	838.23	.069
308.15	.5906	.0865	854.37	.069
308.15	.6912	.0687	870.92	.069
308.15	.764	.0451	882.99	.069
308.15	.0546	.3784	789.32	.069
308.15	.1155	.3556	795.55	.069
308.15	.206	.3145	805.35	.069
308.15	.305	.2656	816.97	.069
308.15	.4035	.2342	830.26	.069
308.15	.5	.1923	843.59	.069
308.15	.595	.1656	857.96	.069
308.15	.7042	.1187	874.68	.069
308.15	.8195	.071	893.47	.069
308.15	.0522	.5623	797.54	.069
308.15	.1131	.5321	803.47	.069
308.15	.202	.4778	812.41	.069
308.15	.3921	.3598	834.02	.069
308.15	.4872	.3084	846.31	.069
308.15	.587	.2475	859.67	.069
308.15	.6871	.1884	873.99	.069
308.15	.9352	.0365	913.83	.069
308.15	.3045	.4465	825.12	.069
308.15	.8105	.1243	893.14	.069
308.15	.0449	.7232	803.96	.069
308.15	.091	.7954	812.84	.069
308.15	.1998	.6812	821.44	.069
308.15	.3136	.5584	831.44	.069
308.15	.4151	.4965	843.34	.069
308.15	.5089	.3899	852.97	.069
308.15	.6019	.3165	864.6	.069
308.15	.7067	.2308	878.58	.069
308.15	.7939	.1787	891.65	.069
308.15	.7085	.2456	879.33	.069
308.15	.2585	.6041	825.83	.069
308.15	.1924	.4432	809.54	.069
308.15	.1345	.3098	795.74	.069
308.15	.0699	.1602	780.44	.069
308.15	.3766	.3784	832.54	.069
308.15	.2754	.2954	814.09	.069
308.15	.1782	.1754	794.91	.069
308.15	.5888	.2588	860.39	.069
308.15	.4482	.1945	835.49	.069
308.15	.3098	.1365	811.7	.069

System: methyl methacrylate + cyclohexane + 1-heptanol; phases: Liquid
Fixed: Pressure, kPa = 101
Property: Speed of sound, m/s (Liquid); method: Sing-around technique in a fixed-path interferometer
Temperature, K	Mole fraction of methyl methacrylate	Mole fraction of 1-heptanol	Speed of sound, m/s	uncertainty
298.15	.05	.19	1237	.8
298.15	.1002	.1835	1230	.8
298.15	.2003	.1565	1217	.8
298.15	.281	.142	1208	.8
298.15	.3722	.124	1200	.8
298.15	.4874	.11	1193	.8
298.15	.5906	.0865	1188	.8
298.15	.6912	.0687	1186	.8
298.15	.764	.0451	1184	.8
298.15	.0546	.3784	1242	.8
298.15	.1155	.3556	1235	.8
298.15	.206	.3145	1225	.8
298.15	.305	.2656	1214	.8
298.15	.4035	.2342	1206	.8
298.15	.5	.1923	1199	.8
298.15	.595	.1656	1195	.8
298.15	.7042	.1187	1189	.8
298.15	.8195	.071	1186	.8
298.15	.0522	.5623	1255	.8
298.15	.1131	.5321	1249	.8
298.15	.202	.4778	1239	.8
298.15	.3921	.3598	1219	.8
298.15	.4872	.3084	1211	.8
298.15	.587	.2475	1203	.8
298.15	.6871	.1884	1196	.8
298.15	.9352	.0365	1184	.8
298.15	.3045	.4465	1232	.8
298.15	.8105	.1243	1189	.8
298.15	.0449	.7232	1273	.8
298.15	.091	.7954	1284	.8
298.15	.1998	.6812	1265	.8
298.15	.3136	.5584	1245	.8
298.15	.4151	.4965	1235	.8
298.15	.5089	.3899	1220	.8
298.15	.6019	.3165	1210	.8
298.15	.7067	.2308	1200	.8
298.15	.7939	.1787	1194	.8
298.15	.7085	.2456	1201	.8
298.15	.2585	.6041	1253	.8
298.15	.1924	.4432	1236	.8
298.15	.1345	.3098	1231	.8
298.15	.0699	.1602	1235	.8
298.15	.3766	.3784	1222	.8
298.15	.2754	.2954	1218	.8
298.15	.1782	.1754	1221	.8
298.15	.5888	.2588	1204	.8
298.15	.4482	.1945	1201	.8
298.15	.3098	.1365	1206	.8
308.15	.05	.19	1192	.8
308.15	.1002	.1835	1184	.8
308.15	.2003	.1565	1170	.8
308.15	.281	.142	1161	.8
308.15	.3722	.124	1154	.8
308.15	.4874	.11	1148	.8
308.15	.5906	.0865	1146	.8
308.15	.6912	.0687	1145	.8
308.15	.764	.0451	1144	.8
308.15	.0546	.3784	1197	.8
308.15	.1155	.3556	1189	.8
308.15	.206	.3145	1178	.8
308.15	.305	.2656	1168	.8
308.15	.4035	.2342	1162	.8
308.15	.5	.1923	1156	.8
308.15	.595	.1656	1154	.8
308.15	.7042	.1187	1150	.8
308.15	.8195	.071	1148	.8
308.15	.0522	.5623	1212	.8
308.15	.1131	.5321	1205	.8
308.15	.202	.4778	1195	.8
308.15	.3921	.3598	1177	.8
308.15	.4872	.3084	1171	.8
308.15	.587	.2475	1164	.8
308.15	.6871	.1884	1158	.8
308.15	.9352	.0365	1147	.8
308.15	.3045	.4465	1189	.8
308.15	.8105	.1243	1153	.8
308.15	.0449	.7232	1233	.8
308.15	.091	.7954	1245	.8
308.15	.1998	.6812	1225	.8
308.15	.3136	.5584	1205	.8
308.15	.4151	.4965	1196	.8
308.15	.5089	.3899	1182	.8
308.15	.6019	.3165	1173	.8
308.15	.7067	.2308	1163	.8
308.15	.7939	.1787	1159	.8
308.15	.7085	.2456	1165	.8
308.15	.2585	.6041	1212	.8
308.15	.1924	.4432	1191	.8
308.15	.1345	.3098	1184	.8
308.15	.0699	.1602	1188	.8
308.15	.3766	.3784	1180	.8
308.15	.2754	.2954	1173	.8
308.15	.1782	.1754	1173	.8
308.15	.5888	.2588	1165	.8
308.15	.4482	.1945	1157	.8
308.15	.3098	.1365	1159	.8

System: benzene + methyl methacrylate + 1-heptanol; phases: Liquid
Fixed: Pressure, kPa = 101
Property: Mass density, kg/m3 (Liquid); method: Vibrating tube method
Temperature, K	Mole fraction of methyl methacrylate	Mole fraction of 1-heptanol	Mass density, kg/m3	uncertainty
298.15	.0485	.1906	860.2	.069
298.15	.1012	.1812	864.14	.069
298.15	.2015	.1554	872.47	.069
298.15	.2561	.1398	877.25	.069
298.15	.3721	.1198	886.36	.069
298.15	.4856	.1025	895.09	.069
298.15	.5898	.0812	903.62	.069
298.15	.6915	.0612	911.88	.069
298.15	.7598	.0478	917.45	.069
298.15	.0546	.3765	848.24	.069
298.15	.1099	.3521	852.8	.069
298.15	.2075	.3126	861.04	.069
298.15	.3065	.2748	869.59	.069
298.15	.4035	.2378	878.18	.069
298.15	.5012	.1989	887.14	.069
298.15	.5946	.1598	896.05	.069
298.15	.7045	.1178	906.41	.069
298.15	.8146	.0719	917.63	.069
298.15	.0525	.5645	838.18	.069
298.15	.1126	.5219	843.34	.069
298.15	.2015	.4773	850.49	.069
298.15	.392	.3546	868.8	.069
298.15	.4875	.3075	877.5	.069
298.15	.5874	.2415	888.23	.069
298.15	.6868	.1874	898.38	.069
298.15	.9365	.0365	928.78	.069
298.15	.3048	.4098	860.25	.069
298.15	.8106	.1146	912.37	.069
298.15	.0436	.7632	829.1	.069
298.15	.0918	.7154	833.22	.069
298.15	.1987	.6393	841.87	.069
298.15	.3129	.5502	852.36	.069
298.15	.4141	.4702	862.34	.069
298.15	.5056	.3898	872.38	.069
298.15	.6015	.3201	882.41	.069
298.15	.7056	.2301	895.23	.069
298.15	.7926	.1645	905.95	.069
298.15	.7054	.2298	895.25	.069
298.15	.2578	.5998	846.86	.069
298.15	.1915	.4456	851.76	.069
298.15	.1345	.3145	856.63	.069
298.15	.0694	.1589	863.92	.069
298.15	.3756	.3754	866.45	.069
298.15	.2748	.2741	867.75	.069
298.15	.1777	.1769	869.23	.069
298.15	.5847	.2521	887.18	.069
298.15	.4456	.191	884.56	.069
298.15	.3045	.1329	880.91	.069
308.15	.0485	.1906	850.45	.069
308.15	.1012	.1812	854.27	.069
308.15	.2015	.1554	862.34	.069
308.15	.2561	.1398	866.97	.069
308.15	.3721	.1198	875.84	.069
308.15	.4856	.1025	884.35	.069
308.15	.5898	.0812	892.64	.069
308.15	.6915	.0612	900.67	.069
308.15	.7598	.0478	906.08	.069
308.15	.0546	.3765	839.35	.069
308.15	.1099	.3521	843.75	.069
308.15	.2075	.3126	851.67	.069
308.15	.3065	.2748	859.91	.069
308.15	.4035	.2378	868.24	.069
308.15	.5012	.1989	876.95	.069
308.15	.5946	.1598	885.64	.069
308.15	.7045	.1178	895.76	.069
308.15	.8146	.0719	906.65	.069
308.15	.0525	.5645	830.02	.069
308.15	.1126	.5219	834.97	.069
308.15	.2015	.4773	841.83	.069
308.15	.392	.3546	859.39	.069
308.15	.4875	.3075	867.87	.069
308.15	.5874	.2415	878.35	.069
308.15	.6868	.1874	888.33	.069
308.15	.9365	.0365	917.55	.069
308.15	.3048	.4098	851.17	.069
308.15	.8106	.1146	901.99	.069
308.15	.0436	.7632	821.57	.069
308.15	.0918	.7154	825.53	.069
308.15	.1987	.6393	833.79	.069
308.15	.3129	.5502	843.78	.069
308.15	.4141	.4702	853.39	.069
308.15	.5056	.3898	863.15	.069
308.15	.6015	.3201	873.03	.069
308.15	.7056	.2301	885.62	.069
308.15	.7926	.1645	896.12	.069
308.15	.7054	.2298	885.64	.069
308.15	.2578	.5998	838.53	.069
308.15	.1915	.4456	842.99	.069
308.15	.1345	.3145	847.37	.069
308.15	.0694	.1589	853.98	.069
308.15	.3756	.3754	857.15	.069
308.15	.2748	.2741	858.11	.069
308.15	.1777	.1769	859.23	.069
308.15	.5847	.2521	877.35	.069
308.15	.4456	.191	874.35	.069
308.15	.3045	.1329	870.54	.069

System: benzene + methyl methacrylate + 1-heptanol; phases: Liquid
Fixed: Pressure, kPa = 101
Property: Speed of sound, m/s (Liquid); method: Sing-around technique in a fixed-path interferometer
Temperature, K	Mole fraction of methyl methacrylate	Mole fraction of 1-heptanol	Speed of sound, m/s	uncertainty
298.15	.0485	.1906	1283	.8
298.15	.1012	.1812	1280	.8
298.15	.2015	.1554	1272	.8
298.15	.2561	.1398	1267	.8
298.15	.3721	.1198	1254	.8
298.15	.4856	.1025	1241	.8
298.15	.5898	.0812	1229	.8
298.15	.6915	.0612	1217	.8
298.15	.7598	.0478	1209	.8
298.15	.0546	.3765	1280	.8
298.15	.1099	.3521	1277	.8
298.15	.2075	.3126	1270	.8
298.15	.3065	.2748	1261	.8
298.15	.4035	.2378	1250	.8
298.15	.5012	.1989	1238	.8
298.15	.5946	.1598	1227	.8
298.15	.7045	.1178	1213	.8
298.15	.8146	.0719	1201	.8
298.15	.0525	.5645	1284	.8
298.15	.1126	.5219	1279	.8
298.15	.2015	.4773	1271	.8
298.15	.392	.3546	1250	.8
298.15	.4875	.3075	1238	.8
298.15	.5874	.2415	1225	.8
298.15	.6868	.1874	1213	.8
298.15	.9365	.0365	1187	.8
298.15	.3048	.4098	1260	.8
298.15	.8106	.1146	1199	.8
298.15	.0436	.7632	1296	.8
298.15	.0918	.7154	1289	.8
298.15	.1987	.6393	1276	.8
298.15	.3129	.5502	1260	.8
298.15	.4141	.4702	1245	.8
298.15	.5056	.3898	1233	.8
298.15	.6015	.3201	1220	.8
298.15	.7056	.2301	1208	.8
298.15	.7926	.1645	1198	.8
298.15	.7054	.2298	1208	.8
298.15	.2578	.5998	1268	.8
298.15	.1915	.4456	1272	.8
298.15	.1345	.3145	1275	.8
298.15	.0694	.1589	1283	.8
298.15	.3756	.3754	1252	.8
298.15	.2748	.2741	1264	.8
298.15	.1777	.1769	1274	.8
298.15	.5847	.2521	1225	.8
298.15	.4456	.191	1245	.8
298.15	.3045	.1329	1262	.8
308.15	.0485	.1906	1234	.8
308.15	.1012	.1812	1225	.8
308.15	.2015	.1554	1208	.8
308.15	.2561	.1398	1199	.8
308.15	.3721	.1198	1183	.8
308.15	.4856	.1025	1175	.8
308.15	.5898	.0812	1171	.8
308.15	.6915	.0612	1169	.8
308.15	.7598	.0478	1168	.8
308.15	.0546	.3765	1230	.8
308.15	.1099	.3521	1221	.8
308.15	.2075	.3126	1206	.8
308.15	.3065	.2748	1193	.8
308.15	.4035	.2378	1184	.8
308.15	.5012	.1989	1177	.8
308.15	.5946	.1598	1173	.8
308.15	.7045	.1178	1168	.8
308.15	.8146	.0719	1163	.8
308.15	.0525	.5645	1238	.8
308.15	.1126	.5219	1229	.8
308.15	.2015	.4773	1219	.8
308.15	.392	.3546	1199	.8
308.15	.4875	.3075	1191	.8
308.15	.5874	.2415	1181	.8
308.15	.6868	.1874	1173	.8
308.15	.9365	.0365	1152	.8
308.15	.3048	.4098	1208	.8
308.15	.8106	.1146	1163	.8
308.15	.0436	.7632	1255	.8
308.15	.0918	.7154	1247	.8
308.15	.1987	.6393	1235	.8
308.15	.3129	.5502	1222	.8
308.15	.4141	.4702	1210	.8
308.15	.5056	.3898	1198	.8
308.15	.6015	.3201	1186	.8
308.15	.7056	.2301	1173	.8
308.15	.7926	.1645	1164	.8
308.15	.7054	.2298	1173	.8
308.15	.2578	.5998	1229	.8
308.15	.1915	.4456	1217	.8
308.15	.1345	.3145	1217	.8
308.15	.0694	.1589	1232	.8
308.15	.3756	.3754	1202	.8
308.15	.2748	.2741	1196	.8
308.15	.1777	.1769	1211	.8
308.15	.5847	.2521	1183	.8
308.15	.4456	.191	1178	.8
308.15	.3045	.1329	1191	.8

System: methyl methacrylate + toluene + 1-heptanol; phases: Liquid
Fixed: Pressure, kPa = 101
Property: Mass density, kg/m3 (Liquid); method: Vibrating tube method
Temperature, K	Mole fraction of methyl methacrylate	Mole fraction of 1-heptanol	Mass density, kg/m3	uncertainty
298.15	.0512	.191	854.6	.069
298.15	.0998	.184	858.4	.069
298.15	.1987	.158	867.03	.069
298.15	.2789	.1432	873.76	.069
298.15	.3645	.1252	881.14	.069
298.15	.4875	.1089	890.93	.069
298.15	.5815	.0854	899.25	.069
298.15	.6901	.0684	908.03	.069
298.15	.7632	.0432	915.41	.069
298.15	.0548	.3778	845.46	.069
298.15	.115	.3554	850.27	.069
298.15	.2054	.3141	858.24	.069
298.15	.3045	.2674	867.47	.069
298.15	.4032	.2332	876.15	.069
298.15	.4999	.1924	885.29	.069
298.15	.5984	.1635	893.78	.069
298.15	.7051	.1187	904.33	.069
298.15	.8145	.0706	916.04	.069
298.15	.0512	.5616	837.24	.069
298.15	.1098	.5321	841.67	.069
298.15	.2001	.4787	849.33	.069
298.15	.3912	.3678	866.79	.069
298.15	.4871	.3089	876.26	.069
298.15	.5789	.2478	886.01	.069
298.15	.6778	.1884	896.56	.069
298.15	.94	.0375	928.36	.069
298.15	.3012	.4465	856.94	.069
298.15	.8015	.1235	909.9	.069
298.15	.0439	.7244	830.44	.069
298.15	.089	.7963	829.72	.069
298.15	.1974	.6912	839.28	.069
298.15	.3035	.5589	851.18	.069
298.15	.4098	.4955	860.38	.069
298.15	.5075	.3898	872.1	.069
298.15	.5984	.3165	882.08	.069
298.15	.6995	.2335	894.05	.069
298.15	.7865	.1789	903.74	.069
298.15	.6954	.2445	892.92	.069
298.15	.2514	.6065	846.01	.069
298.15	.1859	.4421	850.3	.069
298.15	.1285	.3098	853.46	.069
298.15	.0548	.1632	856.4	.069
298.15	.3698	.3765	864.99	.069
298.15	.2698	.2956	863.5	.069
298.15	.1698	.1752	863.88	.069
298.15	.585	.2578	885.62	.069
298.15	.4472	.1865	882.31	.069
298.15	.31	.1298	876.92	.069
308.15	.0512	.191	824.23	.069
308.15	.0998	.184	829.01	.069
308.15	.1987	.158	839.15	.069
308.15	.2789	.1432	847.35	.069
308.15	.3645	.1252	856.21	.069
308.15	.4875	.1089	868.61	.069
308.15	.5815	.0854	878.59	.069
308.15	.6901	.0684	889.8	.069
308.15	.7632	.0432	898.27	.069
308.15	.0548	.3778	821.81	.069
308.15	.115	.3554	827.35	.069
308.15	.2054	.3141	836.12	.069
308.15	.3045	.2674	846.17	.069
308.15	.4032	.2332	856.15	.069
308.15	.4999	.1924	866.4	.069
308.15	.5984	.1635	876.59	.069
308.15	.7051	.1187	888.6	.069
308.15	.8145	.0706	901.7	.069
308.15	.0512	.5616	819.47	.069
308.15	.1098	.5321	824.39	.069
308.15	.2001	.4787	832.5	.069
308.15	.3912	.3678	851.04	.069
308.15	.4871	.3089	861.08	.069
308.15	.5789	.2478	871.33	.069
308.15	.6778	.1884	882.7	.069
308.15	.94	.0375	916.53	.069
308.15	.3012	.4465	841.49	.069
308.15	.8015	.1235	897.44	.069
308.15	.0439	.7244	817.35	.069
308.15	.089	.7963	819.65	.069
308.15	.1974	.6912	828.72	.069
308.15	.3035	.5589	839.22	.069
308.15	.4098	.4955	849.11	.069
308.15	.5075	.3898	860.15	.069
308.15	.5984	.3165	870.36	.069
308.15	.6995	.2335	882.58	.069
308.15	.7865	.1789	893.08	.069
308.15	.6954	.2445	881.72	.069
308.15	.2514	.6065	834.24	.069
308.15	.1859	.4421	831.97	.069
308.15	.1285	.3098	829.32	.069
308.15	.0548	.1632	825.07	.069
308.15	.3698	.3765	848.97	.069
308.15	.2698	.2956	842.31	.069
308.15	.1698	.1752	835.93	.069
308.15	.585	.2578	871.47	.069
308.15	.4472	.1865	861.79	.069
308.15	.31	.1298	850.78	.069

System: methyl methacrylate + toluene + 1-heptanol; phases: Liquid
Fixed: Pressure, kPa = 101
Property: Speed of sound, m/s (Liquid); method: Sing-around technique in a fixed-path interferometer
Temperature, K	Mole fraction of methyl methacrylate	Mole fraction of 1-heptanol	Speed of sound, m/s	uncertainty
298.15	.0512	.191	1289	.8
298.15	.0998	.184	1286	.8
298.15	.1987	.158	1277	.8
298.15	.2789	.1432	1269	.8
298.15	.3645	.1252	1260	.8
298.15	.4875	.1089	1245	.8
298.15	.5815	.0854	1234	.8
298.15	.6901	.0684	1220	.8
298.15	.7632	.0432	1212	.8
298.15	.0548	.3778	1288	.8
298.15	.115	.3554	1283	.8
298.15	.2054	.3141	1274	.8
298.15	.3045	.2674	1264	.8
298.15	.4032	.2332	1252	.8
298.15	.4999	.1924	1241	.8
298.15	.5984	.1635	1228	.8
298.15	.7051	.1187	1215	.8
298.15	.8145	.0706	1203	.8
298.15	.0512	.5616	1291	.8
298.15	.1098	.5321	1286	.8
298.15	.2001	.4787	1276	.8
298.15	.3912	.3678	1253	.8
298.15	.4871	.3089	1241	.8
298.15	.5789	.2478	1229	.8
298.15	.6778	.1884	1216	.8
298.15	.94	.0375	1187	.8
298.15	.3012	.4465	1264	.8
298.15	.8015	.1235	1201	.8
298.15	.0439	.7244	1298	.8
298.15	.089	.7963	1299	.8
298.15	.1974	.6912	1282	.8
298.15	.3035	.5589	1265	.8
298.15	.4098	.4955	1250	.8
298.15	.5075	.3898	1236	.8
298.15	.5984	.3165	1223	.8
298.15	.6995	.2335	1210	.8
298.15	.7865	.1789	1199	.8
298.15	.6954	.2445	1210	.8
298.15	.2514	.6065	1273	.8
298.15	.1859	.4421	1277	.8
298.15	.1285	.3098	1282	.8
298.15	.0548	.1632	1290	.8
298.15	.3698	.3765	1256	.8
298.15	.2698	.2956	1268	.8
298.15	.1698	.1752	1280	.8
298.15	.585	.2578	1227	.8
298.15	.4472	.1865	1248	.8
298.15	.31	.1298	1266	.8
308.15	.0512	.191	1241	.8
308.15	.0998	.184	1236	.8
308.15	.1987	.158	1224	.8
308.15	.2789	.1432	1215	.8
308.15	.3645	.1252	1205	.8
308.15	.4875	.1089	1193	.8
308.15	.5815	.0854	1185	.8
308.15	.6901	.0684	1177	.8
308.15	.7632	.0432	1172	.8
308.15	.0548	.3778	1240	.8
308.15	.115	.3554	1233	.8
308.15	.2054	.3141	1221	.8
308.15	.3045	.2674	1209	.8
308.15	.4032	.2332	1199	.8
308.15	.4999	.1924	1190	.8
308.15	.5984	.1635	1182	.8
308.15	.7051	.1187	1173	.8
308.15	.8145	.0706	1164	.8
308.15	.0512	.5616	1246	.8
308.15	.1098	.5321	1239	.8
308.15	.2001	.4787	1229	.8
308.15	.3912	.3678	1207	.8
308.15	.4871	.3089	1196	.8
308.15	.5789	.2478	1186	.8
308.15	.6778	.1884	1176	.8
308.15	.94	.0375	1151	.8
308.15	.3012	.4465	1219	.8
308.15	.8015	.1235	1164	.8
308.15	.0439	.7244	1256	.8
308.15	.089	.7963	1258	.8
308.15	.1974	.6912	1241	.8
308.15	.3035	.5589	1225	.8
308.15	.4098	.4955	1212	.8
308.15	.5075	.3898	1198	.8
308.15	.5984	.3165	1186	.8
308.15	.6995	.2335	1174	.8
308.15	.7865	.1789	1164	.8
308.15	.6954	.2445	1174	.8
308.15	.2514	.6065	1232	.8
308.15	.1859	.4421	1228	.8
308.15	.1285	.3098	1231	.8
308.15	.0548	.1632	1241	.8
308.15	.3698	.3765	1209	.8
308.15	.2698	.2956	1214	.8
308.15	.1698	.1752	1227	.8
308.15	.585	.2578	1186	.8
308.15	.4472	.1865	1194	.8
308.15	.31	.1298	1211	.8

System: methyl methacrylate + 1,4-dimethylbenzene + 1-heptanol; phases: Liquid
Fixed: Pressure, kPa = 101
Property: Mass density, kg/m3 (Liquid); method: Vibrating tube method
Temperature, K	Mole fraction of methyl methacrylate	Mole fraction of 1-heptanol	Mass density, kg/m3	uncertainty
298.15	.0398	.1904	850.29	.069
298.15	.095	.1821	848.8	.069
298.15	.2005	.1554	862.4	.069
298.15	.2698	.142	867.92	.069
298.15	.3698	.1232	876.22	.069
298.15	.4851	.1089	885.81	.069
298.15	.5886	.0845	895.52	.069
298.15	.6874	.0645	904.97	.069
298.15	.7548	.0418	912.39	.069
298.15	.0548	.3652	844	.069
298.15	.1089	.3562	847.47	.069
298.15	.1956	.312	854.69	.069
298.15	.2989	.255	864.17	.069
298.15	.3945	.2455	871.26	.069
298.15	.5348	.1921	884.37	.069
298.15	.5798	.1653	889.39	.069
298.15	.7065	.1175	902.38	.069
298.15	.8065	.0742	913.79	.069
298.15	.0451	.5432	836.74	.069
298.15	.3326	.5317	853.3	.069
298.15	.2106	.4578	849.24	.069
298.15	.3845	.3632	864.52	.069
298.15	.5789	.2554	883.61	.069
298.15	.6784	.1789	895.73	.069
298.15	.9265	.0335	927.52	.069
298.15	.3045	.4236	856.5	.069
298.15	.7895	.1156	908.87	.069
298.15	.044	.7164	830.42	.069
298.15	.0887	.7894	829.77	.069
298.15	.19	.6865	838.68	.069
298.15	.3098	.55	851.12	.069
298.15	.4145	.4978	859.82	.069
298.15	.5098	.3565	873.09	.069
298.15	.6015	.3042	882.14	.069
298.15	.7055	.23	893.98	.069
298.15	.7854	.1645	904.49	.069
298.15	.7045	.2345	893.59	.069
298.15	.2554	.6018	845.73	.069
298.15	.1942	.4489	848.65	.069
298.15	.1326	.3092	850.88	.069
298.15	.068	.1545	853.66	.069
298.15	.3559	.3589	862.86	.069
298.15	.2712	.2335	863.36	.069
298.15	.1765	.1526	860.9	.069
298.15	.5798	.2323	885.11	.069
298.15	.4395	.1956	877.22	.069
298.15	.3	.1352	870.45	.069
308.15	.0398	.1904	841.99	.069
308.15	.095	.1821	840.57	.069
308.15	.2005	.1554	853.44	.069
308.15	.2698	.142	858.69	.069
308.15	.3698	.1232	866.65	.069
308.15	.4851	.1089	875.92	.069
308.15	.5886	.0845	885.38	.069
308.15	.6874	.0645	894.59	.069
308.15	.7548	.0418	901.77	.069
308.15	.0548	.3652	836.13	.069
308.15	.1089	.3562	839.42	.069
308.15	.1956	.312	846.22	.069
308.15	.2989	.255	855.22	.069
308.15	.3945	.2455	862.02	.069
308.15	.5348	.1921	874.73	.069
308.15	.5798	.1653	879.62	.069
308.15	.7065	.1175	892.32	.069
308.15	.8065	.0742	903.39	.069
308.15	.0451	.5432	829.25	.069
308.15	.3326	.5317	844.88	.069
308.15	.2106	.4578	841.08	.069
308.15	.3845	.3632	855.62	.069
308.15	.5789	.2554	874.19	.069
308.15	.6784	.1789	886.02	.069
308.15	.9265	.0335	916.47	.069
308.15	.3045	.4236	847.96	.069
308.15	.7895	.1156	898.82	.069
308.15	.044	.7164	823.17	.069
308.15	.0887	.7894	822.5	.069
308.15	.19	.6865	830.97	.069
308.15	.3098	.55	842.81	.069
308.15	.4145	.4978	851.14	.069
308.15	.5098	.3565	864	.069
308.15	.6015	.3042	872.91	.069
308.15	.7055	.23	884.58	.069
308.15	.7854	.1645	894.83	.069
308.15	.7045	.2345	884.21	.069
308.15	.2554	.6018	837.68	.069
308.15	.1942	.4489	840.52	.069
308.15	.1326	.3092	842.62	.069
308.15	.068	.1545	845.15	.069
308.15	.3559	.3589	854.02	.069
308.15	.2712	.2335	854.42	.069
308.15	.1765	.1526	852.01	.069
308.15	.5798	.2323	875.6	.069
308.15	.4395	.1956	867.73	.069
308.15	.3	.1352	861.1	.069
298.15	.4865	.3026	893.41	.069
308.15	.4865	.3026	884.72	.069

System: methyl methacrylate + 1,4-dimethylbenzene + 1-heptanol; phases: Liquid
Fixed: Pressure, kPa = 101
Property: Speed of sound, m/s (Liquid); method: Sing-around technique in a fixed-path interferometer
Temperature, K	Mole fraction of methyl methacrylate	Mole fraction of 1-heptanol	Speed of sound, m/s	uncertainty
298.15	.0398	.1904	1361	.8
298.15	.095	.1821	1367	.8
298.15	.2005	.1554	1337	.8
298.15	.2698	.142	1325	.8
298.15	.3698	.1232	1307	.8
298.15	.4851	.1089	1284	.8
298.15	.5886	.0845	1264	.8
298.15	.6874	.0645	1245	.8
298.15	.7548	.0418	1233	.8
298.15	.0548	.3652	1338	.8
298.15	.1089	.3562	1331	.8
298.15	.1956	.312	1320	.8
298.15	.2989	.255	1306	.8
298.15	.3945	.2455	1288	.8
298.15	.5348	.1921	1263	.8
298.15	.5798	.1653	1256	.8
298.15	.7065	.1175	1232	.8
298.15	.8065	.0742	1215	.8
298.15	.0451	.5432	1325	.8
298.15	.3326	.5317	1271	.8
298.15	.2106	.4578	1304	.8
298.15	.3845	.3632	1277	.8
298.15	.5789	.2554	1244	.8
298.15	.6784	.1789	1230	.8
298.15	.9265	.0335	1193	.8
298.15	.3045	.4236	1288	.8
298.15	.7895	.1156	1212	.8
298.15	.044	.7164	1317	.8
298.15	.0887	.7894	1308	.8
298.15	.19	.6865	1292	.8
298.15	.3098	.55	1275	.8
298.15	.4145	.4978	1255	.8
298.15	.5098	.3565	1247	.8
298.15	.6015	.3042	1231	.8
298.15	.7055	.23	1215	.8
298.15	.7854	.1645	1205	.8
298.15	.7045	.2345	1214	.8
298.15	.2554	.6018	1283	.8
298.15	.1942	.4489	1308	.8
298.15	.1326	.3092	1331	.8
298.15	.068	.1545	1362	.8
298.15	.3559	.3589	1284	.8
298.15	.2712	.2335	1314	.8
298.15	.1765	.1526	1342	.8
298.15	.5798	.2323	1247	.8
298.15	.4395	.1956	1284	.8
298.15	.3	.1352	1320	.8
308.15	.0398	.1904	1254	.8
308.15	.095	.1821	1258	.8
308.15	.2005	.1554	1235	.8
308.15	.2698	.142	1227	.8
308.15	.3698	.1232	1216	.8
308.15	.4851	.1089	1204	.8
308.15	.5886	.0845	1194	.8
308.15	.6874	.0645	1184	.8
308.15	.7548	.0418	1178	.8
308.15	.0548	.3652	1252	.8
308.15	.1089	.3562	1244	.8
308.15	.1956	.312	1232	.8
308.15	.2989	.255	1220	.8
308.15	.3945	.2455	1209	.8
308.15	.5348	.1921	1194	.8
308.15	.5798	.1653	1190	.8
308.15	.7065	.1175	1178	.8
308.15	.8065	.0742	1168	.8
308.15	.0451	.5432	1256	.8
308.15	.3326	.5317	1223	.8
308.15	.2106	.4578	1233	.8
308.15	.3845	.3632	1212	.8
308.15	.5789	.2554	1189	.8
308.15	.6784	.1789	1179	.8
308.15	.9265	.0335	1154	.8
308.15	.3045	.4236	1222	.8
308.15	.7895	.1156	1167	.8
308.15	.044	.7164	1262	.8
308.15	.0887	.7894	1260	.8
308.15	.19	.6865	1244	.8
308.15	.3098	.55	1226	.8
308.15	.4145	.4978	1213	.8
308.15	.5098	.3565	1199	.8
308.15	.6015	.3042	1187	.8
308.15	.7055	.23	1174	.8
308.15	.7854	.1645	1166	.8
308.15	.7045	.2345	1174	.8
308.15	.2554	.6018	1234	.8
308.15	.1942	.4489	1235	.8
308.15	.1326	.3092	1241	.8
308.15	.068	.1545	1251	.8
308.15	.3559	.3589	1215	.8
308.15	.2712	.2335	1223	.8
308.15	.1765	.1526	1238	.8
308.15	.5798	.2323	1189	.8
308.15	.4395	.1956	1204	.8
308.15	.3	.1352	1224	.8

System: methyl methacrylate + ethylbenzene + 1-heptanol; phases: Liquid
Fixed: Pressure, kPa = 101
Property: Mass density, kg/m3 (Liquid); method: Vibrating tube method
Temperature, K	Mole fraction of methyl methacrylate	Mole fraction of 1-heptanol	Mass density, kg/m3	uncertainty
298.15	.049	.1889	859.46	.069
298.15	.1004	.1805	862.7	.069
298.15	.2005	.1578	869.73	.069
298.15	.2812	.1435	875.41	.069
298.15	.3723	.1246	882.24	.069
298.15	.4879	.1016	891.15	.069
298.15	.5907	.0815	899.36	.069
298.15	.6917	.0613	907.82	.069
298.15	.7642	.0465	914.2	.069
298.15	.0546	.3765	849.25	.069
298.15	.1152	.3526	853.49	.069
298.15	.208	.3165	860.39	.069
298.15	.3055	.2764	868.22	.069
298.15	.4039	.2354	876.55	.069
298.15	.5005	.1992	884.77	.069
298.15	.598	.1902	891.29	.069
298.15	.7049	.1174	903.84	.069
298.15	.8199	.0724	915.68	.069
298.15	.0528	.5643	839.75	.069
298.15	.1134	.53	844.06	.069
298.15	.2021	.4765	851.06	.069
298.15	.3924	.3645	867.5	.069
298.15	.4873	.3038	876.68	.069
298.15	.5873	.2487	886.24	.069
298.15	.6872	.1879	896.82	.069
298.15	.9353	.0365	927.97	.069
298.15	.3042	.4125	859.88	.069
298.15	.81	.1123	911.19	.069
298.15	.0445	.7656	830.21	.069
298.15	.0919	.7254	833.78	.069
298.15	.1994	.6412	842.35	.069
298.15	.3137	.5489	852.58	.069
298.15	.4153	.4678	862.33	.069
298.15	.5087	.3926	871.88	.069
298.15	.6012	.3121	882.36	.069
298.15	.7062	.2307	894.45	.069
298.15	.7931	.1645	905.29	.069
298.15	.7081	.2321	894.45	.069
298.15	.2588	.6023	847.08	.069
298.15	.192	.4456	852.24	.069
298.15	.1349	.3098	856.91	.069
298.15	.0692	.1598	862.28	.069
298.15	.3761	.375	865.96	.069
298.15	.275	.2756	866.55	.069
298.15	.1783	.1756	867.33	.069
298.15	.5881	.2525	886	.069
298.15	.4489	.192	882.19	.069
298.15	.3091	.1325	877.83	.069
308.15	.049	.1889	845.96	.069
308.15	.1004	.1805	849.29	.069
308.15	.2005	.1578	856.42	.069
308.15	.2812	.1435	862.22	.069
308.15	.3723	.1246	869.19	.069
308.15	.4879	.1016	878.36	.069
308.15	.5907	.0815	886.85	.069
308.15	.6917	.0613	895.61	.069
308.15	.7642	.0465	902.2	.069
308.15	.0546	.3765	837.62	.069
308.15	.1152	.3526	841.83	.069
308.15	.208	.3165	848.65	.069
308.15	.3055	.2764	856.38	.069
308.15	.4039	.2354	864.67	.069
308.15	.5005	.1992	873	.069
308.15	.598	.1902	880.01	.069
308.15	.7049	.1174	892.43	.069
308.15	.8199	.0724	904.41	.069
308.15	.0528	.5643	829.87	.069
308.15	.1134	.53	834.1	.069
308.15	.2021	.4765	840.87	.069
308.15	.3924	.3645	856.89	.069
308.15	.4873	.3038	865.94	.069
308.15	.5873	.2487	875.56	.069
308.15	.6872	.1879	886.2	.069
308.15	.9353	.0365	916.71	.069
308.15	.3042	.4125	849.39	.069
308.15	.81	.1123	900.51	.069
308.15	.0445	.7656	821.83	.069
308.15	.0919	.7254	825.31	.069
308.15	.1994	.6412	833.56	.069
308.15	.3137	.5489	843.37	.069
308.15	.4153	.4678	852.82	.069
308.15	.5087	.3926	862.2	.069
308.15	.6012	.3121	872.52	.069
308.15	.7062	.2307	884.57	.069
308.15	.7931	.1645	895.31	.069
308.15	.7081	.2321	884.61	.069
308.15	.2588	.6023	838.14	.069
308.15	.192	.4456	841.73	.069
308.15	.1349	.3098	844.87	.069
308.15	.0692	.1598	848.59	.069
308.15	.3761	.375	855.39	.069
308.15	.275	.2756	854.6	.069
308.15	.1783	.1756	854.11	.069
308.15	.5881	.2525	875.37	.069
308.15	.4489	.192	870.09	.069
308.15	.3091	.1325	864.64	.069

System: methyl methacrylate + ethylbenzene + 1-heptanol; phases: Liquid
Fixed: Pressure, kPa = 101
Property: Speed of sound, m/s (Liquid); method: Sing-around technique in a fixed-path interferometer
Temperature, K	Mole fraction of methyl methacrylate	Mole fraction of 1-heptanol	Speed of sound, m/s	uncertainty
298.15	.049	.1889	1309	.8
298.15	.1004	.1805	1306	.8
298.15	.2005	.1578	1296	.8
298.15	.2812	.1435	1286	.8
298.15	.3723	.1246	1273	.8
298.15	.4879	.1016	1256	.8
298.15	.5907	.0815	1242	.8
298.15	.6917	.0613	1228	.8
298.15	.7642	.0465	1217	.8
298.15	.0546	.3765	1308	.8
298.15	.1152	.3526	1304	.8
298.15	.208	.3165	1297	.8
298.15	.3055	.2764	1285	.8
298.15	.4039	.2354	1272	.8
298.15	.5005	.1992	1257	.8
298.15	.598	.1902	1239	.8
298.15	.7049	.1174	1224	.8
298.15	.8199	.0724	1206	.8
298.15	.0528	.5643	1308	.8
298.15	.1134	.53	1302	.8
298.15	.2021	.4765	1291	.8
298.15	.3924	.3645	1262	.8
298.15	.4873	.3038	1249	.8
298.15	.5873	.2487	1233	.8
298.15	.6872	.1879	1219	.8
298.15	.9353	.0365	1188	.8
298.15	.3042	.4125	1276	.8
298.15	.81	.1123	1203	.8
298.15	.0445	.7656	1310	.8
298.15	.0919	.7254	1302	.8
298.15	.1994	.6412	1282	.8
298.15	.3137	.5489	1259	.8
298.15	.4153	.4678	1241	.8
298.15	.5087	.3926	1228	.8
298.15	.6012	.3121	1219	.8
298.15	.7062	.2307	1208	.8
298.15	.7931	.1645	1199	.8
298.15	.7081	.2321	1207	.8
298.15	.2588	.6023	1269	.8
298.15	.192	.4456	1294	.8
298.15	.1349	.3098	1303	.8
298.15	.0692	.1598	1308	.8
298.15	.3761	.375	1265	.8
298.15	.275	.2756	1289	.8
298.15	.1783	.1756	1299	.8
298.15	.5881	.2525	1232	.8
298.15	.4489	.192	1265	.8
298.15	.3091	.1325	1282	.8
308.15	.049	.1889	1253	.8
308.15	.1004	.1805	1240	.8
308.15	.2005	.1578	1222	.8
308.15	.2812	.1435	1212	.8
308.15	.3723	.1246	1205	.8
308.15	.4879	.1016	1196	.8
308.15	.5907	.0815	1186	.8
308.15	.6917	.0613	1177	.8
308.15	.7642	.0465	1171	.8
308.15	.0546	.3765	1249	.8
308.15	.1152	.3526	1230	.8
308.15	.208	.3165	1207	.8
308.15	.3055	.2764	1190	.8
308.15	.4039	.2354	1179	.8
308.15	.5005	.1992	1172	.8
308.15	.598	.1902	1170	.8
308.15	.7049	.1174	1166	.8
308.15	.8199	.0724	1162	.8
308.15	.0528	.5643	1253	.8
308.15	.1134	.53	1239	.8
308.15	.2021	.4765	1224	.8
308.15	.3924	.3645	1205	.8
308.15	.4873	.3038	1193	.8
308.15	.5873	.2487	1184	.8
308.15	.6872	.1879	1174	.8
308.15	.9353	.0365	1152	.8
308.15	.3042	.4125	1212	.8
308.15	.81	.1123	1162	.8
308.15	.0445	.7656	1264	.8
308.15	.0919	.7254	1256	.8
308.15	.1994	.6412	1254	.8
308.15	.3137	.5489	1257	.8
308.15	.4153	.4678	1250	.8
308.15	.5087	.3926	1234	.8
308.15	.6012	.3121	1209	.8
308.15	.7062	.2307	1184	.8
308.15	.7931	.1645	1167	.8
308.15	.7081	.2321	1184	.8
308.15	.2588	.6023	1258	.8
308.15	.192	.4456	1220	.8
308.15	.1349	.3098	1225	.8
308.15	.0692	.1598	1250	.8
308.15	.3761	.375	1206	.8
308.15	.275	.2756	1195	.8
308.15	.1783	.1756	1223	.8
308.15	.5881	.2525	1186	.8
308.15	.4489	.192	1177	.8
308.15	.3091	.1325	1211	.8
