Measured thermophysical data. Liquid-Liquid Equilibrium of (Water + Pentane-2,4-dione + Ethyl Ethanoate) and (Water + Pentane-2,4-dione + Cyclohexane) at (298.15 and 313.15) K
Source: J. Chem. Eng. Data, 2010, 10.1021/je100704j
Compound 1: pentan-2,4-dione, C5H8O2, purity 99.8%
Compound 2: cyclohexane, C6H12, purity 99.8%
Compound 3: ethyl ethanoate, C4H8O2, purity 99.5%
Compound 4: water, H2O, purity 99.9%

System: pentan-2,4-dione; phases: Liquid
Fixed: Pressure, kPa = 101.325
Property: Mass density, kg/m3 (Liquid); method: Vibrating tube method
Temperature, K	Mass density, kg/m3	uncertainty
298.15	971.7	.1

System: pentan-2,4-dione; phases: Liquid
Fixed: Pressure, kPa = 101.325
Property: Refractive index (Na D-line) (Liquid); method: Standard Abbe refractometry
Temperature, K	Refractive index (Na D-line)	uncertainty
293.15	1.4489	.0002

System: cyclohexane; phases: Liquid
Fixed: Pressure, kPa = 101.325
Property: Mass density, kg/m3 (Liquid); method: Vibrating tube method
Temperature, K	Mass density, kg/m3	uncertainty
298.15	773.4	.1

System: cyclohexane; phases: Liquid
Fixed: Pressure, kPa = 101.325
Property: Refractive index (Na D-line) (Liquid); method: Standard Abbe refractometry
Temperature, K	Refractive index (Na D-line)	uncertainty
293.15	1.4259	.0002

System: ethyl ethanoate; phases: Liquid
Fixed: Pressure, kPa = 101.325
Property: Mass density, kg/m3 (Liquid); method: Vibrating tube method
Temperature, K	Mass density, kg/m3	uncertainty
298.15	894.6	.1

System: ethyl ethanoate; phases: Liquid
Fixed: Pressure, kPa = 101.325
Property: Refractive index (Na D-line) (Liquid); method: Standard Abbe refractometry
Temperature, K	Refractive index (Na D-line)	uncertainty
293.15	1.3701	.0002

System: water; phases: Liquid
Fixed: Pressure, kPa = 101.325
Property: Mass density, kg/m3 (Liquid); method: Vibrating tube method
Temperature, K	Mass density, kg/m3	uncertainty
298.15	996.8	.1

System: water; phases: Liquid
Fixed: Pressure, kPa = 101.325
Property: Refractive index (Na D-line) (Liquid); method: Standard Abbe refractometry
Temperature, K	Refractive index (Na D-line)	uncertainty
293.15	1.3327	.0002

System: pentan-2,4-dione + ethyl ethanoate + water; phases: Liquid mixture 1, Liquid mixture 2
Fixed: Pressure, kPa = 101
Property: Mass fraction of pentan-2,4-dione (Liquid mixture 1); method: Titration method
Temperature, K	Mass fraction of water	Mass fraction of pentan-2,4-dione	uncertainty
298.15	.0302	0	.01
298.15	.0328	.0928	.01
298.15	.0336	.1861	.01
298.15	.0343	.2802	.01
298.15	.0351	.3692	.01
298.15	.0363	.4972	.01
298.15	.038	.6632	.01
298.15	.0397	.806	.01
298.15	.0407	.8833	.01
298.15	.0416	.9258	.01
298.15	.0428	.9572	.01
298.15	.8525	.1475	.01
298.15	.8479	.1366	.01
298.15	.8612	.1314	.01
298.15	.8681	.1174	.01
298.15	.8799	.0932	.01
298.15	.893	.0669	.01
298.15	.8855	.0818	.01
298.15	.8905	.0601	.01
298.15	.902	.0484	.01
298.15	.9082	.036	.01
298.15	.9146	.0234	.01
298.15	.9207	.0114	.01
298.15	.9285	0	.01
313.15	.0388	0	.01
313.15	.0403	.045	.01
313.15	.0419	.1354	.01
313.15	.0447	.272	.01
313.15	.0467	.3637	.01
313.15	.0489	.4569	.01
313.15	.0514	.5506	.01
313.15	.0528	.5977	.01
313.15	.0557	.6926	.01
313.15	.0573	.7405	.01
313.15	.0591	.7887	.01
313.15	.0586	.9414	.01
313.15	.8305	.1695	.01
313.15	.8329	.1621	.01
313.15	.8473	.1386	.01
313.15	.8539	.1277	.01
313.15	.8605	.1172	.01
313.15	.8723	.098	.01
313.15	.8783	.0886	.01
313.15	.8892	.0713	.01
313.15	.899	.0556	.01
313.15	.922	.0194	.01
313.15	.9304	.0063	.01
313.15	.9808	0	.01

System: pentan-2,4-dione + ethyl ethanoate + water; phases: Liquid mixture 1, Liquid mixture 2
Property: Mass fraction of water (Liquid mixture 1); method: Chromatography
Property: Mass fraction of pentan-2,4-dione (Liquid mixture 2); method: Chromatography
Property: Mass fraction of water (Liquid mixture 2); method: Chromatography
Temperature, K	Pressure, kPa	Mass fraction of pentan-2,4-dione	Mass fraction of water	uncertainty	Mass fraction of pentan-2,4-dione	uncertainty	Mass fraction of water	uncertainty
298.15	1	.0217	.9112	.001	.0969	.001	.0331	.001
298.15	1	.0322	.9015	.001	.184	.001	.0336	.001
298.15	1	.0464	.8985	.001	.291	.001	.0343	.001
298.15	1	.0601	.8905	.001	.3657	.001	.0352	.001
298.15	1	.0818	.8755	.001	.4891	.001	.0364	.001
298.15	1	.0916	.868	.001	.5586	.001	.0383	.001
298.15	1	.1098	.8658	.001	.648	.001	.0394	.001
298.15	1	.1366	.8479	.001	.8007	.001	.0402	.001
298.15	1	.1479	.8435	.001	.8805	.001	.0412	.001
313.15	1	0	.9342	.001	0	.001	.0418	.001
313.15	1	.0171	.9221	.001	.0967	.001	.0435	.001
313.15	1	.029	.9149	.001	.1786	.001	.0445	.001
313.15	1	.0432	.9052	.001	.2697	.001	.0459	.001
313.15	1	.0768	.8804	.001	.4731	.001	.0475	.001
313.15	1	.1087	.8546	.001	.5814	.001	.0489	.001
313.15	1	.1192	.8535	.001	.6644	.001	.0504	.001
313.15	1	.1326	.8488	.001	.7831	.001	.0521	.001
313.15	1	.152	.8274	.001	.8577	.001	.0548	.001
313.15	1	.1695	.8305	.001	.9414	.001	.0586	.001

System: cyclohexane + pentan-2,4-dione + water; phases: Liquid mixture 1, Liquid mixture 2
Property: Mass fraction of water (Liquid mixture 1); method: Chromatography
Property: Mass fraction of pentan-2,4-dione (Liquid mixture 2); method: Chromatography
Property: Mass fraction of water (Liquid mixture 2); method: Chromatography
Temperature, K	Pressure, kPa	Mass fraction of pentan-2,4-dione	Mass fraction of water	uncertainty	Mass fraction of pentan-2,4-dione	uncertainty	Mass fraction of water	uncertainty
298.15	1	.0397	.9603	.001	.0557	.001	.0008	.001
298.15	1	.0758	.9242	.001	.1753	.001	.0011	.001
298.15	1	.0973	.9027	.001	.3293	.001	.0015	.001
298.15	1	.1021	.8979	.001	.3399	.001	.0018	.001
298.15	1	.1048	.8952	.001	.4318	.001	.0029	.001
298.15	1	.1136	.8864	.001	.4802	.001	.004	.001
298.15	1	.1272	.8728	.001	.5696	.001	.0058	.001
298.15	1	.1375	.8625	.001	.8201	.001	.0104	.001
298.15	1	.1412	.8588	.001	.8485	.001	.0157	.001
313.15	1	.0107	.9893	.001	.017	.001	.0015	.001
313.15	1	.0415	.9585	.001	.071	.001	.0018	.001
313.15	1	.0804	.9196	.001	.148	.001	.002	.001
313.15	1	.0985	.9015	.001	.2472	.001	.0028	.001
313.15	1	.1142	.8858	.001	.382	.001	.006	.001
313.15	1	.1305	.8695	.001	.5541	.001	.024	.001
313.15	1	.1375	.8625	.001	.6314	.001	.0322	.001
313.15	1	.1432	.8568	.001	.7541	.001	.0362	.001
313.15	1	.1573	.8427	.001	.842	.001	.0451	.001
313.15	1	.1695	.8305	.001	.9414	.001	.0586	.001
