Measured thermophysical data. Volumetric Properties for (Ionic Liquid + Methanol or Ethanol or 1-Propanol + Nitromethane) at 298.15 K and Atmospheric Pressure
Source: J. Chem. Eng. Data, 2011, 10.1021/je100830b
Compound 1: methanol, CH4O, purity 99.8%
Compound 2: ethanol, C2H6O, purity 99.8%
Compound 3: 1-propanol, C3H8O, purity 99.5%
Compound 4: nitromethane, CH3NO2, purity 99%
Compound 5: 1-butyl-3-methylimidazolium methylsulfate, C9H18N2O4S, purity 97%

System: methanol; phases: Liquid
Property: Mass density, kg/m3 (Liquid); method: Vibrating tube method
Temperature, K	Pressure, kPa	Mass density, kg/m3	uncertainty
298.15	101.325	786.3	

System: ethanol; phases: Liquid
Property: Mass density, kg/m3 (Liquid); method: Vibrating tube method
Temperature, K	Pressure, kPa	Mass density, kg/m3	uncertainty
298.15	101.325	786.4	

System: 1-propanol; phases: Liquid
Property: Mass density, kg/m3 (Liquid); method: Vibrating tube method
Temperature, K	Pressure, kPa	Mass density, kg/m3	uncertainty
298.15	101.325	797.6	

System: nitromethane; phases: Liquid
Property: Mass density, kg/m3 (Liquid); method: Vibrating tube method
Temperature, K	Pressure, kPa	Mass density, kg/m3	uncertainty
298.15	101.325	1130.9	

System: 1-butyl-3-methylimidazolium methylsulfate; phases: Liquid
Property: Mass density, kg/m3 (Liquid); method: Vibrating tube method
Temperature, K	Pressure, kPa	Mass density, kg/m3	uncertainty
298.15	101.325	1208	

System: methanol + nitromethane + 1-butyl-3-methylimidazolium methylsulfate; phases: Liquid
Fixed: Temperature, K = 298.15
Fixed: Pressure, kPa = 101
Property: Mass density, kg/m3 (Liquid); method: Vibrating tube method
Mole fraction of 1-butyl-3-methylimidazolium methylsulfate	Mole fraction of methanol	Mass density, kg/m3	uncertainty
.0485	.7471	959	
.0603	.8974	918	
.0903	.529	1048	
.1099	.4269	1081	
.1332	.6173	1058	
.1452	.2429	1133	
.1591	.729	1042	
.1771	.0765	1164	
.1998	.4256	1115	
.239	.3114	1138	
.2494	.5752	1101	
.2971	.1467	1168	
.3119	.4692	1129	
.3705	.369	1149	
.3706	.5428	1129	
.4692	.4211	1154	
.472	.1965	1175	
.5271	.1026	1187	
.5494	.3222	1170	
.6151	.2409	1180	
.72	.2475	1184	
.7242	.1053	1194	
.8468	.115	1197	

System: ethanol + nitromethane + 1-butyl-3-methylimidazolium methylsulfate; phases: Liquid
Fixed: Temperature, K = 298.15
Fixed: Pressure, kPa = 101
Property: Mass density, kg/m3 (Liquid); method: Vibrating tube method
Mole fraction of 1-butyl-3-methylimidazolium methylsulfate	Mole fraction of ethanol	Mass density, kg/m3	uncertainty
.0628	.6726	954	
.0829	.8588	914	
.1076	.4385	1046	
.1263	.3412	1080	
.1568	.1824	1128	
.164	.5288	1050	
.1813	.0545	1162	
.2045	.6517	1035	
.2297	.3403	1109	
.2898	.1676	1153	
.2942	.637	1064	
.3024	.485	1096	
.3109	.107	1166	
.3638	.3807	1125	
.4175	.2891	1147	
.4439	.4523	1125	
.502	.1454	1175	
.5383	.3359	1151	
.6637	.1808	1178	
.6796	.2898	1166	
.7482	.0757	1194	
.7787	.1862	1182	
.8775	.0829	1197	

System: 1-propanol + nitromethane + 1-butyl-3-methylimidazolium methylsulfate; phases: Liquid
Fixed: Temperature, K = 298.15
Fixed: Pressure, kPa = 101
Property: Mass density, kg/m3 (Liquid); method: Vibrating tube method
Mole fraction of 1-butyl-3-methylimidazolium methylsulfate	Mole fraction of 1-propanol	Mass density, kg/m3	uncertainty
.035	.8172	875	
.0539	.7187	915	
.0745	.6116	957	
.0979	.4893	1004	
.1037	.8234	921	
.1199	.3745	1046	
.1372	.2842	1079	
.1454	.5823	1005	
.1637	.146	1126	
.1639	.7208	977	
.1836	.0423	1160	
.1871	.4625	1049	
.2412	.5892	1036	
.2495	.2834	1108	
.2803	.1947	1134	
.3188	.0841	1166	
.341	.4193	1095	
.3456	.5736	1064	
.3993	.3203	1124	
.4477	.2377	1146	
.4964	.3876	1124	
.5197	.1153	1175	
.5841	.2794	1151	
.693	.1447	1179	
.7289	.2384	1167	
.8141	.1492	1183	
.8948	.0648	1197	
