Measured thermophysical data. Effect of Dissolved Inorganic Salts on the Enthalpy of Mixing of the Ethanol + Pyridine System at 303.15 K
Source: J. Chem. Eng. Data, 2010, 10.1021/je1002048
Compound 1: ethanol, C2H6O
Compound 2: azine, C5H5N
Compound 3: sodium chloride, ClNa
Compound 4: calcium chloride, CaCl2
Compound 5: zinc chloride, Cl2Zn
Compound 6: cadmium chloride, CdCl2
Compound 7: ammonium chloride, ClH4N

System: ethanol; phases: Liquid, Gas
Property: Normal boiling temperature, K (Liquid); method: Ebulliometric method (Recirculating still)
Normal boiling temperature, K	uncertainty
351.3	

System: ethanol; phases: Liquid
Fixed: Pressure, kPa = 101.325
Property: Mass density, kg/m3 (Liquid); method: Pycnometric method
Temperature, K	Mass density, kg/m3	uncertainty
298.15	788.5	

System: azine; phases: Liquid, Gas
Property: Normal boiling temperature, K (Liquid); method: Ebulliometric method (Recirculating still)
Normal boiling temperature, K	uncertainty
389	

System: azine; phases: Liquid
Fixed: Pressure, kPa = 101.325
Property: Mass density, kg/m3 (Liquid); method: Pycnometric method
Temperature, K	Mass density, kg/m3	uncertainty
298.15	980.8	

System: ethanol + azine; phases: Liquid
Fixed: Temperature, K = 303.15
Fixed: Pressure, kPa = 101
Property: Excess molar enthalpy (molar enthalpy of mixing), kJ/mol (Liquid); method: Calvet calorimetry
Mole fraction of ethanol	Excess molar enthalpy (molar enthalpy of mixing), kJ/mol	uncertainty
.032	-.0015	-.00003
.082	-.0064	-.000128
.127	-.0129	-.000258
.192	-.0228	-.000456
.251	-.0346	-.000692
.351	-.0512	-.001024
.447	-.0719	-.001438
.502	-.0775	-.00155
.572	-.0792	-.001584
.653	-.0637	-.001274
.734	-.0529	-.001058
.874	-.025	-.0005

System: ethanol + azine + sodium chloride; phases: Liquid
Fixed: Temperature, K = 303.15
Fixed: Pressure, kPa = 101
Property: Excess molar enthalpy (molar enthalpy of mixing), kJ/mol (Liquid); method: Calvet calorimetry
Mole fraction of ethanol	Mole fraction of sodium chloride	Excess molar enthalpy (molar enthalpy of mixing), kJ/mol	uncertainty
.021	.0479	-.0015	-.00003
.064	.0435	-.0122	-.000244
.121	.0388	-.0409	-.000818
.219	.0333	-.1103	-.002206
.254	.0294	-.1326	-.002652
.311	.0253	-.1793	-.003586
.354	.0216	-.2107	-.004214
.449	.017	-.2668	-.005336
.56	.0124	-.3114	-.006228
.664	.0084	-.2843	-.005686
.759	.0051	-.2435	-.00487
.884	.002	-.1346	-.002692

System: ethanol + azine + zinc chloride; phases: Liquid
Fixed: Temperature, K = 303.15
Fixed: Pressure, kPa = 101
Property: Excess molar enthalpy (molar enthalpy of mixing), kJ/mol (Liquid); method: Calvet calorimetry
Mole fraction of ethanol	Mole fraction of zinc chloride	Excess molar enthalpy (molar enthalpy of mixing), kJ/mol	uncertainty
.063	.047	-.0434	-.000868
.079	.0433	-.057	-.00114
.163	.0381	-.1263	-.002526
.214	.0339	-.1741	-.003482
.302	.0289	-.2361	-.004722
.372	.0246	-.2756	-.005512
.453	.0203	-.3179	-.006358
.519	.0164	-.3263	-.006526
.605	.0124	-.3003	-.006006
.683	.0089	-.2516	-.005032
.743	.0063	-.2034	-.004068
.814	.0038	-.1416	-.002832

System: ethanol + azine + calcium chloride; phases: Liquid
Fixed: Temperature, K = 303.15
Fixed: Pressure, kPa = 101
Property: Excess molar enthalpy (molar enthalpy of mixing), kJ/mol (Liquid); method: Calvet calorimetry
Mole fraction of ethanol	Mole fraction of calcium chloride	Excess molar enthalpy (molar enthalpy of mixing), kJ/mol	uncertainty
.079	.0926	-.0308	-.000616
.182	.0831	-.1053	-.002106
.281	.0711	-.1631	-.003262
.367	.0527	-.2064	-.004128
.476	.0419	-.2605	-.00521
.569	.0236	-.2715	-.00543
.617	.0187	-.2505	-.00501
.712	.0111	-.2092	-.004184
.793	.008	-.1583	-.003166
.827	.0044	-.1287	-.002574
.896	.0015	-.0666	-.001332
.939	.0003	-.0345	-.00069
.112	.0866	-.0861	-.001722
.214	.0745	-.1675	-.00335
.257	.0659	-.2036	-.004072
.305	.0573	-.2413	-.004826
.432	.0449	-.3231	-.006462
.502	.036	-.3577	-.007154
.591	.0269	-.3592	-.007184
.68	.0186	-.2979	-.005958
.709	.0138	-.2705	-.00541
.807	.0074	-.1571	-.003142
.86	.0037	-.0833	-.001666
.932	.0009	-.0193	-.000386

System: ethanol + azine + cadmium chloride; phases: Liquid
Fixed: Temperature, K = 303.15
Fixed: Pressure, kPa = 101
Property: Excess molar enthalpy (molar enthalpy of mixing), kJ/mol (Liquid); method: Calvet calorimetry
Mole fraction of ethanol	Mole fraction of cadmium chloride	Excess molar enthalpy (molar enthalpy of mixing), kJ/mol	uncertainty
.081	.0466	-.0601	-.001202
.182	.0407	-.1441	-.002882
.286	.0345	-.203	-.00406
.365	.0288	-.2392	-.004784
.473	.0226	-.265	-.0053
.565	.0171	-.264	-.00528
.619	.0128	-.245	-.0049
.715	.008	-.1962	-.003924
.796	.0043	-.13	-.0026
.854	.0019	-.09	-.0018
.084	.0899	-.0795	-.00159
.185	.0783	-.1452	-.002904
.281	.0668	-.198	-.00396
.362	.0561	-.2316	-.004632
.471	.0444	-.2605	-.00521
.562	.0339	-.2658	-.005316
.615	.0254	-.2457	-.004914
.714	.0159	-.192	-.00384
.795	.0085	-.1212	-.002424
.821	.0039	-.0981	-.001962

System: ethanol + azine + ammonium chloride; phases: Liquid
Fixed: Temperature, K = 303.15
Fixed: Pressure, kPa = 101
Property: Excess molar enthalpy (molar enthalpy of mixing), kJ/mol (Liquid); method: Calvet calorimetry
Mole fraction of ethanol	Mole fraction of ammonium chloride	Excess molar enthalpy (molar enthalpy of mixing), kJ/mol	uncertainty
.082	.0458	-.0146	-.000292
.185	.0389	-.0622	-.001244
.281	.0325	-.1214	-.002428
.363	.0268	-.1643	-.003286
.471	.0207	-.1895	-.00379
.552	.0155	-.1912	-.003824
.617	.0117	-.1782	-.003564
.716	.0738	-.1468	-.002936
.78	.0045	-.1185	-.00237
.893	.0016	-.0635	-.00127
.085	.0883	-.0098	-.000196
.187	.0756	-.0653	-.001306
.291	.0631	-.1306	-.002612
.371	.0523	-.1689	-.003378
.473	.0109	-.1923	-.003846
.564	.0307	-.1913	-.003826
.619	.0233	-.1798	-.003596
.717	.0148	-.1523	-.003046
.782	.0089	-.1234	-.002468
.843	.0045	-.0916	-.001832
