Measured thermophysical data. Phase Behavior of the Butane + Decane Binary System
Source: J. Chem. Eng. Data, 2011, 10.1021/je1008735
Compound 1: n-butane, C4H10
Compound 2: decane, C10H22, purity 99%

System: n-butane + decane; phases: Liquid, Gas
Property: Vapor or sublimation pressure, kPa (Liquid); method: Closed cell (Static) method
Temperature, K	Mole fraction of n-butane	Vapor or sublimation pressure, kPa	uncertainty
313.1	1	387	.1161
332.96	1	650	.195
333.27	1	648	.1944
352.78	1	1024	.3072
353.28	1	1023	.3069
373.39	1	1542	.4626
393.26	1	2226	.6678
413.23	1	3125	.9375
418.15	1	3389	1.0167
425.07	1	3791	1.1373
323.31	.954	531	.1593
333.45	.954	673	.2019
348.39	.954	925	.2775
363.19	.954	1240	.372
373.28	.954	1498	.4494
388.23	.954	1947	.5841
403.2	.954	2488	.7464
418.11	.954	3118	.9354
425.74	.954	3475	1.0425
433.02	.954	3831	1.1493
436.07	.954	3976	1.1928
439	.954	4113	1.2339
441.99	.954	4228	1.2684
444.15	.954	4303	1.2909
444.21	.954	4287	1.2861
444.83	.954	4299	1.2897
445.04	.954	4303	1.2909
447.92	.954	4353	1.3059
450.86	.954	4361	1.3083
452.37	.954	4322	1.2966
453.78	.954	4226	1.2678
454.77	.954	3981	1.1943
454.66	.954	3786	1.1358
454.02	.954	3593	1.0779
323.21	.891	454	.1362
333.2	.891	586	.1758
343.18	.891	736	.2208
358.19	.891	1009	.3027
373.25	.891	1347	.4041
388.23	.891	1754	.5262
403.17	.891	2237	.6711
418.11	.891	2796	.8388
433.02	.891	3420	1.026
447.9	.891	4082	1.2246
462.69	.891	4624	1.3872
466.49	.891	4692	1.4076
466.61	.891	4694	1.4082
467.46	.891	4707	1.4121
468.66	.891	4720	1.416
472.58	.891	4754	1.4262
473.91	.891	4756	1.4268
477.56	.891	4749	1.4247
482.28	.891	4560	1.368
323.23	.801	406	.1218
333.32	.801	523	.1569
343.42	.801	656	.1968
358.27	.801	892	.2676
373.25	.801	1183	.3549
388.22	.801	1531	.4593
403.17	.801	1940	.582
418.17	.801	2410	.723
433.18	.801	2930	.879
448.14	.801	3496	1.0488
463.11	.801	4081	1.2243
478.07	.801	4625	1.3875
313.26	.6	228	.0684
328.28	.6	332	.0996
343.65	.6	468	.1404
358.22	.6	630	.189
373.29	.6	831	.2493
388.18	.6	1068	.3204
403.32	.6	1347	.4041
418.18	.6	1658	.4974
433.28	.6	2011	.6033
448.06	.6	2390	.717
462.69	.6	2795	.8385
477.3	.6	3223	.9669
323.24	.407	198	.0594
333.3	.407	250	.075
343.24	.407	309	.0927
358.16	.407	416	.1248
373.27	.407	544	.1632
373.32	.407	590	.177
388.28	.407	697	.2091
403.28	.407	871	.2613
418.19	.407	1067	.3201
433.06	.407	1287	.3861
447.93	.407	1530	.459
462.74	.407	1795	.5385
477.53	.407	2065	.6195
477.86	.407	2086	.6258
343.19	.202	160	.048
358.19	.202	212	.0636
373.27	.202	277	.0831
388.23	.202	351	.1053
403.25	.202	437	.1311
418.17	.202	536	.1608
433.18	.202	651	.1953
447.96	.202	778	.2334
462.77	.202	927	.2781
477.46	.202	1088	.3264
