Measured thermophysical data. Freezing Point Depressions of Aqueous MEA, MDEA, and MEA-MDEA Measured with a New Apparatus
Source: J. Chem. Eng. Data, 2011, 10.1021/je100994v
Compound 1: 2-aminoethanol, C2H7NO
Compound 2: N-methyldiethanolamine, C5H13NO2
Compound 3: water, H2O, purity 99.9%

System: 2-aminoethanol + water; phases: Liquid, Crystal
Fixed: Pressure, kPa = 101
Property: Solid-liquid equilibrium temperature, K (Liquid); method: Large-sample thermal analysis
Mass fraction of 2-aminoethanol	Solid-liquid equilibrium temperature, K	uncertainty
.02489	272.45	
.05035	271.46	
.07539	270.696	
.09192	269.92	
.14121	267.805	
.14985	267.54	
.19841	264.79	
.21863	263.894	
.24671	261.62	
.29921	258.11	
.30651	256.88	

System: N-methyldiethanolamine + water; phases: Liquid, Crystal
Fixed: Pressure, kPa = 101
Property: Solid-liquid equilibrium temperature, K (Liquid); method: Large-sample thermal analysis
Mass fraction of N-methyldiethanolamine	Solid-liquid equilibrium temperature, K	uncertainty
.02581	272.785	
.05173	272.31	
.07484	271.9	
.09979	271.39	
.14922	270.195	
.14999	270.193	
.19867	268.812	
.22464	267.95	
.30001	264.9	
.30272	264.73	
.31966	264.02	
.39655	258.95	

System: N-methyldiethanolamine + 2-aminoethanol + water; phases: Liquid, Crystal
Fixed: Pressure, kPa = 101
Property: Solid-liquid equilibrium temperature, K (Liquid); method: Large-sample thermal analysis
Mass fraction of 2-aminoethanol	Mass fraction of N-methyldiethanolamine	Solid-liquid equilibrium temperature, K	uncertainty
.01699	.03313	272.004	
.03366	.06563	270.72	
.04955	.09662	269.339	
.06675	.13016	267.52	
.10327	.20137	262.18	
.11755	.2292	259.17	
.00942	.04619	271.968	
.0183	.0897	270.743	
.02518	.1234	269.624	
.03398	.16656	267.87	
.05082	.24911	263.22	
.06089	.29845	259.36	
.028	.02394	271.824	
.05158	.04411	270.59	
.09126	.07804	268.076	
.11285	.09651	266.36	
.15875	.13576	261.64	
.21299	.18215	253.21	
.00565	.0441	272.19	
.01133	.08844	271.18	
.01732	.13517	269.79	
.02307	.18007	268.23	
.03438	.26831	263.81	
.04469	.34882	257.88	
.03257	.0159	271.664	
.06601	.03221	270.28	
.1074	.05241	267.92	
.13204	.06444	266.32	
.16902	.08248	263.43	
.19411	.09473	261.03	
.23267	.11355	256.53	
.25536	.12462	253	
