Measured thermophysical data. PVTx Measurements of Water-n-Pentane Mixtures in Critical and Supercritical Regions
Source: J. Chem. Eng. Data, 2010, 10.1021/je100073y
Compound 1: pentane, C5H12, purity 99.8%
Compound 2: water, H2O

System: water; phases: Liquid, Gas
Property: Vapor or sublimation pressure, kPa (Liquid); method: Isochoric PVT apparatus
Temperature, K	Vapor or sublimation pressure, kPa	uncertainty
345.21	34	
424.56	493	
460.99	1200	
500.19	2646	
538.06	5081	
554.69	6572	
599.35	12252	
617.35	15401	
625.16	16953	
661.3	26300	
677.22	31034	

System: pentane + water; phases: Liquid, Gas
Property: Vapor or sublimation pressure, kPa (Liquid); method: Closed cell (Static) method
Mole fraction of pentane	Temperature, K	Vapor or sublimation pressure, kPa	uncertainty
.138	569.2	8880	30
.138	573.83	11200	30
.138	590.69	14334	30
.138	597.39	17315	30
.138	604.31	18051	30
.138	615.26	23354	30
.138	623.17	30922	30
.138	629.3	44413	30
.138	635.82	61255	30
.0967	567.15	7700	30
.0967	577.15	10902	30
.0967	582.82	12614	30
.0967	590.2	14547	30
.0967	599.51	17115	30
.0967	624.82	29411	30
.0967	626.47	40470	30
.0967	633.15	54715	30
.027	606.15	13315	30
.027	629.52	19014	30
.027	634.78	21501	30
.027	637.17	23092	30
.027	635.73	23854	30
.027	630.31	25912	30
.027	625.52	27718	30
.027	622.05	37634	30
.1185	564.56	8836	30
.1185	573.47	10801	30
.1185	592.88	13912	30
.1185	606.83	17574	30
.1185	612.56	20247	30
.1185	619.08	24000	30
.1185	622.57	30066	30
.1185	628.49	43900	30
.075	595.49	13693	30
.075	614.77	20233	30
.075	621.66	22116	30
.075	629.85	24814	30
.075	630.95	26780	30
.075	627.45	29820	30
.075	625.65	37780	30
.075	634.5	61000	30
.058	568.66	8642	30
.058	596.29	14151	30
.058	611.82	18154	30
.058	633.15	25250	30
.058	627.46	27885	30
.058	625.79	39278	30
.058	629.44	51880	30

System: pentane + water; phases: Liquid mixture 1, Liquid mixture 2, Gas
Property: Vapor or sublimation pressure, kPa (Liquid mixture 1); method: Closed cell (Static) method
Temperature, K	Vapor or sublimation pressure, kPa	uncertainty
412.55	1704	30
438.22	2775	30
449.63	3544	30
460.35	4352	30
463.85	4575	30

System: pentane + water; phases: Liquid, Gas
Property: Critical temperature, K (Liquid); method: Derived from PVT data
Mole fraction of pentane	Critical temperature, K	uncertainty
.1185	646.3	.015
.0967	629.95	.015
.075	625.5	.015
.058	627.05	.015
.027	632.35	.015
0	647.1	.015
1	469.9	.015
.8898	467.93	.015
.857	466.68	.015
.826	465.45	.015
.797	464.15	.015
.791	463.85	.015

System: pentane + water; phases: Liquid, Gas
Property: Critical pressure, kPa (Liquid); method: Direct measurement
Mole fraction of pentane	Critical pressure, kPa	uncertainty
.1185	75500	30
.0967	49700	30
.075	33900	30
.058	27100	30
.027	21780	30
0	21350	30
1	3360	30
.8898	3700	30
.857	3900	30
.826	4170	30
.797	4500	30
.791	4570	30
