Measured thermophysical data. Solubility of 3,5-Dinitrobenzoic Acid in Supercritical Carbon Dioxide with Cosolvent at Temperatures from (308 to 328) K and Pressures from (10.0 to 21.0) MPa
Source: J. Chem. Eng. Data, 2010, 10.1021/je100331h
Compound 1: carbon dioxide, CO2
Compound 2: 3,5-dinitrobenzoic acid, C7H4N2O6, purity 99%
Compound 3: ethanol, C2H6O
Compound 4: ethyl ethanoate, C4H8O2
Compound 5: propan-1-ol, C3H8O
Compound 6: ethylene glycol, C2H6O2

System: 3,5-dinitrobenzoic acid + carbon dioxide; phases: Fluid (supercritical or subcritical phases), Crystal
Property: Mole fraction of 3,5-dinitrobenzoic acid (Fluid (supercritical or subcritical phases)); method: ultraviolet spectrophotometer analysis
Temperature, K	Pressure, kPa	Mole fraction of 3,5-dinitrobenzoic acid	uncertainty
308	10000	.00000058	.000000029
308	12000	.00000073	.0000000365
308	15000	.00000094	.000000047
308	18000	.00000108	.000000054
308	21000	.00000109	.0000000545
318	10000	.00000048	.000000024
318	12000	.00000117	.0000000585
318	15000	.00000169	.0000000845
318	18000	.00000214	.000000107
318	21000	.0000023	.000000115
328	10000	.00000044	.000000022
328	12000	.00000131	.0000000655
328	15000	.00000265	.0000001325
328	18000	.00000357	.0000001785
328	21000	.00000421	.0000002105

System: ethanol + 3,5-dinitrobenzoic acid + carbon dioxide; phases: Fluid (supercritical or subcritical phases), Crystal
Fixed: Temperature, K = 318
Fixed: Mole fraction of ethanol = .035
Property: Mole fraction of 3,5-dinitrobenzoic acid (Fluid (supercritical or subcritical phases)); method: ultraviolet spectrophotometer analysis
Pressure, kPa	Mole fraction of 3,5-dinitrobenzoic acid	uncertainty
10000	.0000077	.000000385
12000	.0000229	.000001145
15000	.0000394	.00000197
18000	.0000522	.00000261
21000	.0000591	.000002955

System: 3,5-dinitrobenzoic acid + carbon dioxide + ethyl ethanoate; phases: Fluid (supercritical or subcritical phases), Crystal
Property: Mole fraction of 3,5-dinitrobenzoic acid (Fluid (supercritical or subcritical phases)); method: ultraviolet spectrophotometer analysis
Temperature, K	Mole fraction of ethyl ethanoate	Pressure, kPa	Mole fraction of 3,5-dinitrobenzoic acid	uncertainty
318	.035	10000	.0000014	.00000007
318	.035	12000	.0000077	.000000385
318	.035	15000	.0000168	.00000084
318	.035	18000	.0000317	.000001585
318	.035	21000	.0000436	.00000218
308	.035	10000	.0000035	.000000175
308	.035	12000	.0000057	.000000285
308	.035	15000	.0000091	.000000455
308	.035	18000	.0000136	.00000068
308	.035	21000	.0000155	.000000775
318	.035	10000	.0000014	.00000007
318	.035	12000	.0000077	.000000385
318	.035	15000	.0000168	.00000084
318	.035	18000	.0000317	.000001585
318	.035	21000	.0000436	.00000218
328	.035	10000	.0000006	.00000003
328	.035	12000	.0000069	.000000345
328	.035	15000	.0000265	.000001325
328	.035	18000	.0000544	.00000272
328	.035	21000	.0000829	.000004145
318	.015	10000	.0000009	.000000045
318	.015	12000	.0000029	.000000145
318	.015	15000	.0000075	.000000375
318	.015	18000	.0000124	.00000062
318	.015	21000	.0000151	.000000755
318	.055	10000	.000002	.0000001
318	.055	12000	.0000101	.000000505
318	.055	15000	.0000304	.00000152
318	.055	18000	.0000546	.00000273
318	.055	21000	.0000684	.00000342

System: 3,5-dinitrobenzoic acid + ethylene glycol + carbon dioxide; phases: Fluid (supercritical or subcritical phases), Crystal
Fixed: Temperature, K = 318
Fixed: Mole fraction of ethylene glycol = .035
Property: Mole fraction of 3,5-dinitrobenzoic acid (Fluid (supercritical or subcritical phases)); method: ultraviolet spectrophotometer analysis
Pressure, kPa	Mole fraction of 3,5-dinitrobenzoic acid	uncertainty
10000	.0000008	.00000004
12000	.000004	.0000002
15000	.0000118	.00000059
18000	.0000226	.00000113
21000	.0000293	.000001465

System: propan-1-ol + 3,5-dinitrobenzoic acid + carbon dioxide; phases: Fluid (supercritical or subcritical phases), Crystal
Fixed: Temperature, K = 318
Fixed: Mole fraction of propan-1-ol = .035
Property: Mole fraction of 3,5-dinitrobenzoic acid (Fluid (supercritical or subcritical phases)); method: ultraviolet spectrophotometer analysis
Pressure, kPa	Mole fraction of 3,5-dinitrobenzoic acid	uncertainty
10000	.0000063	.000000315
12000	.0000176	.00000088
15000	.0000288	.00000144
18000	.0000399	.000001995
21000	.0000493	.000002465
