Measured thermophysical data. Solubilities of 4-Formylbenzoic Acid in Ethanoic Acid, Water, and Ethanoic Acid/Water Mixtures with Different Compositions from (303.2 to 473.2) K
Source: J. Chem. Eng. Data, 2010, 10.1021/je100632c
Compound 1: acetic acid, C2H4O2, purity 99.5%
Compound 2: 4-carboxybenzaldehyde, C8H6O3, purity 98%
Compound 3: water, H2O

System: acetic acid + 4-carboxybenzaldehyde; phases: Liquid, Crystal, Gas
Property: Mass ratio of solute to solvent of 4-carboxybenzaldehyde (Liquid); method: HPLC
Temperature, K	Mass ratio of solute to solvent of 4-carboxybenzaldehyde	uncertainty
303.2	.00625	.001
323.2	.01049	.001
333.2	.01276	.001
343.2	.01591	.001
353.2	.01927	.001
363.2	.02405	.001
373.2	.03322	.001
403.2	.04118	.001
423.2	.0527	.001
433.2	.0598	.001
443.2	.06487	.001
453.2	.07964	.001
463.2	.09344	.001
473.2	.11653	.001

System: acetic acid + 4-carboxybenzaldehyde + water; phases: Liquid, Crystal, Gas
Property: Mass ratio of solute to solvent of 4-carboxybenzaldehyde (Liquid); method: HPLC
Temperature, K	Solvent: Mass fraction of acetic acid	Mass ratio of solute to solvent of 4-carboxybenzaldehyde	uncertainty
423.2	.9	.04801	.001
433.2	.9	.04983	.001
443.2	.9	.05222	.001
453.2	.9	.05525	.001
463.2	.9	.05799	.001
473.2	.9	.06149	.001
423.2	.8	.04566	.001
433.2	.8	.04622	.001
443.2	.8	.0471	.001
453.2	.8	.04827	.001
463.2	.8	.05096	.001
473.2	.8	.05786	.001

System: 4-carboxybenzaldehyde + water; phases: Liquid, Crystal, Gas
Property: Mass ratio of solute to solvent of 4-carboxybenzaldehyde (Liquid); method: HPLC
Temperature, K	Mass ratio of solute to solvent of 4-carboxybenzaldehyde	uncertainty
303.2	.00058	.001
323.2	.00146	.001
333.2	.0022	.001
343.2	.00263	.001
353.2	.00301	.001
403.2	.01011	.001
423.2	.01378	.001
433.2	.01533	.001
443.2	.01688	.001
453.2	.01834	.001
463.2	.02153	.001
473.2	.02471	.001
