Measured thermophysical data. Isobaric Thermal Expansivities of Toluene Measured by Scanning Transitiometry at Temperatures from (243 to 423) K and Pressures up to 200 MPa
Source: J. Chem. Eng. Data, 2010, 10.1021/je100657n
Compound 1: toluene, C7H8

System: toluene; phases: Liquid
Fixed: Pressure, kPa = 101.325
Property: Mass density, kg/m3 (Liquid); method: Vibrating tube method
Temperature, K	Mass density, kg/m3	uncertainty
273.15	885.28	.05
278.15	880.7	.05
283.15	876.11	.05
288.15	871.5	.05
293.15	866.87	.05
298.15	862.22	.05
303.15	857.55	.05
308.15	852.86	.05
313.15	848.15	.05
318.15	843.42	.05
323.15	838.67	.05
328.15	833.9	.05
333.15	829.11	.05
338.15	824.3	.05
343.15	819.47	.05
348.15	814.62	.05
353.15	809.75	.05
358.15	804.86	.05
363.15	799.96	.05

System: toluene; phases: Liquid
Property: Isobaric coefficient of expansion, 1/K (Liquid); method: Transitiometer
Temperature, K	Pressure, kPa	Isobaric coefficient of expansion, 1/K	uncertainty
245.1	194850	.00064	.0000128
245.1	169210	.000658	.00001316
245.1	148920	.000675	.0000135
245.1	128960	.000708	.00001416
245.1	108990	.00073	.0000146
245.1	89000	.000769	.00001538
245.1	69090	.000812	.00001624
245.1	54160	.000848	.00001696
245.1	39180	.000879	.00001758
245.1	24110	.000928	.00001856
245.1	8650	.000981	.00001962
274.5	194960	.000625	.0000125
274.5	169730	.000646	.00001292
274.5	149170	.00067	.0000134
274.5	129210	.000703	.00001406
274.5	109230	.000734	.00001468
274.5	89220	.000772	.00001544
274.5	69230	.00081	.0000162
274.5	54370	.000854	.00001708
274.5	39410	.000904	.00001808
274.5	24330	.000958	.00001916
274.5	9060	.001015	.0000203
304.1	194990	.000614	.00001228
304.1	169330	.000629	.00001258
304.1	149100	.000658	.00001316
304.1	129230	.000685	.0000137
304.1	109080	.000726	.00001452
304.1	89320	.000771	.00001542
304.1	69190	.000815	.0000163
304.1	54510	.000868	.00001736
304.1	39420	.000925	.0000185
304.1	24490	.000995	.0000199
304.1	9270	.001054	.00002108
323.4	194970	.000607	.00001214
323.4	169460	.000634	.00001268
323.4	149340	.000667	.00001334
323.4	129550	.000694	.00001388
323.4	109380	.000729	.00001458
323.4	89350	.000773	.00001546
323.4	69390	.000826	.00001652
323.4	54470	.000876	.00001752
323.4	39460	.000934	.00001868
323.4	24420	.001015	.0000203
323.4	9290	.001096	.00002192
372.3	194980	.000554	.00001108
372.3	169460	.00057	.0000114
372.3	149280	.000606	.00001212
372.3	129360	.00064	.0000128
372.3	109330	.000686	.00001372
372.3	89310	.000736	.00001472
372.3	69570	.000789	.00001578
372.3	54700	.000862	.00001724
372.3	39740	.000937	.00001874
372.3	24590	.001046	.00002092
372.3	9810	.001178	.00002356
422.2	194890	.000511	.00001022
422.2	169430	.00054	.0000108
422.2	149390	.000578	.00001156
422.2	129350	.000618	.00001236
422.2	109380	.00067	.0000134
422.2	89470	.000726	.00001452
422.2	69610	.000784	.00001568
422.2	54680	.000858	.00001716
422.2	39760	.00098	.0000196
422.2	24830	.001118	.00002236
422.2	9920	.0013	.000026
