Measured thermophysical data. Thermodynamic Properties of Binary Mixtures of Tetrahydropyran with Anilines at 308.15 K
Source: J. Chem. Eng. Data, 2010, 10.1021/je1005196
Compound 1: tetrahydropyran, C5H10O, purity 99%
Compound 2: aniline, C6H7N, purity 99%
Compound 3: phenylmethylamine, C7H9N, purity 98%
Compound 4: 2-methylaniline, C7H9N, purity 99%

System: tetrahydropyran; phases: Liquid
Fixed: Pressure, kPa = 101.325
Property: Mass density, kg/m3 (Liquid); method: Pycnometric method
Temperature, K	Mass density, kg/m3	uncertainty
298.15	868.6	

System: tetrahydropyran; phases: Liquid, Gas
Property: Vapor or sublimation pressure, kPa (Liquid); method: Closed cell (Static) method
Temperature, K	Vapor or sublimation pressure, kPa	uncertainty
298.15	9.532523	.0399966

System: tetrahydropyran; phases: Liquid
Fixed: Pressure, kPa = 101.325
Property: Speed of sound, m/s (Liquid); method: Linear variable-path acoustic interferometer
Temperature, K	Speed of sound, m/s	uncertainty
298.15	1388	1

System: tetrahydropyran; phases: Liquid, Gas
Property: Vapor or sublimation pressure, kPa (Liquid); method: Closed cell (Static) method
Temperature, K	Vapor or sublimation pressure, kPa	uncertainty
308.15	13.7854948	.3

System: aniline; phases: Liquid
Fixed: Pressure, kPa = 101.325
Property: Mass density, kg/m3 (Liquid); method: Pycnometric method
Temperature, K	Mass density, kg/m3	uncertainty
298.15	1017.2	

System: aniline; phases: Liquid, Gas
Property: Vapor or sublimation pressure, kPa (Liquid); method: Closed cell (Static) method
Temperature, K	Vapor or sublimation pressure, kPa	uncertainty
298.15	.0933254	.0399966

System: aniline; phases: Liquid
Fixed: Pressure, kPa = 101.325
Property: Speed of sound, m/s (Liquid); method: Linear variable-path acoustic interferometer
Temperature, K	Speed of sound, m/s	uncertainty
298.15	1635	1

System: aniline; phases: Liquid, Gas
Property: Vapor or sublimation pressure, kPa (Liquid); method: Closed cell (Static) method
Temperature, K	Vapor or sublimation pressure, kPa	uncertainty
308.15	.1199898	.3

System: phenylmethylamine; phases: Liquid
Fixed: Pressure, kPa = 101.325
Property: Mass density, kg/m3 (Liquid); method: Pycnometric method
Temperature, K	Mass density, kg/m3	uncertainty
298.15	982.4	

System: phenylmethylamine; phases: Liquid, Gas
Property: Vapor or sublimation pressure, kPa (Liquid); method: Closed cell (Static) method
Temperature, K	Vapor or sublimation pressure, kPa	uncertainty
298.15	.066661	.0399966

System: phenylmethylamine; phases: Liquid
Fixed: Pressure, kPa = 101.325
Property: Speed of sound, m/s (Liquid); method: Linear variable-path acoustic interferometer
Temperature, K	Speed of sound, m/s	uncertainty
298.15	1572	1

System: phenylmethylamine; phases: Liquid, Gas
Property: Vapor or sublimation pressure, kPa (Liquid); method: Closed cell (Static) method
Temperature, K	Vapor or sublimation pressure, kPa	uncertainty
308.15	.1066576	.3

System: 2-methylaniline; phases: Liquid
Fixed: Pressure, kPa = 101.325
Property: Mass density, kg/m3 (Liquid); method: Pycnometric method
Temperature, K	Mass density, kg/m3	uncertainty
298.15	994.2	

System: 2-methylaniline; phases: Liquid, Gas
Property: Vapor or sublimation pressure, kPa (Liquid); method: Closed cell (Static) method
Temperature, K	Vapor or sublimation pressure, kPa	uncertainty
298.15	.0399966	.0399966

System: 2-methylaniline; phases: Liquid
Fixed: Pressure, kPa = 101.325
Property: Speed of sound, m/s (Liquid); method: Linear variable-path acoustic interferometer
Temperature, K	Speed of sound, m/s	uncertainty
298.15	1602	1

System: 2-methylaniline; phases: Liquid, Gas
Property: Vapor or sublimation pressure, kPa (Liquid); method: Closed cell (Static) method
Temperature, K	Vapor or sublimation pressure, kPa	uncertainty
308.15	.066661	.3

System: aniline + tetrahydropyran; phases: Liquid
Fixed: Temperature, K = 308.15
Fixed: Pressure, kPa = 101
Property: Excess molar volume, m3/mol (Liquid); method: Direct dilatometry
Mole fraction of tetrahydropyran	Excess molar volume, m3/mol	uncertainty
.0702	-.000000097	-.000000000485
.1767	-.000000245	-.000000001225
.2381	-.000000322	-.00000000161
.2952	-.000000384	-.00000000192
.3347	-.00000042	-.0000000021
.3913	-.000000459	-.000000002295
.4354	-.00000048	-.0000000024
.4904	-.000000492	-.00000000246
.5525	-.000000487	-.000000002435
.628	-.000000456	-.00000000228
.6989	-.000000401	-.000000002005
.7412	-.000000359	-.000000001795
.8548	-.000000215	-.000000001075
.9204	-.000000119	-.000000000595

System: aniline + tetrahydropyran; phases: Liquid
Fixed: Temperature, K = 308.15
Fixed: Pressure, kPa = 101
Property: Excess molar enthalpy (molar enthalpy of mixing), kJ/mol (Liquid); method: Calvet calorimetry
Mole fraction of tetrahydropyran	Excess molar enthalpy (molar enthalpy of mixing), kJ/mol	uncertainty
.0545	-.0837	-.000837
.1711	-.2508	-.002508
.2234	-.3211	-.003211
.2761	-.3887	-.003887
.3509	-.4777	-.004777
.4214	-.5513	-.005513
.5512	-.6468	-.006468
.5879	-.6606	-.006606
.6213	-.6666	-.006666
.6821	-.6589	-.006589
.7511	-.6149	-.006149
.8145	-.5344	-.005344
.8914	-.3735	-.003735
.9413	-.2254	-.002254

System: aniline + tetrahydropyran; phases: Liquid
Fixed: Temperature, K = 308.15
Fixed: Pressure, kPa = 101
Property: Speed of sound, m/s (Liquid); method: Linear variable-path acoustic interferometer
Mole fraction of tetrahydropyran	Speed of sound, m/s	uncertainty
.0912	1564	1
.1516	1543	1
.2414	1510	1
.299	1490	1
.3541	1470	1
.4417	1438	1
.5312	1404	1
.5943	1379	1
.6511	1357	1
.7344	1324	1
.8117	1294	1
.883	1267	1
.9413	1245	1
.9812	1231	1

System: aniline + tetrahydropyran; phases: Liquid, Gas
Fixed: Temperature, K = 308.15
Property: Vapor or sublimation pressure, kPa (Liquid); method: Closed cell (Static) method
Mole fraction of aniline	Vapor or sublimation pressure, kPa	uncertainty
0	13.7854948	.3
.0502	12.8255764	.3
.1501	11.5190208	.3
.251	9.865828	.3
.3511	8.1593064	.3
.4504	6.599439	.3
.5503	5.066236	.3
.6513	3.7596804	.3
.7522	2.4397926	.3
.8511	1.3865488	.3
.9502	.5599524	.3
1	.1199898	.3

System: phenylmethylamine + tetrahydropyran; phases: Liquid
Fixed: Temperature, K = 308.15
Fixed: Pressure, kPa = 101
Property: Excess molar volume, m3/mol (Liquid); method: Direct dilatometry
Mole fraction of tetrahydropyran	Excess molar volume, m3/mol	uncertainty
.0764	-.000000072	-.00000000036
.1416	-.000000125	-.000000000625
.1921	-.000000159	-.000000000795
.244	-.000000189	-.000000000945
.2905	-.00000021	-.00000000105
.3451	-.000000227	-.000000001135
.3984	-.000000237	-.000000001185
.4515	-.00000024	-.0000000012
.5224	-.000000234	-.00000000117
.613	-.00000021	-.00000000105
.6873	-.000000178	-.00000000089
.7531	-.000000144	-.00000000072
.8231	-.000000103	-.000000000515
.9191	-.000000045	-.000000000225

System: phenylmethylamine + tetrahydropyran; phases: Liquid
Fixed: Temperature, K = 308.15
Fixed: Pressure, kPa = 101
Property: Excess molar enthalpy (molar enthalpy of mixing), kJ/mol (Liquid); method: Calvet calorimetry
Mole fraction of tetrahydropyran	Excess molar enthalpy (molar enthalpy of mixing), kJ/mol	uncertainty
.0856	-.1104	-.001104
.1321	-.1702	-.001702
.1976	-.2512	-.002512
.2434	-.3043	-.003043
.3122	-.376	-.00376
.3876	-.4403	-.004403
.4444	-.4766	-.004766
.4878	-.4962	-.004962
.5548	-.511	-.00511
.6233	-.5048	-.005048
.6921	-.4747	-.004747
.7432	-.4356	-.004356
.8767	-.2612	-.002612
.9549	-.1072	-.001072

System: phenylmethylamine + tetrahydropyran; phases: Liquid
Fixed: Temperature, K = 308.15
Fixed: Pressure, kPa = 101
Property: Speed of sound, m/s (Liquid); method: Linear variable-path acoustic interferometer
Mole fraction of tetrahydropyran	Speed of sound, m/s	uncertainty
.0541	1509	1
.1321	1490	1
.2316	1468	1
.2811	1457	1
.3612	1437	1
.4112	1424	1
.4932	1400	1
.5638	1377	1
.6148	1360	1
.6919	1332	1
.7418	1313	1
.8141	1287	1
.8992	1257	1
.9514	1239	1

System: phenylmethylamine + tetrahydropyran; phases: Liquid, Gas
Fixed: Temperature, K = 308.15
Property: Vapor or sublimation pressure, kPa (Liquid); method: Closed cell (Static) method
Mole fraction of phenylmethylamine	Vapor or sublimation pressure, kPa	uncertainty
0	13.7854948	.3
.0511	12.9588984	.3
.151	11.2390446	.3
.2522	9.4791942	.3
.3501	7.666015	.3
.4531	6.1461442	.3
.5521	4.732931	.3
.6501	3.3863788	.3
.7533	2.1464842	.3
.8502	1.1065726	.3
.9521	.4132982	.3
1	.1066576	.3

System: 2-methylaniline + tetrahydropyran; phases: Liquid
Fixed: Temperature, K = 308.15
Fixed: Pressure, kPa = 101
Property: Excess molar volume, m3/mol (Liquid); method: Direct dilatometry
Mole fraction of tetrahydropyran	Excess molar volume, m3/mol	uncertainty
.1881	-.000000394	-.00000000197
.2321	-.000000457	-.000000002285
.2967	-.000000547	-.000000002735
.3245	-.000000575	-.000000002875
.3834	-.000000636	-.00000000318
.4704	-.000000708	-.00000000354
.5181	-.000000732	-.00000000366
.5423	-.000000737	-.000000003685
.6112	-.000000745	-.000000003725
.6877	-.000000722	-.00000000361
.7414	-.000000682	-.00000000341
.8213	-.000000566	-.00000000283
.8974	-.000000381	-.000000001905
.9426	-.000000235	-.000000001175

System: 2-methylaniline + tetrahydropyran; phases: Liquid
Fixed: Temperature, K = 308.15
Fixed: Pressure, kPa = 101
Property: Excess molar enthalpy (molar enthalpy of mixing), kJ/mol (Liquid); method: Calvet calorimetry
Mole fraction of tetrahydropyran	Excess molar enthalpy (molar enthalpy of mixing), kJ/mol	uncertainty
.0701	-.1196	-.001196
.1765	-.2836	-.002836
.2379	-.3658	-.003658
.295	-.4324	-.004324
.3344	-.4722	-.004722
.3911	-.5196	-.005196
.435	-.5748	-.005748
.4901	-.5715	-.005715
.5521	-.5817	-.005817
.6276	-.5682	-.005682
.6982	-.5277	-.005277
.741	-.4892	-.004892
.8546	-.3312	-.003312
.9201	-.2008	-.002008

System: 2-methylaniline + tetrahydropyran; phases: Liquid
Fixed: Temperature, K = 308.15
Fixed: Pressure, kPa = 101
Property: Speed of sound, m/s (Liquid); method: Linear variable-path acoustic interferometer
Mole fraction of tetrahydropyran	Speed of sound, m/s	uncertainty
.0832	1535	1
.1451	1505	1
.2102	1475	1
.2918	1441	1
.3581	1414	1
.4002	1399	1
.4981	1364	1
.5638	1343	1
.6118	1328	1
.7148	1299	1
.7981	1277	1
.8412	1267	1
.9003	1253	1
.9628	1240	1

System: 2-methylaniline + tetrahydropyran; phases: Liquid, Gas
Fixed: Temperature, K = 308.15
Property: Vapor or sublimation pressure, kPa (Liquid); method: Closed cell (Static) method
Mole fraction of 2-methylaniline	Vapor or sublimation pressure, kPa	uncertainty
0	13.7854948	.3
.0501	13.0122272	.3
.1541	11.532353	.3
.25	10.065811	.3
.3541	8.2926284	.3
.4501	6.532778	.3
.5511	4.866253	.3
.6507	3.399711	.3
.7511	2.1864808	.3
.8508	1.266559	.3
.9521	.4532948	.3
1	.066661	.3
