Measured thermophysical data. Solubility of Physalin D in Ethanol, Methanol, Propanone, Trichloromethane, Ethyl Ethanoate, and Water at Temperatures from (283.2 to 313.2) K
Source: J. Chem. Eng. Data, 2010, 10.1021/je100227k
Compound 1: PhysalinD, C28H32O11
Compound 2: ethanol, C2H6O
Compound 3: methanol, CH4O
Compound 4: propanone, C3H6O
Compound 5: ethyl ethanoate, C4H8O2
Compound 6: water, H2O
Compound 7: chloroform, CHCl3

System: ethanol + PhysalinD; phases: Liquid, Crystal
Fixed: Pressure, kPa = 101
Property: Amount concentration (molarity), mol/dm3 of PhysalinD (Liquid); method: HPLC
Temperature, K	Amount concentration (molarity), mol/dm3 of PhysalinD	uncertainty
283.2	.003918	
293.2	.004712	
298.2	.005806	
303.2	.007133	
308.2	.008941	
313.2	.010732	

System: methanol + PhysalinD; phases: Liquid, Crystal
Fixed: Pressure, kPa = 101
Property: Amount concentration (molarity), mol/dm3 of PhysalinD (Liquid); method: HPLC
Temperature, K	Amount concentration (molarity), mol/dm3 of PhysalinD	uncertainty
283.2	.008048	
293.2	.009242	
298.2	.010045	
303.2	.010898	
308.2	.012153	
313.2	.015886	

System: propanone + PhysalinD; phases: Liquid, Crystal
Fixed: Pressure, kPa = 101
Property: Amount concentration (molarity), mol/dm3 of PhysalinD (Liquid); method: HPLC
Temperature, K	Amount concentration (molarity), mol/dm3 of PhysalinD	uncertainty
283.2	.017268	
293.2	.022021	
298.2	.0238	
303.2	.02646	
308.2	.028589	
313.2	.030912	

System: ethyl ethanoate + PhysalinD; phases: Liquid, Crystal
Fixed: Pressure, kPa = 101
Property: Amount concentration (molarity), mol/dm3 of PhysalinD (Liquid); method: HPLC
Temperature, K	Amount concentration (molarity), mol/dm3 of PhysalinD	uncertainty
283.2	.003018	
293.2	.003236	
298.2	.003568	
303.2	.004212	
308.2	.005158	
313.2	.005909	

System: water + PhysalinD; phases: Liquid, Crystal
Fixed: Pressure, kPa = 101
Property: Amount concentration (molarity), mol/dm3 of PhysalinD (Liquid); method: HPLC
Temperature, K	Amount concentration (molarity), mol/dm3 of PhysalinD	uncertainty
283.2	.001226	
293.2	.002046	
298.2	.002692	
303.2	.002831	
308.2	.002919	
313.2	.003001	

System: chloroform + PhysalinD; phases: Liquid, Crystal
Fixed: Pressure, kPa = 101
Property: Amount concentration (molarity), mol/dm3 of PhysalinD (Liquid); method: HPLC
Temperature, K	Amount concentration (molarity), mol/dm3 of PhysalinD	uncertainty
283.2	.004552	
293.2	.004705	
298.2	.00485	
303.2	.005276	
308.2	.005835	
313.2	.005983	
