Measured thermophysical data. Experimental p-p-T Data for 1-Butyl-3-methylimidazolium Tetrafluoroborate at Temperatures from (240 to 353) K and at Pressures up to 60 MPa
Source: J. Chem. Eng. Data, 2011, 10.1021/je1007907
Compound 1: 1-butyl-3-methylimidazolium tetrafluoroborate, C8H15BF4N2, purity 99.9%

System: 1-butyl-3-methylimidazolium tetrafluoroborate; phases: Liquid
Property: Mass density, kg/m3 (Liquid); method: Constant-volume piezometry
Temperature, K	Pressure, kPa	Mass density, kg/m3	uncertainty
239.754	1875.4	1243.62	.746172
244.146	9187.2	1243.32	.745992
244.152	30106	1251.69	.751014
250.803	41033	1251.23	.750738
251.148	20631	1242.83	.745698
251.624	1431.5	1234.33	.740598
256.789	51047	1250.8	.75048
257.247	10286	1233.95	.74037
257.259	30540	1242.41	.745446
262.282	59764	1250.41	.750246
263.492	40569	1241.97	.745182
263.701	20360	1233.5	.7401
264.468	1197.4	1225.08	.735048
269.793	50298	1241.52	.744912
270.25	9963.8	1224.68	.734808
270.252	30434	1233.04	.739824
275.567	59083	1241.11	.744666
276.946	19845	1224.21	.734526
276.968	40555	1232.57	.739542
278.132	1660	1215.35	.72921
283.484	50231	1232.1	.73926
284.057	30274	1223.71	.734226
284.095	10163	1214.93	.728958
290.086	59872	1231.63	.738978
291.266	40686	1223.19	.733914
291.46	20613	1214.42	.728652
292.092	1940.4	1204.98	.722988
292.092	1445.8	1204.99	.722994
298.118	105.9	1201.65	.72099
298.124	9550.8	1204.57	.722742
298.131	10109	1204.56	.722736
298.138	29887	1213.94	.728364
298.138	10428	1204.76	.722856
298.58	50942	1222.67	.733602
305.026	19306	1204.07	.722442
305.528	898.6	1194.9	.71694
305.535	60508	1222.17	.733302
305.667	40148	1213.41	.728046
313.034	9790.3	1194.22	.716532
313.037	29821	1203.5	.7221
313.038	30149	1203.7	.72222
313.045	10270	1194.38	.716628
313.058	29280	1203.51	.722106
313.606	50546	1212.83	.727698
320.097	328.6	1184.62	.710772
320.513	19693	1193.85	.71631
321.398	60815	1212.26	.727356
321.613	40890	1202.88	.721728
327.983	48935	1202.42	.721452
328.175	28863	1193.3	.71598
328.176	10050	1184.05	.71043
328.178	29263	1193.3	.71598
328.181	29052	1193.14	.715884
328.224	10050	1184.05	.71043
336.35	39210	1192.7	.71562
336.681	20276	1183.44	.710064
337.094	59633	1201.76	.721056
344.203	29113	1182.9	.70974
344.315	48811	1192.12	.715272
353.675	59697	1191.42	.714852
354.156	40617	1182.17	.709302
