Measured thermophysical data. Measurement and Study on the Liquid Liquid Equilibrium of Ionic Liquids with Aliphatic Alcohols
Source: J. Chem. Eng. Data, 2011, 10.1021/je101261z
Compound 1: 1-hexyl-3-methylimidazolium tetrafluoroborate, C10H19BF4N2, purity 99%
Compound 2: 1-octyl-3-methylimidazolium tetrafluoroborate, C12H23BF4N2, purity 99%
Compound 3: butan-1-ol, C4H10O
Compound 4: isobutanol, C4H10O
Compound 5: pentan-1-ol, C5H12O
Compound 6: pentylcarbinol, C6H14O
Compound 7: 1-octanol, C8H18O

System: butan-1-ol + 1-hexyl-3-methylimidazolium tetrafluoroborate; phases: Liquid mixture 1, Liquid mixture 2
Fixed: Pressure, kPa = 101
Property: Liquid-liquid equilibrium temperature, K (Liquid mixture 1); method: Visual observation
Mole fraction of 1-hexyl-3-methylimidazolium tetrafluoroborate	Liquid-liquid equilibrium temperature, K	uncertainty
.0085	288.45	.03
.0113	291.22	.03
.0147	293.8	.03
.019	296.25	.03
.0256	298.41	.03
.0339	299.9	.03
.0454	301.05	.03
.0582	301.41	.03
.1326	301.7	.03
.1524	301.31	.03
.1791	300.8	.03
.2127	299.9	.03
.2556	297.72	.03
.2977	295.15	.03
.3277	293.09	.03
.3525	291.25	.03
.3768	289.47	.03
.4112	286.15	.03
.4462	282.77	.03

System: isobutanol + 1-hexyl-3-methylimidazolium tetrafluoroborate; phases: Liquid mixture 1, Liquid mixture 2
Fixed: Pressure, kPa = 101
Property: Liquid-liquid equilibrium temperature, K (Liquid mixture 1); method: Visual observation
Mole fraction of 1-hexyl-3-methylimidazolium tetrafluoroborate	Liquid-liquid equilibrium temperature, K	uncertainty
.0055	286.98	.03
.0083	292.11	.03
.0117	295.6	.03
.0161	298.57	.03
.0225	300.8	.03
.0319	302.7	.03
.0442	303.83	.03
.0623	304.3	.03
.0864	304.4	.03
.1382	303.85	.03
.1877	302.65	.03
.2189	301.55	.03
.2388	300.61	.03
.2686	299	.03
.2907	297.53	.03
.3102	296.15	.03
.345	293.65	.03
.4452	284.5	.03

System: pentan-1-ol + 1-hexyl-3-methylimidazolium tetrafluoroborate; phases: Liquid mixture 1, Liquid mixture 2
Fixed: Pressure, kPa = 101
Property: Liquid-liquid equilibrium temperature, K (Liquid mixture 1); method: Visual observation
Mole fraction of 1-hexyl-3-methylimidazolium tetrafluoroborate	Liquid-liquid equilibrium temperature, K	uncertainty
.0068	293.73	.03
.0095	298.05	.03
.012	300.96	.03
.0155	304	.03
.0193	306.03	.03
.0247	308.2	.03
.031	309.8	.03
.0395	311.06	.03
.0514	312.11	.03
.0682	312.85	.03
.0914	313.15	.03
.1354	313	.03
.1538	312.84	.03
.1834	312.52	.03
.2041	312.15	.03
.2223	311.55	.03
.2532	310.56	.03
.2974	308.63	.03
.3261	307.15	.03
.3724	304.05	.03
.409	301.16	.03
.4381	298.55	.03
.4728	295.1	.03
.5073	291.43	.03
.5357	288.3	.03
.5611	285.35	.03
.5834	282.66	.03

System: pentylcarbinol + 1-hexyl-3-methylimidazolium tetrafluoroborate; phases: Liquid mixture 1, Liquid mixture 2
Fixed: Pressure, kPa = 101
Property: Liquid-liquid equilibrium temperature, K (Liquid mixture 1); method: Visual observation
Mole fraction of 1-hexyl-3-methylimidazolium tetrafluoroborate	Liquid-liquid equilibrium temperature, K	uncertainty
.008	307.1	.03
.0127	313.06	.03
.0181	316.65	.03
.0253	319.44	.03
.0352	321.74	.03
.0486	323.45	.03
.0656	324.61	.03
.093	325.06	.03
.1479	325.45	.03
.1715	325.25	.03
.1951	324.95	.03
.2236	324.46	.03
.2652	323.4	.03
.2997	322.11	.03
.3465	319.76	.03
.3771	317.95	.03
.403	316.45	.03
.4253	314.86	.03
.4568	312	.03
.4913	309.33	.03
.5204	306.1	.03
.5509	302.86	.03
.5778	299.26	.03
.5988	296.65	.03
.6135	294.65	.03

System: butan-1-ol + 1-octyl-3-methylimidazolium tetrafluoroborate; phases: Liquid mixture 1, Liquid mixture 2
Fixed: Pressure, kPa = 101
Property: Liquid-liquid equilibrium temperature, K (Liquid mixture 1); method: Visual observation
Mole fraction of 1-octyl-3-methylimidazolium tetrafluoroborate	Liquid-liquid equilibrium temperature, K	uncertainty
.0158	276.98	.03
.0178	277.45	.03
.0201	277.97	.03
.023	278.37	.03
.0276	278.9	.03
.0348	279.34	.03
.0453	279.49	.03
.0694	279.47	.03
.0841	279.15	.03
.0961	278.81	.03
.1084	278.45	.03
.122	278.05	.03
.1347	277.73	.03
.1466	277.33	.03
.1567	276.97	.03

System: pentan-1-ol + 1-octyl-3-methylimidazolium tetrafluoroborate; phases: Liquid mixture 1, Liquid mixture 2
Fixed: Pressure, kPa = 101
Property: Liquid-liquid equilibrium temperature, K (Liquid mixture 1); method: Visual observation
Mole fraction of 1-octyl-3-methylimidazolium tetrafluoroborate	Liquid-liquid equilibrium temperature, K	uncertainty
.0113	280.55	.03
.0183	283.4	.03
.0249	284.76	.03
.0282	285.25	.03
.0314	285.4	.03
.0346	285.5	.03
.0418	285.85	.03
.0482	285.96	.03
.0566	286.08	.03
.0806	286.25	.03
.0859	286.15	.03
.0928	286.05	.03
.0983	285.95	.03
.1026	285.85	.03
.1082	285.75	.03
.1145	285.75	.03
.1271	285.36	.03
.1423	285.15	.03
.1684	284.45	.03
.1977	283.65	.03
.2306	282.18	.03
.2508	281.15	.03
.26	280.66	.03
.2675	280.4	.03
.275	279.86	.03
.2804	279.65	.03

System: pentylcarbinol + 1-octyl-3-methylimidazolium tetrafluoroborate; phases: Liquid mixture 1, Liquid mixture 2
Fixed: Pressure, kPa = 101
Property: Liquid-liquid equilibrium temperature, K (Liquid mixture 1); method: Visual observation
Mole fraction of 1-octyl-3-methylimidazolium tetrafluoroborate	Liquid-liquid equilibrium temperature, K	uncertainty
.007	286.55	.03
.0088	288.1	.03
.0103	289.5	.03
.0118	290.55	.03
.0135	290.9	.03
.015	291.26	.03
.0174	292.27	.03
.027	295.59	.03
.0361	296.2	.03
.0444	296.45	.03
.0547	296.65	.03
.0996	297.75	.03
.1062	297.65	.03
.1179	297.36	.03
.1322	297.07	.03
.1576	296.51	.03
.1835	295.85	.03
.2013	295.35	.03
.2172	294.76	.03
.2339	294.05	.03
.2496	293.25	.03
.2633	292.6	.03
.2814	291.55	.03
.299	290.38	.03
.3163	289.2	.03
.3317	288.05	.03
.3457	286.95	.03
.3612	285.65	.03
.3784	284.15	.03
.392	282.81	.03

System: 1-octanol + 1-octyl-3-methylimidazolium tetrafluoroborate; phases: Liquid mixture 1, Liquid mixture 2
Fixed: Pressure, kPa = 101
Property: Liquid-liquid equilibrium temperature, K (Liquid mixture 1); method: Visual observation
Mole fraction of 1-octyl-3-methylimidazolium tetrafluoroborate	Liquid-liquid equilibrium temperature, K	uncertainty
.0223	307.46	.03
.032	309.3	.03
.0464	310.55	.03
.0941	312.67	.03
.114	312.35	.03
.1393	311.91	.03
.1759	311.25	.03
.2233	310.46	.03
.2588	309.36	.03
.2804	308.25	.03
.3011	307.2	.03
.3255	305.76	.03
.3466	304.36	.03
.371	302.21	.03

System: isobutanol + 1-octyl-3-methylimidazolium tetrafluoroborate; phases: Liquid mixture 1, Liquid mixture 2
Fixed: Pressure, kPa = 101
Property: Liquid-liquid equilibrium temperature, K (Liquid mixture 1); method: Visual observation
Mole fraction of 1-octyl-3-methylimidazolium tetrafluoroborate	Liquid-liquid equilibrium temperature, K	uncertainty
.0279	283.95	.03
.0353	284.35	.03
.0437	284.47	.03
.0882	284.25	.03
.1026	283.77	.03
.1177	283.35	.03
.133	282.87	.03
.1485	282.41	.03
.1642	281.77	.03
.1789	281.21	.03
.192	280.7	.03
.2045	279.87	.03
.2158	279.29	.03
.225	278.86	.03
.2334	278.27	.03
.2409	277.77	.03
.2475	277.37	.03
