Measured thermophysical data. Influence of the Molecular Structure on the Volumetric Properties and Viscosities of Dialkyl Adipates (Dimethyl, Diethyl, and Diisobutyl Adipates)
Source: J. Chem. Eng. Data, 2010, 10.1021/je100237h
Compound 1: dimethyl adipate, C8H14O4
Compound 2: diethyl adipate, C10H18O4
Compound 3: hexanedioic acid, bis(2-methylpropyl) ester, C14H26O4

System: dimethyl adipate; phases: Liquid
Property: Mass density, kg/m3 (Liquid); method: Vibrating tube method
Temperature, K	Pressure, kPa	Mass density, kg/m3	uncertainty
293.15	100	1061.5	1.0615
293.15	10000	1067.7	1.0677
293.15	20000	1073.6	1.0736
293.15	30000	1079.2	1.0792
293.15	40000	1084.5	1.0845
293.15	50000	1089.6	1.0896
293.15	60000	1094.7	1.0947
293.15	70000	1099.5	1.0995
293.15	80000	1104.2	1.1042
293.15	90000	1108.5	1.1085
293.15	100000	1112.8	1.1128
303.15	100	1051.8	1.0518
303.15	10000	1058	1.058
303.15	20000	1064.4	1.0644
303.15	30000	1070.5	1.0705
303.15	40000	1076	1.076
303.15	50000	1081.5	1.0815
303.15	60000	1086.7	1.0867
303.15	70000	1091.5	1.0915
303.15	80000	1096.1	1.0961
303.15	90000	1100.6	1.1006
303.15	100000	1104.7	1.1047
303.15	110000	1108.9	1.1089
303.15	120000	1113.1	1.1131
303.15	130000	1117	1.117
303.15	140000	1120.9	1.1209
313.15	100	1042.1	1.0421
313.15	10000	1048.9	1.0489
313.15	20000	1055.6	1.0556
313.15	30000	1061.8	1.0618
313.15	40000	1067.5	1.0675
313.15	50000	1073.2	1.0732
313.15	60000	1078.6	1.0786
313.15	70000	1083.7	1.0837
313.15	80000	1088.7	1.0887
313.15	90000	1093.2	1.0932
313.15	100000	1097.2	1.0972
313.15	110000	1101.5	1.1015
313.15	120000	1105.6	1.1056
313.15	130000	1109.8	1.1098
313.15	140000	1113.8	1.1138
323.15	100	1031.6	1.0316
323.15	10000	1038.9	1.0389
323.15	20000	1045.7	1.0457
323.15	30000	1052.1	1.0521
323.15	40000	1058.3	1.0583
323.15	50000	1063.9	1.0639
323.15	60000	1069.1	1.0691
323.15	70000	1074.4	1.0744
323.15	80000	1079.3	1.0793
323.15	90000	1084.2	1.0842
323.15	100000	1088.9	1.0889
323.15	110000	1093.3	1.0933
323.15	120000	1097.9	1.0979
323.15	130000	1102.2	1.1022
323.15	140000	1106.2	1.1062
333.15	100	1022.6	1.0226
333.15	10000	1029.6	1.0296
333.15	20000	1036.8	1.0368
333.15	30000	1043.6	1.0436
333.15	40000	1049.9	1.0499
333.15	50000	1056	1.056
333.15	60000	1061.5	1.0615
333.15	70000	1066.9	1.0669
333.15	80000	1072	1.072
333.15	90000	1076.9	1.0769
333.15	100000	1082	1.082
333.15	110000	1086.8	1.0868
333.15	120000	1091.1	1.0911
333.15	130000	1095.5	1.0955
333.15	140000	1099.8	1.0998
343.15	100	1012.3	1.0123
343.15	10000	1020.4	1.0204
343.15	20000	1028.1	1.0281
343.15	30000	1034.8	1.0348
343.15	40000	1041.3	1.0413
343.15	50000	1047.6	1.0476
343.15	60000	1053.5	1.0535
343.15	70000	1058.6	1.0586
343.15	80000	1064.2	1.0642
343.15	90000	1069.3	1.0693
343.15	100000	1074.1	1.0741
343.15	110000	1079	1.079
343.15	120000	1083.9	1.0839
343.15	130000	1088.3	1.0883
343.15	140000	1092.4	1.0924
353.15	100	1002.2	1.0022
353.15	10000	1010.8	1.0108
353.15	20000	1018.4	1.0184
353.15	30000	1025.6	1.0256
353.15	40000	1032.8	1.0328
353.15	50000	1039	1.039
353.15	60000	1045.4	1.0454
353.15	70000	1051.2	1.0512
353.15	80000	1056.7	1.0567
353.15	90000	1061.9	1.0619
353.15	100000	1067.3	1.0673
353.15	110000	1072.2	1.0722
353.15	120000	1076.6	1.0766
353.15	130000	1081.3	1.0813
353.15	140000	1085.6	1.0856
363.15	100	992.2	.9922
363.15	10000	1000.6	1.0006
363.15	20000	1008.9	1.0089
363.15	30000	1016.6	1.0166
363.15	40000	1023.7	1.0237
363.15	50000	1030.4	1.0304
363.15	60000	1036.8	1.0368
363.15	70000	1042.9	1.0429
363.15	80000	1048.5	1.0485
363.15	90000	1053.9	1.0539
363.15	100000	1059.2	1.0592
363.15	110000	1064.3	1.0643
363.15	120000	1069.1	1.0691
363.15	130000	1074.1	1.0741
363.15	140000	1078.5	1.0785
373.15	100	981.9	.9819
373.15	10000	991	.991
373.15	20000	999.5	.9995
373.15	30000	1007.7	1.0077
373.15	40000	1014.8	1.0148
373.15	50000	1021.8	1.0218
373.15	60000	1029	1.029
373.15	70000	1035	1.035
373.15	80000	1040.9	1.0409
373.15	90000	1046.4	1.0464
373.15	100000	1051	1.051
373.15	110000	1056.3	1.0563
373.15	120000	1061.6	1.0616
373.15	130000	1066	1.066
373.15	140000	1071.2	1.0712
383.15	100	972.2	.9722
383.15	10000	981.1	.9811
383.15	20000	990.4	.9904
383.15	30000	998.7	.9987
383.15	40000	1006.3	1.0063
383.15	50000	1013.9	1.0139
383.15	60000	1020.5	1.0205
383.15	70000	1027	1.027
383.15	80000	1033.2	1.0332
383.15	90000	1039	1.039
383.15	100000	1044.7	1.0447
383.15	110000	1050.1	1.0501
383.15	120000	1055.2	1.0552
383.15	130000	1059.9	1.0599
383.15	140000	1065.1	1.0651
393.15	100	961.7	.9617
393.15	10000	971.7	.9717
393.15	20000	981.5	.9815
393.15	30000	990.1	.9901
393.15	40000	998.2	.9982
393.15	50000	1005.9	1.0059
393.15	60000	1013	1.013
393.15	70000	1019.7	1.0197
393.15	80000	1026	1.026
393.15	90000	1032.1	1.0321
393.15	100000	1037.7	1.0377
393.15	110000	1043.1	1.0431
393.15	120000	1048.7	1.0487
393.15	130000	1053.8	1.0538
393.15	140000	1058.5	1.0585
403.15	100	951.5	.9515
403.15	10000	961.4	.9614
403.15	20000	971.6	.9716
403.15	30000	980.8	.9808
403.15	40000	989.3	.9893
403.15	50000	997.3	.9973
403.15	60000	1004.5	1.0045
403.15	70000	1011.5	1.0115
403.15	80000	1018.2	1.0182
403.15	90000	1024.5	1.0245
403.15	100000	1030.2	1.0302
403.15	110000	1035.9	1.0359
403.15	120000	1041.3	1.0413
403.15	130000	1046.6	1.0466
403.15	140000	1051.6	1.0516

System: dimethyl adipate; phases: Liquid
Fixed: Pressure, kPa = 101.325
Property: Viscosity, Pa*s (Liquid); method: Concentric cylinders viscometry
Temperature, K	Viscosity, Pa*s	uncertainty
283.15	.00439	.0000439
288.15	.00382	.0000382
293.15	.00336	.0000336
298.15	.00298	.0000298
303.15	.00267	.0000267
308.15	.0024	.000024
313.15	.00218	.0000218
318.15	.00199	.0000199
323.15	.00182	.0000182
328.15	.00168	.0000168
333.15	.00155	.0000155
338.15	.00144	.0000144
343.15	.00134	.0000134
348.15	.00125	.0000125
353.15	.00117	.0000117
358.15	.0011	.000011
363.15	.00103	.0000103
368.15	.00097	.0000097
373.15	.00092	.0000092

System: diethyl adipate; phases: Liquid
Fixed: Pressure, kPa = 101.325
Property: Viscosity, Pa*s (Liquid); method: Concentric cylinders viscometry
Temperature, K	Viscosity, Pa*s	uncertainty
283.15	.00457	.0000457
288.15	.00399	.0000399
293.15	.00351	.0000351
298.15	.00312	.0000312
303.15	.00279	.0000279
308.15	.00251	.0000251
313.15	.00228	.0000228
318.15	.00207	.0000207
323.15	.0019	.000019
328.15	.00175	.0000175
333.15	.00161	.0000161
338.15	.00149	.0000149
343.15	.00139	.0000139
348.15	.00129	.0000129
353.15	.00121	.0000121
358.15	.00113	.0000113
363.15	.00106	.0000106
368.15	.001	.00001
373.15	.00094	.0000094

System: hexanedioic acid, bis(2-methylpropyl) ester; phases: Liquid
Property: Mass density, kg/m3 (Liquid); method: Vibrating tube method
Temperature, K	Pressure, kPa	Mass density, kg/m3	uncertainty
293.15	100	951.7	.9517
293.15	10000	958.4	.9584
293.15	20000	964.7	.9647
293.15	30000	970.6	.9706
293.15	40000	976.1	.9761
293.15	50000	981.4	.9814
293.15	60000	986.4	.9864
293.15	70000	991.2	.9912
293.15	80000	995.9	.9959
293.15	90000	1000.3	1.0003
293.15	100000	1004.7	1.0047
293.15	110000	1008.7	1.0087
293.15	120000	1012.7	1.0127
293.15	130000	1016.6	1.0166
293.15	140000	1020.3	1.0203
303.15	100	942.8	.9428
303.15	10000	949.9	.9499
303.15	20000	956.4	.9564
303.15	30000	962.6	.9626
303.15	40000	968.3	.9683
303.15	50000	974	.974
303.15	60000	979.1	.9791
303.15	70000	984.2	.9842
303.15	80000	989	.989
303.15	90000	993.4	.9934
303.15	100000	997.8	.9978
303.15	110000	1002.1	1.0021
303.15	120000	1006.3	1.0063
303.15	130000	1010.3	1.0103
303.15	140000	1014	1.014
313.15	100	934.2	.9342
313.15	10000	941.6	.9416
313.15	20000	948.5	.9485
313.15	30000	954.9	.9549
313.15	40000	960.9	.9609
313.15	50000	966.6	.9666
313.15	60000	972.1	.9721
313.15	70000	977.2	.9772
313.15	80000	982	.982
313.15	90000	986.7	.9867
313.15	100000	991.2	.9912
313.15	110000	995.6	.9956
313.15	120000	999.9	.9999
313.15	130000	1003.9	1.0039
313.15	140000	1007.9	1.0079
323.15	100	925.6	.9256
323.15	10000	933.4	.9334
323.15	20000	940.5	.9405
323.15	30000	947.3	.9473
323.15	40000	953.7	.9537
323.15	50000	959.7	.9597
323.15	60000	965.2	.9652
323.15	70000	970.6	.9706
323.15	80000	975.6	.9756
323.15	90000	980.5	.9805
323.15	100000	985.3	.9853
323.15	110000	989.8	.9898
323.15	120000	994.2	.9942
323.15	130000	998.3	.9983
323.15	140000	1003	1.003
333.15	100	916.7	.9167
333.15	10000	924.9	.9249
333.15	20000	932.4	.9324
333.15	30000	939.3	.9393
333.15	40000	945.8	.9458
333.15	50000	952	.952
333.15	60000	957.8	.9578
333.15	70000	963.3	.9633
333.15	80000	968.5	.9685
333.15	90000	973.4	.9734
333.15	100000	978.2	.9782
333.15	110000	982.8	.9828
333.15	120000	987.3	.9873
333.15	130000	991.6	.9916
333.15	140000	995.7	.9957
343.15	100	908.1	.9081
343.15	10000	916.3	.9163
343.15	20000	924.3	.9243
343.15	30000	931.5	.9315
343.15	40000	938.3	.9383
343.15	50000	944.7	.9447
343.15	60000	950.8	.9508
343.15	70000	956.3	.9563
343.15	80000	961.8	.9618
343.15	90000	967	.967
343.15	100000	971.8	.9718
343.15	110000	976.5	.9765
343.15	120000	981.1	.9811
343.15	130000	985.5	.9855
343.15	140000	989.7	.9897
353.15	100	899.3	.8993
353.15	10000	908	.908
353.15	20000	916.2	.9162
353.15	30000	923.7	.9237
353.15	40000	930.9	.9309
353.15	50000	937.7	.9377
353.15	60000	943.9	.9439
353.15	70000	950	.95
353.15	80000	955.5	.9555
353.15	90000	960.8	.9608
353.15	100000	965.7	.9657
353.15	110000	970.5	.9705
353.15	120000	974.9	.9749
353.15	130000	979.5	.9795
353.15	140000	983.7	.9837
363.15	100	890.2	.8902
363.15	10000	899.9	.8999
363.15	20000	908.7	.9087
363.15	30000	916.4	.9164
363.15	40000	923.7	.9237
363.15	50000	930.4	.9304
363.15	60000	936.9	.9369
363.15	70000	943.2	.9432
363.15	80000	948.9	.9489
363.15	90000	954.1	.9541
363.15	100000	959.4	.9594
363.15	110000	964.4	.9644
363.15	120000	969	.969
363.15	130000	973.7	.9737
363.15	140000	978.1	.9781
373.15	100	882.3	.8823
373.15	10000	891.5	.8915
373.15	20000	900.5	.9005
373.15	30000	908.6	.9086
373.15	40000	916.5	.9165
373.15	50000	923.3	.9233
373.15	60000	930.1	.9301
373.15	70000	936.4	.9364
373.15	80000	942.2	.9422
373.15	90000	947.8	.9478
373.15	100000	953.2	.9532
373.15	110000	958.2	.9582
373.15	120000	963.2	.9632
373.15	130000	967.8	.9678
373.15	140000	972.5	.9725
383.15	100	873.2	.8732
383.15	10000	883.6	.8836
383.15	20000	893.1	.8931
383.15	30000	901.7	.9017
383.15	40000	909.6	.9096
383.15	50000	916.6	.9166
383.15	60000	923.5	.9235
383.15	70000	929.4	.9294
383.15	80000	935.7	.9357
383.15	90000	941.2	.9412
383.15	100000	946.7	.9467
383.15	110000	951.8	.9518
383.15	120000	957	.957
383.15	130000	961.5	.9615
383.15	140000	966.1	.9661
393.15	100	864.7	.8647
393.15	10000	875.3	.8753
393.15	20000	885.1	.8851
393.15	30000	893.9	.8939
393.15	40000	902.1	.9021
393.15	50000	909.5	.9095
393.15	60000	916.6	.9166
393.15	70000	923.2	.9232
393.15	80000	929.5	.9295
393.15	90000	935.3	.9353
393.15	100000	941.1	.9411
393.15	110000	946.2	.9462
393.15	120000	951.4	.9514
393.15	130000	956.3	.9563
393.15	140000	960.9	.9609
403.15	100	856.8	.8568
403.15	10000	867.3	.8673
403.15	20000	877.3	.8773
403.15	30000	886.5	.8865
403.15	40000	894.8	.8948
403.15	50000	902.7	.9027
403.15	60000	909.9	.9099
403.15	70000	916.6	.9166
403.15	80000	923.3	.9233
403.15	90000	929.4	.9294
403.15	100000	935	.935
403.15	110000	940.3	.9403
403.15	120000	945.5	.9455
403.15	130000	950.6	.9506
403.15	140000	955.4	.9554

System: hexanedioic acid, bis(2-methylpropyl) ester; phases: Liquid
Fixed: Pressure, kPa = 101.325
Property: Viscosity, Pa*s (Liquid); method: Concentric cylinders viscometry
Temperature, K	Viscosity, Pa*s	uncertainty
283.15	.00856	.0000856
288.15	.00722	.0000722
293.15	.00617	.0000617
298.15	.00533	.0000533
303.15	.00465	.0000465
308.15	.00409	.0000409
313.15	.00363	.0000363
318.15	.00324	.0000324
323.15	.00292	.0000292
328.15	.00264	.0000264
333.15	.0024	.000024
338.15	.00219	.0000219
343.15	.00201	.0000201
348.15	.00185	.0000185
353.15	.00171	.0000171
358.15	.00159	.0000159
363.15	.00148	.0000148
368.15	.00138	.0000138
373.15	.00129	.0000129
