Measured thermophysical data. Activity Coefficients at Infinite Dilution of Organic Solutes in 1-Decyl-3-methylimidazolium Tetrafluoroborate Using Gas-Liquid Chromatography
Source: J. Chem. Eng. Data, 2011, 10.1021/je100952p
Compound 1: 1-decyl-3-methylimidazolium tetrafluoroborate, C14H27BF4N2, purity 99%
Compound 2: pentane, C5H12
Compound 3: n-hexane, C6H14
Compound 4: heptane, C7H16
Compound 5: octane, C8H18
Compound 6: nonane, C9H20
Compound 7: cyclohexane, C6H12
Compound 8: methylcyclohexane, C7H14
Compound 9: pentane, 2,2,4-trimethyl-, C8H18
Compound 10: 1,2,3,4-tetrahydrobenzene, C6H10
Compound 11: styrene, C8H8
Compound 12: benzene, C6H6
Compound 13: toluene, C7H8
Compound 14: ethylbenzene, C8H10
Compound 15: 1,2-dimethylbenzene, C8H10
Compound 16: 1,3-dimethylbenzene, C8H10
Compound 17: 1,4-dimethylbenzene, C8H10

System: pentane + 1-decyl-3-methylimidazolium tetrafluoroborate; phases: Liquid
Fixed: Pressure, kPa = 101
Fixed: Mole fraction of pentane = 0
Property: Activity coefficient of pentane (Liquid); method: Chromatography
Temperature, K	Activity coefficient of pentane	uncertainty
303.15	6.88	.38528
313.15	6.72	.37632
323.15	6.53	.36568
333.15	6.29	.35224
343.15	6.12	.34272
353.15	6.01	.33656
363.15	5.93	.33208

System: n-hexane + 1-decyl-3-methylimidazolium tetrafluoroborate; phases: Liquid
Fixed: Pressure, kPa = 101
Fixed: Mole fraction of n-hexane = 0
Property: Activity coefficient of n-hexane (Liquid); method: Chromatography
Temperature, K	Activity coefficient of n-hexane	uncertainty
303.15	7.36	.41216
313.15	7.16	.40096
323.15	7.03	.39368
333.15	6.94	.38864
343.15	6.86	.38416
353.15	6.81	.38136
363.15	6.68	.37408

System: heptane + 1-decyl-3-methylimidazolium tetrafluoroborate; phases: Liquid
Fixed: Pressure, kPa = 101
Fixed: Mole fraction of heptane = 0
Property: Activity coefficient of heptane (Liquid); method: Chromatography
Temperature, K	Activity coefficient of heptane	uncertainty
303.15	8.01	.44856
313.15	7.97	.44632
323.15	7.95	.4452
333.15	7.93	.44408
343.15	7.91	.44296
353.15	7.89	.44184
363.15	7.88	.44128

System: octane + 1-decyl-3-methylimidazolium tetrafluoroborate; phases: Liquid
Fixed: Pressure, kPa = 101
Fixed: Mole fraction of octane = 0
Property: Activity coefficient of octane (Liquid); method: Chromatography
Temperature, K	Activity coefficient of octane	uncertainty
303.15	9.3	.5208
313.15	9.26	.51856
323.15	9.21	.51576
333.15	9.2	.5152
343.15	9.17	.51352
353.15	9.16	.51296
363.15	9.13	.51128

System: nonane + 1-decyl-3-methylimidazolium tetrafluoroborate; phases: Liquid
Fixed: Pressure, kPa = 101
Fixed: Mole fraction of nonane = 0
Property: Activity coefficient of nonane (Liquid); method: Chromatography
Temperature, K	Activity coefficient of nonane	uncertainty
303.15	10.72	.60032
313.15	10.71	.59976
323.15	10.69	.59864
333.15	10.68	.59808
343.15	10.67	.59752
353.15	10.65	.5964
363.15	10.63	.59528

System: cyclohexane + 1-decyl-3-methylimidazolium tetrafluoroborate; phases: Liquid
Fixed: Pressure, kPa = 101
Fixed: Mole fraction of cyclohexane = 0
Property: Activity coefficient of cyclohexane (Liquid); method: Chromatography
Temperature, K	Activity coefficient of cyclohexane	uncertainty
303.15	4.42	.24752
313.15	4.43	.24808
323.15	4.43	.24808
333.15	4.47	.25032
343.15	4.5	.252
353.15	4.56	.25536
363.15	4.69	.26264

System: methylcyclohexane + 1-decyl-3-methylimidazolium tetrafluoroborate; phases: Liquid
Fixed: Pressure, kPa = 101
Fixed: Mole fraction of methylcyclohexane = 0
Property: Activity coefficient of methylcyclohexane (Liquid); method: Chromatography
Temperature, K	Activity coefficient of methylcyclohexane	uncertainty
303.15	5.19	.29064
313.15	5.23	.29288
323.15	5.24	.29344
333.15	5.28	.29568
343.15	5.32	.29792
353.15	5.36	.30016
363.15	5.39	.30184

System: pentane, 2,2,4-trimethyl- + 1-decyl-3-methylimidazolium tetrafluoroborate; phases: Liquid
Fixed: Pressure, kPa = 101
Fixed: Mole fraction of pentane, 2,2,4-trimethyl- = 0
Property: Activity coefficient of pentane, 2,2,4-trimethyl- (Liquid); method: Chromatography
Temperature, K	Activity coefficient of pentane, 2,2,4-trimethyl-	uncertainty
303.15	9.13	.51128
313.15	9.11	.51016
323.15	9.1	.5096
333.15	9.08	.50848
343.15	9.07	.50792
353.15	9.07	.50792
363.15	9.06	.50736

System: 1,2,3,4-tetrahydrobenzene + 1-decyl-3-methylimidazolium tetrafluoroborate; phases: Liquid
Fixed: Pressure, kPa = 101
Fixed: Mole fraction of 1,2,3,4-tetrahydrobenzene = 0
Property: Activity coefficient of 1,2,3,4-tetrahydrobenzene (Liquid); method: Chromatography
Temperature, K	Activity coefficient of 1,2,3,4-tetrahydrobenzene	uncertainty
303.15	3.03	.16968
313.15	3.01	.16856
323.15	2.99	.16744
333.15	2.97	.16632
343.15	2.96	.16576
353.15	2.96	.16576
363.15	2.96	.16576

System: styrene + 1-decyl-3-methylimidazolium tetrafluoroborate; phases: Liquid
Fixed: Pressure, kPa = 101
Fixed: Mole fraction of styrene = 0
Property: Activity coefficient of styrene (Liquid); method: Chromatography
Temperature, K	Activity coefficient of styrene	uncertainty
313.15	1.25	.07
323.15	1.22	.06832
333.15	1.2	.0672
343.15	1.18	.06608
353.15	1.16	.06496
363.15	1.14	.06384

System: benzene + 1-decyl-3-methylimidazolium tetrafluoroborate; phases: Liquid
Fixed: Pressure, kPa = 101
Fixed: Mole fraction of benzene = 0
Property: Activity coefficient of benzene (Liquid); method: Chromatography
Temperature, K	Activity coefficient of benzene	uncertainty
303.15	1.15	.0644
313.15	1.14	.06384
323.15	1.11	.06216
333.15	1.1	.0616
343.15	1.08	.06048
353.15	1.07	.05992
363.15	1.06	.05936

System: toluene + 1-decyl-3-methylimidazolium tetrafluoroborate; phases: Liquid
Fixed: Pressure, kPa = 101
Fixed: Mole fraction of toluene = 0
Property: Activity coefficient of toluene (Liquid); method: Chromatography
Temperature, K	Activity coefficient of toluene	uncertainty
303.15	1.52	.08512
313.15	1.49	.08344
323.15	1.47	.08232
333.15	1.43	.08008
343.15	1.41	.07896
353.15	1.4	.0784
363.15	1.35	.0756

System: ethylbenzene + 1-decyl-3-methylimidazolium tetrafluoroborate; phases: Liquid
Fixed: Pressure, kPa = 101
Fixed: Mole fraction of ethylbenzene = 0
Property: Activity coefficient of ethylbenzene (Liquid); method: Chromatography
Temperature, K	Activity coefficient of ethylbenzene	uncertainty
313.15	2.02	.11312
323.15	2.01	.11256
333.15	1.99	.11144
343.15	1.98	.11088
353.15	1.97	.11032
363.15	1.96	.10976

System: 1,2-dimethylbenzene + 1-decyl-3-methylimidazolium tetrafluoroborate; phases: Liquid
Fixed: Pressure, kPa = 101
Fixed: Mole fraction of 1,2-dimethylbenzene = 0
Property: Activity coefficient of 1,2-dimethylbenzene (Liquid); method: Chromatography
Temperature, K	Activity coefficient of 1,2-dimethylbenzene	uncertainty
303.15	1.79	.10024
313.15	1.77	.09912
323.15	1.75	.098
333.15	1.73	.09688
343.15	1.72	.09632
353.15	1.72	.09632
363.15	1.71	.09576

System: 1,3-dimethylbenzene + 1-decyl-3-methylimidazolium tetrafluoroborate; phases: Liquid
Fixed: Pressure, kPa = 101
Fixed: Mole fraction of 1,3-dimethylbenzene = 0
Property: Activity coefficient of 1,3-dimethylbenzene (Liquid); method: Chromatography
Temperature, K	Activity coefficient of 1,3-dimethylbenzene	uncertainty
303.15	2.03	.11368
313.15	2.02	.11312
323.15	1.97	.11032
333.15	1.95	.1092
343.15	1.94	.10864
353.15	1.92	.10752
363.15	1.91	.10696

System: 1,4-dimethylbenzene + 1-decyl-3-methylimidazolium tetrafluoroborate; phases: Liquid
Fixed: Pressure, kPa = 101
Fixed: Mole fraction of 1,4-dimethylbenzene = 0
Property: Activity coefficient of 1,4-dimethylbenzene (Liquid); method: Chromatography
Temperature, K	Activity coefficient of 1,4-dimethylbenzene	uncertainty
303.15	1.99	.11144
313.15	1.96	.10976
323.15	1.93	.10808
333.15	1.92	.10752
343.15	1.91	.10696
353.15	1.88	.10528
363.15	1.86	.10416
