Measured thermophysical data. Effect of Temperature on the Interactions of Glycyl Dipeptides with Sodium Dodecyl Sulfate in Aqueous Solution: A Volumetric, Conductometric, and Fluorescence Probe Study
Source: J. Chem. Eng. Data, 2010, 10.1021/je100068y
Compound 1: glycylglycine, C4H8N2O3, purity 99%
Compound 2: glycyl-l-valine, C7H14N2O3, purity 99%
Compound 3: glycyl-L-leucine, C8H16N2O3, purity 99%
Compound 4: sodium dodecyl sulfate, C12H25NaO4S, purity 99%
Compound 5: water, H2O

System: glycylglycine + water; phases: Liquid
Fixed: Pressure, kPa = 101.325
Property: Mass density, kg/m3 (Liquid); method: Vibrating tube method
Temperature, K	Molality, mol/kg of glycylglycine	Mass density, kg/m3	uncertainty
298.15	0	997.045	.003
298.15	.0294	998.688	.003
298.15	.04517	999.547	.003
298.15	.06076	1000.423	.003
298.15	.07901	1001.422	.003
298.15	.1051	1002.858	.003
298.15	.1496	1005.27	.003
298.15	.2003	1007.994	.003
298.15	.257	1011.037	.003
298.15	.3022	1013.403	.003
303.15	0	995.55	.003
303.15	.0294	997.189	.003
303.15	.04517	998.051	.003
303.15	.06076	998.909	.003
303.15	.07901	999.898	.003
303.15	.1051	1001.33	.003
303.15	.1496	1003.762	.003
303.15	.2003	1006.458	.003
303.15	.257	1009.514	.003
303.15	.3022	1011.873	.003
308.15	0	994.03	.003
308.15	.0294	995.661	.003
308.15	.04517	996.52	.003
308.15	.06076	997.375	.003
308.15	.07901	998.349	.003
308.15	.1051	999.766	.003
308.15	.1496	1002.15	.003
308.15	.2003	1004.888	.003
308.15	.257	1007.831	.003
308.15	.3022	1010.283	.003
313.15	0	992.392	.003
313.15	.0294	994.003	.003
313.15	.04517	994.856	.003
313.15	.06076	995.681	.003
313.15	.07901	996.677	.003
313.15	.1051	998.065	.003
313.15	.1496	1000.438	.003
313.15	.2003	1003.115	.003
313.15	.257	1006.062	.003
313.15	.3022	1008.408	.003

System: water + glycyl-l-valine; phases: Liquid
Fixed: Pressure, kPa = 101.325
Property: Mass density, kg/m3 (Liquid); method: Vibrating tube method
Temperature, K	Molality, mol/kg of glycyl-l-valine	Mass density, kg/m3	uncertainty
298.15	.02257	998.221	.003
298.15	.03982	999.108	.003
298.15	.06066	1000.175	.003
298.15	.07858	1001.087	.003
298.15	.1017	1002.258	.003
298.15	.1513	1004.749	.003
298.15	.1791	1006.127	.003
298.15	.2026	1007.282	.003
303.15	.02257	996.723	.003
303.15	.03982	997.606	.003
303.15	.06066	998.679	.003
303.15	.07858	999.59	.003
303.15	.1017	1000.761	.003
303.15	.1513	1003.237	.003
303.15	.1791	1004.649	.003
303.15	.2026	1005.788	.003
308.15	.02257	995.192	.003
308.15	.03982	996.067	.003
308.15	.06066	997.129	.003
308.15	.07858	998.03	.003
308.15	.1017	999.181	.003
308.15	.1513	1001.634	.003
308.15	.1791	1003.015	.003
308.15	.2026	1004.106	.003
313.15	.02257	993.535	.003
313.15	.03982	994.395	.003
313.15	.06066	995.435	.003
313.15	.07858	996.317	.003
313.15	.1017	997.462	.003
313.15	.1513	999.879	.003
313.15	.1791	1001.223	.003
313.15	.2026	1002.291	.003

System: glycyl-L-leucine + water; phases: Liquid
Fixed: Pressure, kPa = 101.325
Property: Mass density, kg/m3 (Liquid); method: Vibrating tube method
Temperature, K	Molality, mol/kg of glycyl-L-leucine	Mass density, kg/m3	uncertainty
298.15	.01944	997.991	.003
298.15	.02958	998.487	.003
298.15	.0395	998.954	.003
298.15	.04928	999.428	.003
298.15	.057	999.792	.003
298.15	.07128	1000.487	.003
298.15	.09125	1001.436	.003
298.15	.1001	1001.847	.003
303.15	.01944	996.492	.003
303.15	.02958	996.981	.003
303.15	.0395	997.455	.003
303.15	.04928	997.926	.003
303.15	.057	998.294	.003
303.15	.07128	998.981	.003
303.15	.09125	999.94	.003
303.15	.1001	1000.35	.003
308.15	.01944	994.971	.003
308.15	.02958	995.453	.003
308.15	.0395	995.927	.003
308.15	.04928	996.398	.003
308.15	.057	996.773	.003
308.15	.07128	997.443	.003
308.15	.09125	998.415	.003
308.15	.1001	998.822	.003
313.15	.01944	993.308	.003
313.15	.02958	993.787	.003
313.15	.0395	994.248	.003
313.15	.04928	994.705	.003
313.15	.057	995.068	.003
313.15	.07128	995.712	.003
313.15	.09125	996.655	.003
313.15	.1001	997.07	.003

System: sodium dodecyl sulfate + glycylglycine + water; phases: Liquid
Fixed: Pressure, kPa = 101.325
Fixed: Molality, mol/kg of sodium dodecyl sulfate = .05
Property: Mass density, kg/m3 (Liquid); method: Vibrating tube method
Temperature, K	Molality, mol/kg of glycylglycine	Mass density, kg/m3	uncertainty
298.15	0	999.198	.003
298.15	.02108	1000.373	.003
298.15	.0412	1001.486	.003
298.15	.06258	1002.656	.003
298.15	.08221	1003.726	.003
298.15	.1065	1005.038	.003
298.15	.1575	1007.769	.003
298.15	.2179	1010.984	.003
298.15	.2618	1013.291	.003
298.15	.3049	1015.561	.003
303.15	0	997.657	.003
303.15	.02108	998.829	.003
303.15	.0412	999.928	.003
303.15	.06258	1001.092	.003
303.15	.08221	1002.153	.003
303.15	.1065	1003.457	.003
303.15	.1575	1006.202	.003
303.15	.2179	1009.4	.003
303.15	.2618	1011.653	.003
303.15	.3049	1013.888	.003
308.15	0	995.989	.003
308.15	.02108	997.139	.003
308.15	.0412	998.22	.003
308.15	.06258	999.376	.003
308.15	.08221	1000.426	.003
308.15	.1065	1001.724	.003
308.15	.1575	1004.431	.003
308.15	.2179	1007.611	.003
308.15	.2618	1009.892	.003
308.15	.3049	1012.121	.003
313.15	0	994.178	.003
313.15	.0412	996.373	.003
313.15	.06258	997.518	.003
313.15	.08221	998.566	.003
313.15	.1065	999.852	.003
313.15	.1575	1002.522	.003
313.15	.2179	1005.731	.003
313.15	.2618	1008.087	.003

System: sodium dodecyl sulfate + glycylglycine + water; phases: Liquid
Fixed: Pressure, kPa = 101.325
Property: Electrical conductivity, S/m (Liquid); method: Alternating current cell with electrodes
Solvent: Molality, mol/kg of glycylglycine	Temperature, K	Amount concentration (molarity), mol/dm3 of sodium dodecyl sulfate	Electrical conductivity, S/m	uncertainty
.02	288.15	.0012997	.0070756	.000035378
.02	288.15	.0024715	.013581	.000067905
.02	288.15	.0035316	.019314	.00009657
.02	288.15	.0048091	.025895	.000129475
.02	288.15	.0059857	.032222	.00016111
.02	288.15	.0071927	.038325	.000191625
.02	288.15	.0084267	.043166	.00021583
.02	288.15	.0096343	.046049	.000230245
.02	288.15	.011028	.048819	.000244095
.02	288.15	.012355	.051359	.000256795
.02	288.15	.013735	.0539	.0002695
.02	288.15	.015125	.056442	.00028221
.02	288.15	.016564	.058754	.00029377
.02	293.15	.0012997	.0081836	.000040918
.02	293.15	.0024715	.015409	.000077045
.02	293.15	.0035316	.021906	.00010953
.02	293.15	.0048091	.02936	.0001468
.02	293.15	.0059857	.036267	.000181335
.02	293.15	.0071927	.043297	.000216485
.02	293.15	.0084267	.048489	.000242445
.02	293.15	.0096343	.051721	.000258605
.02	293.15	.011028	.05484	.0002742
.02	293.15	.012355	.058076	.00029038
.02	293.15	.013735	.061198	.00030599
.02	293.15	.015125	.064322	.00032161
.02	293.15	.016564	.067418	.00033709
.02	298.15	.0012997	.0091823	.0000459115
.02	298.15	.0024715	.017251	.000086255
.02	298.15	.0035316	.024411	.000122055
.02	298.15	.0048091	.032924	.00016462
.02	298.15	.0059857	.040756	.00020378
.02	298.15	.0071927	.048484	.00024242
.02	298.15	.0084267	.054374	.00027187
.02	298.15	.0096343	.058072	.00029036
.02	298.15	.011028	.061888	.00030944
.02	298.15	.012355	.065475	.000327375
.02	298.15	.013735	.069065	.000345325
.02	298.15	.015125	.072656	.00036328
.02	298.15	.016564	.076366	.00038183
.02	303.15	.0012997	.010224	.00005112
.02	303.15	.0024715	.019263	.000096315
.02	303.15	.0035316	.027148	.00013574
.02	303.15	.0048091	.036471	.000182355
.02	303.15	.0059857	.045446	.00022723
.02	303.15	.0071927	.054005	.000270025
.02	303.15	.0084267	.060709	.000303545
.02	303.15	.0096343	.06499	.00032495
.02	303.15	.011028	.06939	.00034695
.02	303.15	.012355	.073445	.000367225
.02	303.15	.013735	.07762	.0003881
.02	303.15	.015125	.081681	.000408405
.02	303.15	.016564	.086209	.000431045
.02	308.15	.0012997	.011311	.000056555
.02	308.15	.0024715	.021354	.00010677
.02	308.15	.0035316	.029972	.00014986
.02	308.15	.0048091	.040338	.00020169
.02	308.15	.0059857	.050142	.00025071
.02	308.15	.0071927	.059733	.000298665
.02	308.15	.0084267	.067717	.000338585
.02	308.15	.0096343	.072699	.000363495
.02	308.15	.011028	.077685	.000388425
.02	308.15	.012355	.082626	.00041313
.02	308.15	.013735	.086971	.000434855
.02	308.15	.015125	.09162	.0004581
.02	308.15	.016564	.096389	.000481945
.03	288.15	.0013241	.007453	.000037265
.03	288.15	.0025815	.014014	.00007007
.03	288.15	.00384	.02074	.0001037
.03	288.15	.0049953	.026785	.000133925
.03	288.15	.0062049	.032998	.00016499
.03	288.15	.0072214	.038065	.000190325
.03	288.15	.0083729	.04256	.0002128
.03	288.15	.0095416	.045444	.00022722
.03	288.15	.010916	.048213	.000241065
.03	288.15	.012268	.050868	.00025434
.03	288.15	.013642	.053524	.00026762
.03	288.15	.014998	.056182	.00028091
.03	288.15	.016368	.058609	.000293045
.03	293.15	.0013241	.0084092	.000042046
.03	293.15	.0025815	.015736	.00007868
.03	293.15	.00384	.02343	.00011715
.03	293.15	.0049953	.030215	.000151075
.03	293.15	.0062049	.037353	.000186765
.03	293.15	.0072214	.043	.000215
.03	293.15	.0083729	.047845	.000239225
.03	293.15	.0095416	.051078	.00025539
.03	293.15	.010916	.054427	.000272135
.03	293.15	.012268	.057547	.000287735
.03	293.15	.013642	.060669	.000303345
.03	293.15	.014998	.063562	.00031781
.03	293.15	.016368	.066687	.000333435
.03	298.15	.0013241	.0091643	.0000458215
.03	298.15	.0025815	.017855	.000089275
.03	298.15	.00384	.026254	.00013127
.03	298.15	.0049953	.033847	.000169235
.03	298.15	.0062049	.041797	.000208985
.03	298.15	.0072214	.048257	.000241285
.03	298.15	.0083729	.053684	.00026842
.03	298.15	.0095416	.057266	.00028633
.03	298.15	.010916	.061313	.000306565
.03	298.15	.012268	.064785	.000323925
.03	298.15	.013642	.068374	.00034187
.03	298.15	.014998	.071965	.000359825
.03	298.15	.016368	.075558	.00037779
.03	303.15	.0013241	.010213	.000051065
.03	303.15	.0025815	.019915	.000099575
.03	303.15	.00384	.029285	.000146425
.03	303.15	.0049953	.037804	.00018902
.03	303.15	.0062049	.046452	.00023226
.03	303.15	.0072214	.053725	.000268625
.03	303.15	.0083729	.059851	.000299255
.03	303.15	.0095416	.064247	.000321235
.03	303.15	.010916	.068647	.000343235
.03	303.15	.012268	.072586	.00036293
.03	303.15	.013642	.076992	.00038496
.03	303.15	.014998	.081052	.00040526
.03	303.15	.016368	.085116	.00042558
.03	308.15	.0013241	.011297	.000056485
.03	308.15	.0025815	.021928	.00010964
.03	308.15	.00384	.032278	.00016139
.03	308.15	.0049953	.041609	.000208045
.03	308.15	.0062049	.051417	.000257085
.03	308.15	.0072214	.059391	.000296955
.03	308.15	.0083729	.066681	.000333405
.03	308.15	.0095416	.071777	.000358885
.03	308.15	.010916	.076878	.00038439
.03	308.15	.012268	.081635	.000408175
.03	308.15	.013642	.08628	.0004314
.03	308.15	.014998	.090929	.000454645
.03	308.15	.016368	.095581	.000477905
.04	288.15	.0013688	.0075095	.0000375475
.04	288.15	.0027064	.014748	.00007374
.04	288.15	.0040723	.022092	.00011046
.04	288.15	.0052802	.028335	.000141675
.04	288.15	.00654	.03478	.0001739
.04	288.15	.0077705	.040425	.000202125
.04	288.15	.0090565	.043999	.000219995
.04	288.15	.010484	.047114	.00023557
.04	288.15	.011858	.049884	.00024942
.04	288.15	.013216	.05254	.0002627
.04	288.15	.014544	.055197	.000275985
.04	288.15	.015881	.057739	.000288695
.04	288.15	.01725	.060283	.000301415
.04	293.15	.0013688	.008505	.000042525
.04	293.15	.0027064	.016716	.00008358
.04	293.15	.0040723	.0248201	.0001241005
.04	293.15	.0052802	.031953	.000159765
.04	293.15	.00654	.039208	.00019604
.04	293.15	.0077705	.045435	.000227175
.04	293.15	.0090565	.049589	.000247945
.04	293.15	.010484	.053169	.000265845
.04	293.15	.011858	.056404	.00028202
.04	293.15	.013216	.059526	.00029763
.04	293.15	.014544	.062649	.000313245
.04	293.15	.015881	.065658	.00032829
.04	293.15	.01725	.068668	.00034334
.04	298.15	.0013688	.0095543	.0000477715
.04	298.15	.0027064	.018784	.00009392
.04	298.15	.0040723	.027946	.00013973
.04	298.15	.0052802	.035772	.00017886
.04	298.15	.00654	.044071	.000220355
.04	298.15	.0077705	.050995	.000254975
.04	298.15	.0090565	.055616	.00027808
.04	298.15	.010484	.059778	.00029889
.04	298.15	.011858	.063595	.000317975
.04	298.15	.013216	.067184	.00033592
.04	298.15	.014544	.070774	.00035387
.04	298.15	.015881	.074251	.000371255
.04	298.15	.01725	.077962	.00038981
.04	303.15	.0013688	.010637	.000053185
.04	303.15	.0027064	.020957	.000104785
.04	303.15	.0040723	.031032	.00015516
.04	303.15	.0052802	.0399	.0001995
.04	303.15	.00654	.049013	.000245065
.04	303.15	.0077705	.056868	.00028434
.04	303.15	.0090565	.062071	.000310355
.04	303.15	.010484	.067048	.00033524
.04	303.15	.011858	.071334	.00035667
.04	303.15	.013216	.075507	.000377535
.04	303.15	.014544	.079683	.000398415
.04	303.15	.015881	.083629	.000418145
.04	303.15	.01725	.087927	.000439635
.04	308.15	.0013688	.011761	.000058805
.04	308.15	.0027064	.023032	.00011516
.04	308.15	.0040723	.034191	.000170955
.04	308.15	.0052802	.044102	.00022051
.04	308.15	.00654	.054145	.000270725
.04	308.15	.0077705	.063164	.00031582
.04	308.15	.0090565	.069416	.00034708
.04	308.15	.010484	.074979	.000374895
.04	308.15	.011858	.07997	.00039985
.04	308.15	.013216	.084727	.000423635
.04	308.15	.014544	.089374	.00044687
.04	308.15	.015881	.093909	.000469545
.04	308.15	.01725	.098679	.000493395
.05	288.15	.0012731	.0069533	.0000347665
.05	288.15	.0025703	.013958	.00006979
.05	288.15	.0037218	.020061	.000100305
.05	288.15	.004928	.026287	.000131435
.05	288.15	.0059832	.031809	.000159045
.05	288.15	.0072283	.037797	.000188985
.05	288.15	.0084433	.042177	.000210885
.05	288.15	.0096425	.044944	.00022472
.05	288.15	.011039	.047829	.000239145
.05	288.15	.012361	.050599	.000252995
.05	288.15	.013718	.053256	.00026628
.05	288.15	.014932	.055682	.00027841
.05	288.15	.016136	.057762	.00028881
.05	293.15	.0012731	.0078745	.0000393725
.05	293.15	.0025703	.015836	.00007918
.05	293.15	.0037218	.022622	.00011311
.05	293.15	.004928	.029751	.000148755
.05	293.15	.0059832	.035852	.00017926
.05	293.15	.0072283	.042651	.000213255
.05	293.15	.0084433	.047496	.00023748
.05	293.15	.0096425	.050613	.000253065
.05	293.15	.011039	.054194	.00027097
.05	293.15	.012361	.057198	.00028599
.05	293.15	.013718	.06032	.0003016
.05	293.15	.014932	.063097	.000315485
.05	293.15	.016136	.065874	.00032937
.05	298.15	.0012731	.0088353	.0000441765
.05	298.15	.0025703	.0178	.000089
.05	298.15	.0037218	.025464	.00012732
.05	298.15	.004928	.033287	.000166435
.05	298.15	.0059832	.040199	.000200995
.05	298.15	.0072283	.047927	.000239635
.05	298.15	.0084433	.053238	.00026619
.05	298.15	.0096425	.056936	.00028468
.05	298.15	.011039	.060986	.00030493
.05	298.15	.012361	.064454	.00032227
.05	298.15	.013718	.068159	.000340795
.05	298.15	.014932	.071403	.000357015
.05	298.15	.016136	.074648	.00037324
.05	303.15	.0012731	.0098492	.000049246
.05	303.15	.0025703	.019839	.000099195
.05	303.15	.0037218	.028264	.00014132
.05	303.15	.004928	.037012	.00018506
.05	303.15	.0059832	.044736	.00022368
.05	303.15	.0072283	.053279	.000266395
.05	303.15	.0084433	.05952	.0002976
.05	303.15	.0096425	.063801	.000319005
.05	303.15	.011039	.068432	.00034216
.05	303.15	.012361	.072487	.000362435
.05	303.15	.013718	.076777	.000383885
.05	303.15	.014932	.080373	.000401865
.05	303.15	.016136	.084088	.00042044
.05	308.15	.0012731	.010885	.000054425
.05	308.15	.0025703	.021802	.00010901
.05	308.15	.0037218	.031232	.00015616
.05	308.15	.004928	.041023	.000205115
.05	308.15	.0059832	.049445	.000247225
.05	308.15	.0072283	.059036	.00029518
.05	308.15	.0084433	.066209	.000331045
.05	308.15	.0096425	.071074	.00035537
.05	308.15	.011039	.076407	.000382035
.05	308.15	.012361	.08128	.0004064
.05	308.15	.013718	.086041	.000430205
.05	308.15	.014932	.090225	.000451125
.05	308.15	.016136	.094411	.000472055
.06	288.15	.0013888	.0075758	.000037879
.06	288.15	.0026879	.014582	.00007291
.06	288.15	.0039826	.021481	.000107405
.06	288.15	.0052751	.028236	.00014118
.06	288.15	.0064908	.034335	.000171675
.06	288.15	.0079102	.040326	.00020163
.06	288.15	.0093961	.044131	.000220655
.06	288.15	.010856	.047246	.00023623
.06	288.15	.012209	.050016	.00025008
.06	288.15	.013514	.052672	.00026336
.06	288.15	.014917	.055561	.000277805
.06	288.15	.016272	.058104	.00029052
.06	288.15	.017673	.060995	.000304975
.06	293.15	.0013888	.0085895	.0000429475
.06	293.15	.0026879	.016558	.00008279
.06	293.15	.0039826	.024175	.000120875
.06	293.15	.0052751	.031882	.00015941
.06	293.15	.0064908	.038792	.00019396
.06	293.15	.0079102	.045479	.000227395
.06	293.15	.0093961	.049749	.000248745
.06	293.15	.010856	.053445	.000267225
.06	293.15	.012209	.056565	.000282825
.06	293.15	.013514	.059687	.000298435
.06	293.15	.014917	.063041	.000315205
.06	293.15	.016272	.066282	.00033141
.06	293.15	.017673	.069525	.000347625
.06	298.15	.0013888	.0096741	.0000483705
.06	298.15	.0026879	.018639	.000093195
.06	298.15	.0039826	.027194	.00013597
.06	298.15	.0052751	.035826	.00017913
.06	298.15	.0064908	.043548	.00021774
.06	298.15	.0079102	.05105	.00025525
.06	298.15	.0093961	.055902	.00027951
.06	298.15	.010856	.060296	.00030148
.06	298.15	.012209	.063882	.00031941
.06	298.15	.013514	.067587	.000337935
.06	298.15	.014917	.071409	.000357045
.06	298.15	.016272	.075235	.000376175
.06	298.15	.017673	.078946	.00039473
.06	303.15	.0013888	.010769	.000053845
.06	303.15	.0026879	.020801	.000104005
.06	303.15	.0039826	.030169	.000150845
.06	303.15	.0052751	.039837	.000199185
.06	303.15	.0064908	.048488	.00024244
.06	303.15	.0079102	.057037	.000285185
.06	303.15	.0093961	.062704	.00031352
.06	303.15	.010856	.067682	.00033841
.06	303.15	.012209	.071968	.00035984
.06	303.15	.013514	.076142	.00038071
.06	303.15	.014917	.080318	.00040159
.06	303.15	.016272	.084846	.00042423
.06	303.15	.017673	.089261	.000446305
.06	308.15	.0013888	.011941	.000059705
.06	308.15	.0026879	.022723	.000113615
.06	308.15	.0039826	.033422	.00016711
.06	308.15	.0052751	.043909	.000219545
.06	308.15	.0064908	.053722	.00026861
.06	308.15	.0079102	.063319	.000316595
.06	308.15	.0093961	.070035	.000350175
.06	308.15	.010856	.075715	.000378575
.06	308.15	.012209	.080704	.00040352
.06	308.15	.013514	.085349	.000426745
.06	308.15	.014917	.090346	.00045173
.06	308.15	.016272	.095114	.00047557
.06	308.15	.017673	.10024	.0005012

System: sodium dodecyl sulfate + water + glycyl-l-valine; phases: Liquid
Fixed: Pressure, kPa = 101.325
Fixed: Solvent: Molality, mol/kg of sodium dodecyl sulfate = .05
Property: Mass density, kg/m3 (Liquid); method: Vibrating tube method
Temperature, K	Molality, mol/kg of glycyl-l-valine	Mass density, kg/m3	uncertainty
298.15	0	999.155	.003
298.15	.01956	1000.154	.003
298.15	.04088	1001.241	.003
298.15	.06124	1002.262	.003
298.15	.08186	1003.299	.003
298.15	.1028	1004.33	.003
298.15	.1448	1006.369	.003
298.15	.205	1009.296	.003
298.15	.2584	1011.836	.003
303.15	0	997.661	.003
303.15	.01956	998.652	.003
303.15	.04088	999.723	.003
303.15	.06124	1000.752	.003
303.15	.08186	1001.789	.003
303.15	.1028	1002.806	.003
303.15	.1448	1004.858	.003
303.15	.205	1007.768	.003
303.15	.2584	1010.34	.003
308.15	0	995.962	.003
308.15	.04088	998.007	.003
308.15	.06124	999.011	.003
308.15	.08186	1000.034	.003
308.15	.1028	1001.05	.003
308.15	.1448	1003.067	.003
308.15	.205	1005.906	.003
308.15	.2584	1008.378	.003
313.15	0	994.186	.003
313.15	.01956	995.15	.003
313.15	.04088	996.189	.003
313.15	.06124	997.183	.003
313.15	.08186	998.185	.003
313.15	.1028	999.183	.003
313.15	.1448	1001.154	.003
313.15	.205	1003.999	.003
313.15	.2584	1006.393	.003

System: sodium dodecyl sulfate + water + glycyl-l-valine; phases: Liquid
Fixed: Pressure, kPa = 101.325
Property: Electrical conductivity, S/m (Liquid); method: Alternating current cell with electrodes
Solvent: Molality, mol/kg of glycyl-l-valine	Temperature, K	Amount concentration (molarity), mol/dm3 of sodium dodecyl sulfate	Electrical conductivity, S/m	uncertainty
.02	288.15	.0011708	.0064148	.000032074
.02	288.15	.0023816	.01289	.00006445
.02	288.15	.0035629	.019228	.00009614
.02	288.15	.004595	.024499	.000122495
.02	288.15	.0057025	.030365	.000151825
.02	288.15	.0068713	.036121	.000180605
.02	288.15	.0080155	.040499	.000202495
.02	288.15	.0090936	.043958	.00021979
.02	288.15	.010271	.046612	.00023306
.02	288.15	.011557	.049266	.00024633
.02	288.15	.012904	.051922	.00025961
.02	288.15	.014121	.054232	.00027116
.02	288.15	.015278	.056428	.00028214
.02	293.15	.0011708	.0072563	.0000362815
.02	293.15	.0023816	.0146	.000073
.02	293.15	.0035629	.021789	.000108945
.02	293.15	.004595	.02777	.00013885
.02	293.15	.0057025	.034329	.000171645
.02	293.15	.0068713	.040781	.000203905
.02	293.15	.0080155	.045971	.000229855
.02	293.15	.0090936	.049433	.000247165
.02	293.15	.010271	.052551	.000262755
.02	293.15	.011557	.05567	.00027835
.02	293.15	.012904	.058676	.00029338
.02	293.15	.014121	.061452	.00030726
.02	293.15	.015278	.063881	.000319405
.02	298.15	.0011708	.0081588	.000040794
.02	298.15	.0023816	.016415	.000082075
.02	298.15	.0035629	.024349	.000121745
.02	298.15	.004595	.031019	.000155095
.02	298.15	.0057025	.038505	.000192525
.02	298.15	.0068713	.045769	.000228845
.02	298.15	.0080155	.051656	.00025828
.02	298.15	.0090936	.055468	.00027734
.02	298.15	.010271	.059052	.00029526
.02	298.15	.011557	.062637	.000313185
.02	298.15	.012904	.066109	.000330545
.02	298.15	.014121	.069352	.00034676
.02	298.15	.015278	.072364	.00036182
.02	303.15	.0011708	.0090876	.000045438
.02	303.15	.0023816	.018336	.00009168
.02	303.15	.0035629	.027113	.000135565
.02	303.15	.004595	.034594	.00017297
.02	303.15	.0057025	.042891	.000214455
.02	303.15	.0068713	.050968	.00025484
.02	303.15	.0080155	.057554	.00028777
.02	303.15	.0090936	.062065	.000310325
.02	303.15	.010271	.066231	.000331155
.02	303.15	.011557	.070285	.000351425
.02	303.15	.012904	.074341	.000371705
.02	303.15	.014121	.078052	.00039026
.02	303.15	.015278	.081533	.000407665
.02	308.15	.0011708	.010071	.000050355
.02	308.15	.0023816	.020358	.00010179
.02	308.15	.0035629	.030079	.000150395
.02	308.15	.004595	.03837	.00019185
.02	308.15	.0057025	.047481	.000237405
.02	308.15	.0068713	.056489	.000282445
.02	308.15	.0080155	.064008	.00032004
.02	308.15	.0090936	.069334	.00034667
.02	308.15	.010271	.074085	.000370425
.02	308.15	.011557	.07884	.0003942
.02	308.15	.012904	.083483	.000417415
.02	308.15	.014121	.087781	.000438905
.02	308.15	.015278	.091849	.000459245
.03	288.15	.0012163	.0064848	.000032424
.03	288.15	.0023845	.012599	.000062995
.03	288.15	.0035742	.018816	.00009408
.03	288.15	.0047327	.024761	.000123805
.03	288.15	.0060244	.031318	.00015659
.03	288.15	.0071745	.036729	.000183645
.03	288.15	.0082705	.040763	.000203815
.03	288.15	.009399	.043761	.000218805
.03	288.15	.010297	.045722	.00022861
.03	288.15	.011326	.047799	.000238995
.03	288.15	.012312	.049761	.000248805
.03	288.15	.013546	.052302	.00026151
.03	288.15	.014958	.055074	.00027537
.03	293.15	.0012163	.0073591	.0000367955
.03	293.15	.0023845	.014284	.00007142
.03	293.15	.0035742	.021362	.00010681
.03	293.15	.0047327	.02796	.0001398
.03	293.15	.0060244	.035326	.00017663
.03	293.15	.0071745	.041318	.00020659
.03	293.15	.0082705	.045816	.00022908
.03	293.15	.009399	.049278	.00024639
.03	293.15	.010297	.051472	.00025736
.03	293.15	.011326	.054014	.00027007
.03	293.15	.012312	.056325	.000281625
.03	293.15	.013546	.059099	.000295495
.03	293.15	.014958	.062338	.00031169
.03	298.15	.0012163	.0082506	.000041253
.03	298.15	.0023845	.016063	.000080315
.03	298.15	.0035742	.023882	.00011941
.03	298.15	.0047327	.031358	.00015679
.03	298.15	.0060244	.039536	.00019768
.03	298.15	.0071745	.046455	.000232275
.03	298.15	.0082705	.051304	.00025652
.03	298.15	.009399	.055232	.00027616
.03	298.15	.010297	.05789	.00028945
.03	298.15	.011326	.060897	.000304485
.03	298.15	.012312	.063442	.00031721
.03	298.15	.013546	.066799	.000333995
.03	298.15	.014958	.070559	.000352795
.03	303.15	.0012163	.0092014	.000046007
.03	303.15	.0023845	.017946	.00008973
.03	303.15	.0035742	.026678	.00013339
.03	303.15	.0047327	.034964	.00017482
.03	303.15	.0060244	.044069	.000220345
.03	303.15	.0071745	.051687	.000258435
.03	303.15	.0082705	.057349	.000286745
.03	303.15	.009399	.061744	.00030872
.03	303.15	.010297	.064869	.000324345
.03	303.15	.011326	.068227	.000341135
.03	303.15	.012312	.071355	.000356775
.03	303.15	.013546	.075064	.00037532
.03	303.15	.014958	.079472	.00039736
.03	308.15	.0012163	.010202	.00005101
.03	308.15	.0023845	.019925	.000099625
.03	308.15	.0035742	.029405	.000147025
.03	308.15	.0047327	.038733	.000193665
.03	308.15	.0060244	.048768	.00024384
.03	308.15	.0071745	.057317	.000286585
.03	308.15	.0082705	.063794	.00031897
.03	308.15	.009399	.069005	.000345025
.03	308.15	.010297	.072597	.000362985
.03	308.15	.011326	.076423	.000382115
.03	308.15	.012312	.08002	.0004001
.03	308.15	.013546	.084432	.00042216
.03	308.15	.014958	.089312	.00044656
.04	288.15	.0012414	.006704	.00003352
.04	288.15	.0025726	.013807	.000069035
.04	288.15	.0037043	.019772	.00009886
.04	288.15	.0048689	.025883	.000129415
.04	288.15	.0060372	.031751	.000158755
.04	288.15	.0071104	.036702	.00018351
.04	288.15	.0082483	.040505	.000202525
.04	288.15	.0092619	.043272	.00021636
.04	288.15	.01043	.045925	.000229625
.04	288.15	.011722	.048695	.000243475
.04	288.15	.013019	.051666	.00025833
.04	288.15	.014366	.054123	.000270615
.04	293.15	.0012414	.0076258	.000038129
.04	293.15	.0025726	.015701	.000078505
.04	293.15	.0037043	.022447	.000112235
.04	293.15	.0048689	.029346	.00014673
.04	293.15	.0060372	.036024	.00018012
.04	293.15	.0071104	.04144	.0002072
.04	293.15	.0082483	.045708	.00022854
.04	293.15	.0092619	.048708	.00024354
.04	293.15	.01043	.051941	.000259705
.04	293.15	.011722	.055061	.000275305
.04	293.15	.013019	.058297	.000291485
.04	293.15	.014366	.061536	.00030768
.04	298.15	.0012414	.0085514	.000042757
.04	298.15	.0025726	.017643	.000088215
.04	298.15	.0037043	.025287	.000126435
.04	298.15	.0048689	.032881	.000164405
.04	298.15	.0060372	.040369	.000201845
.04	298.15	.0071104	.046367	.000231835
.04	298.15	.0082483	.051331	.000256655
.04	298.15	.0092619	.054797	.000273985
.04	298.15	.01043	.05838	.0002919
.04	298.15	.011722	.062082	.00031041
.04	298.15	.013019	.065785	.000328925
.04	298.15	.014366	.069491	.000347455
.04	303.15	.0012414	.0095279	.0000476395
.04	303.15	.0025726	.019683	.000098415
.04	303.15	.0037043	.028071	.000140355
.04	303.15	.0048689	.036591	.000182955
.04	303.15	.0060372	.044776	.00022388
.04	303.15	.0071104	.051702	.00025851
.04	303.15	.0082483	.057249	.000286245
.04	303.15	.0092619	.061182	.00030591
.04	303.15	.01043	.065464	.00032732
.04	303.15	.011722	.069149	.000345745
.04	303.15	.013019	.073921	.000369605
.04	303.15	.014366	.078329	.000391645
.04	308.15	.0012414	.010556	.00005278
.04	308.15	.0025726	.02161	.00010805
.04	308.15	.0037043	.031041	.000155205
.04	308.15	.0048689	.040488	.00020244
.04	308.15	.0060372	.049718	.00024859
.04	308.15	.0071104	.057344	.00028672
.04	308.15	.0082483	.063707	.000318535
.04	308.15	.0092619	.068338	.00034169
.04	308.15	.01043	.073089	.000365445
.04	308.15	.011722	.077961	.000389805
.04	308.15	.013019	.082836	.00041418
.04	308.15	.014366	.087598	.00043799
.05	288.15	.0011452	.0061968	.000030984
.05	288.15	.002216	.011901	.000059505
.05	288.15	.0034242	.018246	.00009123
.05	288.15	.0045616	.024252	.00012126
.05	288.15	.0056609	.029772	.00014886
.05	288.15	.0068384	.035068	.00017534
.05	288.15	.0080554	.039446	.00019723
.05	288.15	.0093019	.0427859	.0002139295
.05	288.15	.010677	.045904	.00022952
.05	288.15	.01195	.048674	.00024337
.05	288.15	.013274	.051445	.000257225
.05	288.15	.01457	.054102	.00027051
.05	288.15	.015914	.056876	.00028438
.05	293.15	.0011452	.0073743	.0000368715
.05	293.15	.002216	.013503	.000067515
.05	293.15	.0034242	.020747	.000103735
.05	293.15	.0045616	.027415	.000137075
.05	293.15	.0056609	.033514	.00016757
.05	293.15	.0068384	.03962	.0001981
.05	293.15	.0080554	.044348	.00022174
.05	293.15	.0093019	.04804	.0002402
.05	293.15	.010677	.051851	.000259255
.05	293.15	.01195	.055086	.00027543
.05	293.15	.013274	.058438	.00029219
.05	293.15	.01457	.061446	.00030723
.05	293.15	.015914	.06457	.00032285
.05	298.15	.0011452	.0079038	.000039519
.05	298.15	.002216	.015186	.00007593
.05	298.15	.0034242	.023265	.000116325
.05	298.15	.0045616	.030741	.000153705
.05	298.15	.0056609	.037651	.000188255
.05	298.15	.0068384	.044453	.000222265
.05	298.15	.0080554	.049879	.000249395
.05	298.15	.0093019	.054152	.00027076
.05	298.15	.010677	.058429	.000292145
.05	298.15	.01195	.062246	.00031123
.05	298.15	.013274	.066066	.00033033
.05	298.15	.01457	.069657	.000348285
.05	298.15	.015914	.073481	.000367405
.05	303.15	.0011452	.0088097	.0000440485
.05	303.15	.002216	.016951	.000084755
.05	303.15	.0034242	.025968	.00012984
.05	303.15	.0045616	.034254	.00017127
.05	303.15	.0056609	.04186	.0002093
.05	303.15	.0068384	.049592	.00024796
.05	303.15	.0080554	.055599	.000277995
.05	303.15	.0093019	.060572	.00030286
.05	303.15	.010677	.065664	.00032832
.05	303.15	.01195	.069834	.00034917
.05	303.15	.013274	.074354	.00037177
.05	303.15	.01457	.07853	.00039265
.05	303.15	.015914	.082825	.000414125
.05	308.15	.0011452	.0097553	.0000487765
.05	308.15	.002216	.018777	.000093885
.05	308.15	.0034242	.028604	.00014302
.05	308.15	.0045616	.037816	.00018908
.05	308.15	.0056609	.046466	.00023233
.05	308.15	.0068384	.054897	.000274485
.05	308.15	.0080554	.061836	.00030918
.05	308.15	.0093019	.067624	.00033812
.05	308.15	.010677	.073302	.00036651
.05	308.15	.01195	.078174	.00039087
.05	308.15	.013274	.083166	.00041583
.05	308.15	.01457	.088045	.000440225
.05	308.15	.015914	.093045	.000465225
.06	288.15	.0012314	.0065847	.0000329235
.06	288.15	.0024152	.012819	.000064095
.06	288.15	.0033644	.017756	.00008878
.06	288.15	.0045044	.023724	.00011862
.06	288.15	.0056563	.029474	.00014737
.06	288.15	.0067965	.034655	.000173275
.06	288.15	.0079646	.038687	.000193435
.06	288.15	.0091726	.04203	.00021015
.06	288.15	.010438	.044914	.00022457
.06	288.15	.011563	.047452	.00023726
.06	288.15	.012886	.050223	.000251115
.06	288.15	.01423	.053226	.00026613
.06	288.15	.015625	.056346	.00028173
.06	293.15	.0012314	.0074854	.000037427
.06	293.15	.0024152	.014558	.00007279
.06	293.15	.0033644	.020381	.000101905
.06	293.15	.0045044	.026933	.000134665
.06	293.15	.0056563	.033378	.00016689
.06	293.15	.0067965	.038908	.00019454
.06	293.15	.0079646	.043635	.000218175
.06	293.15	.0091726	.047327	.000236635
.06	293.15	.010438	.050791	.000253955
.06	293.15	.011563	.053679	.000268395
.06	293.15	.012886	.057031	.000285155
.06	293.15	.01423	.060384	.00030192
.06	293.15	.015625	.063856	.00031928
.06	298.15	.0012314	.0084257	.0000421285
.06	298.15	.0024152	.016405	.000082025
.06	298.15	.0033644	.022806	.00011403
.06	298.15	.0045044	.030168	.00015084
.06	298.15	.0056563	.037423	.000187115
.06	298.15	.0067965	.043764	.00021882
.06	298.15	.0079646	.048957	.000244785
.06	298.15	.0091726	.053115	.000265575
.06	298.15	.010438	.057161	.000285805
.06	298.15	.011563	.06063	.00030315
.06	298.15	.012886	.064565	.000322825
.06	298.15	.01423	.068387	.000341935
.06	298.15	.015625	.072326	.00036163
.06	303.15	.0012314	.0093826	.000046913
.06	303.15	.0024152	.018277	.000091385
.06	303.15	.0033644	.025279	.000126395
.06	303.15	.0045044	.033681	.000168405
.06	303.15	.0056563	.041748	.00020874
.06	303.15	.0067965	.048671	.000243355
.06	303.15	.0079646	.054678	.00027339
.06	303.15	.0091726	.059534	.00029767
.06	303.15	.010438	.064163	.000320815
.06	303.15	.011563	.067869	.000339345
.06	303.15	.012886	.072388	.00036194
.06	303.15	.01423	.076795	.000383975
.06	303.15	.015625	.081553	.000407765
.06	308.15	.0012314	.010404	.00005202
.06	308.15	.0024152	.0202	.000101
.06	308.15	.0033644	.027904	.00013952
.06	308.15	.0045044	.037116	.00018558
.06	308.15	.0056563	.046111	.000230555
.06	308.15	.0067965	.054081	.000270405
.06	308.15	.0079646	.060672	.00030336
.06	308.15	.0091726	.066344	.00033172
.06	308.15	.010438	.071558	.00035779
.06	308.15	.011563	.07608	.0003804
.06	308.15	.012886	.081187	.000405935
.06	308.15	.01423	.086065	.000430325
.06	308.15	.015625	.091413	.000457065

System: sodium dodecyl sulfate + glycyl-L-leucine + water; phases: Liquid
Fixed: Pressure, kPa = 101.325
Fixed: Solvent: Molality, mol/kg of sodium dodecyl sulfate = .05
Property: Mass density, kg/m3 (Liquid); method: Vibrating tube method
Temperature, K	Molality, mol/kg of glycyl-L-leucine	Mass density, kg/m3	uncertainty
298.15	0	999.155	.003
298.15	.02007	1000.117	.003
298.15	.04078	1001.099	.003
298.15	.06042	1002.024	.003
298.15	.08063	1002.962	.003
298.15	.1028	1003.972	.003
298.15	.1227	1004.875	.003
298.15	.1492	1006.074	.003
303.15	0	997.661	.003
303.15	.04078	999.589	.003
303.15	.06042	1000.52	.003
303.15	.08063	1001.464	.003
303.15	.1028	1002.508	.003
303.15	.1227	1003.407	.003
303.15	.1492	1004.592	.003
308.15	0	995.962	.003
308.15	.02007	996.91	.003
308.15	.04078	997.87	.003
308.15	.06042	998.777	.003
308.15	.08063	999.711	.003
308.15	.1028	1000.713	.003
308.15	.1227	1001.597	.003
308.15	.1492	1002.773	.003
313.15	0	994.186	.003
313.15	.04078	996.051	.003
313.15	.06042	996.941	.003
313.15	.08063	997.846	.003
313.15	.1028	998.83	.003
313.15	.1227	999.692	.003
313.15	.1492	1000.839	.003

System: sodium dodecyl sulfate + glycyl-L-leucine + water; phases: Liquid
Fixed: Pressure, kPa = 101.325
Property: Electrical conductivity, S/m (Liquid); method: Alternating current cell with electrodes
Solvent: Molality, mol/kg of glycyl-L-leucine	Temperature, K	Amount concentration (molarity), mol/dm3 of sodium dodecyl sulfate	Electrical conductivity, S/m	uncertainty
.02	288.15	.0027094	.014247	.000071235
.02	288.15	.004763	.025434	.00012717
.02	288.15	.0059004	.031415	.000157075
.02	288.15	.0068736	.036136	.00018068
.02	288.15	.0079815	.040399	.000201995
.02	288.15	.0088628	.04282	.0002141
.02	288.15	.00988	.045242	.00022621
.02	288.15	.010855	.047318	.00023659
.02	288.15	.01183	.049396	.00024698
.02	288.15	.012841	.051474	.00025737
.02	288.15	.013834	.053437	.000267185
.02	288.15	.0149	.055633	.000278165
.02	288.15	.015858	.057598	.00028799
.02	293.15	.0027094	.016107	.000080535
.02	293.15	.004763	.028769	.000143845
.02	293.15	.0059004	.035445	.000177225
.02	293.15	.0068736	.040745	.000203725
.02	293.15	.0079815	.045357	.000226785
.02	293.15	.0088628	.048242	.00024121
.02	293.15	.00988	.051013	.000255065
.02	293.15	.010855	.053438	.00026719
.02	293.15	.01183	.055864	.00027932
.02	293.15	.012841	.058292	.00029146
.02	293.15	.013834	.060604	.00030302
.02	293.15	.0149	.063449	.000317245
.02	293.15	.015858	.065348	.00032674
.02	298.15	.0027094	.018077	.000090385
.02	298.15	.004763	.032206	.00016103
.02	298.15	.0059004	.039807	.000199035
.02	298.15	.0068736	.045688	.00022844
.02	298.15	.0079815	.050882	.00025441
.02	298.15	.0088628	.054116	.00027058
.02	298.15	.00988	.057351	.000286755
.02	298.15	.010855	.060358	.00030179
.02	298.15	.01183	.063134	.00031567
.02	298.15	.012841	.065912	.00032956
.02	298.15	.013834	.06869	.00034345
.02	298.15	.0149	.071587	.000357935
.02	298.15	.015858	.074136	.00037068
.02	303.15	.0027094	.020135	.000100675
.02	303.15	.004763	.035973	.000179865
.02	303.15	.0059004	.044272	.00022136
.02	303.15	.0068736	.05085	.00025425
.02	303.15	.0079815	.056742	.00028371
.02	303.15	.0088628	.060441	.000302205
.02	303.15	.00988	.064144	.00032072
.02	303.15	.010855	.067501	.000337505
.02	303.15	.01183	.07086	.0003543
.02	303.15	.012841	.074105	.000370525
.02	303.15	.013834	.077236	.00038618
.02	303.15	.0149	.0806	.000403
.02	303.15	.015858	.083618	.00041809
.02	308.15	.0027094	.022916	.00011458
.02	308.15	.004763	.039718	.00019859
.02	308.15	.0059004	.048946	.00024473
.02	308.15	.0068736	.056338	.00028169
.02	308.15	.0079815	.062929	.000314645
.02	308.15	.0088628	.067328	.00033664
.02	308.15	.00988	.071614	.00035807
.02	308.15	.010855	.075439	.000377195
.02	308.15	.01183	.079151	.000395755
.02	308.15	.012841	.082981	.000414905
.02	308.15	.013834	.086465	.000432325
.02	308.15	.0149	.090416	.00045208
.02	308.15	.015858	.093671	.000468355
.03	288.15	.001654	.0089253	.0000446265
.03	288.15	.0029374	.015716	.00007858
.03	288.15	.0041901	.022316	.00011158
.03	288.15	.0053895	.028607	.000143035
.03	288.15	.0065148	.034131	.000170655
.03	288.15	.0076114	.038393	.000191965
.03	288.15	.0086101	.041389	.000206945
.03	288.15	.0097012	.044157	.000220785
.03	288.15	.010814	.046695	.000233475
.03	288.15	.012137	.049465	.000247325
.03	288.15	.013504	.052467	.000262335
.03	288.15	.014723	.054893	.000274465
.03	288.15	.01592	.057319	.000286595
.03	293.15	.001654	.010112	.00005056
.03	293.15	.0029374	.017844	.00008922
.03	293.15	.0041901	.025243	.000126215
.03	293.15	.0053895	.03226	.0001613
.03	293.15	.0065148	.038479	.000192395
.03	293.15	.0076114	.043205	.000216025
.03	293.15	.0086101	.04655	.00023275
.03	293.15	.0097012	.049782	.00024891
.03	293.15	.010814	.052668	.00026334
.03	293.15	.012137	.056019	.000280095
.03	293.15	.013504	.059371	.000296855
.03	293.15	.014723	.062379	.000311895
.03	293.15	.01592	.065272	.00032636
.03	298.15	.001654	.011374	.00005687
.03	298.15	.0029374	.020059	.000100295
.03	298.15	.0041901	.028411	.000142055
.03	298.15	.0053895	.036239	.000181195
.03	298.15	.0065148	.043154	.00021577
.03	298.15	.0076114	.048461	.000242305
.03	298.15	.0086101	.052155	.000260775
.03	298.15	.0097012	.055852	.00027926
.03	298.15	.010814	.059205	.000296025
.03	298.15	.012137	.063137	.000315685
.03	298.15	.013504	.067189	.000335945
.03	298.15	.014723	.070547	.000352735
.03	298.15	.01592	.074024	.00037012
.03	303.15	.001654	.012711	.000063555
.03	303.15	.0029374	.022504	.00011252
.03	303.15	.0041901	.031598	.00015799
.03	303.15	.0053895	.040475	.000202375
.03	303.15	.0065148	.048095	.000240475
.03	303.15	.0076114	.05399	.00026995
.03	303.15	.0086101	.058386	.00029193
.03	303.15	.0097012	.062554	.00031277
.03	303.15	.010814	.066724	.00033362
.03	303.15	.012137	.071129	.000355645
.03	303.15	.013504	.075654	.00037827
.03	303.15	.014723	.079602	.00039801
.03	303.15	.01592	.083668	.00041834
.03	308.15	.001654	.014067	.000070335
.03	308.15	.0029374	.024823	.000124115
.03	308.15	.0041901	.035073	.000175365
.03	308.15	.0053895	.044649	.000223245
.03	308.15	.0065148	.053314	.00026657
.03	308.15	.0076114	.060025	.000300125
.03	308.15	.0086101	.065005	.000325025
.03	308.15	.0097012	.069873	.000349365
.03	308.15	.010814	.074397	.000371985
.03	308.15	.012137	.079621	.000398105
.03	308.15	.013504	.084733	.000423665
.03	308.15	.014723	.089385	.000446925
.03	308.15	.01592	.093807	.000469035
.04	288.15	.0012474	.0067197	.0000335985
.04	288.15	.002164	.011551	.000057755
.04	288.15	.0032237	.017114	.00008557
.04	288.15	.004434	.023573	.000117865
.04	288.15	.0055943	.029552	.00014776
.04	288.15	.0065379	.033926	.00016963
.04	288.15	.0075908	.037842	.00018921
.04	288.15	.0088982	.041529	.000207645
.04	288.15	.01008	.044528	.00022264
.04	288.15	.01121	.047066	.00023533
.04	288.15	.012371	.049605	.000248025
.04	288.15	.0135	.052146	.00026073
.04	288.15	.014743	.054802	.00027401
.04	288.15	.01589	.057229	.000286145
.04	293.15	.0012474	.0076013	.0000380065
.04	293.15	.002164	.013102	.00006551
.04	293.15	.0032237	.019425	.000097125
.04	293.15	.004434	.026605	.000133025
.04	293.15	.0055943	.033393	.000166965
.04	293.15	.0065379	.038231	.000191155
.04	293.15	.0075908	.042495	.000212475
.04	293.15	.0088982	.046648	.00023324
.04	293.15	.01008	.050226	.00025113
.04	293.15	.01121	.053229	.000266145
.04	293.15	.012371	.056348	.00028174
.04	293.15	.0135	.05947	.00029735
.04	293.15	.014743	.062246	.00031123
.04	293.15	.01589	.065023	.000325115
.04	298.15	.0012474	.0085225	.0000426125
.04	298.15	.002164	.014706	.00007353
.04	298.15	.0032237	.021904	.00010952
.04	298.15	.004434	.029953	.000149765
.04	298.15	.0055943	.037321	.000186605
.04	298.15	.0065379	.042738	.00021369
.04	298.15	.0075908	.047699	.000238495
.04	298.15	.0088982	.052433	.000262165
.04	298.15	.01008	.056477	.000282385
.04	298.15	.01121	.059945	.000299725
.04	298.15	.012371	.063416	.00031708
.04	298.15	.0135	.066888	.00033444
.04	298.15	.014743	.070594	.00035297
.04	298.15	.01589	.073955	.000369775
.04	303.15	.0012474	.0095075	.0000475375
.04	303.15	.002164	.016399	.000081995
.04	303.15	.0032237	.024411	.000122055
.04	303.15	.004434	.033269	.000166345
.04	303.15	.0055943	.041564	.00020782
.04	303.15	.0065379	.047562	.00023781
.04	303.15	.0075908	.052989	.000264945
.04	303.15	.0088982	.058537	.000292685
.04	303.15	.01008	.063164	.00031582
.04	303.15	.01121	.067215	.000336075
.04	303.15	.012371	.071153	.000355765
.04	303.15	.0135	.07521	.00037605
.04	303.15	.014743	.079386	.00039693
.04	303.15	.01589	.083332	.00041666
.04	308.15	.0012474	.010533	.000052665
.04	308.15	.002164	.018177	.000090885
.04	308.15	.0032237	.026875	.000134375
.04	308.15	.004434	.036773	.000183865
.04	308.15	.0055943	.045881	.000229405
.04	308.15	.0065379	.052577	.000262885
.04	308.15	.0075908	.058702	.00029351
.04	308.15	.0088982	.065181	.000325905
.04	308.15	.01008	.070393	.000351965
.04	308.15	.01121	.075145	.000375725
.04	308.15	.012371	.079785	.000398925
.04	308.15	.0135	.084196	.00042098
.04	308.15	.014743	.088959	.000444795
.04	308.15	.01589	.093494	.00046747
.05	288.15	.0011693	.0062196	.000031098
.05	288.15	.0027754	.014606	.00007303
.05	288.15	.0040168	.02107	.00010535
.05	288.15	.0051694	.027088	.00013544
.05	288.15	.0064936	.033071	.000165355
.05	288.15	.0076058	.037102	.00018551
.05	288.15	.0087497	.040328	.00020164
.05	288.15	.0097653	.042864	.00021432
.05	288.15	.010744	.045286	.00022643
.05	288.15	.011855	.047825	.000239125
.05	288.15	.012991	.050364	.00025182
.05	288.15	.014111	.052905	.000264525
.05	288.15	.015338	.055564	.00027782
.05	293.15	.0011693	.007046	.00003523
.05	293.15	.0027754	.01656	.0000828
.05	293.15	.0040168	.023882	.00011941
.05	293.15	.0051694	.030552	.00015276
.05	293.15	.0064936	.03723	.00018615
.05	293.15	.0076058	.041609	.000208045
.05	293.15	.0087497	.045415	.000227075
.05	293.15	.0097653	.048416	.00024208
.05	293.15	.010744	.051186	.00025593
.05	293.15	.011855	.054189	.000270945
.05	293.15	.012991	.057194	.00028597
.05	293.15	.014111	.060085	.000300425
.05	293.15	.015338	.063324	.00031662
.05	298.15	.0011693	.007924	.00003962
.05	298.15	.0027754	.018637	.000093185
.05	298.15	.0040168	.026852	.00013426
.05	298.15	.0051694	.034217	.000171085
.05	298.15	.0064936	.041706	.00020853
.05	298.15	.0076058	.046666	.00023333
.05	298.15	.0087497	.050937	.000254685
.05	298.15	.0097653	.054402	.00027201
.05	298.15	.010744	.057638	.00028819
.05	298.15	.011855	.061223	.000306115
.05	298.15	.012991	.064579	.000322895
.05	298.15	.014111	.067936	.00033968
.05	298.15	.015338	.071759	.000358795
.05	303.15	.0011693	.0088509	.0000442545
.05	303.15	.0027754	.020811	.000104055
.05	303.15	.0040168	.029892	.00014946
.05	303.15	.0051694	.038182	.00019091
.05	303.15	.0064936	.046485	.000232425
.05	303.15	.0076058	.052026	.00026013
.05	303.15	.0087497	.056879	.000284395
.05	303.15	.0097653	.060926	.00030463
.05	303.15	.010744	.064629	.000323145
.05	303.15	.011855	.068566	.00034283
.05	303.15	.012991	.072621	.000363105
.05	303.15	.014111	.076563	.000382815
.05	303.15	.015338	.080972	.00040486
.05	308.15	.0011693	.0097968	.000048984
.05	308.15	.0027754	.022987	.000114935
.05	308.15	.0040168	.03311	.00016555
.05	308.15	.0051694	.042212	.00021106
.05	308.15	.0064936	.051444	.00025722
.05	308.15	.0076058	.0578	.000289
.05	308.15	.0087497	.063352	.00031676
.05	308.15	.0097653	.068099	.000340495
.05	308.15	.010744	.072269	.000361345
.05	308.15	.011855	.076907	.000384535
.05	308.15	.012991	.081549	.000407745
.05	308.15	.014111	.085962	.00042981
.05	308.15	.015338	.090843	.000454215
.06	288.15	.0019343	.010261	.000051305
.06	288.15	.0031975	.016831	.000084155
.06	288.15	.0045909	.024165	.000120825
.06	288.15	.0054453	.028419	.000142095
.06	288.15	.0064836	.032792	.00016396
.06	288.15	.007648	.036822	.00018411
.06	288.15	.0088016	.040049	.000200245
.06	288.15	.0099509	.043046	.00021523
.06	288.15	.01105	.045699	.000228495
.06	288.15	.012087	.048238	.00024119
.06	288.15	.013201	.050893	.000254465
.06	288.15	.014451	.053781	.000268905
.06	288.15	.015627	.056439	.000282195
.06	293.15	.0019343	.011632	.00005816
.06	293.15	.0031975	.019104	.00009552
.06	293.15	.0045909	.027344	.00013672
.06	293.15	.0054453	.032062	.00016031
.06	293.15	.0064836	.036898	.00018449
.06	293.15	.007648	.041393	.000206965
.06	293.15	.0088016	.045083	.000225415
.06	293.15	.0099509	.04866	.0002433
.06	293.15	.01105	.051893	.000259465
.06	293.15	.012087	.054782	.00027391
.06	293.15	.013201	.057902	.00028951
.06	293.15	.014451	.061372	.00030686
.06	293.15	.015627	.064496	.00032248
.06	298.15	.0019343	.013324	.00006662
.06	298.15	.0031975	.021632	.00010816
.06	298.15	.0045909	.030716	.00015358
.06	298.15	.0054453	.035897	.000179485
.06	298.15	.0064836	.041198	.00020599
.06	298.15	.007648	.046273	.000231365
.06	298.15	.0088016	.050775	.000253875
.06	298.15	.0099509	.054818	.00027409
.06	298.15	.01105	.058401	.000292005
.06	298.15	.012087	.061755	.000308775
.06	298.15	.013201	.065574	.00032787
.06	298.15	.014451	.069627	.000348135
.06	298.15	.015627	.072988	.00036494
.06	303.15	.0019343	.014597	.000072985
.06	303.15	.0031975	.024033	.000120165
.06	303.15	.0045909	.034158	.00017079
.06	303.15	.0054453	.039918	.00019959
.06	303.15	.0064836	.045915	.000229575
.06	303.15	.007648	.051803	.000259015
.06	303.15	.0088016	.056771	.000283855
.06	303.15	.0099509	.061397	.000306985
.06	303.15	.01105	.065679	.000328395
.06	303.15	.012087	.069617	.000348085
.06	303.15	.013201	.073557	.000367785
.06	303.15	.014451	.078428	.00039214
.06	303.15	.015627	.082606	.00041303
.06	308.15	.0019343	.016164	.00008082
.06	308.15	.0031975	.026598	.00013299
.06	308.15	.0045909	.037765	.000188825
.06	308.15	.0054453	.044221	.000221105
.06	308.15	.0064836	.050915	.000254575
.06	308.15	.007648	.057386	.00028693
.06	308.15	.0088016	.063285	.000316425
.06	308.15	.0099509	.068496	.00034248
.06	308.15	.01105	.073362	.00036681
.06	308.15	.012087	.077769	.000388845
.06	308.15	.013201	.082528	.00041264
.06	308.15	.014451	.087755	.000438775
.06	308.15	.015627	.092638	.00046319

System: sodium dodecyl sulfate + water; phases: Liquid
Fixed: Pressure, kPa = 101.325
Property: Electrical conductivity, S/m (Liquid); method: Alternating current cell with electrodes
Temperature, K	Amount concentration (molarity), mol/dm3 of sodium dodecyl sulfate	Electrical conductivity, S/m	uncertainty
288.15	.0030217	.016519	.000082595
288.15	.004552	.024683	.000123415
288.15	.0056607	.030433	.000152165
288.15	.0067444	.036074	.00018037
288.15	.0076792	.040797	.000203985
288.15	.0087651	.044718	.00022359
288.15	.009933	.047371	.000236855
288.15	.011097	.049679	.000248395
288.15	.012206	.051758	.00025879
288.15	.013348	.053837	.000269185
288.15	.014443	.055801	.000279005
288.15	.015601	.057997	.000289985
288.15	.016738	.060078	.00030039
293.15	.0030217	.018395	.000091975
293.15	.004552	.027887	.000139435
293.15	.0056607	.034446	.00017223
293.15	.0067444	.040782	.00020391
293.15	.0076792	.046087	.000230435
293.15	.0087651	.050241	.000251205
293.15	.009933	.053244	.00026622
293.15	.011097	.055901	.000279505
293.15	.012206	.058444	.00029222
293.15	.013348	.060872	.00030436
293.15	.014443	.063186	.00031593
293.15	.015601	.065732	.00032866
293.15	.016738	.068279	.000341395
298.15	.0030217	.020668	.00010334
298.15	.004552	.031326	.00015663
298.15	.0056607	.03881	.00019405
298.15	.0067444	.045843	.000229215
298.15	.0076792	.051729	.000258645
298.15	.0087651	.056466	.00028233
298.15	.009933	.06005	.00030025
298.15	.011097	.063173	.000315865
298.15	.012206	.066066	.00033033
298.15	.013348	.068845	.000344225
298.15	.014443	.071509	.000357545
298.15	.015601	.074523	.000372615
298.15	.016738	.077537	.000387685
303.15	.0030217	.023381	.000116905
303.15	.004552	.034884	.00017442
303.15	.0056607	.043065	.000215325
303.15	.0067444	.051027	.000255135
303.15	.0076792	.057727	.000288635
303.15	.0087651	.063163	.000315815
303.15	.009933	.067098	.00033549
303.15	.011097	.070804	.00035402
303.15	.012206	.074049	.000370245
303.15	.013348	.077411	.000387055
303.15	.014443	.080543	.000402715
303.15	.015601	.084026	.00042013
303.15	.016738	.087278	.00043639
308.15	.0030217	.025784	.00012892
308.15	.004552	.038559	.000192795
308.15	.0056607	.047669	.000238345
308.15	.0067444	.056446	.00028223
308.15	.0076792	.063847	.000319235
308.15	.0087651	.070446	.00035223
308.15	.009933	.075082	.00037541
308.15	.011097	.079257	.000396285
308.15	.012206	.08297	.00041485
308.15	.013348	.086919	.000434595
308.15	.014443	.090405	.000452025
308.15	.015601	.094358	.00047179
308.15	.016738	.097965	.000489825

System: sodium dodecyl sulfate + water; phases: Liquid
Property: Mass density, kg/m3 (Liquid); method: Vibrating tube method
Temperature, K	Pressure, kPa	Molality, mol/kg of sodium dodecyl sulfate	Mass density, kg/m3	uncertainty
298.15	101.325	.05	999.198	.003
303.15	101.325	.05	997.657	.003
308.15	101.325	.05	995.989	.003
313.15	101.325	.05	994.178	.003
298.15	101.325	.05	999.155	.003
303.15	101.325	.05	997.661	.003
308.15	101.325	.05	995.962	.003
313.15	101.325	.05	994.186	.003
