Measured thermophysical data. Densities and Viscosities for Binary Mixtures of 1-Butyl-3-Methylimidazolium Tetrafluoroborate Ionic Liquid with Molecular Solvents
Source: J. Chem. Eng. Data, 2011, 10.1021/je101206u
Compound 1: 1-butyl-3-methylimidazolium tetrafluoroborate, C8H15BF4N2, purity 99.9%
Compound 2: ethylene glycol, C2H6O2, purity 99.5%
Compound 3: methyl sulfoxide, C2H6OS, purity 99.9%

System: methyl sulfoxide + 1-butyl-3-methylimidazolium tetrafluoroborate; phases: Liquid
Fixed: Pressure, kPa = 101
Property: Mass density, kg/m3 (Liquid); method: Vibrating tube method
Mole fraction of 1-butyl-3-methylimidazolium tetrafluoroborate	Temperature, K	Mass density, kg/m3	uncertainty
0	293.15	1100.76	.05
.0722	293.15	1120.91	.05
.1764	293.15	1142.23	.05
.2145	293.15	1148.47	.05
.3225	293.15	1162.89	.05
.4189	293.15	1172.83	.05
.607	293.15	1186.94	.05
.6557	293.15	1188.45	.05
.8283	293.15	1197.44	.05
.9155	293.15	1201.03	.05
1	293.15	1204.44	.05
0	298.15	1095.74	.05
.0722	298.15	1116.22	.05
.1764	298.15	1137.84	.05
.2145	298.15	1144.16	.05
.3225	298.15	1158.77	.05
.4189	298.15	1168.84	.05
.607	298.15	1182.57	.05
.6557	298.15	1185.38	.05
.8283	298.15	1193.78	.05
.9155	298.15	1197.43	.05
1	298.15	1200.89	.05
0	303.15	1090.73	.05
.0722	303.15	1111.54	.05
.1764	303.15	1133.45	.05
.2145	303.15	1139.87	.05
.3225	303.15	1154.66	.05
.4189	303.15	1164.85	.05
.607	303.15	1179.32	.05
.6557	303.15	1181	.05
.8283	303.15	1190.12	.05
.9155	303.15	1193.83	.05
1	303.15	1197.34	.05
0	313.15	1080.69	.05
.0722	313.15	1102.21	.05
.1764	313.15	1124.71	.05
.2145	313.15	1131.31	.05
.3225	313.15	1146.47	.05
.4189	313.15	1156.91	.05
.607	313.15	1171.76	.05
.6557	313.15	1173.63	.05
.8283	313.15	1182.84	.05
.9155	313.15	1186.65	.05
1	313.15	1190.27	.05
0	323.15	1070.66	.05
.0722	323.15	1092.89	.05
.1764	323.15	1116.01	.05
.2145	323.15	1122.79	.05
.3225	323.15	1138.33	.05
.4189	323.15	1149.02	.05
.607	323.15	1164.25	.05
.6557	323.15	1166.3	.05
.8283	323.15	1175.62	.05
.9155	323.15	1179.53	.05
1	323.15	1183.24	.05
0	333.15	1060.63	.05
.0722	333.15	1083.58	.05
.1764	333.15	1107.34	.05
.2145	333.15	1114.3	.05
.3225	333.15	1130.22	.05
.4189	333.15	1141.18	.05
.607	333.15	1156.79	.05
.6557	333.15	1158.97	.05
.8283	333.15	1168.44	.05
.9155	333.15	1172.45	.05
1	333.15	1176.25	.05
0	343.15	1050.58	.05
.0722	343.15	1074.29	.05
.1764	343.15	1098.7	.05
.2145	343.15	1105.83	.05
.3225	343.15	1122.16	.05
.4189	343.15	1133.38	.05
.607	343.15	1149.37	.05
.6557	343.15	1151.6	.05
.8283	343.15	1161.32	.05
.9155	343.15	1165.43	.05
1	343.15	1169.32	.05
0	353.15	1040.51	.05
.0722	353.15	1064.99	.05
.1764	353.15	1090.08	.05
.2145	353.15	1097.39	.05
.3225	353.15	1114.12	.05
.4189	353.15	1125.62	.05
.607	353.15	1141.99	.05
.6557	353.15	1144.28	.05
.8283	353.15	1154.24	.05
.9155	353.15	1158.44	.05
1	353.15	1162.44	.05

System: methyl sulfoxide + 1-butyl-3-methylimidazolium tetrafluoroborate; phases: Liquid
Fixed: Pressure, kPa = 101
Property: Viscosity, Pa*s (Liquid); method: Falling or rolling sphere viscometry
Temperature, K	Mole fraction of 1-butyl-3-methylimidazolium tetrafluoroborate	Viscosity, Pa*s	uncertainty
293.15	0	.00221	.00001105
293.15	.0722	.003514	.00001757
293.15	.1764	.006283	.000031415
293.15	.2145	.007911	.000039555
293.15	.3225	.01346	.0000673
293.15	.4189	.02076	.0001038
293.15	.607	.04217	.00021085
293.15	.6557	.04888	.0002444
293.15	.8283	.08333	.00041665
293.15	.9155	.1072	.000536
293.15	1	.1369	.0006845
303.15	0	.001843	.000009215
303.15	.0722	.002827	.000014135
303.15	.1764	.004839	.000024195
303.15	.2145	.005968	.00002984
303.15	.3225	.009732	.00004866
303.15	.4189	.01446	.0000723
303.15	.607	.02768	.0001384
303.15	.6557	.03152	.0001576
303.15	.8283	.05143	.00025715
303.15	.9155	.06487	.00032435
303.15	1	.0814	.000407
313.15	0	.001556	.00000778
313.15	.0722	.002324	.00001162
313.15	.1764	.003845	.000019225
313.15	.2145	.004668	.00002334
313.15	.3225	.007347	.000036735
313.15	.4189	.01058	.0000529
313.15	.607	.01929	.00009645
313.15	.6557	.02166	.0001083
313.15	.8283	.03394	.0001697
313.15	.9155	.04214	.0002107
313.15	1	.05179	.00025895
323.15	0	.001337	.000006685
323.15	.0722	.001951	.000009755
323.15	.1764	.003137	.000015685
323.15	.2145	.003767	.000018835
323.15	.3225	.005742	.00002871
323.15	.4189	.008052	.00004026
323.15	.607	.01412	.0000706
323.15	.6557	.01579	.00007895
323.15	.8283	.02501	.00012505
323.15	.9155	.02999	.00014995
323.15	1	.03804	.0001902
333.15	0	.001165	.000005825
333.15	.0722	.001668	.00000834
333.15	.1764	.002615	.000013075
333.15	.2145	.003118	.00001559
333.15	.3225	.004618	.00002309
333.15	.4189	.006327	.000031635
333.15	.607	.01069	.00005345
333.15	.6557	.01178	.0000589
333.15	.8283	.01738	.0000869
333.15	.9155	.02096	.0001048
333.15	1	.02497	.00012485
343.15	0	.001028	.00000514
343.15	.0722	.001447	.000007235
343.15	.1764	.002222	.00001111
343.15	.2145	.002638	.00001319
343.15	.3225	.003801	.000019005
343.15	.4189	.005104	.00002552
343.15	.607	.008359	.000041795
343.15	.6557	.008977	.000044885
343.15	.8283	.01321	.00006605
343.15	.9155	.01578	.0000789
343.15	1	.01849	.00009245
353.15	0	.000917	.000004585
353.15	.0722	.001272	.00000636
353.15	.1764	.001918	.00000959
353.15	.2145	.002278	.00001139
353.15	.3225	.003195	.000015975
353.15	.4189	.00421	.00002105
353.15	.607	.006702	.00003351
353.15	.6557	.007182	.00003591
353.15	.8283	.01034	.0000517
353.15	.9155	.01224	.0000612
353.15	1	.01437	.00007185

System: ethylene glycol + 1-butyl-3-methylimidazolium tetrafluoroborate; phases: Liquid
Fixed: Pressure, kPa = 101
Property: Mass density, kg/m3 (Liquid); method: Vibrating tube method
Temperature, K	Mole fraction of 1-butyl-3-methylimidazolium tetrafluoroborate	Mass density, kg/m3	uncertainty
293.15	0	1113.45	.05
293.15	.0895	1133.64	.05
293.15	.1758	1147.86	.05
293.15	.3578	1167.8	.05
293.15	.4397	1174.28	.05
293.15	.6482	1187.63	.05
293.15	.8121	1196.19	.05
293.15	1	1204.44	.05
298.15	0	1109.96	.05
298.15	.0895	1129.95	.05
298.15	.1758	1144.07	.05
298.15	.3578	1163.96	.05
298.15	.4397	1170.46	.05
298.15	.6482	1183.91	.05
298.15	.8121	1192.56	.05
298.15	1	1200.89	.05
303.15	0	1106.45	.05
303.15	.0895	1126.26	.05
303.15	.1758	1140.28	.05
303.15	.3578	1160.12	.05
303.15	.4397	1166.64	.05
303.15	.6482	1180.21	.05
303.15	.8121	1188.95	.05
303.15	1	1197.34	.05
313.15	0	1099.38	.05
313.15	.0895	1118.86	.05
313.15	.1758	1132.71	.05
313.15	.3578	1152.49	.05
313.15	.4397	1159.07	.05
313.15	.6482	1172.85	.05
313.15	.8121	1181.74	.05
313.15	1	1190.27	.05
323.15	0	1092.24	.05
323.15	.0895	1111.43	.05
323.15	.1758	1125.13	.05
323.15	.3578	1144.89	.05
323.15	.4397	1151.54	.05
323.15	.6482	1165.56	.05
323.15	.8121	1174.6	.05
323.15	1	1183.24	.05
333.15	0	1085	.05
333.15	.0895	1103.95	.05
333.15	.1758	1117.55	.05
333.15	.3578	1137.35	.05
333.15	.4397	1144.07	.05
333.15	.6482	1158.32	.05
333.15	.8121	1167.55	.05
333.15	1	1176.25	.05
343.15	0	1077.65	.05
343.15	.0895	1096.42	.05
343.15	.1758	1109.96	.05
343.15	.3578	1129.84	.05
343.15	.4397	1136.64	.05
343.15	.6482	1151.14	.05
343.15	.8121	1160.56	.05
343.15	1	1169.32	.05
353.15	0	1070.17	.05
353.15	.0895	1088.83	.05
353.15	.1758	1102.35	.05
353.15	.3578	1122.35	.05
353.15	.4397	1129.25	.05
353.15	.6482	1144	.05
353.15	.8121	1153.54	.05
353.15	1	1162.44	.05

System: ethylene glycol + 1-butyl-3-methylimidazolium tetrafluoroborate; phases: Liquid
Fixed: Pressure, kPa = 101
Property: Viscosity, Pa*s (Liquid); method: Falling or rolling sphere viscometry
Temperature, K	Mole fraction of 1-butyl-3-methylimidazolium tetrafluoroborate	Viscosity, Pa*s	uncertainty
293.15	0	.02144	.0001072
293.15	.0895	.01989	.00009945
293.15	.1758	.01929	.00009645
293.15	.3578	.02344	.0001172
293.15	.4397	.02339	.00011695
293.15	.6482	.03969	.00019845
293.15	.8121	.06829	.00034145
293.15	1	.1369	.0006845
303.15	0	.01433	.00007165
303.15	.0895	.01266	.0000633
303.15	.1758	.01272	.0000636
303.15	.3578	.01548	.0000774
303.15	.4397	.0175	.0000875
303.15	.6482	.02617	.00013085
303.15	.8121	.04188	.0002094
303.15	1	.0814	.000407
313.15	0	.01001	.00005005
313.15	.0895	.008881	.000044405
313.15	.1758	.008902	.00004451
313.15	.3578	.01087	.00005435
313.15	.4397	.01233	.00006165
313.15	.6482	.01829	.00009145
313.15	.8121	.02817	.00014085
313.15	1	.05179	.00025895
323.15	0	.007121	.000035605
323.15	.0895	.006422	.00003211
323.15	.1758	.006528	.00003264
323.15	.3578	.008034	.00004017
323.15	.4397	.009112	.00004556
323.15	.6482	.01341	.00006705
323.15	.8121	.02062	.0001031
323.15	1	.03523	.00017615
333.15	0	.00533	.00002665
333.15	.0895	.00488	.0000244
333.15	.1758	.004971	.000024855
333.15	.3578	.00616	.0000308
333.15	.4397	.007005	.000035025
333.15	.6482	.0102	.000051
333.15	.8121	.01484	.0000742
333.15	1	.02497	.00012485
343.15	0	.004103	.000020515
343.15	.0895	.003807	.000019035
343.15	.1758	.003909	.000019545
343.15	.3578	.00487	.00002435
343.15	.4397	.005552	.00002776
343.15	.6482	.008019	.000040095
343.15	.8121	.01141	.00005705
343.15	1	.01849	.00009245
353.15	0	.003242	.00001621
353.15	.0895	.002872	.00001436
353.15	.1758	.003163	.000015815
353.15	.3578	.003932	.00001966
353.15	.4397	.005153	.000025765
353.15	.6482	.006479	.000032395
353.15	.8121	.008692	.00004346
353.15	1	.01437	.00007185
