Measured thermophysical data. Evaluation of Excess Molar Enthalpies for a Quaternary Mixture System of Acetic Anhydride, Ethanol, Acetic Acid, and Ethyl Acetate
Source: J. Chem. Eng. Data, 2012, 10.1021/je200595b
Compound 1: ethanol, C2H6O, purity 99.99%
Compound 2: acetyl oxide, C4H6O3, purity 99%
Compound 3: ethanoic acid, C2H4O2, purity 99.8%
Compound 4: ethyl ethanoate, C4H8O2, purity 99.5%

System: ethanol + ethyl ethanoate; phases: Liquid
Fixed: Temperature, K = 298.15
Fixed: Pressure, kPa = 100
Property: Excess molar enthalpy (molar enthalpy of mixing), kJ/mol (Liquid); method: Flow calorimetry
Mole fraction of ethanol	Excess molar enthalpy (molar enthalpy of mixing), kJ/mol	uncertainty
.05	.298	.0149
.1	.564	.0282
.15	.775	.03875
.2	.93	.0465
.25	1.048	.0524
.3	1.131	.05655
.35	1.185	.05925
.4	1.216	.0608
.45	1.224	.0612
.5	1.211	.06055
.55	1.189	.05945
.6	1.153	.05765
.65	1.095	.05475
.7	.977	.04885
.75	.859	.04295
.8	.728	.0364
.85	.577	.02885
.9	.42	.021
.95	.232	.0116

System: ethanol + acetyl oxide; phases: Liquid
Fixed: Temperature, K = 298.15
Fixed: Pressure, kPa = 100
Property: Excess molar enthalpy (molar enthalpy of mixing), kJ/mol (Liquid); method: Flow calorimetry
Mole fraction of ethanol	Excess molar enthalpy (molar enthalpy of mixing), kJ/mol	uncertainty
.05	.344	.0172
.1	.643	.03215
.15	.895	.04475
.2	1.111	.05555
.25	1.282	.0641
.3	1.418	.0709
.35	1.521	.07605
.4	1.6	.08
.45	1.657	.08285
.5	1.693	.08465
.6	1.604	.0802
.65	1.518	.0759
.7	1.411	.07055
.75	1.28	.064
.8	1.122	.0561
.85	.926	.0463
.9	.687	.03435
.95	.393	.01965

System: ethanoic acid + acetyl oxide; phases: Liquid
Fixed: Temperature, K = 298.15
Fixed: Pressure, kPa = 100
Property: Excess molar enthalpy (molar enthalpy of mixing), kJ/mol (Liquid); method: Flow calorimetry
Mole fraction of acetyl oxide	Excess molar enthalpy (molar enthalpy of mixing), kJ/mol	uncertainty
.05	.045	.00225
.1	.089	.00445
.15	.134	.0067
.2	.177	.00885
.25	.217	.01085
.3	.254	.0127
.35	.288	.0144
.4	.317	.01585
.45	.34	.017
.5	.356	.0178
.55	.366	.0183
.6	.368	.0184
.65	.361	.01805
.7	.344	.0172
.75	.317	.01585
.8	.28	.014
.85	.23	.0115
.9	.168	.0084
.95	.092	.0046

System: ethanoic acid + acetyl oxide + ethyl ethanoate; phases: Liquid
Fixed: Temperature, K = 298.15
Fixed: Pressure, kPa = 100
Property: Excess molar enthalpy (molar enthalpy of mixing), kJ/mol (Liquid); method: Flow calorimetry
Mole fraction of acetyl oxide	Mole fraction of ethyl ethanoate	Excess molar enthalpy (molar enthalpy of mixing), kJ/mol	uncertainty
0	.5	0	0
.05	.475	.032	.0016
.1	.45	.081	.00405
.15	.425	.121	.00605
.2	.4	.152	.0076
.25	.375	.178	.0089
.3	.35	.199	.00995
.35	.325	.214	.0107
.4	.3	.225	.01125
.45	.275	.232	.0116
.5	.25	.237	.01185
.55	.225	.237	.01185
.6	.2	.232	.0116
.65	.175	.224	.0112
.7	.15	.212	.0106
.75	.125	.195	.00975
.8	.1	.173	.00865
.85	.075	.143	.00715
.9	.05	.104	.0052
.95	.025	.058	.0029
1	0	0	0

System: ethanol + ethanoic acid + ethyl ethanoate; phases: Liquid
Fixed: Temperature, K = 298.15
Fixed: Pressure, kPa = 100
Property: Excess molar enthalpy (molar enthalpy of mixing), kJ/mol (Liquid); method: Flow calorimetry
Mole fraction of ethanol	Mole fraction of ethyl ethanoate	Excess molar enthalpy (molar enthalpy of mixing), kJ/mol	uncertainty
0	.5	0	0
.05	.475	.105	.00525
.1	.45	.19	.0095
.15	.425	.27	.0135
.2	.4	.336	.0168
.25	.375	.39	.0195
.3	.35	.435	.02175
.35	.325	.469	.02345
.4	.3	.493	.02465
.45	.275	.508	.0254
.5	.25	.513	.02565
.55	.225	.51	.0255
.6	.2	.496	.0248
.65	.175	.474	.0237
.7	.15	.441	.02205
.75	.125	.397	.01985
.8	.1	.343	.01715
.85	.075	.275	.01375
.9	.05	.195	.00975
.95	.025	.11	.0055
1	0	0	0

System: ethanol + ethanoic acid + acetyl oxide; phases: Liquid
Fixed: Temperature, K = 298.15
Fixed: Pressure, kPa = 100
Property: Excess molar enthalpy (molar enthalpy of mixing), kJ/mol (Liquid); method: Flow calorimetry
Mole fraction of acetyl oxide	Mole fraction of ethanol	Excess molar enthalpy (molar enthalpy of mixing), kJ/mol	uncertainty
0	.5	0	0
.05	.475	.165	.00825
.1	.45	.306	.0153
.15	.425	.421	.02105
.2	.4	.517	.02585
.25	.375	.595	.02975
.3	.35	.659	.03295
.35	.325	.711	.03555
.4	.3	.753	.03765
.45	.275	.784	.0392
.5	.25	.805	.04025
.55	.225	.816	.0408
.6	.2	.814	.0407
.65	.175	.799	.03995
.7	.15	.767	.03835
.75	.125	.715	.03575
.8	.1	.64	.032
.85	.075	.535	.02675
.9	.05	.391	.01955
.95	.025	.23	.0115
1	0	0	0

System: ethanol + acetyl oxide + ethyl ethanoate; phases: Liquid
Fixed: Temperature, K = 298.15
Fixed: Pressure, kPa = 100
Property: Excess molar enthalpy (molar enthalpy of mixing), kJ/mol (Liquid); method: Flow calorimetry
Mole fraction of acetyl oxide	Mole fraction of ethanol	Excess molar enthalpy (molar enthalpy of mixing), kJ/mol	uncertainty
0	.5	1.238	.0619
.05	.475	1.298	.0649
.1	.45	1.351	.06755
.15	.425	1.39	.0695
.2	.4	1.416	.0708
.25	.375	1.429	.07145
.3	.35	1.429	.07145
.35	.325	1.415	.07075
.4	.3	1.388	.0694
.45	.275	1.348	.0674
.5	.25	1.295	.06475
.55	.225	1.227	.06135
.6	.2	1.145	.05725
.65	.175	1.051	.05255
.7	.15	.942	.0471
.75	.125	.819	.04095
.8	.1	.683	.03415
.85	.075	.532	.0266
.9	.05	.361	.01805
.95	.025	.197	.00985
1	0	0	0
