Measured thermophysical data. Volumetric and Transport Behavior of Different Carbohydrates in Aqueous and Aqueous Urea Mixtures at Different Temperatures
Source: J. Chem. Eng. Data, 2011, 10.1021/je2000099
Compound 1: D(+)-glucose, C6H12O6, purity 99.9%
Compound 2: fructose, C6H12O6, purity 99.9%
Compound 3: saccharose, C12H22O11, purity 99.9%
Compound 4: lactose, C12H22O11, purity 99.9%
Compound 5: carbamoylamine, CH4N2O, purity 99.5%
Compound 6: sodium chloride, ClNa, purity 99.9%
Compound 7: water, H2O, purity 99.9%

System: water; phases: Liquid
Property: Mass density, kg/m3 (Liquid); method: Pycnometric method
Temperature, K	Pressure, kPa	Mass density, kg/m3	uncertainty
308.15	101	994	.1
318.15	101	990.2	.1

System: water; phases: Liquid
Property: Viscosity, Pa*s (Liquid); method: Capillary tube (Ostwald; Ubbelohde) method
Temperature, K	Pressure, kPa	Viscosity, Pa*s	uncertainty
308.15	101	.000719	.00000719
318.15	101	.000597	.00000597

System: D(+)-glucose + carbamoylamine + water; phases: Liquid
Fixed: Pressure, kPa = 101
Property: Mass density, kg/m3 (Liquid); method: Pycnometric method
Temperature, K	Solvent: Molality, mol/kg of carbamoylamine	Molality, mol/kg of D(+)-glucose	Mass density, kg/m3	uncertainty
308.15	0	0	994	.1
308.15	0	.5031	1026.1	.1
308.15	0	.8113	1044.1	.1
308.15	0	1.0116	1055.1	.1
308.15	0	1.313	1071.2	.1
308.15	0	1.7115	1090	.1
308.15	0	2.0184	1104.2	.1
308.15	0	3.0464	1144.5	.1
308.15	0	3.4868	1158.7	.1
318.15	0	0	990.2	.1
318.15	0	.5031	1022.4	.1
318.15	0	.8113	1040.3	.1
318.15	0	1.0116	1051.3	.1
318.15	0	1.313	1066.9	.1
318.15	0	1.7115	1086	.1
318.15	0	2.0184	1099.8	.1
318.15	0	3.0464	1140.4	.1
318.15	0	3.4868	1155.4	.1
308.15	1	0	1009.1	.1
308.15	1	.9133	1063.4	.1
308.15	1	1.0154	1068.8	.1
308.15	1	1.3208	1084.2	.1
308.15	1	1.8207	1107.4	.1
308.15	1	2.3424	1129.5	.1
308.15	1	2.6339	1140.5	.1
308.15	1	3.0415	1155.5	.1
318.15	1	0	1005	.1
318.15	1	.8901	1057.7	.1
318.15	1	1.023	1064.8	.1
318.15	1	1.2798	1077.7	.1
318.15	1	2.2752	1122	.1
318.15	1	2.9544	1148.5	.1

System: D(+)-glucose + carbamoylamine + water; phases: Liquid
Fixed: Pressure, kPa = 101
Property: Viscosity, Pa*s (Liquid); method: Capillary tube (Ostwald; Ubbelohde) method
Temperature, K	Solvent: Molality, mol/kg of carbamoylamine	Molality, mol/kg of D(+)-glucose	Viscosity, Pa*s	uncertainty
308.15	0	0	.000719	.00000719
308.15	0	.5031	.000911	.00000911
308.15	0	.8113	.001037	.00001037
308.15	0	1.0116	.001134	.00001134
308.15	0	1.313	.001278	.00001278
308.15	0	1.7115	.001442	.00001442
308.15	0	2.0184	.001711	.00001711
308.15	0	3.0464	.002579	.00002579
308.15	0	3.4868	.003084	.00003084
318.15	0	0	.000597	.00000597
318.15	0	.5031	.000756	.00000756
318.15	0	.8113	.000861	.00000861
318.15	0	1.0116	.000941	.00000941
318.15	0	1.313	.001061	.00001061
318.15	0	1.7115	.001197	.00001197
318.15	0	2.0184	.00142	.0000142
318.15	0	3.0464	.002141	.00002141
318.15	0	3.4868	.002561	.00002561
308.15	1	0	.00065	.0000065
308.15	1	.9133	.000972	.00000972
308.15	1	1.0154	.001015	.00001015
308.15	1	1.3208	.001158	.00001158
308.15	1	1.8207	.001449	.00001449
308.15	1	2.3424	.001805	.00001805
308.15	1	2.6339	.002018	.00002018
308.15	1	3.0415	.002388	.00002388
318.15	1	0	.000533	.00000533
318.15	1	.8901	.000774	.00000774
318.15	1	1.023	.000818	.00000818
318.15	1	1.2798	.000916	.00000916
318.15	1	2.2752	.001415	.00001415
318.15	1	2.9544	.001763	.00001763

System: carbamoylamine + fructose + water; phases: Liquid
Fixed: Pressure, kPa = 101
Property: Mass density, kg/m3 (Liquid); method: Pycnometric method
Temperature, K	Solvent: Molality, mol/kg of carbamoylamine	Molality, mol/kg of fructose	Mass density, kg/m3	uncertainty
308.15	0	0	994	.1
308.15	0	.4062	1020.6	.1
308.15	0	.6071	1032.9	.1
308.15	0	.8084	1044.6	.1
308.15	0	1.2073	1066.6	.1
308.15	0	1.4124	1077.2	.1
308.15	0	1.6113	1086.6	.1
308.15	0	2.3255	1119	.1
308.15	0	2.5243	1127.5	.1
308.15	0	2.9823	1145.2	.1
318.15	0	0	990.2	.1
318.15	0	.4057	1016.7	.1
318.15	0	.6081	1028.9	.1
318.15	0	1.2165	1062.5	.1
318.15	0	1.408	1071.4	.1
318.15	0	2.2998	1113	.1
318.15	0	3.5322	1158.5	.1
308.15	1	0	1009.1	.1
308.15	1	.2038	1022.3	.1
308.15	1	.4066	1035.2	.1
308.15	1	.6097	1046.9	.1
308.15	1	.8119	1058.8	.1
308.15	1	1.2071	1080	.1
308.15	1	1.6206	1100.3	.1
308.15	1	2.3349	1131.5	.1
308.15	1	2.5285	1139.2	.1
308.15	1	3.0335	1158.7	.1
318.15	1	0	1005	.1
318.15	1	.407	1030.9	.1
318.15	1	.6118	1042.9	.1
318.15	1	.8123	1054.3	.1
318.15	1	1.2149	1076.3	.1
318.15	1	1.4075	1085.2	.1
318.15	1	1.6182	1095.3	.1
318.15	1	2.3212	1125.7	.1
318.15	1	2.5389	1134.2	.1

System: carbamoylamine + fructose + water; phases: Liquid
Fixed: Pressure, kPa = 101
Property: Viscosity, Pa*s (Liquid); method: Capillary tube (Ostwald; Ubbelohde) method
Temperature, K	Solvent: Molality, mol/kg of carbamoylamine	Molality, mol/kg of fructose	Viscosity, Pa*s	uncertainty
308.15	0	0	.000719	.00000719
308.15	0	.4062	.000863	.00000863
308.15	0	.6071	.000928	.00000928
308.15	0	.8084	.00101	.0000101
308.15	0	1.2073	.001189	.00001189
308.15	0	1.4124	.001305	.00001305
308.15	0	1.6113	.001394	.00001394
308.15	0	2.3255	.001833	.00001833
308.15	0	2.5243	.001998	.00001998
308.15	0	2.9823	.002372	.00002372
318.15	0	0	.000597	.00000597
318.15	0	.4057	.000696	.00000696
318.15	0	.6081	.000758	.00000758
318.15	0	1.2165	.000946	.00000946
318.15	0	1.408	.001021	.00001021
318.15	0	2.2998	.001469	.00001469
318.15	0	3.5322	.002055	.00002055
308.15	1	0	.00065	.0000065
308.15	1	.2038	.000705	.00000705
308.15	1	.4066	.000773	.00000773
308.15	1	.6097	.000837	.00000837
308.15	1	.8119	.000912	.00000912
308.15	1	1.2071	.001073	.00001073
308.15	1	1.6206	.00127	.0000127
308.15	1	2.3349	.001616	.00001616
308.15	1	2.5285	.001835	.00001835
308.15	1	3.0335	.00224	.0000224
318.15	1	0	.000533	.00000533
318.15	1	.407	.000625	.00000625
318.15	1	.6118	.000675	.00000675
318.15	1	.8123	.000735	.00000735
318.15	1	1.2149	.000862	.00000862
318.15	1	1.4075	.000925	.00000925
318.15	1	1.6182	.001004	.00001004
318.15	1	2.3212	.001323	.00001323
318.15	1	2.5389	.001474	.00001474

System: carbamoylamine + saccharose + water; phases: Liquid
Fixed: Pressure, kPa = 101
Property: Mass density, kg/m3 (Liquid); method: Pycnometric method
Temperature, K	Solvent: Molality, mol/kg of carbamoylamine	Molality, mol/kg of saccharose	Mass density, kg/m3	uncertainty
308.15	0	0	994	.1
308.15	0	.1009	1006.9	.1
308.15	0	.2018	1019	.1
308.15	0	.4033	1041.9	.1
308.15	0	.8044	1082.8	.1
308.15	0	1.0063	1101.1	.1
308.15	0	1.593	1148.2	.1
308.15	0	2.037	1175.6	.1
308.15	0	3.0246	1228.9	.1
318.15	0	0	990.2	.1
318.15	0	.4037	1038.4	.1
318.15	0	.6046	1059.1	.1
318.15	0	.8065	1079.1	.1
318.15	0	1.0088	1097.2	.1
318.15	0	1.2072	1113.5	.1
318.15	0	2.0145	1170.6	.1
308.15	1	0	1009.1	.1
308.15	1	.1968	1032.6	.1
308.15	1	.3958	1055.2	.1
308.15	1	.5926	1075.6	.1
308.15	1	.7885	1094.5	.1
308.15	1	.989	1112.2	.1
308.15	1	1.179	1127.7	.1
308.15	1	1.5843	1157.2	.1
308.15	1	1.825	1171.7	.1
318.15	1	0	1005	.1
318.15	1	.3952	1050.9	.1
318.15	1	.5967	1071.2	.1
318.15	1	.8013	1091.1	.1
318.15	1	1.1951	1124.4	.1
318.15	1	1.58	1152.5	.1
318.15	1	1.9805	1178.7	.1

System: carbamoylamine + saccharose + water; phases: Liquid
Fixed: Pressure, kPa = 101
Property: Viscosity, Pa*s (Liquid); method: Capillary tube (Ostwald; Ubbelohde) method
Temperature, K	Solvent: Molality, mol/kg of carbamoylamine	Molality, mol/kg of saccharose	Viscosity, Pa*s	uncertainty
308.15	0	0	.000719	.00000719
308.15	0	.1009	.000712	.00000712
308.15	0	.2018	.000777	.00000777
308.15	0	.4033	.000915	.00000915
308.15	0	.8044	.001291	.00001291
308.15	0	1.0063	.001535	.00001535
308.15	0	1.593	.002588	.00002588
308.15	0	2.037	.003655	.00003655
308.15	0	3.0246	.006396	.00006396
318.15	0	0	.000597	.00000597
318.15	0	.4037	.000771	.00000771
318.15	0	.6046	.0009	.000009
318.15	0	.8065	.000984	.00000984
318.15	0	1.0088	.001164	.00001164
318.15	0	1.2072	.001431	.00001431
318.15	0	2.0145	.002618	.00002618
308.15	1	0	.00065	.0000065
308.15	1	.1968	.00077	.0000077
308.15	1	.3958	.000915	.00000915
308.15	1	.5926	.001084	.00001084
308.15	1	.7885	.001303	.00001303
308.15	1	.989	.001477	.00001477
308.15	1	1.179	.001819	.00001819
308.15	1	1.5843	.002608	.00002608
308.15	1	1.825	.003191	.00003191
318.15	1	0	.000533	.00000533
318.15	1	.3952	.000699	.00000699
318.15	1	.5967	.00081	.0000081
318.15	1	.8013	.000972	.00000972
318.15	1	1.1951	.001319	.00001319
318.15	1	1.58	.001965	.00001965
318.15	1	1.9805	.0025	.000025

System: carbamoylamine + lactose + water; phases: Liquid
Fixed: Pressure, kPa = 101
Property: Mass density, kg/m3 (Liquid); method: Pycnometric method
Temperature, K	Solvent: Molality, mol/kg of carbamoylamine	Molality, mol/kg of lactose	Mass density, kg/m3	uncertainty
308.15	0	0	994	.1
308.15	0	.1004	1006.8	.1
308.15	0	.2052	1019.8	.1
308.15	0	.3032	1031.3	.1
308.15	0	.3529	1037.1	.1
308.15	0	.4036	1042.8	.1
308.15	0	.4532	1047.9	.1
308.15	0	.6061	1064	.1
318.15	0	0	990.2	.1
318.15	0	.1002	1002.7	.1
318.15	0	.1519	1008.7	.1
318.15	0	.2013	1014.3	.1
318.15	0	.2521	1020.6	.1
318.15	0	.3518	1031.1	.1
318.15	0	.4053	1036.7	.1
318.15	0	.6026	1056.7	.1
308.15	1	0	1009.1	.1
308.15	1	.149	1026.4	.1
308.15	1	.1963	1032.1	.1
308.15	1	.2445	1037.4	.1
308.15	1	.3461	1048.2	.1
308.15	1	.4	1053.2	.1
308.15	1	.4449	1058.2	.1
308.15	1	.5932	1073.2	.1
308.15	1	.6411	1077.7	.1
318.15	1	0	1005	.1
318.15	1	.1971	1028	.1
318.15	1	.2481	1033.6	.1
318.15	1	.2966	1038.8	.1
318.15	1	.346	1044	.1
318.15	1	.4445	1054.7	.1
318.15	1	.5928	1068.7	.1
318.15	1	.6415	1073.1	.1

System: carbamoylamine + lactose + water; phases: Liquid
Fixed: Pressure, kPa = 101
Property: Viscosity, Pa*s (Liquid); method: Capillary tube (Ostwald; Ubbelohde) method
Temperature, K	Solvent: Molality, mol/kg of carbamoylamine	Molality, mol/kg of lactose	Viscosity, Pa*s	uncertainty
308.15	0	0	.000719	.00000719
308.15	0	.1004	.000784	.00000784
308.15	0	.2052	.000864	.00000864
308.15	0	.3032	.000934	.00000934
308.15	0	.3529	.000966	.00000966
308.15	0	.4036	.001012	.00001012
308.15	0	.4532	.001063	.00001063
318.15	0	0	.000597	.00000597
318.15	0	.1002	.000601	.00000601
318.15	0	.1519	.000621	.00000621
318.15	0	.2013	.000642	.00000642
318.15	0	.2521	.00067	.0000067
318.15	0	.3518	.000725	.00000725
318.15	0	.4053	.000757	.00000757
318.15	0	.6026	.000885	.00000885
308.15	1	0	.00065	.0000065
308.15	1	.149	.000744	.00000744
308.15	1	.1963	.000773	.00000773
308.15	1	.2445	.000814	.00000814
308.15	1	.3461	.000876	.00000876
308.15	1	.4	.000915	.00000915
308.15	1	.4449	.000961	.00000961
318.15	1	0	.000533	.00000533
318.15	1	.1971	.000583	.00000583
318.15	1	.2481	.000609	.00000609
318.15	1	.2966	.000634	.00000634
318.15	1	.346	.00066	.0000066
318.15	1	.4445	.000725	.00000725
318.15	1	.5928	.000822	.00000822
318.15	1	.6415	.000857	.00000857

System: D(+)-glucose + water; phases: Liquid
Property: Mass density, kg/m3 (Liquid); method: Pycnometric method
Temperature, K	Molality, mol/kg of D(+)-glucose	Pressure, kPa	Mass density, kg/m3	uncertainty
308.15	.5031	101	1026.1	.1
308.15	.8113	101	1044.1	.1
308.15	1.0116	101	1055.1	.1
308.15	1.313	101	1071.2	.1
308.15	1.7115	101	1090	.1
308.15	2.0184	101	1104.2	.1
308.15	3.0464	101	1144.5	.1
308.15	3.4868	101	1158.7	.1
318.15	.5031	101	1022.4	.1
318.15	.8113	101	1040.3	.1
318.15	1.0116	101	1051.3	.1
318.15	1.313	101	1066.9	.1
318.15	1.7115	101	1086	.1
318.15	2.0184	101	1099.8	.1
318.15	3.0464	101	1140.4	.1
318.15	3.4868	101	1155.4	.1

System: D(+)-glucose + water; phases: Liquid
Property: Viscosity, Pa*s (Liquid); method: Capillary tube (Ostwald; Ubbelohde) method
Temperature, K	Molality, mol/kg of D(+)-glucose	Pressure, kPa	Viscosity, Pa*s	uncertainty
308.15	.5031	101	.000911	.00000911
308.15	.8113	101	.001037	.00001037
308.15	1.0116	101	.001134	.00001134
308.15	1.313	101	.001278	.00001278
308.15	1.7115	101	.001442	.00001442
308.15	2.0184	101	.001711	.00001711
308.15	3.0464	101	.002579	.00002579
308.15	3.4868	101	.003084	.00003084
318.15	.5031	101	.000756	.00000756
318.15	.8113	101	.000861	.00000861
318.15	1.0116	101	.000941	.00000941
318.15	1.313	101	.001061	.00001061
318.15	1.7115	101	.001197	.00001197
318.15	2.0184	101	.00142	.0000142
318.15	3.0464	101	.002141	.00002141
318.15	3.4868	101	.002561	.00002561

System: carbamoylamine + water; phases: Liquid
Property: Mass density, kg/m3 (Liquid); method: Pycnometric method
Temperature, K	Molality, mol/kg of carbamoylamine	Pressure, kPa	Mass density, kg/m3	uncertainty
308.15	1	101	1009.1	.1
318.15	1	101	1005	.1

System: carbamoylamine + water; phases: Liquid
Property: Viscosity, Pa*s (Liquid); method: Capillary tube (Ostwald; Ubbelohde) method
Temperature, K	Molality, mol/kg of carbamoylamine	Pressure, kPa	Viscosity, Pa*s	uncertainty
308.15	1	101	.00065	.0000065
318.15	1	101	.000533	.00000533

System: fructose + water; phases: Liquid
Property: Mass density, kg/m3 (Liquid); method: Pycnometric method
Temperature, K	Molality, mol/kg of fructose	Pressure, kPa	Mass density, kg/m3	uncertainty
308.15	.4062	101	1020.6	.1
308.15	.6071	101	1032.9	.1
308.15	.8084	101	1044.6	.1
308.15	1.2073	101	1066.6	.1
308.15	1.4124	101	1077.2	.1
308.15	1.6113	101	1086.6	.1
308.15	2.3255	101	1119	.1
308.15	2.5243	101	1127.5	.1
308.15	2.9823	101	1145.2	.1
318.15	.4057	101	1016.7	.1
318.15	.6081	101	1028.9	.1
318.15	1.2165	101	1062.5	.1
318.15	1.408	101	1071.4	.1
318.15	2.2998	101	1113	.1
318.15	3.5322	101	1158.5	.1

System: fructose + water; phases: Liquid
Property: Viscosity, Pa*s (Liquid); method: Capillary tube (Ostwald; Ubbelohde) method
Temperature, K	Molality, mol/kg of fructose	Pressure, kPa	Viscosity, Pa*s	uncertainty
308.15	.4062	101	.000863	.00000863
308.15	.6071	101	.000928	.00000928
308.15	.8084	101	.00101	.0000101
308.15	1.2073	101	.001189	.00001189
308.15	1.4124	101	.001305	.00001305
308.15	1.6113	101	.001394	.00001394
308.15	2.3255	101	.001833	.00001833
308.15	2.5243	101	.001998	.00001998
308.15	2.9823	101	.002372	.00002372
318.15	.4057	101	.000696	.00000696
318.15	.6081	101	.000758	.00000758
318.15	1.2165	101	.000946	.00000946
318.15	1.408	101	.001021	.00001021
318.15	2.2998	101	.001469	.00001469
318.15	3.5322	101	.002055	.00002055

System: saccharose + water; phases: Liquid
Property: Mass density, kg/m3 (Liquid); method: Pycnometric method
Temperature, K	Molality, mol/kg of saccharose	Pressure, kPa	Mass density, kg/m3	uncertainty
308.15	.1009	101	1006.9	.1
308.15	.2018	101	1019	.1
308.15	.4033	101	1041.9	.1
308.15	.8044	101	1082.8	.1
308.15	1.0063	101	1101.1	.1
308.15	1.593	101	1148.2	.1
308.15	2.037	101	1175.6	.1
308.15	3.0246	101	1228.9	.1
318.15	.4037	101	1038.4	.1
318.15	.6046	101	1059.1	.1
318.15	.8065	101	1079.1	.1
318.15	1.0088	101	1097.2	.1
318.15	1.2072	101	1113.5	.1
318.15	2.0145	101	1170.6	.1

System: saccharose + water; phases: Liquid
Property: Viscosity, Pa*s (Liquid); method: Capillary tube (Ostwald; Ubbelohde) method
Temperature, K	Molality, mol/kg of saccharose	Pressure, kPa	Viscosity, Pa*s	uncertainty
308.15	.1009	101	.000712	.00000712
308.15	.2018	101	.000777	.00000777
308.15	.4033	101	.000915	.00000915
308.15	.8044	101	.001291	.00001291
308.15	1.0063	101	.001535	.00001535
308.15	1.593	101	.002588	.00002588
308.15	2.037	101	.003655	.00003655
308.15	3.0246	101	.006396	.00006396
318.15	.4037	101	.000771	.00000771
318.15	.6046	101	.0009	.000009
318.15	.8065	101	.000984	.00000984
318.15	1.0088	101	.001164	.00001164
318.15	1.2072	101	.001431	.00001431
318.15	2.0145	101	.002618	.00002618

System: lactose + water; phases: Liquid
Property: Mass density, kg/m3 (Liquid); method: Pycnometric method
Temperature, K	Molality, mol/kg of lactose	Pressure, kPa	Mass density, kg/m3	uncertainty
308.15	.1004	101	1006.8	.1
308.15	.2052	101	1019.8	.1
308.15	.3032	101	1031.3	.1
308.15	.3529	101	1037.1	.1
308.15	.4036	101	1042.8	.1
308.15	.4532	101	1047.9	.1
308.15	.6061	101	1064	.1
318.15	.1002	101	1002.7	.1
318.15	.1519	101	1008.7	.1
318.15	.2013	101	1014.3	.1
318.15	.2521	101	1020.6	.1
318.15	.3518	101	1031.1	.1
318.15	.4053	101	1036.7	.1
318.15	.6026	101	1056.7	.1

System: lactose + water; phases: Liquid
Property: Viscosity, Pa*s (Liquid); method: Capillary tube (Ostwald; Ubbelohde) method
Temperature, K	Molality, mol/kg of lactose	Pressure, kPa	Viscosity, Pa*s	uncertainty
308.15	.1004	101	.000784	.00000784
308.15	.2052	101	.000864	.00000864
308.15	.3032	101	.000934	.00000934
308.15	.3529	101	.000966	.00000966
308.15	.4036	101	.001012	.00001012
308.15	.4532	101	.001063	.00001063
318.15	.1002	101	.000601	.00000601
318.15	.1519	101	.000621	.00000621
318.15	.2013	101	.000642	.00000642
318.15	.2521	101	.00067	.0000067
318.15	.3518	101	.000725	.00000725
318.15	.4053	101	.000757	.00000757
318.15	.6026	101	.000885	.00000885
