Measured thermophysical data. Physicochemical Properties of [C6mim][PF6] and [C6mim][(C2F5)3PF3] Ionic Liquids
Source: J. Chem. Eng. Data, 2011, 10.1021/je200073x
Compound 1: 1-hexyl-3-methylimidazolium hexafluorophosphate, C10H19F6N2P, purity 99%
Compound 2: 1-hexyl-3-methylimidazolium tris(pentafluoroethyl)trifluorophosphate, C16H19F18N2P, purity 99%

System: 1-hexyl-3-methylimidazolium hexafluorophosphate; phases: Liquid
Fixed: Pressure, kPa = 101.325
Property: Mass density, kg/m3 (Liquid); method: Vibrating tube method
Temperature, K	Mass density, kg/m3	uncertainty
293.15	1296.7	.05
298.15	1292.9	.05
303.15	1288.7	.05
308.15	1285.1	.05
313.15	1281	.05
318.15	1277	.05
323.15	1273	.05
328.15	1269.1	.05
333.15	1265.2	.05
338.15	1261.2	.05
343.15	1257	.05

System: 1-hexyl-3-methylimidazolium hexafluorophosphate; phases: Liquid
Fixed: Pressure, kPa = 101.325
Property: Electrical conductivity, S/m (Liquid); method: Metler Toledo SevenEasy conductivity meter
Temperature, K	Electrical conductivity, S/m	uncertainty
293.15	.0388	.000194
298.15	.0543	.0002715
303.15	.074	.00037
308.15	.0992	.000496
313.15	.1301	.0006505
318.15	.1683	.0008415
323.15	.212	.00106
328.15	.264	.00132
333.15	.322	.00161
338.15	.391	.001955
343.15	.465	.002325

System: 1-hexyl-3-methylimidazolium hexafluorophosphate; phases: Liquid
Fixed: Pressure, kPa = 101.325
Property: Viscosity, Pa*s (Liquid); method: Concentric cylinders viscometry
Temperature, K	Viscosity, Pa*s	uncertainty
293.15	.6931	.006931
298.15	.4858	.004858
303.15	.3509	.003509
308.15	.2554	.002554
313.15	.1894	.001894
318.15	.1475	.001475
323.15	.1147	.001147
328.15	.0911	.000911
333.15	.0735	.000735
338.15	.06	.0006
343.15	.0496	.000496

System: 1-hexyl-3-methylimidazolium hexafluorophosphate; phases: Liquid
Fixed: Pressure, kPa = 101.325
Property: Molar heat capacity at constant pressure, J/K/mol (Liquid); method: Small sample (50 mg) DSC
Temperature, K	Molar heat capacity at constant pressure, J/K/mol	uncertainty
293.15	421.527	12.64581
294.15	422.151	12.66453
295.15	422.776	12.68328
296.15	423.088	12.69264
297.15	423.4	12.702
298.15	424.025	12.72075
299.15	424.337	12.73011
300.15	424.961	12.74883
301.15	425.274	12.75822
302.15	426.21	12.7863
303.15	426.835	12.80505
304.15	427.147	12.81441
305.15	427.459	12.82377
306.15	428.084	12.84252
307.15	428.708	12.86124
308.15	429.333	12.87999
309.15	429.957	12.89871
310.15	430.582	12.91746
311.15	431.206	12.93618
312.15	431.518	12.94554
313.15	432.143	12.96429
314.15	432.767	12.98301
315.15	433.392	13.00176
316.15	434.016	13.02048
317.15	434.641	13.03923
318.15	434.953	13.04859
319.15	435.578	13.06734
320.15	436.202	13.08606
321.15	436.827	13.10481
322.15	437.451	13.12353
323.15	437.763	13.13289
324.15	438.7	13.161
325.15	439.324	13.17972
326.15	439.949	13.19847
327.15	440.886	13.22658
328.15	441.822	13.25466
329.15	442.447	13.27341
330.15	443.071	13.29213
331.15	444.008	13.32024
332.15	444.633	13.33899
333.15	445.257	13.35771
334.15	445.882	13.37646
335.15	446.506	13.39518
336.15	447.443	13.42329
337.15	448.067	13.44201
338.15	448.692	13.46076
339.15	449.316	13.47948
340.15	450.253	13.50759
341.15	450.565	13.51695
342.15	451.502	13.54506
343.15	452.439	13.57317

System: 1-hexyl-3-methylimidazolium tris(pentafluoroethyl)trifluorophosphate; phases: Liquid
Fixed: Pressure, kPa = 101.325
Property: Mass density, kg/m3 (Liquid); method: Vibrating tube method
Temperature, K	Mass density, kg/m3	uncertainty
293.15	1555.6	.05
298.15	1550.1	.05
303.15	1544.7	.05
308.15	1539.3	.05
313.15	1533.9	.05
318.15	1528.7	.05
323.15	1523.5	.05
328.15	1518	.05
333.15	1512.6	.05
338.15	1507.2	.05
343.15	1501.8	.05

System: 1-hexyl-3-methylimidazolium tris(pentafluoroethyl)trifluorophosphate; phases: Liquid
Fixed: Pressure, kPa = 101.325
Property: Electrical conductivity, S/m (Liquid); method: Metler Toledo SevenEasy conductivity meter
Temperature, K	Electrical conductivity, S/m	uncertainty
293.15	.1303	.0006515
298.15	.1665	.0008325
303.15	.209	.001045
308.15	.258	.00129
313.15	.313	.001565
318.15	.374	.00187
323.15	.44	.0022
328.15	.514	.00257
333.15	.593	.002965
338.15	.676	.00338
343.15	.769	.003845

System: 1-hexyl-3-methylimidazolium tris(pentafluoroethyl)trifluorophosphate; phases: Liquid
Fixed: Pressure, kPa = 101.325
Property: Viscosity, Pa*s (Liquid); method: Concentric cylinders viscometry
Temperature, K	Viscosity, Pa*s	uncertainty
293.15	.1143	.001143
298.15	.0882	.000882
303.15	.0684	.000684
308.15	.0541	.000541
313.15	.0432	.000432
318.15	.0351	.000351
323.15	.0289	.000289
328.15	.0244	.000244
333.15	.0203	.000203
338.15	.0173	.000173
343.15	.0148	.000148

System: 1-hexyl-3-methylimidazolium tris(pentafluoroethyl)trifluorophosphate; phases: Liquid
Fixed: Pressure, kPa = 101.325
Property: Molar heat capacity at constant pressure, J/K/mol (Liquid); method: Small sample (50 mg) DSC
Temperature, K	Molar heat capacity at constant pressure, J/K/mol	uncertainty
293.15	725.56	21.7668
294.15	726.172	21.78516
295.15	726.785	21.80355
296.15	728.009	21.84027
297.15	728.622	21.85866
298.15	729.846	21.89538
299.15	730.458	21.91374
300.15	731.683	21.95049
301.15	732.295	21.96885
302.15	733.52	22.0056
303.15	734.132	22.02396
304.15	735.357	22.06071
305.15	735.969	22.07907
306.15	737.194	22.11582
307.15	737.806	22.13418
308.15	738.418	22.15254
309.15	739.643	22.18929
310.15	740.255	22.20765
311.15	741.48	22.2444
312.15	742.092	22.26276
313.15	743.316	22.29948
314.15	743.929	22.31787
315.15	745.153	22.35459
316.15	745.766	22.37298
317.15	746.99	22.4097
318.15	747.602	22.42806
319.15	748.827	22.46481
320.15	749.439	22.48317
321.15	750.052	22.50156
322.15	751.276	22.53828
323.15	751.888	22.55664
324.15	752.501	22.57503
325.15	753.113	22.59339
326.15	754.338	22.63014
327.15	754.95	22.6485
328.15	756.174	22.68522
329.15	756.787	22.70361
330.15	758.011	22.74033
331.15	758.624	22.75872
332.15	759.236	22.77708
333.15	759.848	22.79544
334.15	760.46	22.8138
335.15	761.073	22.83219
336.15	762.297	22.86891
337.15	762.91	22.8873
338.15	763.522	22.90566
339.15	764.746	22.94238
340.15	765.359	22.96077
341.15	765.971	22.97913
342.15	767.196	23.01588
343.15	767.808	23.03424
