Measured thermophysical data. Vapor Pressures and Enthalpies of Vaporization of a Series of Low-Volatile Alkanolamines
Source: J. Chem. Eng. Data, 2011, 10.1021/je2002489
Compound 1: ethylenediamine, N-.beta.-hydroxyethyl-, C4H12N2O
Compound 2: N-methyl-N-(N,N-dimethylaminoethyl)aminoethanol, C7H18N2O
Compound 3: ethanol, 2-(2-aminoethoxy)-, C4H11NO2
Compound 4: ethanol, 2-[2-(dimethylamino)ethoxy]-, C6H15NO2

System: ethylenediamine, N-.beta.-hydroxyethyl-; phases: Liquid, Gas
Property: Vapor or sublimation pressure, kPa (Liquid); method: Transpiration method
Temperature, K	Vapor or sublimation pressure, kPa	uncertainty
323.2	.00647	.0001941
323.2	.00652	.0001956
324.2	.00681	.0002043
324.2	.00711	.0002133
326.1	.0082	.000246
326.2	.00809	.0002427
329.2	.01089	.0003267
329.2	.01107	.0003321
332.1	.01396	.0004188
332.2	.01376	.0004128
335.1	.01707	.0005121
335.2	.01619	.0004857
335.2	.01668	.0005004
336.9	.01917	.0005751
338.1	.02171	.0006513
338.1	.02163	.0006489
341.2	.02642	.0007926
341.2	.02692	.0008076
344.2	.03367	.0010101
344.2	.0319	.000957
345.2	.03573	.0010719
347.2	.04121	.0012363
350.2	.05159	.0015477
353.2	.06134	.0018402
356.2	.0755	.002265
359.2	.09533	.0028599
359.2	.09076	.0027228
362.2	.11207	.0033621
365.2	.13912	.0041736
368.2	.16832	.0050496
371.2	.19988	.0059964
373.2	.22996	.0068988
374.2	.24104	.0072312

System: N-methyl-N-(N,N-dimethylaminoethyl)aminoethanol; phases: Liquid, Gas
Property: Vapor or sublimation pressure, kPa (Liquid); method: Transpiration method
Temperature, K	Vapor or sublimation pressure, kPa	uncertainty
293.4	.00874	.0002622
295.2	.01013	.0003039
297.5	.01263	.0003789
299.6	.01478	.0004434
301.4	.01713	.0005139
303.4	.02003	.0006009
305.4	.02442	.0007326
307.2	.02822	.0008466
309.2	.03292	.0009876
311.2	.03912	.0011736
313.2	.04491	.0013473
315.2	.05164	.0015492
317.2	.06174	.0018522
319.2	.06949	.0020847
321.2	.08388	.0025164
323.2	.09724	.0029172
325.2	.11271	.0033813
327.2	.12586	.0037758
329.2	.14424	.0043272
331.2	.16762	.0050286
333.2	.19546	.0058638
335.2	.21941	.0065823
337.2	.24585	.0073755
339.2	.29773	.0089319
341.2	.34094	.0102282
343.2	.3728	.011184
345.2	.4256	.012768
347.2	.48308	.0144924
349.2	.54884	.0164652
351.2	.61798	.0185394
353.2	.69424	.0208272

System: ethanol, 2-(2-aminoethoxy)-; phases: Liquid, Gas
Property: Vapor or sublimation pressure, kPa (Liquid); method: Transpiration method
Temperature, K	Vapor or sublimation pressure, kPa	uncertainty
303.2	.00368	.0001104
306.2	.005	.00015
308.2	.0063	.000189
311.2	.00793	.0002379
313.2	.00958	.0002874
316.2	.01314	.0003942
318.2	.01624	.0004872
321.3	.02053	.0006159
324.3	.0278	.000834
326.3	.03121	.0009363
329.2	.04165	.0012495
331.3	.0467	.001401
334.2	.06192	.0018576
336.3	.06906	.0020718
339.2	.08854	.0026562
341.3	.10458	.0031374
344.3	.12311	.0036933
346.2	.14219	.0042657
349.2	.17482	.0052446
351.2	.20644	.0061932
353.2	.2375	.007125
356.2	.29377	.0088131
359.2	.35561	.0106683

System: ethanol, 2-[2-(dimethylamino)ethoxy]-; phases: Liquid, Gas
Property: Vapor or sublimation pressure, kPa (Liquid); method: Transpiration method
Temperature, K	Vapor or sublimation pressure, kPa	uncertainty
293.3	.01146	.0003438
295.4	.01364	.0004092
297.5	.01669	.0005007
299.6	.01906	.0005718
301.4	.02265	.0006795
303.4	.02596	.0007788
305.4	.02972	.0008916
307.2	.0342	.001026
309.2	.04	.0012
311.2	.04739	.0014217
313.2	.05466	.0016398
315.2	.06531	.0019593
317.2	.07504	.0022512
319.2	.08433	.0025299
321.2	.10193	.0030579
323.2	.11802	.0035406
325.2	.13356	.0040068
327.2	.15292	.0045876
329.2	.17543	.0052629
331.2	.20341	.0061023
333.2	.23721	.0071163
335.2	.26614	.0079842
337.2	.29874	.0089622
339.2	.35013	.0105039
341.2	.4116	.012348
343.2	.4512	.013536
345.2	.51455	.0154365
347.2	.54906	.0164718
349.2	.6663	.019989
351.2	.75034	.0225102
353.2	.82329	.0246987
