Measured thermophysical data. Isobaric Vapor-Liquid Equilibium for the Binary Systems of Methyl  Formate with o-Xylene, m-Xylene, p-Xylene, and Ethylbenzene at  101.33 kPa
Source: J. Chem. Eng. Data, 2012, 10.1021/je200974r
Compound 1: methyl methanoate, C2H4O2, purity 98%
Compound 2: ethylbenzene, C8H10, purity 98.5%
Compound 3: 1,2-dimethylbenzene, C8H10, purity 99%
Compound 4: 1,3-xylene, C8H10, purity 99%
Compound 5: 1,4-xylene, C8H10, purity 99%

System: methyl methanoate; phases: Liquid
Fixed: Pressure, kPa = 101.325
Property: Mass density, kg/m3 (Liquid); method: Vibrating tube method
Temperature, K	Mass density, kg/m3	uncertainty
298.15	966.38	

System: methyl methanoate; phases: Liquid
Fixed: Pressure, kPa = 101.325
Property: Refractive index (Na D-line) (Liquid); method: Standard Abbe refractometry
Temperature, K	Refractive index (Na D-line)	uncertainty
298.15	1.3412	.0002

System: methyl methanoate; phases: Liquid, Gas
Property: Normal boiling temperature, K (Liquid); method: Ebulliometric method (Recirculating still)
Normal boiling temperature, K	uncertainty
304.89	.1

System: ethylbenzene; phases: Liquid
Fixed: Pressure, kPa = 101.325
Property: Mass density, kg/m3 (Liquid); method: Vibrating tube method
Temperature, K	Mass density, kg/m3	uncertainty
298.15	862.55	

System: ethylbenzene; phases: Liquid
Fixed: Pressure, kPa = 101.325
Property: Refractive index (Na D-line) (Liquid); method: Standard Abbe refractometry
Temperature, K	Refractive index (Na D-line)	uncertainty
298.15	1.493	.0002

System: ethylbenzene; phases: Liquid, Gas
Property: Normal boiling temperature, K (Liquid); method: Ebulliometric method (Recirculating still)
Normal boiling temperature, K	uncertainty
409.32	.1

System: 1,2-dimethylbenzene; phases: Liquid
Fixed: Pressure, kPa = 101.325
Property: Mass density, kg/m3 (Liquid); method: Vibrating tube method
Temperature, K	Mass density, kg/m3	uncertainty
298.15	875.85	

System: 1,2-dimethylbenzene; phases: Liquid
Fixed: Pressure, kPa = 101.325
Property: Refractive index (Na D-line) (Liquid); method: Standard Abbe refractometry
Temperature, K	Refractive index (Na D-line)	uncertainty
298.15	1.5028	.0002

System: 1,2-dimethylbenzene; phases: Liquid, Gas
Property: Normal boiling temperature, K (Liquid); method: Ebulliometric method (Recirculating still)
Normal boiling temperature, K	uncertainty
417.56	.1

System: 1,3-xylene; phases: Liquid
Fixed: Pressure, kPa = 101.325
Property: Mass density, kg/m3 (Liquid); method: Vibrating tube method
Temperature, K	Mass density, kg/m3	uncertainty
298.15	859.87	

System: 1,3-xylene; phases: Liquid
Fixed: Pressure, kPa = 101.325
Property: Refractive index (Na D-line) (Liquid); method: Standard Abbe refractometry
Temperature, K	Refractive index (Na D-line)	uncertainty
298.15	1.4942	.0002

System: 1,3-xylene; phases: Liquid, Gas
Property: Normal boiling temperature, K (Liquid); method: Ebulliometric method (Recirculating still)
Normal boiling temperature, K	uncertainty
412.21	.1

System: 1,4-xylene; phases: Liquid
Fixed: Pressure, kPa = 101.325
Property: Mass density, kg/m3 (Liquid); method: Vibrating tube method
Temperature, K	Mass density, kg/m3	uncertainty
298.15	856.46	

System: 1,4-xylene; phases: Liquid
Fixed: Pressure, kPa = 101.325
Property: Refractive index (Na D-line) (Liquid); method: Standard Abbe refractometry
Temperature, K	Refractive index (Na D-line)	uncertainty
298.15	1.4932	.0002

System: 1,4-xylene; phases: Liquid, Gas
Property: Normal boiling temperature, K (Liquid); method: Ebulliometric method (Recirculating still)
Normal boiling temperature, K	uncertainty
411.37	.1

System: 1,2-dimethylbenzene + methyl methanoate; phases: Liquid, Gas
Property: Boiling temperature at pressure P, K (Liquid); method: Ebulliometric method (Recirculating still)
Mole fraction of methyl methanoate	Pressure, kPa	Boiling temperature at pressure P, K	uncertainty
.9282	101.33	305.99	.1
.8566	101.33	306.91	.1
.7597	101.33	307.47	.1
.7042	101.33	307.85	.1
.5958	101.33	309.32	.1
.4184	101.33	312.96	.1
.3227	101.33	318.45	.1
.1957	101.33	328.66	.1
.1038	101.33	345.7	.1
.0584	101.33	362.49	.1
.0327	101.33	378.59	.1
.0157	101.33	394.72	.1
.0134	101.33	397.29	.1
.0089	101.33	403.2	.1
.0071	101.33	406.53	.1
.0037	101.33	411.14	.1
.0028	101.33	412.92	.1

System: 1,2-dimethylbenzene + methyl methanoate; phases: Gas, Liquid
Property: Mole fraction of methyl methanoate (Gas); method: Chromatography
Mole fraction of methyl methanoate	Pressure, kPa	Mole fraction of methyl methanoate	uncertainty
.9282	101.33	.9969	.001
.8566	101.33	.9956	.001
.7597	101.33	.995	.001
.7042	101.33	.9947	.001
.5958	101.33	.9913	.001
.4184	101.33	.9885	.001
.3227	101.33	.9769	.001
.1957	101.33	.9667	.001
.1038	101.33	.9139	.001
.0584	101.33	.8356	.001
.0327	101.33	.6858	.001
.0157	101.33	.4701	.001
.0134	101.33	.4295	.001
.0089	101.33	.3122	.001
.0071	101.33	.2602	.001
.0037	101.33	.1581	.001
.0028	101.33	.1229	.001

System: methyl methanoate + 1,3-xylene; phases: Liquid, Gas
Property: Boiling temperature at pressure P, K (Liquid); method: Ebulliometric method (Recirculating still)
Mole fraction of methyl methanoate	Pressure, kPa	Boiling temperature at pressure P, K	uncertainty
.971	101.33	305.66	.1
.9296	101.33	306.43	.1
.8977	101.33	306.99	.1
.8238	101.33	308.03	.1
.7216	101.33	309.01	.1
.6726	101.33	309.49	.1
.609	101.33	310.04	.1
.5749	101.33	311.34	.1
.467	101.33	315.57	.1
.4234	101.33	317.62	.1
.3474	101.33	321.9	.1
.2275	101.33	332.07	.1
.1888	101.33	337.68	.1
.1409	101.33	345.83	.1
.094	101.33	357.5	.1
.0738	101.33	364.28	.1
.0537	101.33	372.88	.1
.0403	101.33	379.77	.1
.0268	101.33	388.2	.1
.0134	101.33	399.05	.1
.0009	101.33	411.07	.1

System: methyl methanoate + 1,3-xylene; phases: Gas, Liquid
Property: Mole fraction of methyl methanoate (Gas); method: Chromatography
Mole fraction of methyl methanoate	Pressure, kPa	Mole fraction of methyl methanoate	uncertainty
.971	101.33	.9973	.001
.9296	101.33	.9943	.001
.8977	101.33	.9925	.001
.8238	101.33	.9897	.001
.7216	101.33	.9874	.001
.6726	101.33	.9866	.001
.609	101.33	.9857	.001
.5749	101.33	.9852	.001
.467	101.33	.9833	.001
.4234	101.33	.9821	.001
.3474	101.33	.9795	.001
.2275	101.33	.9468	.001
.1888	101.33	.9384	.001
.1409	101.33	.9084	.001
.094	101.33	.8367	.001
.0738	101.33	.7892	.001
.0537	101.33	.7184	.001
.0403	101.33	.632	.001
.0268	101.33	.5171	.001
.0134	101.33	.3221	.001
.0009	101.33	.0323	.001

System: 1,4-xylene + methyl methanoate; phases: Liquid, Gas
Property: Boiling temperature at pressure P, K (Liquid); method: Ebulliometric method (Recirculating still)
Mole fraction of methyl methanoate	Pressure, kPa	Boiling temperature at pressure P, K	uncertainty
.9414	101.33	306.1	.1
.9128	101.33	306.65	.1
.8795	101.33	307.24	.1
.7882	101.33	308.5	.1
.7093	101.33	309.36	.1
.6963	101.33	309.52	.1
.6202	101.33	310.32	.1
.5533	101.33	311.37	.1
.3744	101.33	314.87	.1
.2978	101.33	317.87	.1
.2747	101.33	319.44	.1
.0985	101.33	342.47	.1
.0546	101.33	358.19	.1
.044	101.33	364.04	.1
.0302	101.33	374.24	.1
.0146	101.33	389.11	.1
.0109	101.33	394.44	.1
.0057	101.33	402.18	.1

System: 1,4-xylene + methyl methanoate; phases: Gas, Liquid
Property: Mole fraction of methyl methanoate (Gas); method: Chromatography
Mole fraction of methyl methanoate	Pressure, kPa	Mole fraction of methyl methanoate	uncertainty
.9414	101.33	.9959	.001
.9128	101.33	.9945	.001
.8795	101.33	.9912	.001
.7882	101.33	.9892	.001
.7093	101.33	.9874	.001
.6963	101.33	.9871	.001
.6202	101.33	.9857	.001
.5533	101.33	.9843	.001
.3744	101.33	.9789	.001
.2978	101.33	.9742	.001
.2747	101.33	.9688	.001
.0985	101.33	.9091	.001
.0546	101.33	.833	.001
.044	101.33	.7759	.001
.0302	101.33	.6779	.001
.0146	101.33	.47	.001
.0109	101.33	.3934	.001
.0057	101.33	.231	.001

System: ethylbenzene + methyl methanoate; phases: Liquid, Gas
Property: Boiling temperature at pressure P, K (Liquid); method: Ebulliometric method (Recirculating still)
Mole fraction of methyl methanoate	Pressure, kPa	Boiling temperature at pressure P, K	uncertainty
.9665	101.33	305.7	.1
.9397	101.33	306.27	.1
.9072	101.33	306.41	.1
.8814	101.33	306.61	.1
.8492	101.33	307.02	.1
.7657	101.33	307.66	.1
.6758	101.33	309.43	.1
.5753	101.33	312.33	.1
.5336	101.33	314.47	.1
.4425	101.33	318.41	.1
.3705	101.33	321.71	.1
.2967	101.33	328.37	.1
.1778	101.33	343.44	.1
.119	101.33	355.69	.1
.0895	101.33	364.08	.1
.0698	101.33	370.68	.1
.05	101.33	379.06	.1
.0311	101.33	387.52	.1
.0197	101.33	395.33	.1
.0101	101.33	401.32	.1

System: ethylbenzene + methyl methanoate; phases: Gas, Liquid
Property: Mole fraction of methyl methanoate (Gas); method: Chromatography
Mole fraction of methyl methanoate	Pressure, kPa	Mole fraction of methyl methanoate	uncertainty
.9665	101.33	.9975	.001
.9397	101.33	.9958	.001
.9072	101.33	.9944	.001
.8814	101.33	.9924	.001
.8492	101.33	.9902	.001
.7657	101.33	.9895	.001
.6758	101.33	.9868	.001
.5753	101.33	.9864	.001
.5336	101.33	.9844	.001
.4425	101.33	.9762	.001
.3705	101.33	.9718	.001
.2967	101.33	.9638	.001
.1778	101.33	.9019	.001
.119	101.33	.84	.001
.0895	101.33	.7874	.001
.0698	101.33	.7104	.001
.05	101.33	.6208	.001
.0311	101.33	.4651	.001
.0197	101.33	.3458	.001
.0101	101.33	.1907	.001
