Measured thermophysical data. Isobaric vapor liquid equilibium for the binary systerms of  1-butanol with o-xylene, m-xylene, p-xylene, and  ethylbenzene at 101.33 kPa
Source: J. Chem. Eng. Data, 2012, 10.1021/je201053v
Compound 1: n-butyl alcohol, C4H10O, purity 99%
Compound 2: ethylbenzene, C8H10, purity 98.5%
Compound 3: 1,2-dimethylbenzene, C8H10, purity 99%
Compound 4: 1,3-xylene, C8H10, purity 99%
Compound 5: 1,4-xylene, C8H10, purity 99%

System: n-butyl alcohol; phases: Liquid
Fixed: Pressure, kPa = 101.325
Property: Mass density, kg/m3 (Liquid); method: Vibrating tube method
Temperature, K	Mass density, kg/m3	uncertainty
293.15	809.5	

System: n-butyl alcohol; phases: Liquid, Gas
Property: Vapor or sublimation pressure, kPa (Liquid); method: Ebulliometric method (Recirculating still)
Temperature, K	Vapor or sublimation pressure, kPa	uncertainty
390.85	101.33	.04

System: ethylbenzene; phases: Liquid
Fixed: Pressure, kPa = 101.325
Property: Mass density, kg/m3 (Liquid); method: Vibrating tube method
Temperature, K	Mass density, kg/m3	uncertainty
293.15	866.54	

System: ethylbenzene; phases: Liquid, Gas
Property: Vapor or sublimation pressure, kPa (Liquid); method: Ebulliometric method (Recirculating still)
Temperature, K	Vapor or sublimation pressure, kPa	uncertainty
409.27	101.33	.04

System: 1,2-dimethylbenzene; phases: Liquid
Fixed: Pressure, kPa = 101.325
Property: Mass density, kg/m3 (Liquid); method: Vibrating tube method
Temperature, K	Mass density, kg/m3	uncertainty
293.15	879.68	

System: 1,2-dimethylbenzene; phases: Liquid, Gas
Property: Vapor or sublimation pressure, kPa (Liquid); method: Ebulliometric method (Recirculating still)
Temperature, K	Vapor or sublimation pressure, kPa	uncertainty
417.58	101.33	.04

System: 1,3-xylene; phases: Liquid
Fixed: Pressure, kPa = 101.325
Property: Mass density, kg/m3 (Liquid); method: Vibrating tube method
Temperature, K	Mass density, kg/m3	uncertainty
293.15	864.11	

System: 1,3-xylene; phases: Liquid, Gas
Property: Vapor or sublimation pressure, kPa (Liquid); method: Ebulliometric method (Recirculating still)
Temperature, K	Vapor or sublimation pressure, kPa	uncertainty
412.27	101.33	.04

System: 1,4-xylene; phases: Liquid
Fixed: Pressure, kPa = 101.325
Property: Mass density, kg/m3 (Liquid); method: Vibrating tube method
Temperature, K	Mass density, kg/m3	uncertainty
293.15	861.21	

System: 1,4-xylene; phases: Liquid, Gas
Property: Vapor or sublimation pressure, kPa (Liquid); method: Ebulliometric method (Recirculating still)
Temperature, K	Vapor or sublimation pressure, kPa	uncertainty
411.51	101.33	.04

System: n-butyl alcohol + ethylbenzene; phases: Liquid, Gas
Property: Boiling temperature at pressure P, K (Liquid); method: Ebulliometric method (Recirculating still)
Mole fraction of n-butyl alcohol	Pressure, kPa	Boiling temperature at pressure P, K	uncertainty
1	101.33	390.85	.1
.982	101.33	390.7	.1
.945	101.33	390.3	.1
.8966	101.33	389.79	.1
.8415	101.33	389.49	.1
.7992	101.33	389.38	.1
.7438	101.33	389.28	.1
.7031	101.33	389.34	.1
.6546	101.33	389.49	.1
.6033	101.33	389.74	.1
.5732	101.33	390.05	.1
.4911	101.33	390.3	.1
.4272	101.33	390.81	.1
.2862	101.33	392.49	.1
.2288	101.33	394.27	.1
.1637	101.33	396.81	.1
.1118	101.33	399.62	.1
.0635	101.33	402.83	.1
.0386	101.33	404.97	.1
0	101.33	409.27	.1

System: n-butyl alcohol + ethylbenzene; phases: Gas, Liquid
Property: Mole fraction of n-butyl alcohol (Gas); method: Density calibration data
Mole fraction of n-butyl alcohol	Pressure, kPa	Mole fraction of n-butyl alcohol	uncertainty
1	101.33	1	.001
.982	101.33	.9763	.001
.945	101.33	.9283	.001
.8966	101.33	.8662	.001
.8415	101.33	.8159	.001
.7992	101.33	.7899	.001
.7438	101.33	.741	.001
.7031	101.33	.7163	.001
.6546	101.33	.6965	.001
.6033	101.33	.6647	.001
.5732	101.33	.6468	.001
.4911	101.33	.6089	.001
.4272	101.33	.5764	.001
.2862	101.33	.4932	.001
.2288	101.33	.4561	.001
.1637	101.33	.3804	.001
.1118	101.33	.3033	.001
.0635	101.33	.2167	.001
.0386	101.33	.1472	.001
0	101.33	0	.001

System: n-butyl alcohol + 1,2-dimethylbenzene; phases: Liquid, Gas
Property: Boiling temperature at pressure P, K (Liquid); method: Ebulliometric method (Recirculating still)
Mole fraction of n-butyl alcohol	Pressure, kPa	Boiling temperature at pressure P, K	uncertainty
1	101.33	390.85	.1
.9609	101.33	390.55	.1
.9511	101.33	390.4	.1
.9282	101.33	390.25	.1
.8985	101.33	389.99	.1
.8732	101.33	389.94	.1
.8331	101.33	390.05	.1
.7792	101.33	390.25	.1
.7072	101.33	390.35	.1
.6453	101.33	390.71	.1
.5831	101.33	391.21	.1
.5303	101.33	392.37	.1
.4146	101.33	393.7	.1
.3388	101.33	395.22	.1
.2493	101.33	397.11	.1
.1777	101.33	400.16	.1
.1052	101.33	405.31	.1
.0337	101.33	412.78	.1
0	101.33	417.58	.1

System: n-butyl alcohol + 1,2-dimethylbenzene; phases: Gas, Liquid
Property: Mole fraction of n-butyl alcohol (Gas); method: Chromatography
Mole fraction of n-butyl alcohol	Pressure, kPa	Mole fraction of n-butyl alcohol	uncertainty
1	101.33	1	.001
.9609	101.33	.9553	.001
.9511	101.33	.9447	.001
.9282	101.33	.9218	.001
.8985	101.33	.902	.001
.8732	101.33	.8778	.001
.8331	101.33	.8446	.001
.7792	101.33	.8159	.001
.7072	101.33	.7808	.001
.6453	101.33	.7397	.001
.5831	101.33	.7155	.001
.5303	101.33	.6868	.001
.4146	101.33	.6357	.001
.3388	101.33	.5942	.001
.2493	101.33	.5311	.001
.1777	101.33	.4642	.001
.1052	101.33	.3426	.001
.0337	101.33	.1449	.001
0	101.33	0	.001

System: n-butyl alcohol + 1,3-xylene; phases: Liquid, Gas
Property: Boiling temperature at pressure P, K (Liquid); method: Ebulliometric method (Recirculating still)
Mole fraction of n-butyl alcohol	Pressure, kPa	Boiling temperature at pressure P, K	uncertainty
1	101.33	390.85	.1
.9582	101.33	390.32	.1
.9444	101.33	390.18	.1
.925	101.33	390.01	.1
.8972	101.33	389.82	.1
.8709	101.33	389.7	.1
.8315	101.33	389.59	.1
.7716	101.33	389.55	.1
.718	101.33	389.63	.1
.6597	101.33	389.81	.1
.6008	101.33	390.09	.1
.5376	101.33	390.58	.1
.4974	101.33	391.21	.1
.4787	101.33	391.58	.1
.3846	101.33	392.75	.1
.3112	101.33	393.36	.1
.298	101.33	394.63	.1
.2405	101.33	396.13	.1
.1487	101.33	398.57	.1
.0367	101.33	407.08	.1
0	101.33	412.27	.1

System: n-butyl alcohol + 1,3-xylene; phases: Gas, Liquid
Property: Mole fraction of n-butyl alcohol (Gas); method: Chromatography
Mole fraction of n-butyl alcohol	Pressure, kPa	Mole fraction of n-butyl alcohol	uncertainty
1	101.33	1	.001
.9582	101.33	.9467	.001
.9444	101.33	.9276	.001
.925	101.33	.9058	.001
.8972	101.33	.8734	.001
.8709	101.33	.8498	.001
.8315	101.33	.822	.001
.7716	101.33	.7882	.001
.718	101.33	.7435	.001
.6597	101.33	.7136	.001
.6008	101.33	.6854	.001
.5376	101.33	.653	.001
.4974	101.33	.6515	.001
.4787	101.33	.6287	.001
.3846	101.33	.5968	.001
.3112	101.33	.5448	.001
.298	101.33	.5336	.001
.2405	101.33	.499	.001
.1487	101.33	.3884	.001
.0367	101.33	.146	.001
0	101.33	0	.001

System: n-butyl alcohol + 1,4-xylene; phases: Liquid, Gas
Property: Boiling temperature at pressure P, K (Liquid); method: Ebulliometric method (Recirculating still)
Mole fraction of n-butyl alcohol	Pressure, kPa	Boiling temperature at pressure P, K	uncertainty
1	101.33	390.85	.1
.9819	101.33	390.7	.1
.9557	101.33	390.37	.1
.9356	101.33	390.15	.1
.9179	101.33	389.98	.1
.8891	101.33	389.34	.1
.8548	101.33	389.13	.1
.803	101.33	388.94	.1
.7733	101.33	388.95	.1
.7203	101.33	388.98	.1
.658	101.33	389.13	.1
.5931	101.33	389.18	.1
.5108	101.33	389.94	.1
.4358	101.33	390.72	.1
.3826	101.33	391.21	.1
.2981	101.33	393.68	.1
.2292	101.33	395.31	.1
.161	101.33	397.41	.1
.1211	101.33	400.44	.1
.0386	101.33	407.14	.1
0	101.33	411.51	.1

System: n-butyl alcohol + 1,4-xylene; phases: Gas, Liquid
Property: Mole fraction of n-butyl alcohol (Gas); method: Chromatography
Mole fraction of n-butyl alcohol	Pressure, kPa	Mole fraction of n-butyl alcohol	uncertainty
1	101.33	1	.001
.9819	101.33	.9738	.001
.9557	101.33	.9434	.001
.9356	101.33	.9163	.001
.9179	101.33	.9005	.001
.8891	101.33	.8717	.001
.8548	101.33	.8374	.001
.803	101.33	.8009	.001
.7733	101.33	.7771	.001
.7203	101.33	.7439	.001
.658	101.33	.7083	.001
.5931	101.33	.6738	.001
.5108	101.33	.6319	.001
.4358	101.33	.6006	.001
.3826	101.33	.5714	.001
.2981	101.33	.5315	.001
.2292	101.33	.4769	.001
.161	101.33	.3939	.001
.1211	101.33	.3359	.001
.0386	101.33	.1443	.001
0	101.33	0	.001
