Measured thermophysical data. Mutual Diffusion Coefficients of Aqueous KCl at High Pressures Measured by the Taylor Dispersion Method
Source: J. Chem. Eng. Data, 2011, 10.1021/je200808q
Compound 1: potassium chloride, ClK, purity 99%
Compound 2: water, H2O, purity 99.99%

System: potassium chloride + water; phases: Fluid (supercritical or subcritical phases)
Property: Binary diffusion coefficient, m2/s (Fluid (supercritical or subcritical phases)); method: Taylor dispersion method
Molality, mol/kg of potassium chloride	Temperature, K	Pressure, kPa	Binary diffusion coefficient, m2/s	uncertainty
0	298.15	160	0.000000001945	6.8075E-12
0	298.15	14990	0.000000001942	.000000000006797
0	298.15	30920	0.000000001947	6.8145E-12
0	298.15	48170	0.000000001954	.000000000006839
0	298.15	62940	0.000000001968	.000000000006888
0	323.15	640	0.000000003022	.000000000010577
0	323.15	15460	0.000000003016	.000000000010556
0	323.15	33580	0.000000003085	1.07975E-11
0	323.15	68560	0.000000003093	1.08255E-11
0	348.15	650	0.000000004481	1.56835E-11
0	348.15	15720	0.000000004488	.000000000015708
0	348.15	29270	0.000000004441	1.55435E-11
0	348.15	46780	0.000000004495	1.57325E-11
0	348.15	66700	0.000000004522	.000000000015827
0	373.15	820	0.000000006107	2.13745E-11
0	373.15	24180	0.000000006145	2.15075E-11
0	373.15	43130	0.000000006112	.000000000021392
0	373.15	64280	0.000000006182	.000000000021637
0	423.15	3080	0.000000010263	3.59205E-11
0	423.15	18510	0.000000010271	3.59485E-11
0	423.15	33580	0.000000010329	3.61515E-11
0	423.15	63300	0.00000001031	.000000000036085
1	298.15	240	0.000000001892	.000000000006622
1	298.15	10170	0.000000001907	6.6745E-12
1	298.15	28210	0.000000001918	.000000000006713
1	298.15	38630	0.000000001925	6.7375E-12
1	298.15	45590	0.000000001947	6.8145E-12
1	298.15	59030	0.000000001958	.000000000006853
1	298.15	67070	0.000000001978	.000000000006923
1	323.15	610	0.000000003034	.000000000010619
1	323.15	15300	0.000000003062	.000000000010717
1	323.15	43400	0.000000003084	.000000000010794
1	323.15	52060	0.000000003095	1.08325E-11
1	323.15	68970	0.000000003097	1.08395E-11
1	348.15	660	0.000000004229	1.48015E-11
1	348.15	25820	0.000000004246	.000000000014861
1	348.15	31120	0.000000004257	1.48995E-11
1	348.15	35870	0.000000004241	1.48435E-11
1	348.15	39760	0.000000004232	.000000000014812
1	348.15	41210	0.000000004245	1.48575E-11
1	348.15	41980	0.000000004249	1.48715E-11
1	348.15	45330	0.000000004263	1.49205E-11
1	348.15	62420	0.000000004243	1.48505E-11
1	348.15	64020	0.000000004247	1.48645E-11
1	348.15	67090	0.00000000425	.000000000014875
1	373.15	820	0.000000005942	.000000000020797
1	373.15	23410	0.000000005932	.000000000020762
1	373.15	42090	0.000000005936	.000000000020776
1	373.15	64210	0.000000005973	2.09055E-11
1	423.15	3410	0.000000009432	.000000000033012
1	423.15	15130	0.000000009446	.000000000033061
1	423.15	34720	0.000000009455	3.30925E-11
1	423.15	61620	0.000000009479	3.31765E-11
1	423.15	65640	0.000000009486	.000000000033201
2.5	298.15	290	0.000000002018	.000000000007063
2.5	298.15	2290	0.000000002023	7.0805E-12
2.5	298.15	4500	0.000000002039	7.1365E-12
2.5	298.15	24920	0.000000002037	7.1295E-12
2.5	298.15	32600	0.000000002047	7.1645E-12
2.5	348.15	29960	0.000000004573	1.60055E-11
2.5	348.15	45150	0.00000000458	.00000000001603
2.5	348.15	68900	0.000000004594	.000000000016079
2.5	373.15	940	0.00000000592	.00000000002072
2.5	373.15	17140	0.000000005915	2.07025E-11
2.5	298.15	37390	0.000000002038	.000000000007133
2.5	298.15	47430	0.000000002043	7.1505E-12
2.5	298.15	64970	0.000000002069	7.2415E-12
2.5	298.15	66170	0.000000002079	7.2765E-12
2.5	298.15	67630	0.00000000208	.00000000000728
2.5	323.15	580	0.000000003152	.000000000011032
2.5	323.15	40890	0.000000003122	.000000000010927
2.5	323.15	45210	0.000000003177	1.11195E-11
2.5	323.15	47480	0.000000003173	1.11055E-11
2.5	323.15	60490	0.000000003118	.000000000010913
2.5	323.15	64860	0.000000003152	.000000000011032
2.5	348.15	700	0.000000004522	.000000000015827
2.5	348.15	18050	0.000000004548	.000000000015918
2.5	373.15	24360	0.00000000594	.00000000002079
2.5	373.15	31320	0.000000005886	.000000000020601
2.5	373.15	47550	0.000000005984	.000000000020944
2.5	373.15	57260	0.000000005857	2.04995E-11
2.5	373.15	59590	0.000000005955	2.08425E-11
2.5	373.15	63050	0.000000005961	2.08635E-11
2.5	423.15	4440	0.000000009685	3.38975E-11
2.5	423.15	15180	0.000000009673	3.38555E-11
2.5	423.15	15260	0.000000009675	3.38625E-11
2.5	423.15	34630	0.000000009698	.000000000033943
2.5	423.15	56030	0.000000009702	.000000000033957
2.5	423.15	65050	0.000000009716	.000000000034006
4.5	298.15	480	0.000000002172	.000000000007602
4.5	298.15	27060	0.000000002144	.000000000007504
4.5	298.15	43800	0.000000002171	7.5985E-12
4.5	298.15	66020	0.000000002184	.000000000007644
4.5	323.15	500	0.000000003335	1.16725E-11
4.5	323.15	3950	0.000000003324	.000000000011634
4.5	348.15	65910	0.000000004628	.000000000016198
4.5	373.15	740	0.000000006251	2.18785E-11
4.5	373.15	17780	0.000000006222	.000000000021777
4.5	373.15	41280	0.000000006239	2.18365E-11
4.5	373.15	47900	0.000000006209	2.17315E-11
4.5	373.15	54290	0.000000006244	.000000000021854
4.5	323.15	31370	0.000000003347	1.17145E-11
4.5	323.15	49570	0.000000003285	1.14975E-11
4.5	323.15	62690	0.000000003352	.000000000011732
4.5	348.15	730	0.000000004645	1.62575E-11
4.5	348.15	12830	0.000000004587	1.60545E-11
4.5	348.15	32970	0.000000004619	1.61665E-11
4.5	348.15	65910	0.000000004628	.000000000016198
4.5	373.15	54410	0.00000000624	.00000000002184
4.5	373.15	65700	0.000000006274	.000000000021959
4.5	423.15	13020	0.000000009265	3.24275E-11
4.5	423.15	40540	0.000000009294	.000000000032529
4.5	423.15	68930	0.000000009301	3.25535E-11
