Measured thermophysical data. Thermodynamic Properties and Crystal Structures of the Adductive  2,6-Naphthalenedicarboxylic Acid Crystallization with N,N-Dimethyl  Acetamide and N-Methyl Pyrrolidone
Source: J. Chem. Eng. Data, 2012, 10.1021/je2009973
Compound 1: 2,6-naphthalenedicarboxylic acid, C12H8O4, purity 98%
Compound 2: acetamide, N,N-dimethyl-, C4H9NO, purity 99.5%
Compound 3: N-methyl-2-pyrrolidone, C5H9NO, purity 99.5%

System: acetamide, N,N-dimethyl- + 2,6-naphthalenedicarboxylic acid; phases: Liquid, Crystal
Fixed: Pressure, kPa = 101
Property: Mole fraction of 2,6-naphthalenedicarboxylic acid (Liquid); method: Chromatography
Temperature, K	Mole fraction of 2,6-naphthalenedicarboxylic acid	uncertainty
293.15	.01536	.0001536
298.15	.01619	.0001619
303.15	.01695	.0001695
308.15	.01775	.0001775
313.15	.01879	.0001879
318.15	.01973	.0001973
323.15	.02046	.0002046
328.15	.02132	.0002132
333.15	.02221	.0002221
338.15	.0235	.000235
343.15	.02425	.0002425
348.15	.02506	.0002506
353.15	.02608	.0002608
358.15	.02741	.0002741
363.15	.02827	.0002827
368.15	.02964	.0002964
373.15	.03038	.0003038

System: N-methyl-2-pyrrolidone + 2,6-naphthalenedicarboxylic acid; phases: Liquid, Crystal of intercomponent compound 1
Fixed: Pressure, kPa = 101
Property: Mole fraction of 2,6-naphthalenedicarboxylic acid (Liquid); method: Chromatography
Temperature, K	Mole fraction of 2,6-naphthalenedicarboxylic acid	uncertainty
293.15	.02381	.0002381
298.15	.02475	.0002475
303.15	.02595	.0002595
308.15	.02715	.0002715
313.15	.0282	.000282
318.15	.02924	.0002924

System: N-methyl-2-pyrrolidone + 2,6-naphthalenedicarboxylic acid; phases: Liquid, Crystal
Fixed: Pressure, kPa = 101
Property: Mole fraction of 2,6-naphthalenedicarboxylic acid (Liquid); method: Chromatography
Temperature, K	Mole fraction of 2,6-naphthalenedicarboxylic acid	uncertainty
328.15	.03007	.0003007
333.15	.03062	.0003062
338.15	.03112	.0003112
343.15	.03137	.0003137
348.15	.03216	.0003216
353.15	.03269	.0003269
358.15	.03323	.0003323
363.15	.03421	.0003421
368.15	.03532	.0003532
373.15	.03631	.0003631
