Measured thermophysical data. Phase Diagrams for Aqueous Two-Phase Systems Containing the 1-Ethyl-3-methylimidazolium Tetrafluoroborate/1-Propyl-3-methylimidazolium Tetrafluoroborate and Trisodium Phosphate/Sodium Sulfite/Sodium Dihydrogen Phosphate at 298.15 K: Experiment and Correlation
Source: J. Chem. Eng. Data, 2011, 10.1021/je200379r
Compound 1: 1-ethyl-3-methylimidazolium tetrafluoroborate, C6H11BF4N2, purity 99%
Compound 2: 1-propyl-3-methylimidazolium tetrafluoroborate, C7H13BF4N2, purity 99%
Compound 3: trisodium phosphate, Na3O4P, purity 99%
Compound 4: disodium sulfite, Na2O3S, purity 99%
Compound 5: sodium dihydrogen phosphate anhydrous, H2NaO4P, purity 99%
Compound 6: water, H2O, purity 99.9%

System: trisodium phosphate + water + 1-ethyl-3-methylimidazolium tetrafluoroborate; phases: Liquid mixture 1, Liquid mixture 2
Fixed: Pressure, kPa = 101
Fixed: Temperature, K = 298.15
Property: Mass fraction of 1-ethyl-3-methylimidazolium tetrafluoroborate (Liquid mixture 1); method: Titration method
Mass fraction of trisodium phosphate	Mass fraction of 1-ethyl-3-methylimidazolium tetrafluoroborate	uncertainty
.0006	.7565	.001
.0015	.7255	.001
.0023	.6881	.001
.0028	.6675	.001
.0033	.6475	.001
.0047	.6136	.001
.0062	.5816	.001
.0086	.5446	.001
.0116	.5023	.001
.0159	.4602	.001
.0191	.4306	.001
.0223	.4085	.001
.0257	.3839	.001
.0288	.3686	.001
.0325	.3543	.001
.0354	.3372	.001
.0382	.3247	.001
.0407	.3153	.001
.0444	.2999	.001
.0463	.2925	.001
.0483	.2846	.001
.0506	.2762	.001
.0545	.2645	.001
.0576	.2504	.001
.0613	.242	.001
.0657	.2301	.001
.0716	.2139	.001
.0763	.1991	.001
.0805	.187	.001

System: water + disodium sulfite + 1-ethyl-3-methylimidazolium tetrafluoroborate; phases: Liquid mixture 1, Liquid mixture 2
Fixed: Pressure, kPa = 101
Fixed: Temperature, K = 298.15
Property: Mass fraction of 1-ethyl-3-methylimidazolium tetrafluoroborate (Liquid mixture 1); method: Titration method
Mass fraction of disodium sulfite	Mass fraction of 1-ethyl-3-methylimidazolium tetrafluoroborate	uncertainty
.0128	.6144	.001
.013	.6094	.001
.0168	.5835	.001
.0194	.5617	.001
.0217	.5404	.001
.0251	.5161	.001
.029	.4943	.001
.0327	.4721	.001
.0358	.4536	.001
.0388	.4346	.001
.0433	.4131	.001
.0489	.3899	.001
.0548	.3628	.001
.0579	.3494	.001
.0617	.3313	.001
.0688	.3026	.001
.0718	.2903	.001
.0738	.2807	.001
.0764	.2706	.001
.0808	.2559	.001
.0845	.2438	.001
.0877	.2333	.001
.091	.2238	.001
.0959	.2112	.001
.0957	.2106	.001
.1068	.1827	.001
.1143	.1654	.001
.1191	.155	.001
.1306	.1361	.001
.1343	.1303	.001
.1429	.1187	.001
.1521	.1067	.001

System: water + disodium sulfite + 1-ethyl-3-methylimidazolium tetrafluoroborate; phases: Liquid mixture 2, Liquid mixture 1
Property: Mass fraction of 1-ethyl-3-methylimidazolium tetrafluoroborate (Liquid mixture 2); method: Titration method
Property: Mass fraction of disodium sulfite (Liquid mixture 1); method: Titration method
Property: Mass fraction of 1-ethyl-3-methylimidazolium tetrafluoroborate (Liquid mixture 1); method: Titration method
Temperature, K	Pressure, kPa	Mass fraction of disodium sulfite	Mass fraction of 1-ethyl-3-methylimidazolium tetrafluoroborate	uncertainty	Mass fraction of disodium sulfite	uncertainty	Mass fraction of 1-ethyl-3-methylimidazolium tetrafluoroborate	uncertainty
298.15	1	.1312	.1358	.001	.6697	.001	.0063	.001
298.15	1	.1125	.16	.001	.7214	.001	.0025	.001
298.15	1	.125	.1416	.001	.6875	.001	.0045	.001

System: sodium dihydrogen phosphate anhydrous + water + 1-ethyl-3-methylimidazolium tetrafluoroborate; phases: Liquid mixture 1, Liquid mixture 2
Fixed: Pressure, kPa = 101
Fixed: Temperature, K = 298.15
Property: Mass fraction of 1-ethyl-3-methylimidazolium tetrafluoroborate (Liquid mixture 1); method: Titration method
Mass fraction of sodium dihydrogen phosphate anhydrous	Mass fraction of 1-ethyl-3-methylimidazolium tetrafluoroborate	uncertainty
.0217	.6586	.001
.028	.6154	.001
.0308	.5895	.001
.0375	.5603	.001
.0438	.534	.001
.0494	.5107	.001
.0547	.4889	.001
.0594	.4689	.001
.0668	.4447	.001
.0734	.4229	.001
.0811	.3994	.001
.0884	.3786	.001
.0949	.36	.001
.1006	.3431	.001
.1073	.3247	.001
.1133	.3084	.001
.1196	.2942	.001
.1301	.2675	.001
.1372	.257	.001
.144	.2388	.001
.1527	.2219	.001
.163	.2053	.001
.1713	.1916	.001
.1785	.1797	.001
.1906	.1646	.001
.202	.1505	.001
.2142	.139	.001
.2214	.132	.001
.2282	.126	.001
.2342	.1208	.001
.2394	.1172	.001
.249	.11	.001
.2636	.0998	.001

System: sodium dihydrogen phosphate anhydrous + water + 1-ethyl-3-methylimidazolium tetrafluoroborate; phases: Liquid mixture 1, Liquid mixture 2
Property: Mass fraction of 1-ethyl-3-methylimidazolium tetrafluoroborate (Liquid mixture 1); method: Titration method
Property: Mass fraction of sodium dihydrogen phosphate anhydrous (Liquid mixture 2); method: Titration method
Property: Mass fraction of 1-ethyl-3-methylimidazolium tetrafluoroborate (Liquid mixture 2); method: Titration method
Temperature, K	Pressure, kPa	Mass fraction of sodium dihydrogen phosphate anhydrous	Mass fraction of 1-ethyl-3-methylimidazolium tetrafluoroborate	uncertainty	Mass fraction of sodium dihydrogen phosphate anhydrous	uncertainty	Mass fraction of 1-ethyl-3-methylimidazolium tetrafluoroborate	uncertainty
298.15	1	.6536	.0223	.001	.1988	.001	.1692	.001
298.15	1	.6027	.0302	.001	.2341	.001	.1482	.001
298.15	1	.6912	.0179	.001	.1722	.001	.1876	.001

System: trisodium phosphate + water + 1-propyl-3-methylimidazolium tetrafluoroborate; phases: Liquid mixture 1, Liquid mixture 2
Fixed: Pressure, kPa = 101
Fixed: Temperature, K = 298.15
Property: Mass fraction of 1-propyl-3-methylimidazolium tetrafluoroborate (Liquid mixture 1); method: Titration method
Mass fraction of trisodium phosphate	Mass fraction of 1-propyl-3-methylimidazolium tetrafluoroborate	uncertainty
.0011	.7769	.001
.0024	.7601	.001
.0052	.7153	.001
.0069	.6845	.001
.0094	.6495	.001
.0116	.6152	.001
.0149	.5754	.001
.0167	.5481	.001
.0192	.5163	.001
.0212	.4949	.001
.0236	.4689	.001
.0248	.4516	.001
.027	.4293	.001
.0271	.4269	.001
.0288	.4075	.001
.0305	.3891	.001
.0319	.3804	.001
.0319	.3734	.001
.0335	.3565	.001
.0351	.3417	.001
.0355	.3395	.001
.0375	.3235	.001
.039	.3109	.001
.0399	.3064	.001
.0425	.2848	.001
.0439	.2767	.001
.0462	.2571	.001
.0482	.2467	.001
.0528	.2162	.001

System: water + disodium sulfite + 1-propyl-3-methylimidazolium tetrafluoroborate; phases: Liquid mixture 1, Liquid mixture 2
Fixed: Pressure, kPa = 101
Fixed: Temperature, K = 298.15
Property: Mass fraction of 1-propyl-3-methylimidazolium tetrafluoroborate (Liquid mixture 1); method: Titration method
Mass fraction of disodium sulfite	Mass fraction of 1-propyl-3-methylimidazolium tetrafluoroborate	uncertainty
.0312	.5075	.001
.0345	.4815	.001
.0367	.4609	.001
.038	.4471	.001
.0399	.4314	.001
.043	.4125	.001
.0438	.4003	.001
.0458	.3897	.001
.0474	.3733	.001
.0488	.3633	.001
.0509	.3493	.001
.0529	.3362	.001
.0548	.3242	.001
.0567	.3139	.001
.0583	.303	.001
.0609	.2858	.001
.0626	.2759	.001
.0652	.266	.001
.0676	.2564	.001
.0703	.2468	.001
.0741	.2308	.001
.0792	.2145	.001
.0803	.2116	.001
.0866	.1894	.001
.0907	.1821	.001
.0981	.1617	.001
.1029	.154	.001
.1104	.1404	.001
.1141	.133	.001
.1207	.1263	.001
.1308	.112	.001
.1382	.1047	.001

System: water + disodium sulfite + 1-propyl-3-methylimidazolium tetrafluoroborate; phases: Liquid mixture 1, Liquid mixture 2
Property: Mass fraction of 1-propyl-3-methylimidazolium tetrafluoroborate (Liquid mixture 1); method: Titration method
Property: Mass fraction of disodium sulfite (Liquid mixture 2); method: Titration method
Property: Mass fraction of 1-propyl-3-methylimidazolium tetrafluoroborate (Liquid mixture 2); method: Titration method
Temperature, K	Pressure, kPa	Mass fraction of disodium sulfite	Mass fraction of 1-propyl-3-methylimidazolium tetrafluoroborate	uncertainty	Mass fraction of disodium sulfite	uncertainty	Mass fraction of 1-propyl-3-methylimidazolium tetrafluoroborate	uncertainty
298.15	1	.771	.0048	.001	.1138	.001	.1316	.001
298.15	1	.835	.0033	.001	.0986	.001	.1529	.001
298.15	1	.8112	.0037	.001	.1026	.001	.1453	.001

System: sodium dihydrogen phosphate anhydrous + water + 1-propyl-3-methylimidazolium tetrafluoroborate; phases: Liquid mixture 1, Liquid mixture 2
Fixed: Pressure, kPa = 101
Fixed: Temperature, K = 298.15
Property: Mass fraction of 1-propyl-3-methylimidazolium tetrafluoroborate (Liquid mixture 1); method: Titration method
Mass fraction of sodium dihydrogen phosphate anhydrous	Mass fraction of 1-propyl-3-methylimidazolium tetrafluoroborate	uncertainty
.021	.6586	.001
.0248	.6312	.001
.0256	.6134	.001
.0311	.5806	.001
.0335	.5614	.001
.0424	.515	.001
.0426	.5149	.001
.0478	.4926	.001
.0509	.4757	.001
.055	.4577	.001
.0589	.4386	.001
.0619	.4263	.001
.0665	.4037	.001
.0741	.3751	.001
.0831	.3307	.001
.0958	.2907	.001
.1046	.2647	.001
.1197	.2237	.001
.1251	.214	.001
.1388	.1891	.001
.1426	.1814	.001
.1514	.1664	.001
.1672	.1477	.001
.1753	.1386	.001
.1847	.1294	.001
.1945	.12	.001
.2026	.1125	.001
.2118	.1054	.001
.2229	.098	.001
.2341	.0904	.001
.2501	.0811	.001
.2722	.0702	.001
.2996	.0597	.001

System: sodium dihydrogen phosphate anhydrous + water + 1-propyl-3-methylimidazolium tetrafluoroborate; phases: Liquid mixture 1, Liquid mixture 2
Property: Mass fraction of 1-propyl-3-methylimidazolium tetrafluoroborate (Liquid mixture 1); method: Titration method
Property: Mass fraction of sodium dihydrogen phosphate anhydrous (Liquid mixture 2); method: Titration method
Property: Mass fraction of 1-propyl-3-methylimidazolium tetrafluoroborate (Liquid mixture 2); method: Titration method
Temperature, K	Pressure, kPa	Mass fraction of sodium dihydrogen phosphate anhydrous	Mass fraction of 1-propyl-3-methylimidazolium tetrafluoroborate	uncertainty	Mass fraction of sodium dihydrogen phosphate anhydrous	uncertainty	Mass fraction of 1-propyl-3-methylimidazolium tetrafluoroborate	uncertainty
298.15	1	.2544	.1094	.001	.5771	.001	.0326	.001
298.15	1	.2117	.128	.001	.649	.001	.0225	.001
298.15	1	.1898	.1395	.001	.6782	.001	.0185	.001
