Measured thermophysical data. Measurement and Calculation of Liquid Liquid Equilibria of Ternary and Quaternary Systems Containing Water, Propan-1-ol, and 2,2,4-Trimethylpentane (TMP) with 2,2'-Oxybis(propane) (DIPE) or Dimethyl Carbonate (DMC)
Source: J. Chem. Eng. Data, 2011, 10.1021/je2004066
Compound 1: water, H2O
Compound 2: propyl alcohol, C3H8O, purity 99.8%
Compound 3: isooctane, C8H18, purity 99.7%
Compound 4: isopropyl ether, C6H14O, purity 99.5%
Compound 5: dimethyl carbonate, C3H6O3, purity 99%

System: propyl alcohol + isooctane + water; phases: Liquid mixture 1, Liquid mixture 2
Property: Mole fraction of water (Liquid mixture 1); method: Chromatography
Property: Mole fraction of propyl alcohol (Liquid mixture 2); method: Chromatography
Property: Mole fraction of water (Liquid mixture 2); method: Chromatography
Temperature, K	Pressure, kPa	Mole fraction of propyl alcohol	Mole fraction of water	uncertainty	Mole fraction of propyl alcohol	uncertainty	Mole fraction of water	uncertainty
298.15	1	0	.0009	.005	0	.005	1	.005
298.15	1	.0038	0	.005	.0079	.005	.9921	.005
298.15	1	.0097	.0047	.005	.0187	.005	.9813	.005
298.15	1	.0189	.0086	.005	.0292	.005	.9708	.005
298.15	1	.0435	.019	.005	.0375	.005	.9625	.005
298.15	1	.0653	.0205	.005	.0431	.005	.9569	.005
298.15	1	.1111	.0444	.005	.0526	.005	.9474	.005
298.15	1	.1402	.0508	.005	.0646	.005	.9354	.005

System: propyl alcohol + dimethyl carbonate + water; phases: Liquid mixture 1, Liquid mixture 2
Property: Mole fraction of propyl alcohol (Liquid mixture 1); method: Chromatography
Property: Mole fraction of water (Liquid mixture 2); method: Chromatography
Property: Mole fraction of propyl alcohol (Liquid mixture 2); method: Chromatography
Temperature, K	Pressure, kPa	Mole fraction of water	Mole fraction of propyl alcohol	uncertainty	Mole fraction of water	uncertainty	Mole fraction of propyl alcohol	uncertainty
298.15	1	.13	0	.005	.9834	.005	0	.005
298.15	1	.1851	.038	.005	.9575	.005	.0114	.005
298.15	1	.2619	.0831	.005	.9547	.005	.0158	.005
298.15	1	.302	.1086	.005	.9386	.005	.0256	.005
298.15	1	.4263	.1272	.005	.9161	.005	.0345	.005
298.15	1	.4899	.1423	.005	.9124	.005	.0417	.005
298.15	1	.5731	.1398	.005	.8918	.005	.0519	.005
298.15	1	.6574	.1243	.005	.8555	.005	.0645	.005
298.15	1	.6864	.1186	.005	.8625	.005	.0638	.005

System: propyl alcohol + isopropyl ether + water; phases: Liquid mixture 2, Liquid mixture 1
Property: Mole fraction of propyl alcohol (Liquid mixture 2); method: Chromatography
Property: Mole fraction of water (Liquid mixture 1); method: Chromatography
Property: Mole fraction of propyl alcohol (Liquid mixture 1); method: Chromatography
Temperature, K	Pressure, kPa	Mole fraction of water	Mole fraction of propyl alcohol	uncertainty	Mole fraction of water	uncertainty	Mole fraction of propyl alcohol	uncertainty
298.15	1	.998	0	.005	.0289	.005	0	.005
298.15	1	.9922	.0078	.005	.0359	.005	.0376	.005
298.15	1	.9836	.0142	.005	.0571	.005	.05	.005
298.15	1	.9771	.0212	.005	.0691	.005	.0937	.005
298.15	1	.9728	.0252	.005	.0827	.005	.1411	.005
298.15	1	.9669	.0313	.005	.1072	.005	.2085	.005
298.15	1	.963	.0351	.005	.1685	.005	.2741	.005
298.15	1	.9547	.0439	.005	.2928	.005	.3645	.005
298.15	1	.9456	.0527	.005	.3716	.005	.4038	.005
298.15	1	.9422	.0564	.005	.4368	.005	.3997	.005

System: isooctane + water; phases: Liquid mixture 1, Liquid mixture 2
Property: Mole fraction of water (Liquid mixture 1); method: Chromatography
Temperature, K	Pressure, kPa	Mole fraction of water	uncertainty
298.15	101.325	.0009	.005

System: isooctane + water; phases: Liquid mixture 2, Liquid mixture 1
Fixed: Pressure, kPa = 101
Property: Mole fraction of isooctane (Liquid mixture 2); method: Chromatography
Temperature, K	Mole fraction of isooctane	uncertainty
298.15	0	.005

System: dimethyl carbonate + water; phases: Liquid mixture 2, Liquid mixture 1
Property: Mole fraction of water (Liquid mixture 2); method: Chromatography
Pressure, kPa	Temperature, K	Mole fraction of water	uncertainty
101.325	298.15	.9834	.005

System: dimethyl carbonate + water; phases: Liquid mixture 1, Liquid mixture 2
Property: Mole fraction of water (Liquid mixture 1); method: Chromatography
Pressure, kPa	Temperature, K	Mole fraction of water	uncertainty
101.325	298.15	.13	.005

System: isopropyl ether + water; phases: Liquid mixture 1, Liquid mixture 2
Property: Mole fraction of water (Liquid mixture 1); method: Chromatography
Pressure, kPa	Temperature, K	Mole fraction of water	uncertainty
101.325	298.15	.0289	.005

System: isopropyl ether + water; phases: Liquid mixture 2, Liquid mixture 1
Property: Mole fraction of water (Liquid mixture 2); method: Chromatography
Pressure, kPa	Temperature, K	Mole fraction of water	uncertainty
101.325	298.15	.998	.005
