Measured thermophysical data. Isothermal Vapor Liquid Equilibrium Data for the Propan-1-ol + Dodecane System at (323.0, 343.4, 353.2, 363.1, and 369.2) K
Source: J. Chem. Eng. Data, 2012, 10.1021/je201032t
Compound 1: propyl alcohol, C3H8O, purity 99%
Compound 2: n-dodecane, C12H26, purity 99%

System: propyl alcohol; phases: Liquid
Fixed: Pressure, kPa = 101.325
Property: Refractive index (Na D-line) (Liquid); method: Standard Abbe refractometry
Temperature, K	Refractive index (Na D-line)	uncertainty
293.15	1.382	

System: propyl alcohol; phases: Liquid, Gas
Property: Vapor or sublimation pressure, kPa (Liquid); method: Ebulliometric method (Recirculating still)
Temperature, K	Vapor or sublimation pressure, kPa	uncertainty
323	12.11	.6
343.4	32.82	.6
353.2	50.82	.6
363.1	76.67	.6
369.2	96.66	.6

System: n-dodecane; phases: Liquid
Fixed: Pressure, kPa = 101.325
Property: Refractive index (Na D-line) (Liquid); method: Standard Abbe refractometry
Temperature, K	Refractive index (Na D-line)	uncertainty
293.15	1.4192	

System: n-dodecane; phases: Liquid, Gas
Property: Vapor or sublimation pressure, kPa (Liquid); method: Ebulliometric method (Recirculating still)
Temperature, K	Vapor or sublimation pressure, kPa	uncertainty
323	.12	.6
343.4	.46	.6
353.2	.73	.6
363.1	1.31	.6
369.2	1.76	.6

System: propyl alcohol + n-dodecane; phases: Liquid, Gas
Property: Vapor or sublimation pressure, kPa (Liquid); method: Ebulliometric method (Recirculating still)
Mole fraction of propyl alcohol	Temperature, K	Vapor or sublimation pressure, kPa	uncertainty
0	323	.12	.6
.139	323	8.42	.6
.215	323	9.63	.6
.329	323	10.46	.6
.409	323	10.6	.6
.443	323	10.74	.6
.569	323	10.87	.6
.672	323	10.92	.6
.795	323	11.1	.6
.835	323	11.18	.6
.949	323	11.73	.6
1	323	12.11	.6
0	343.4	.46	.6
.181	343.4	23.89	.6
.38	343.4	27.65	.6
.476	343.4	27.97	.6
.57	343.4	29.16	.6
.671	343.4	28.85	.6
.734	343.4	30.03	.6
.835	343.4	30.83	.6
.866	343.4	31.25	.6
.91	343.4	31.19	.6
.949	343.4	32.03	.6
.975	343.4	32.49	.6
1	343.4	32.82	.6
0	353.2	.73	.6
.165	353.2	30.01	.6
.253	353.2	37.43	.6
.342	353.2	41.92	.6
.443	353.2	43.98	.6
.481	353.2	44.69	.6
.586	353.2	46.14	.6
.669	353.2	47.01	.6
.801	353.2	47.64	.6
.861	353.2	47.65	.6
.949	353.2	49.38	.6
1	353.2	50.82	.6
0	363.1	1.31	.6
.088	363.1	34.65	.6
.228	363.1	50.56	.6
.354	363.1	61.36	.6
.469	363.1	64.98	.6
.582	363.1	67.74	.6
.683	363.1	67.81	.6
.734	363.1	70.19	.6
.81	363.1	70.89	.6
.891	363.1	71.4	.6
.937	363.1	72.76	.6
.966	363.1	73.65	.6
1	363.1	76.67	.6
0	369.2	1.76	.6
.132	369.2	51.72	.6
.234	369.2	67.4	.6
.372	369.2	77.69	.6
.499	369.2	85.3	.6
.529	369.2	87.28	.6
.634	369.2	90.44	.6
.72	369.2	90.46	.6
.861	369.2	91.08	.6
.971	369.2	94.32	.6
1	369.2	96.66	.6

System: propyl alcohol + n-dodecane; phases: Gas, Liquid
Property: Mole fraction of propyl alcohol (Gas); method: Chromatography
Mole fraction of propyl alcohol	Temperature, K	Mole fraction of propyl alcohol	uncertainty
0	323	0	.005
.139	323	.987	.005
.215	323	.988	.005
.329	323	.989	.005
.409	323	.989	.005
.443	323	.989	.005
.569	323	.989	.005
.672	323	.99	.005
.795	323	.99	.005
.835	323	.993	.005
.949	323	.995	.005
1	323	1	.005
0	343.4	0	.005
.181	343.4	.982	.005
.38	343.4	.987	.005
.476	343.4	.987	.005
.57	343.4	.989	.005
.671	343.4	.987	.005
.734	343.4	.989	.005
.835	343.4	.99	.005
.866	343.4	.991	.005
.91	343.4	.993	.005
.949	343.4	.994	.005
.975	343.4	.996	.005
1	343.4	1	.005
0	353.2	0	.005
.165	353.2	.978	.005
.253	353.2	.983	.005
.342	353.2	.984	.005
.443	353.2	.988	.005
.481	353.2	.988	.005
.586	353.2	.99	.005
.669	353.2	.991	.005
.801	353.2	.993	.005
.861	353.2	.99	.005
.949	353.2	.993	.005
1	353.2	1	.005
0	363.1	0	.005
.088	363.1	.96	.005
.228	363.1	.979	.005
.354	363.1	.984	.005
.469	363.1	.981	.005
.582	363.1	.987	.005
.683	363.1	.985	.005
.734	363.1	.988	.005
.81	363.1	.989	.005
.891	363.1	.99	.005
.937	363.1	.991	.005
.966	363.1	.995	.005
1	363.1	1	.005
0	369.2	0	.005
.132	369.2	.969	.005
.234	369.2	.976	.005
.372	369.2	.98	.005
.499	369.2	.982	.005
.529	369.2	.982	.005
.634	369.2	.983	.005
.72	369.2	.985	.005
.861	369.2	.987	.005
.971	369.2	.995	.005
1	369.2	1	.005
