Measured thermophysical data. Solubility of Azadirachtin in Supercritical Carbon Dioxide at Several Temperatures
Source: J. Chem. Eng. Data, 2011, 10.1021/je200239p
Compound 1: azadirachtin, C35H44O16
Compound 2: carbon dioxide, CO2

System: azadirachtin; phases: Crystal, Liquid, Air at 1 atmosphere
Property: Normal melting temperature, K (Crystal); method: Visual observation
Normal melting temperature, K	uncertainty
447.15	1

System: carbon dioxide + azadirachtin; phases: Fluid (supercritical or subcritical phases), Crystal
Property: Mole fraction of azadirachtin (Fluid (supercritical or subcritical phases)); method: Chromatography
Temperature, K	Pressure, kPa	Mole fraction of azadirachtin	uncertainty
308.15	10000	.0000021	.000000042
308.15	12000	.0000026	.000000052
308.15	14000	.000003	.00000006
308.15	16000	.0000034	.000000068
308.15	18000	.0000036	.000000072
308.15	20000	.0000041	.000000082
308.15	22000	.0000043	.000000086
308.15	24000	.0000045	.00000009
308.15	26000	.0000048	.000000096
313.15	10000	.0000019	.000000038
313.15	12000	.0000029	.000000058
313.15	14000	.0000036	.000000072
313.15	16000	.0000042	.000000084
313.15	18000	.0000046	.000000092
313.15	20000	.0000051	.000000102
313.15	22000	.0000055	.00000011
313.15	24000	.0000058	.000000116
313.15	26000	.0000061	.000000122
318.15	10000	.0000016	.000000032
318.15	12000	.0000031	.000000062
318.15	14000	.0000042	.000000084
318.15	16000	.0000048	.000000096
318.15	18000	.0000057	.000000114
318.15	20000	.0000063	.000000126
318.15	22000	.0000068	.000000136
318.15	24000	.0000073	.000000146
318.15	26000	.0000078	.000000156
323.15	10000	.0000013	.000000026
323.15	12000	.0000031	.000000062
323.15	14000	.0000046	.000000092
323.15	16000	.0000058	.000000116
323.15	18000	.0000068	.000000136
323.15	20000	.0000076	.000000152
323.15	22000	.0000084	.000000168
323.15	24000	.0000091	.000000182
323.15	26000	.0000098	.000000196
328.15	10000	.0000012	.000000024
328.15	12000	.000003	.00000006
328.15	14000	.000005	.0000001
328.15	16000	.0000066	.000000132
328.15	18000	.000008	.00000016
328.15	20000	.0000091	.000000182
328.15	22000	.0000102	.000000204
328.15	24000	.0000113	.000000226
328.15	26000	.0000122	.000000244
333.15	10000	.0000012	.000000024
333.15	12000	.0000029	.000000058
333.15	14000	.0000053	.000000106
333.15	16000	.0000074	.000000148
333.15	18000	.0000093	.000000186
333.15	20000	.0000109	.000000218
333.15	22000	.0000124	.000000248
333.15	24000	.0000137	.000000274
333.15	26000	.0000149	.000000298
