Measured thermophysical data. Isobaric Low-Pressure Vapor Liquid Equilibrium Data for Ethylbenzene + Styrene + Sulfolane and the Three Constituent Binary Systems
Source: J. Chem. Eng. Data, 2011, 10.1021/je200098d
Compound 1: styrene, C8H8, purity 99.5%
Compound 2: ethylbenzene, C8H10, purity 99%
Compound 3: sulfolane, C4H8O2S, purity 98%

System: styrene; phases: Liquid, Gas
Property: Vapor or sublimation pressure, kPa (Liquid); method: Ebulliometric method (Recirculating still)
Temperature, K	Vapor or sublimation pressure, kPa	uncertainty
332.4	5	
341.4	7.5	
348.3	10	
353.9	12.5	
358.5	15	
362.6	17.5	
366.2	20	
369.4	22.5	
372.4	25	

System: ethylbenzene; phases: Liquid, Gas
Property: Vapor or sublimation pressure, kPa (Liquid); method: Ebulliometric method (Recirculating still)
Temperature, K	Vapor or sublimation pressure, kPa	uncertainty
324.4	5	
333.4	7.5	
340	10	
345.5	12.5	
350.1	15	
354.1	17.5	
357.7	20	
360.9	22.5	
363.8	25	

System: ethylbenzene + styrene; phases: Liquid, Gas
Property: Boiling temperature at pressure P, K (Liquid); method: Ebulliometric method (Recirculating still)
Mole fraction of ethylbenzene	Pressure, kPa	Boiling temperature at pressure P, K	uncertainty
.026	5	332.3	.1
.051	5	332.1	.1
.089	5	331.5	.1
.181	5	330.5	.1
.264	5	329.5	.1
.349	5	329.1	.1
.475	5	327.9	.1
.571	5	327	.1
.676	5	326.3	.1
.784	5	325.5	.1
.877	5	325	.1
.938	5	324.5	.1
.026	10	348.2	.1
.051	10	347.9	.1
.084	10	347.6	.1
.178	10	346.6	.1
.281	10	345.7	.1
.376	10	344.7	.1
.478	10	344	.1
.574	10	343.2	.1
.67	10	342.4	.1
.775	10	341.5	.1
.834	10	341.1	.1
.937	10	340.3	.1
.026	20	366	.1
.05	20	365.7	.1
.084	20	365.4	.1
.176	20	364.5	.1
.279	20	363.5	.1
.374	20	362.5	.1
.476	20	361.8	.1
.575	20	360.9	.1
.667	20	360	.1
.774	20	359.2	.1
.834	20	358.8	.1
.937	20	358	.1

System: ethylbenzene + styrene; phases: Gas, Liquid
Property: Mole fraction of ethylbenzene (Gas); method: Chromatography
Mole fraction of ethylbenzene	Pressure, kPa	Mole fraction of ethylbenzene	uncertainty
.026	5	.037	.002
.051	5	.074	.002
.089	5	.126	.002
.181	5	.245	.002
.264	5	.346	.002
.349	5	.44	.002
.475	5	.569	.002
.571	5	.658	.002
.676	5	.752	.002
.784	5	.841	.002
.877	5	.91	.002
.938	5	.953	.002
.026	10	.037	.002
.051	10	.073	.002
.084	10	.118	.002
.178	10	.239	.002
.281	10	.36	.002
.376	10	.466	.002
.478	10	.565	.002
.574	10	.656	.002
.67	10	.739	.002
.775	10	.828	.002
.834	10	.874	.002
.937	10	.951	.002
.026	20	.036	.002
.05	20	.07	.002
.084	20	.114	.002
.176	20	.233	.002
.279	20	.35	.002
.374	20	.455	.002
.476	20	.558	.002
.575	20	.653	.002
.667	20	.735	.002
.774	20	.824	.002
.834	20	.871	.002
.937	20	.949	.002

System: ethylbenzene + sulfolane; phases: Liquid, Gas
Property: Boiling temperature at pressure P, K (Liquid); method: Ebulliometric method (Recirculating still)
Mole fraction of ethylbenzene	Pressure, kPa	Boiling temperature at pressure P, K	uncertainty
.089	5	343.6	.1
.202	5	329.6	.1
.258	5	326.9	.1
.348	5	325.9	.1
.429	5	325.9	.1
.517	5	325.9	.1
.65	5	325.8	.1
.737	5	325.5	.1
.829	5	325.3	.1
.908	5	325	.1
.088	10	361.5	.1
.201	10	344.8	.1
.257	10	342.2	.1
.348	10	341.1	.1
.431	10	341	.1
.512	10	340.8	.1
.651	10	340.7	.1
.74	10	340.6	.1
.831	10	340.5	.1
.912	10	340.4	.1
.092	20	379.4	.1
.197	20	361.4	.1
.257	20	360.3	.1
.347	20	358.4	.1
.43	20	358.4	.1
.515	20	358.3	.1
.65	20	358.4	.1
.741	20	358.2	.1
.833	20	357.9	.1
.913	20	357.8	.1

System: ethylbenzene + sulfolane; phases: Gas, Liquid
Property: Mole fraction of ethylbenzene (Gas); method: Chromatography
Mole fraction of ethylbenzene	Pressure, kPa	Mole fraction of ethylbenzene	uncertainty
.089	5	.9938	.002
.202	5	.9979	.002
.258	5	.9984	.002
.348	5	.9987	.002
.429	5	.9989	.002
.517	5	.9991	.002
.65	5	.9993	.002
.737	5	.9995	.002
.829	5	.9997	.002
.908	5	.9998	.002
.088	10	.9938	.002
.201	10	.9971	.002
.257	10	.9977	.002
.348	10	.9981	.002
.431	10	.9984	.002
.512	10	.9986	.002
.651	10	.999	.002
.74	10	.9993	.002
.831	10	.9995	.002
.912	10	.9998	.002
.092	20	.9878	.002
.197	20	.9959	.002
.257	20	.9965	.002
.347	20	.9972	.002
.43	20	.9976	.002
.515	20	.998	.002
.65	20	.9985	.002
.741	20	.9989	.002
.833	20	.9993	.002
.913	20	.9996	.002

System: styrene + sulfolane; phases: Liquid, Gas
Property: Boiling temperature at pressure P, K (Liquid); method: Ebulliometric method (Recirculating still)
Mole fraction of styrene	Pressure, kPa	Boiling temperature at pressure P, K	uncertainty
.089	5	358.6	.1
.207	5	344.3	.1
.264	5	341.4	.1
.358	5	338.9	.1
.459	5	337.1	.1
.534	5	335.4	.1
.662	5	334.8	.1
.76	5	334.4	.1
.844	5	333.7	.1
.923	5	333.2	.1
.077	10	380.3	.1
.207	10	357.5	.1
.263	10	355.9	.1
.357	10	354.3	.1
.463	10	350.8	.1
.531	10	349.6	.1
.663	10	349.1	.1
.762	10	348.9	.1
.843	10	348.6	.1
.922	10	348.4	.1
.075	20	398.4	.1
.207	20	373.2	.1
.263	20	372.5	.1
.357	20	370.7	.1
.464	20	368.2	.1
.532	20	367.4	.1
.664	20	366.9	.1
.76	20	366.4	.1
.843	20	366.3	.1
.92	20	366.2	.1

System: styrene + sulfolane; phases: Gas, Liquid
Property: Mole fraction of styrene (Gas); method: Chromatography
Mole fraction of styrene	Pressure, kPa	Mole fraction of styrene	uncertainty
.089	5	.9844	.002
.207	5	.9944	.002
.264	5	.9957	.002
.358	5	.9968	.002
.459	5	.9976	.002
.534	5	.9982	.002
.662	5	.9987	.002
.76	5	.9991	.002
.844	5	.9995	.002
.923	5	.9997	.002
.077	10	.9739	.002
.207	10	.9936	.002
.263	10	.9946	.002
.357	10	.9957	.002
.463	10	.9971	.002
.531	10	.9977	.002
.663	10	.9984	.002
.762	10	.9989	.002
.843	10	.9993	.002
.922	10	.9996	.002
.075	20	.9686	.002
.207	20	.9923	.002
.263	20	.9931	.002
.357	20	.9957	.002
.464	20	.996	.002
.532	20	.9967	.002
.664	20	.9977	.002
.76	20	.9984	.002
.843	20	.999	.002
.92	20	.9995	.002

System: ethylbenzene + styrene + sulfolane; phases: Liquid, Gas
Property: Mole fraction of styrene (Liquid); method: Chromatography
Property: Mole fraction of ethylbenzene (Gas); method: Chromatography
Property: Mole fraction of styrene (Gas); method: Chromatography
Temperature, K	Pressure, kPa	Mole fraction of ethylbenzene	Mole fraction of styrene	uncertainty	Mole fraction of ethylbenzene	uncertainty	Mole fraction of styrene	uncertainty
332.2	5	.119	.406	.002	.3609	.002	.6376	.002
329.5	5	.253	.273	.002	.6427	.002	.3561	.002
326.9	5	.413	.107	.002	.8797	.002	.1193	.002
335.2	5	.077	.274	.002	.3665	.002	.6311	.002
331.2	5	.167	.187	.002	.6519	.002	.3463	.002
328	5	.276	.074	.002	.8868	.002	.1117	.002
337.4	5	.059	.203	.002	.378	.002	.6187	.002
333.1	5	.121	.137	.002	.6565	.002	.341	.002
328.8	5	.204	.056	.002	.8927	.002	.1055	.002
341.9	5	.042	.163	.002	.3635	.002	.6317	.002
337.4	5	.094	.11	.002	.6589	.002	.3376	.002
332.6	5	.157	.045	.002	.8857	.002	.1118	.002
347.4	10	.12	.405	.002	.3517	.002	.6463	.002
345.1	10	.254	.269	.002	.6297	.002	.3685	.002
342.7	10	.415	.108	.002	.8732	.002	.1253	.002
350.5	10	.077	.273	.002	.3596	.002	.637	.002
346.8	10	.164	.185	.002	.6437	.002	.3536	.002
343.2	10	.276	.074	.002	.8827	.002	.1152	.002
352.5	10	.059	.203	.002	.3677	.002	.628	.002
348.6	10	.122	.137	.002	.646	.002	.3506	.002
344.2	10	.202	.055	.002	.8877	.002	.1097	.002
355	10	.042	.164	.002	.3534	.002	.6411	.002
350.9	10	.094	.111	.002	.6467	.002	.349	.002
347.3	10	.157	.047	.002	.8797	.002	.1169	.002
364.8	20	.118	.403	.002	.3394	.002	.6577	.002
362.5	20	.251	.275	.002	.6173	.002	.3801	.002
360	20	.414	.106	.002	.8673	.002	.1305	.002
366.9	20	.076	.271	.002	.3461	.002	.6494	.002
363.3	20	.164	.185	.002	.6274	.002	.3689	.002
360.4	20	.276	.073	.002	.8746	.002	.1223	.002
369.2	20	.058	.201	.002	.3505	.002	.6438	.002
366.4	20	.121	.138	.002	.6282	.002	.3669	.002
362.7	20	.202	.056	.002	.878	.002	.118	.002
369.8	20	.042	.16	.002	.3418	.002	.6517	.002
366.7	20	.096	.109	.002	.6332	.002	.3614	.002
363.2	20	.157	.045	.002	.8704	.002	.1251	.002
