Measured thermophysical data. Physical Properties of Piperazine (PZ) Activated Aqueous Solutions of 2-  Amino-2-hydroxymethyl-1, 3-propanediol (AHPD + PZ)
Source: J. Chem. Eng. Data, 2012, 10.1021/je2008523
Compound 1: 1,3-propanediol, 2-amino-2-(hydroxymethyl)-, C4H11NO3, purity 99.99%
Compound 2: diethylenediamine, C4H10N2
Compound 3: diethanolamine, N-methyl-, C5H13NO2
Compound 4: water, H2O

System: diethanolamine, N-methyl-; phases: Liquid
Fixed: Pressure, kPa = 101.325
Property: Mass density, kg/m3 (Liquid); method: Vibrating tube method
Temperature, K	Mass density, kg/m3	uncertainty
298.15	1038.109	.03

System: diethanolamine, N-methyl-; phases: Liquid
Fixed: Pressure, kPa = 101.325
Property: Refractive index (Na D-line) (Liquid); method: Standard Abbe refractometry
Temperature, K	Refractive index (Na D-line)	uncertainty
303.15	1.46008	.00005

System: diethanolamine, N-methyl-; phases: Liquid
Fixed: Pressure, kPa = 101.325
Property: Viscosity, Pa*s (Liquid); method: Capillary tube (Ostwald; Ubbelohde) method
Temperature, K	Viscosity, Pa*s	uncertainty
298.15	.07709	

System: diethanolamine, N-methyl-; phases: Liquid, Air at 1 atmosphere
Property: Surface tension liquid-gas, N/m (Liquid); method: Pendant drop shape
Temperature, K	Surface tension liquid-gas, N/m	uncertainty
303.15	.03826	.00005

System: 1,3-propanediol, 2-amino-2-(hydroxymethyl)- + diethylenediamine + water; phases: Liquid
Fixed: Pressure, kPa = 101
Property: Mass density, kg/m3 (Liquid); method: Vibrating tube method
Temperature, K	Mass fraction of 1,3-propanediol, 2-amino-2-(hydroxymethyl)-	Mass fraction of diethylenediamine	Mass density, kg/m3	uncertainty
303.15	.13	.0174	1030.37	.03
308.15	.13	.0174	1028.2	.03
313.15	.13	.0174	1026.17	.03
318.15	.13	.0174	1023.96	.03
323.15	.13	.0174	1021.61	.03
328.15	.13	.0174	1019.12	.03
333.15	.13	.0174	1016.88	.03
303.15	.13	.0688	1033.86	.03
308.15	.13	.0688	1031.49	.03
313.15	.13	.0688	1029.35	.03
318.15	.13	.0688	1027.07	.03
323.15	.13	.0688	1024.64	.03
328.15	.13	.0688	1022.07	.03
333.15	.13	.0688	1019.57	.03
303.15	.13	.1035	1034.94	.03
308.15	.13	.1035	1032.78	.03
313.15	.13	.1035	1030.56	.03
318.15	.13	.1035	1028.19	.03
323.15	.13	.1035	1025.68	.03
328.15	.13	.1035	1023.05	.03
333.15	.13	.1035	1020.48	.03
303.15	.19	.0174	1046.03	.03
308.15	.19	.0174	1044.05	.03
313.15	.19	.0174	1041.92	.03
318.15	.19	.0174	1039.63	.03
323.15	.19	.0174	1037.08	.03
328.15	.19	.0174	1033.82	.03
333.15	.19	.0174	1030.74	.03
303.15	.19	.0688	1049.33	.03
308.15	.19	.0688	1047.22	.03
313.15	.19	.0688	1044.96	.03
318.15	.19	.0688	1042.55	.03
323.15	.19	.0688	1040.02	.03
328.15	.19	.0688	1037.38	.03
333.15	.19	.0688	1034.6	.03
303.15	.19	.1035	1051.59	.03
308.15	.19	.1035	1049.38	.03
313.15	.19	.1035	1047.02	.03
318.15	.19	.1035	1044.55	.03
323.15	.19	.1035	1041.93	.03
328.15	.19	.1035	1039.2	.03
333.15	.19	.1035	1036.35	.03
303.15	.25	.0174	1063.38	.03
308.15	.25	.0174	1061.21	.03
313.15	.25	.0174	1058.97	.03
318.15	.25	.0174	1056.59	.03
323.15	.25	.0174	1054.07	.03
328.15	.25	.0174	1051.45	.03
333.15	.25	.0174	1048.86	.03
303.15	.25	.0688	1066.24	.03
308.15	.25	.0688	1064.06	.03
313.15	.25	.0688	1061.69	.03
318.15	.25	.0688	1059.19	.03
323.15	.25	.0688	1056.58	.03
328.15	.25	.0688	1053.85	.03
333.15	.25	.0688	1051	.03
303.15	.25	.1035	1068.8	.03
308.15	.25	.1035	1066.49	.03
313.15	.25	.1035	1064.02	.03
318.15	.25	.1035	1061.43	.03
323.15	.25	.1035	1058.71	.03
328.15	.25	.1035	1055.9	.03
333.15	.25	.1035	1052.98	.03

System: 1,3-propanediol, 2-amino-2-(hydroxymethyl)- + diethylenediamine + water; phases: Liquid
Fixed: Pressure, kPa = 101
Property: Viscosity, Pa*s (Liquid); method: Capillary tube (Ostwald; Ubbelohde) method
Temperature, K	Mass fraction of 1,3-propanediol, 2-amino-2-(hydroxymethyl)-	Mass fraction of diethylenediamine	Viscosity, Pa*s	uncertainty
303.15	.13	.0174	.00172	
308.15	.13	.0174	.00158	
313.15	.13	.0174	.00144	
318.15	.13	.0174	.00133	
323.15	.13	.0174	.00122	
333.15	.13	.0174	.00112	
303.15	.13	.0688	.00188	
308.15	.13	.0688	.00172	
313.15	.13	.0688	.00159	
318.15	.13	.0688	.00145	
323.15	.13	.0688	.00132	
333.15	.13	.0688	.00121	
303.15	.13	.1035	.00204	
308.15	.13	.1035	.00191	
313.15	.13	.1035	.00177	
318.15	.13	.1035	.00164	
323.15	.13	.1035	.00152	
333.15	.13	.1035	.00142	
303.15	.19	.0174	.00219	
308.15	.19	.0174	.00202	
313.15	.19	.0174	.00185	
318.15	.19	.0174	.00171	
323.15	.19	.0174	.00157	
333.15	.19	.0174	.00144	
303.15	.19	.0688	.00238	
308.15	.19	.0688	.00224	
313.15	.19	.0688	.00209	
318.15	.19	.0688	.00194	
323.15	.19	.0688	.0018	
333.15	.19	.0688	.00167	
303.15	.19	.1035	.00264	
308.15	.19	.1035	.00245	
313.15	.19	.1035	.00227	
318.15	.19	.1035	.00211	
323.15	.19	.1035	.00194	
333.15	.19	.1035	.00178	
303.15	.25	.0174	.00295	
308.15	.25	.0174	.00271	
313.15	.25	.0174	.00248	
318.15	.25	.0174	.00228	
323.15	.25	.0174	.00208	
333.15	.25	.0174	.00189	
303.15	.25	.0688	.00336	
308.15	.25	.0688	.00316	
313.15	.25	.0688	.00295	
318.15	.25	.0688	.00273	
323.15	.25	.0688	.00256	
333.15	.25	.0688	.00239	
303.15	.25	.1035	.00358	
308.15	.25	.1035	.00341	
313.15	.25	.1035	.00324	
318.15	.25	.1035	.00309	
323.15	.25	.1035	.00295	
333.15	.25	.1035	.00278	

System: 1,3-propanediol, 2-amino-2-(hydroxymethyl)- + diethylenediamine + water; phases: Liquid
Fixed: Pressure, kPa = 101
Property: Refractive index (Na D-line) (Liquid); method: Standard Abbe refractometry
Temperature, K	Mass fraction of 1,3-propanediol, 2-amino-2-(hydroxymethyl)-	Mass fraction of diethylenediamine	Refractive index (Na D-line)	uncertainty
298.15	.13	.0174	1.35802	.00005
303.15	.13	.0174	1.35708	.00005
308.15	.13	.0174	1.35629	.00005
313.15	.13	.0174	1.35563	.00005
318.15	.13	.0174	1.35477	.00005
323.15	.13	.0174	1.35449	.00005
333.15	.13	.0174	1.35344	.00005
298.15	.13	.0688	1.36808	.00005
303.15	.13	.0688	1.36694	.00005
308.15	.13	.0688	1.36632	.00005
313.15	.13	.0688	1.36569	.00005
318.15	.13	.0688	1.36499	.00005
323.15	.13	.0688	1.36445	.00005
333.15	.13	.0688	1.36389	.00005
298.15	.13	.1035	1.37399	.00005
303.15	.13	.1035	1.37284	.00005
308.15	.13	.1035	1.37198	.00005
313.15	.13	.1035	1.37146	.00005
318.15	.13	.1035	1.37066	.00005
323.15	.13	.1035	1.36976	.00005
333.15	.13	.1035	1.36904	.00005
298.15	.19	.0174	1.36741	.00005
303.15	.19	.0174	1.36675	.00005
308.15	.19	.0174	1.36587	.00005
313.15	.19	.0174	1.36556	.00005
318.15	.19	.0174	1.36467	.00005
323.15	.19	.0174	1.36429	.00005
333.15	.19	.0174	1.36365	.00005
298.15	.19	.0688	1.37547	.00005
303.15	.19	.0688	1.37399	.00005
308.15	.19	.0688	1.37295	.00005
313.15	.19	.0688	1.37198	.00005
318.15	.19	.0688	1.37083	.00005
323.15	.19	.0688	1.36982	.00005
333.15	.19	.0688	1.36921	.00005
298.15	.19	.1035	1.37921	.00005
303.15	.19	.1035	1.37841	.00005
308.15	.19	.1035	1.37778	.00005
313.15	.19	.1035	1.37748	.00005
318.15	.19	.1035	1.37688	.00005
323.15	.19	.1035	1.37636	.00005
333.15	.19	.1035	1.37551	.00005
298.15	.25	.0174	1.37727	.00005
303.15	.25	.0174	1.37628	.00005
308.15	.25	.0174	1.37568	.00005
313.15	.25	.0174	1.37491	.00005
318.15	.25	.0174	1.37398	.00005
323.15	.25	.0174	1.37351	.00005
333.15	.25	.0174	1.37237	.00005
298.15	.25	.0688	1.38694	.00005
303.15	.25	.0688	1.38601	.00005
308.15	.25	.0688	1.38541	.00005
313.15	.25	.0688	1.38456	.00005
318.15	.25	.0688	1.38385	.00005
323.15	.25	.0688	1.38315	.00005
333.15	.25	.0688	1.38241	.00005
298.15	.25	.1035	1.39411	.00005
303.15	.25	.1035	1.39283	.00005
308.15	.25	.1035	1.39201	.00005
313.15	.25	.1035	1.39129	.00005
318.15	.25	.1035	1.39028	.00005
323.15	.25	.1035	1.38969	.00005
333.15	.25	.1035	1.38857	.00005

System: 1,3-propanediol, 2-amino-2-(hydroxymethyl)- + diethylenediamine + water; phases: Liquid, Air at 1 atmosphere
Property: Surface tension liquid-gas, N/m (Liquid); method: Pendant drop shape
Temperature, K	Mass fraction of 1,3-propanediol, 2-amino-2-(hydroxymethyl)-	Mass fraction of diethylenediamine	Surface tension liquid-gas, N/m	uncertainty
303.15	.13	.0174	.05545	.00005
308.15	.13	.0174	.05466	.00005
313.15	.13	.0174	.05373	.00005
318.15	.13	.0174	.05285	.00005
323.15	.13	.0174	.05181	.00005
333.15	.13	.0174	.05001	.00005
303.15	.13	.0688	.05321	.00005
308.15	.13	.0688	.05211	.00005
313.15	.13	.0688	.05119	.00005
318.15	.13	.0688	.05029	.00005
323.15	.13	.0688	.04904	.00005
333.15	.13	.0688	.04735	.00005
303.15	.13	.1035	.05282	.00005
308.15	.13	.1035	.05169	.00005
313.15	.13	.1035	.05044	.00005
318.15	.13	.1035	.04952	.00005
323.15	.13	.1035	.04825	.00005
333.15	.13	.1035	.04641	.00005
303.15	.19	.0174	.05178	.00005
308.15	.19	.0174	.05064	.00005
313.15	.19	.0174	.04989	.00005
318.15	.19	.0174	.04906	.00005
323.15	.19	.0174	.04803	.00005
333.15	.19	.0174	.04619	.00005
303.15	.19	.0688	.04921	.00005
308.15	.19	.0688	.04842	.00005
313.15	.19	.0688	.04741	.00005
318.15	.19	.0688	.04639	.00005
323.15	.19	.0688	.04551	.00005
333.15	.19	.0688	.04367	.00005
303.15	.19	.1035	.04811	.00005
308.15	.19	.1035	.04715	.00005
313.15	.19	.1035	.04635	.00005
318.15	.19	.1035	.04547	.00005
323.15	.19	.1035	.04461	.00005
333.15	.19	.1035	.04309	.00005
303.15	.25	.0174	.04801	.00005
308.15	.25	.0174	.04699	.00005
313.15	.25	.0174	.04614	.00005
318.15	.25	.0174	.04532	.00005
323.15	.25	.0174	.04442	.00005
333.15	.25	.0174	.04285	.00005
303.15	.25	.0688	.04727	.00005
308.15	.25	.0688	.04632	.00005
313.15	.25	.0688	.04541	.00005
318.15	.25	.0688	.04462	.00005
323.15	.25	.0688	.04348	.00005
333.15	.25	.0688	.04183	.00005
303.15	.25	.1035	.04611	.00005
308.15	.25	.1035	.04515	.00005
313.15	.25	.1035	.04429	.00005
318.15	.25	.1035	.04355	.00005
323.15	.25	.1035	.04287	.00005
333.15	.25	.1035	.04144	.00005
