Measured thermophysical data. (p, rho, T) Behavior of Two Mixtures of Carbon Monoxide with Nitrogen in the Temperature Range from (250 to 400) K and Pressures up to 20 MPa
Source: J. Chem. Eng. Data, 2011, 10.1021/je2007764
Compound 1: nitrogen, N2, purity 99.9995%
Compound 2: carbon monoxide, CO, purity 99.9985%

System: carbon monoxide + nitrogen; phases: Fluid (supercritical or subcritical phases)
Fixed: Mole fraction of carbon monoxide = .04999
Property: Mass density, kg/m3 (Fluid (supercritical or subcritical phases)); method: Buoyancy - hydrostatic balance with magnetic suspension - one sinker
Temperature, K	Pressure, kPa	Mass density, kg/m3	uncertainty
250.049	18473.9	250.84	.301008
250.049	17999.4	245.259	.2943108
250.045	15999.7	220.89	.265068
250.047	14003.6	195.251	.2343012
250.049	11998.5	168.354	.2020248
250.051	9999.83	140.653	.1687836
250.047	7998.53	112.326	.1347912
250.045	6016.94	84.044	.1008528
250.044	4009.94	55.503	.0666036
250.043	1999.03	27.34	.032808
250.041	996.97	13.537	.0162444
275.023	19917.4	235.882	.2830584
275.023	18197.7	218.123	.2617476
275.021	15997.1	194.336	.2332032
275.023	13997.3	171.74	.206088
275.023	11999.3	148.339	.1780068
275.03	10062.2	124.995	.149994
275.029	8036.6	100.073	.1200876
275.029	6038.62	75.17	.090204
275.023	4000.07	49.643	.0595716
275.02	1995.95	24.643	.0295716
275.02	990.786	12.187	.0146244
299.978	19956.9	212.314	.2547768
299.977	17996.7	193.879	.2326548
299.977	15996.7	174.35	.20922
299.957	14954.1	163.889	.1966668
299.98	13997.3	154.113	.1849356
299.962	12997.5	143.747	.1724964
299.975	11888.8	132.063	.1584756
299.962	10999.5	122.587	.1471044
299.972	10017.1	111.971	.1343652
299.962	9086.52	101.826	.1221912
299.974	8024.82	90.132	.1081584
299.962	6998.26	78.744	.0944928
299.972	6020.19	67.811	.0813732
299.962	4997.95	56.34	.067608
299.972	3975	44.812	.0537744
299.961	2981.89	33.609	.0403308
299.971	1993.43	22.457	.0269484
299.962	1003.76	11.294	.0135528
299.971	986.706	11.101	.0133212
324.983	19930.9	193.033	.2316396
324.983	17995.2	176.379	.2116548
324.982	15956.9	158.239	.1898868
324.985	14115.6	141.303	.1695636
324.974	13743.2	137.825	.16539
324.975	12999.1	130.817	.1569804
324.984	12000	121.293	.1455516
324.977	10996.6	111.619	.1339428
324.983	10006.6	101.939	.1223268
324.979	8998.69	91.988	.1103856
324.984	7991.04	81.935	.098322
324.978	7025.77	72.228	.0866736
324.983	5960.77	61.428	.0737136
324.978	4979.96	51.417	.0617004
324.984	4008.52	41.449	.0497388
324.978	2991.27	30.967	.0371604
324.982	1981.29	20.531	.0246372
324.984	996.209	10.328	.0123936
349.969	19655.4	175.42	.210504
349.969	17992.5	162.172	.1946064
349.97	15994.4	145.784	.1749408
349.97	13997.2	128.911	.1546932
349.97	12018.1	111.731	.1340772
349.97	10022	93.976	.1127712
349.969	8018.56	75.757	.0909084
349.968	5998.17	57.037	.0684444
349.971	4004.81	38.283	.0459396
349.97	1958.95	18.808	.0225696
349.97	991.177	9.53	.011436
374.959	19816.6	163.859	.1966308
374.959	17987.5	150.312	.1803744
374.959	15990	135.101	.1621212
374.959	13994.6	119.477	.1433724
374.959	11995.5	103.411	.1240932
374.958	9995.98	86.957	.1043484
374.96	7996.54	70.138	.0841656
374.958	5997.91	52.996	.0635952
374.959	3998.5	35.556	.0426672
374.959	1989.27	17.794	.0213528
374.959	991.138	8.887	.0106644
400.02	19026.6	147.507	.1770084
400.019	17985.3	140.246	.1682952
400.02	15986	126.014	.1512168
400.019	13989.7	111.428	.1337136
400.019	11991.5	96.459	.1157508
400.019	9973.24	80.982	.0971784
400.021	7996.62	65.491	.0785892
400.019	5998.03	49.518	.0594216
400.02	3986.33	33.151	.0397812
400.02	1934.45	16.2	.01944

System: carbon monoxide + nitrogen; phases: Fluid (supercritical or subcritical phases)
Fixed: Mole fraction of carbon monoxide = .10018
Property: Mass density, kg/m3 (Fluid (supercritical or subcritical phases)); method: Buoyancy - hydrostatic balance with magnetic suspension - one sinker
Temperature, K	Pressure, kPa	Mass density, kg/m3	uncertainty
250.06	19962.4	268.002	.3216024
250.06	17999.6	245.432	.2945184
250.055	16706.4	229.835	.275802
250.059	15998.7	221.035	.265242
250.051	15003	208.407	.2500884
250.061	13998.5	195.325	.23439
250.053	13033.3	182.506	.2190072
250.063	11998.2	168.471	.2021652
250.051	11000.9	154.742	.1856904
250.056	9998.83	140.734	.1688808
250.05	8999.03	126.622	.1519464
250.055	7998.32	112.391	.1348692
250.057	6999.06	98.128	.1177536
250.056	5999.26	83.836	.1006032
250.056	5043.18	70.198	.0842376
250.054	3998.85	55.373	.0664476
250.056	3032.94	41.76	.050112
250.053	2004.26	27.416	.0328992
250.053	999.785	13.577	.0162924
250.051	969.128	13.157	.0157884
275.024	19887.6	235.72	.282864
275.024	17997.1	216.135	.259362
275.024	15997.7	194.459	.2333508
275.022	14000.7	171.88	.206256
275.019	12004.2	148.483	.1781796
275.018	9999.54	124.305	.149166
275.015	7999.41	99.667	.1196004
275.014	5998.9	74.708	.0896496
275.012	3998.49	49.641	.0595692
275.012	1984.43	24.502	.0294024
275.011	997.907	12.276	.0147312
299.977	19829.6	211.228	.2534736
299.976	17998.6	193.977	.2327724
299.975	16108.6	175.535	.210642
299.974	15370.4	168.159	.2017908
299.973	14807	162.461	.1949532
299.972	13997.2	154.176	.1850112
299.972	13002.6	143.858	.1726296
299.972	11999	133.29	.159948
299.972	11007.5	122.717	.1472604
299.973	9997.14	111.8	.13416
299.969	9073.66	101.718	.1220616
299.976	7997.52	89.866	.1078392
299.971	7033.98	79.163	.0949956
299.974	5999.23	67.6	.08112
299.969	5020.84	56.608	.0679296
299.972	3998.43	45.092	.0541104
299.969	2993.57	33.744	.0404928
299.972	1989.75	22.417	.0269004
299.972	1001.94	11.274	.0135288
299.971	992.979	11.173	.0134076
324.978	19947.5	193.262	.2319144
324.977	17995.6	176.463	.2117556
324.978	15994.6	158.639	.1903668
324.977	13996.1	140.254	.1683048
324.977	11997	121.32	.145584
324.978	9998.72	101.905	.122286
324.976	7999.37	82.05	.09846
324.977	5999.98	61.847	.0742164
324.976	3998.5	41.357	.0496284
324.976	1970.22	20.421	.0245052
324.977	997.476	10.342	.0124104
349.966	19959.2	177.859	.2134308
349.964	18214	164	.1968
349.966	17991.7	162.217	.1946604
349.965	16994.3	154.09	.184908
349.968	15993.9	145.829	.1749948
349.965	14995.6	137.446	.1649352
349.968	13994.9	128.938	.1547256
349.965	12999	120.335	.144402
349.968	11997	111.586	.1339032
349.963	10998.3	102.742	.1232904
349.969	9998.26	93.794	.1125528
349.963	8997.6	84.725	.10167
349.968	7998.94	75.601	.0907212
349.963	6997.88	66.355	.079626
349.968	5997.72	57.048	.0684576
349.962	4997.89	47.663	.0571956
349.967	3922.47	37.508	.0450096
349.964	2999.18	28.731	.0344772
349.967	1978.83	18.999	.0227988
349.967	993.387	9.551	.0114612
349.963	991.956	9.538	.0114456
374.957	19971.3	165.047	.1980564
374.954	19966.6	165.012	.1980144
374.956	18987.5	157.82	.189384
374.956	17986.7	150.362	.1804344
374.955	16990.4	142.823	.1713876
374.957	15990.4	135.151	.1621812
374.955	15015.9	127.569	.1530828
374.957	13992.6	119.504	.1434048
374.954	12993.8	111.524	.1338288
374.957	11987.6	103.381	.1240572
374.955	10995.2	95.265	.114318
374.957	9997.9	86.999	.1043988
374.955	8997.39	78.624	.0943488
374.956	8024.23	70.391	.0844692
374.955	6997.62	61.627	.0739524
374.958	5998.98	53.019	.0636228
374.955	4980.94	44.17	.053004
374.956	4004.84	35.621	.0427452
374.955	2998.23	26.743	.0320916
374.955	1995.01	17.848	.0214176
374.957	993.407	8.908	.0106896
400.031	18458.2	143.591	.1723092
400.021	17981.9	140.257	.1683084
400.02	16227.1	127.785	.153342
400.022	15986	126.048	.1512576
400.02	14987.9	118.8	.14256
400.019	13990.1	111.464	.1337568
400.019	12990.7	104.017	.1248204
400.022	11994.2	96.505	.115806
400.019	11024.9	89.118	.1069416
400.021	9895.49	80.402	.0964824
400.018	8986.97	73.307	.0879684
400.018	7994.64	65.495	.078594
400.02	7005.5	57.622	.0691464
400.017	5996.15	49.523	.0594276
400.021	4997.06	41.415	.049698
400.019	3997.28	33.254	.0399048
400.02	2994.26	24.985	.029982
400.02	1975.47	16.545	.019854
400.017	997.158	8.375	.01005
400.02	984.405	8.268	.0099216
