Measured thermophysical data. Densities, Viscosities [from (278.15 to 318.15) K], and Electrical Conductivities (at 298.15 K) of Aqueous Solutions of Choline Chloride and Chloro-Choline Chloride
Source: J. Chem. Eng. Data, 2011, 10.1021/je200856f
Compound 1: choline chloride, C5H14ClNO, purity 98%
Compound 2: (2-chloroethyl)trimethylammonium chloride, C5H13Cl2N, purity 98%
Compound 3: water, H2O, purity 99%

System: choline chloride + water; phases: Liquid
Fixed: Pressure, kPa = 101
Fixed: Temperature, K = 298.15
Property: Electrical conductivity, S/m (Liquid); method: Wheatstone bridge equipment
Molality, mol/kg of choline chloride	Electrical conductivity, S/m	uncertainty
.0272	.279	.001395
.05	.492	.00246
.1	.919	.004595
.25	2.03	.01015
.35	2.67	.01335
.5	3.55	.01775
.65	4.37	.02185
.75	4.79	.02395
.9	5.44	.0272
1.2048	6.54	.0327
1.5047	7.43	.03715
1.9945	8.53	.04265

System: choline chloride + water; phases: Liquid
Fixed: Pressure, kPa = 101
Property: Mass density, kg/m3 (Liquid); method: Vibrating tube method
Temperature, K	Molality, mol/kg of choline chloride	Mass density, kg/m3	uncertainty
278.15	0	999.961	.005
278.15	.054	1000.967	.005
278.15	.1087	1001.952	.005
278.15	.2554	1004.503	.005
278.15	.5004	1008.705	.005
278.15	.6512	1011.014	.005
278.15	.7484	1012.676	.005
278.15	1.203	1019.283	.005
278.15	1.5035	1022.746	.005
278.15	1.9924	1028.852	.005
288.15	0	999.092	.005
288.15	.054	1000.031	.005
288.15	.1087	1000.95	.005
288.15	.2554	1003.333	.005
288.15	.5004	1007.266	.005
288.15	.6512	1009.433	.005
288.15	.7484	1010.996	.005
288.15	1.203	1017.228	.005
288.15	1.5035	1020.505	.005
288.15	1.9924	1026.308	.005
298.15	0	997.036	.005
298.15	.054	997.931	.005
298.15	.1087	998.81	.005
298.15	.2554	1001.088	.005
298.15	.5004	1004.844	.005
298.15	.6512	1006.921	.005
298.15	.7484	1008.42	.005
298.15	1.203	1014.403	.005
298.15	1.5035	1017.56	.005
298.15	1.9924	1023.157	.005
308.15	0	994.023	.005
308.15	.054	994.893	.005
308.15	.1087	995.745	.005
308.15	.2554	997.961	.005
308.15	.5004	1001.614	.005
308.15	.6512	1003.633	.005
308.15	.7484	1005.091	.005
308.15	1.203	1010.921	.005
308.15	1.5035	1014	.005
308.15	1.9924	1019.473	.005
318.15	0	990.206	.005
318.15	.054	991.063	.005
318.15	.1087	991.902	.005
318.15	.2554	994.085	.005
318.15	.5004	997.683	.005
318.15	.6512	999.672	.005
318.15	.7484	1001.109	.005
318.15	1.203	1006.86	.005
318.15	1.5035	1009.901	.005
318.15	1.9924	1015.308	.005

System: choline chloride + water; phases: Liquid
Fixed: Pressure, kPa = 101
Property: Viscosity, Pa*s (Liquid); method: Falling or rolling sphere viscometry
Temperature, K	Molality, mol/kg of choline chloride	Viscosity, Pa*s	uncertainty
278.15	.0293	.001527	.000007635
278.15	.058	.001551	.000007755
278.15	.1113	.001515	.000007575
278.15	.2495	.001577	.000007885
278.15	.3505	.001601	.000008005
278.15	.4956	.001631	.000008155
278.15	.6473	.001695	.000008475
278.15	.7512	.001741	.000008705
278.15	.903	.001762	.00000881
278.15	1.0049	.001791	.000008955
278.15	1.2029	.001862	.00000931
278.15	1.506	.001936	.00000968
278.15	1.9896	.002077	.000010385
288.15	.0293	.001151	.000005755
288.15	.058	.00117	.00000585
288.15	.1113	.001164	.00000582
288.15	.2495	.001192	.00000596
288.15	.3505	.001211	.000006055
288.15	.4956	.001237	.000006185
288.15	.6473	.001287	.000006435
288.15	.7512	.001323	.000006615
288.15	.903	.001342	.00000671
288.15	1.0049	.001364	.00000682
288.15	1.2029	.001417	.000007085
288.15	1.506	.001476	.00000738
288.15	1.9896	.001587	.000007935
298.15	.0293	.000875	.000004375
298.15	.058	.000888	.00000444
298.15	.1113	.000903	.000004515
298.15	.2495	.000908	.00000454
298.15	.3505	.000928	.00000464
298.15	.4956	.00095	.00000475
298.15	.6473	.000984	.00000492
298.15	.7512	.001009	.000005045
298.15	.903	.001023	.000005115
298.15	1.0049	.001043	.000005215
298.15	1.2029	.001082	.00000541
298.15	1.506	.001127	.000005635
298.15	1.9896	.001234	.00000617
308.15	.0293	.000715	.000003575
308.15	.058	.000724	.00000362
308.15	.1113	.000732	.00000366
308.15	.2495	.000746	.00000373
308.15	.3505	.000757	.000003785
308.15	.4956	.000774	.00000387
308.15	.6473	.000811	.000004055
308.15	.7512	.000826	.00000413
308.15	.903	.000835	.000004175
308.15	1.0049	.000854	.00000427
308.15	1.2029	.000884	.00000442
308.15	1.506	.000921	.000004605
308.15	1.9896	.001007	.000005035
318.15	.0293	.000633	.000003165
318.15	.058	.00061	.00000305
318.15	.1113	.000623	.000003115
318.15	.2495	.000638	.00000319
318.15	.3505	.000646	.00000323
318.15	.4956	.000656	.00000328
318.15	.6473	.000694	.00000347
318.15	.7512	.00069	.00000345
318.15	.903	.000702	.00000351
318.15	1.0049	.000721	.000003605
318.15	1.2029	.000747	.000003735
318.15	1.506	.000776	.00000388
318.15	1.9896	.000843	.000004215

System: (2-chloroethyl)trimethylammonium chloride + water; phases: Liquid
Fixed: Pressure, kPa = 101
Fixed: Temperature, K = 298.15
Property: Electrical conductivity, S/m (Liquid); method: Wheatstone bridge equipment
Molality, mol/kg of (2-chloroethyl)trimethylammonium chloride	Electrical conductivity, S/m	uncertainty
.0277	.265	.001325
.0514	.49	.00245
.1003	.898	.00449
.2497	1.97	.00985
.3502	2.58	.0129
.5001	3.36	.0168
.6509	4.1	.0205
.7498	4.51	.02255
.8997	5.07	.02535
.9998	5.42	.0271
1.2117	6.08	.0304
1.507	6.81	.03405
1.998	7.67	.03835

System: (2-chloroethyl)trimethylammonium chloride + water; phases: Liquid
Fixed: Pressure, kPa = 101
Property: Mass density, kg/m3 (Liquid); method: Vibrating tube method
Temperature, K	Molality, mol/kg of (2-chloroethyl)trimethylammonium chloride	Mass density, kg/m3	uncertainty
278.15	.0506	1001.453	.005
278.15	.1009	1002.888	.005
278.15	.2364	1006.793	.005
278.15	.501	1013.917	.005
278.15	.6523	1017.877	.005
278.15	.7529	1020.456	.005
278.15	1.1995	1031.176	.005
278.15	1.4973	1038.126	.005
278.15	1.9862	1048.245	.005
288.15	.0506	1000.522	.005
288.15	.1009	1001.9	.005
288.15	.2364	1005.646	.005
288.15	.501	1012.479	.005
288.15	.6523	1016.276	.005
288.15	.7529	1018.745	.005
288.15	1.1995	1029.024	.005
288.15	1.4973	1035.683	.005
288.15	1.9862	1045.386	.005
298.15	.0506	998.426	.005
298.15	.1009	999.762	.005
298.15	.2364	1003.397	.005
298.15	.501	1010.021	.005
298.15	.6523	1013.698	.005
298.15	.7529	1016.09	.005
298.15	1.1995	1026.042	.005
298.15	1.4973	1032.481	.005
298.15	1.9862	1041.866	.005
308.15	.0506	995.387	.005
308.15	.1009	996.694	.005
308.15	.2364	1000.252	.005
308.15	.501	1006.724	.005
308.15	.6523	1010.315	.005
308.15	.7529	1012.65	.005
308.15	1.1995	1022.358	.005
308.15	1.4973	1028.632	.005
308.15	1.9862	1037.775	.005
318.15	.0506	991.452	.005
318.15	.1009	992.837	.005
318.15	.2364	996.273	.005
318.15	.501	1002.683	.005
318.15	.6523	1006.203	.005
318.15	.7529	1008.516	.005
318.15	1.1995	1018.058	.005
318.15	1.4973	1024.208	.005
318.15	1.9862	1033.173	.005

System: (2-chloroethyl)trimethylammonium chloride + water; phases: Liquid
Fixed: Pressure, kPa = 101
Property: Viscosity, Pa*s (Liquid); method: Falling or rolling sphere viscometry
Temperature, K	Molality, mol/kg of (2-chloroethyl)trimethylammonium chloride	Viscosity, Pa*s	uncertainty
278.15	.0236	.001526	.00000763
278.15	.0464	.001536	.00000768
278.15	.0994	.001555	.000007775
278.15	.2464	.00161	.00000805
278.15	.3552	.001656	.00000828
278.15	.499	.001712	.00000856
278.15	.6479	.001778	.00000889
278.15	.7493	.001815	.000009075
278.15	.9041	.001914	.00000957
278.15	.9927	.001933	.000009665
278.15	1.1758	.00201	.00001005
278.15	1.5415	.002298	.00001149
278.15	2.1484	.002612	.00001306
288.15	.0236	.001148	.00000574
288.15	.0464	.001156	.00000578
288.15	.0994	.001172	.00000586
288.15	.2464	.001211	.000006055
288.15	.3552	.001241	.000006205
288.15	.499	.001286	.00000643
288.15	.6479	.001335	.000006675
288.15	.7493	.001362	.00000681
288.15	.9041	.001433	.000007165
288.15	.9927	.001447	.000007235
288.15	1.1758	.001502	.00000751
288.15	1.5415	.001708	.00000854
288.15	2.1484	.001932	.00000966
298.15	.0236	.000907	.000004535
298.15	.0464	.000913	.000004565
298.15	.0994	.000924	.00000462
298.15	.2464	.000955	.000004775
298.15	.3552	.000977	.000004885
298.15	.499	.001012	.00000506
298.15	.6479	.001047	.000005235
298.15	.7493	.001069	.000005345
298.15	.9041	.001124	.00000562
298.15	.9927	.001133	.000005665
298.15	1.1758	.001173	.000005865
298.15	1.5415	.001292	.00000646
298.15	2.1484	.001493	.000007465
308.15	.0236	.000711	.000003555
308.15	.0464	.000714	.00000357
308.15	.0994	.000722	.00000361
308.15	.2464	.000757	.000003785
308.15	.3552	.00077	.00000385
308.15	.499	.000793	.000003965
308.15	.6479	.000831	.000004155
308.15	.7493	.000833	.000004165
308.15	.9041	.000879	.000004395
308.15	.9927	.00089	.00000445
308.15	1.1758	.000915	.000004575
308.15	1.5415	.001005	.000005025
308.15	2.1484	.001158	.00000579
318.15	.0236	.000596	.00000298
318.15	.0464	.000595	.000002975
318.15	.0994	.000602	.00000301
318.15	.2464	.000645	.000003225
318.15	.3552	.00066	.0000033
318.15	.499	.000661	.000003305
318.15	.6479	.000694	.00000347
318.15	.7493	.000691	.000003455
318.15	.9041	.000733	.000003665
318.15	.9927	.00075	.00000375
318.15	1.1758	.000759	.000003795
318.15	1.5415	.000835	.000004175
318.15	2.1484	.000948	.00000474
