Measured thermophysical data. Solid-Liquid Equilibria for Three Binary Mixtures of Benzoic  acid with Heptanedioic acid, 3-mthylpentanedioic acid, and  2,3-dimethylbutanedioic aci
Source: J. Chem. Eng. Data, 2012, 10.1021/je200681k
Compound 1: benzenecarboxylic acid, C7H6O2, purity 99%
Compound 2: pimelic acid, C7H12O4, purity 99%
Compound 3: glutaric acid, 3-methyl-, C6H10O4, purity 99%
Compound 4: 2,3-dimethyl-1,4-butanedioic acid, C6H10O4, purity 99%

System: benzenecarboxylic acid; phases: Crystal, Liquid, Air at 1 atmosphere
Property: Normal melting temperature, K (Crystal); method: DSC/DTA
Normal melting temperature, K	uncertainty
396.08	.2

System: benzenecarboxylic acid; phases: Crystal, Liquid, Air at 1 atmosphere
Property: Molar enthalpy of transition or fusion, kJ/mol (Crystal); method: DSC/DTA
Molar enthalpy of transition or fusion, kJ/mol	uncertainty
18.71	.3

System: pimelic acid; phases: Crystal, Liquid, Air at 1 atmosphere
Property: Normal melting temperature, K (Crystal); method: DSC/DTA
Normal melting temperature, K	uncertainty
377.4	.2

System: pimelic acid; phases: Crystal, Liquid, Air at 1 atmosphere
Property: Molar enthalpy of transition or fusion, kJ/mol (Crystal); method: DSC/DTA
Molar enthalpy of transition or fusion, kJ/mol	uncertainty
28.8	.5

System: glutaric acid, 3-methyl-; phases: Crystal, Liquid, Air at 1 atmosphere
Property: Normal melting temperature, K (Crystal); method: DSC/DTA
Normal melting temperature, K	uncertainty
358.61	.2

System: glutaric acid, 3-methyl-; phases: Crystal, Liquid, Air at 1 atmosphere
Property: Molar enthalpy of transition or fusion, kJ/mol (Crystal); method: DSC/DTA
Molar enthalpy of transition or fusion, kJ/mol	uncertainty
31	.6

System: 2,3-dimethyl-1,4-butanedioic acid; phases: Crystal, Liquid, Air at 1 atmosphere
Property: Normal melting temperature, K (Crystal); method: DSC/DTA
Normal melting temperature, K	uncertainty
394.48	.2

System: 2,3-dimethyl-1,4-butanedioic acid; phases: Crystal, Liquid, Air at 1 atmosphere
Property: Molar enthalpy of transition or fusion, kJ/mol (Crystal); method: DSC/DTA
Molar enthalpy of transition or fusion, kJ/mol	uncertainty
16.9	.3

System: benzenecarboxylic acid + pimelic acid; phases: Crystal, Crystal, Liquid, Air at 1 atmosphere
Fixed: Pressure, kPa = 101.325
Property: Eutectic temperature, K (Crystal); method: DSC/DTA
Eutectic temperature, K	uncertainty
350.2	.2

System: benzenecarboxylic acid + pimelic acid; phases: Crystal, Crystal, Liquid, Air at 1 atmosphere
Fixed: Pressure, kPa = 101.325
Property: Eutectic composition: mole fraction of benzenecarboxylic acid (Crystal); method: Derived from phase diagram analysis
Eutectic composition: mole fraction of benzenecarboxylic acid	uncertainty
.498	

System: benzenecarboxylic acid + pimelic acid; phases: Liquid, Crystal
Fixed: Pressure, kPa = 101
Property: Solid-liquid equilibrium temperature, K (Liquid); method: DSC/DTA
Mole fraction of benzenecarboxylic acid	Solid-liquid equilibrium temperature, K	uncertainty
0	377.4	.2
.0502	376.2	.2
.0998	373.23	.2
.1497	369.88	.2
.1997	367.39	.2
.2501	365.51	.2
.2986	362.78	.2
.3491	359.51	.2
.4004	355.28	.2
.4487	353.52	.2

System: benzenecarboxylic acid + pimelic acid; phases: Liquid, Crystal
Fixed: Pressure, kPa = 101
Property: Solid-liquid equilibrium temperature, K (Liquid); method: DSC/DTA
Mole fraction of benzenecarboxylic acid	Solid-liquid equilibrium temperature, K	uncertainty
.6003	359.28	.2
.6499	364.54	.2
.7008	368.73	.2
.7504	373.71	.2
.8004	378.29	.2
.8503	382.33	.2
.9	386.72	.2
.9494	391.73	.2
1	396.08	.2

System: benzenecarboxylic acid + glutaric acid, 3-methyl-; phases: Crystal, Crystal, Liquid, Air at 1 atmosphere
Fixed: Pressure, kPa = 101.325
Property: Eutectic temperature, K (Crystal); method: DSC/DTA
Eutectic temperature, K	uncertainty
340.03	.2

System: benzenecarboxylic acid + glutaric acid, 3-methyl-; phases: Crystal, Crystal, Liquid, Air at 1 atmosphere
Fixed: Pressure, kPa = 101.325
Property: Eutectic composition: mole fraction of benzenecarboxylic acid (Crystal); method: Derived from phase diagram analysis
Eutectic composition: mole fraction of benzenecarboxylic acid	uncertainty
.427	

System: benzenecarboxylic acid + glutaric acid, 3-methyl-; phases: Liquid, Crystal
Fixed: Pressure, kPa = 101
Property: Solid-liquid equilibrium temperature, K (Liquid); method: DSC/DTA
Mole fraction of benzenecarboxylic acid	Solid-liquid equilibrium temperature, K	uncertainty
0	358.61	.2
.0496	356.59	.2
.1032	353.97	.2
.1488	351.34	.2
.1964	349.66	.2
.246	348.48	.2
.3001	345.43	.2

System: benzenecarboxylic acid + glutaric acid, 3-methyl-; phases: Liquid, Crystal
Fixed: Pressure, kPa = 101
Property: Solid-liquid equilibrium temperature, K (Liquid); method: DSC/DTA
Mole fraction of benzenecarboxylic acid	Solid-liquid equilibrium temperature, K	uncertainty
.4443	347.18	.2
.497	350.25	.2
.5472	354.55	.2
.5923	361.41	.2
.6499	365.54	.2
.696	369.75	.2
.7531	374.25	.2
.8013	376.87	.2
.8488	383.86	.2
.9042	387.21	.2
.9514	387.96	.2
1	396.08	.2

System: benzenecarboxylic acid + 2,3-dimethyl-1,4-butanedioic acid; phases: Crystal, Crystal, Liquid, Air at 1 atmosphere
Fixed: Pressure, kPa = 101.325
Property: Eutectic temperature, K (Crystal); method: DSC/DTA
Eutectic temperature, K	uncertainty
352.71	.2

System: benzenecarboxylic acid + 2,3-dimethyl-1,4-butanedioic acid; phases: Crystal, Crystal, Liquid, Air at 1 atmosphere
Fixed: Pressure, kPa = 101.325
Property: Eutectic composition: mole fraction of benzenecarboxylic acid (Crystal); method: Derived from phase diagram analysis
Eutectic composition: mole fraction of benzenecarboxylic acid	uncertainty
.462	

System: benzenecarboxylic acid + 2,3-dimethyl-1,4-butanedioic acid; phases: Liquid, Crystal
Fixed: Pressure, kPa = 101
Property: Solid-liquid equilibrium temperature, K (Liquid); method: DSC/DTA
Mole fraction of benzenecarboxylic acid	Solid-liquid equilibrium temperature, K	uncertainty
0	392.48	.2
.0506	385.62	.2
.0981	382.08	.2
.1492	379.34	.2
.2024	374.85	.2
.2472	370	.2
.3041	365.09	.2
.3482	362.62	.2

System: benzenecarboxylic acid + 2,3-dimethyl-1,4-butanedioic acid; phases: Liquid, Crystal
Fixed: Pressure, kPa = 101
Property: Solid-liquid equilibrium temperature, K (Liquid); method: DSC/DTA
Mole fraction of benzenecarboxylic acid	Solid-liquid equilibrium temperature, K	uncertainty
.5497	359.9	.2
.5985	362.94	.2
.6474	367.02	.2
.699	370.89	.2
.7557	375.75	.2
.8001	378.06	.2
.8501	383.53	.2
.9023	388.57	.2
.9471	391.31	.2
1	396.08	.2
