Measured thermophysical data. Phase Behavior and Spectroscopic Properties for Ternary Systems  Water + Sodium Chloride + Diethylene Glycol Monobutyl Ether at  303.15 K and Atmospheric Pressure
Source: J. Chem. Eng. Data, 2012, 10.1021/je200963q
Compound 1: butoxyethoxyethanol, C8H18O3, purity 99%
Compound 2: sodium chloride, ClNa, purity 99.5%
Compound 3: water, H2O, purity 99.9%

System: butoxyethoxyethanol + sodium chloride + water; phases: Liquid mixture 1, Liquid mixture 2
Fixed: Temperature, K = 303.15
Fixed: Pressure, kPa = 101
Property: Mass fraction of water (Liquid mixture 1); method: Titration method
Mass fraction of sodium chloride	Mass fraction of water	uncertainty
.0068	.1002	.002
.0165	.1499	.002
.0191	.1641	.002
.0203	.1657	.002
.0258	.1954	.002
.0275	.2377	.002
.0319	.2816	.002
.0374	.3378	.002
.0401	.3986	.002
.0455	.4355	.002
.0515	.4751	.002
.0601	.5278	.002
.0672	.5733	.002
.0736	.5974	.002
.0801	.6326	.002
.0846	.6612	.002
.0924	.704	.002
.1014	.7392	.002
.1075	.7725	.002
.1175	.7965	.002
.1321	.8029	.002
.1424	.8061	.002
.1659	.7992	.002
.1808	.7902	.002
.2015	.7765	.002
.2299	.7559	.002

System: butoxyethoxyethanol + sodium chloride + water; phases: Liquid mixture 2, Liquid mixture 1
Fixed: Pressure, kPa = 101.325
Property: Mass fraction of water (Liquid mixture 2); method: Chromatography
Property: Mass fraction of water (Liquid mixture 1); method: Chromatography
Property: Mass fraction of sodium chloride (Liquid mixture 1); method: Chromatography
Temperature, K	Mass fraction of sodium chloride	Mass fraction of water	uncertainty	Mass fraction of water	uncertainty	Mass fraction of sodium chloride	uncertainty
303.15	.1414	.8052	.0016104	.3668	.0007336	.0387	.0003096
303.15	.1576	.8038	.0016076	.3192	.0006384	.0344	.0002752
303.15	.1705	.7967	.0015934	.2805	.000561	.0311	.0002488
303.15	.2576	.7347	.0014694	.1676	.0003352	.0222	.0001776

System: butoxyethoxyethanol + sodium chloride + water; phases: Liquid
Fixed: Temperature, K = 303.15
Fixed: Pressure, kPa = 101
Fixed: Solvent: Mass fraction of butoxyethoxyethanol = .08
Property: Mass density, kg/m3 (Liquid); method: Vibrating tube method
Molality, mol/kg of sodium chloride	Mass density, kg/m3	uncertainty
0	996.7	
.1709	1004.2	
.5128	1017.3	
.8547	1032.2	
1.196	1046.3	
1.538	1059.8	
1.881	1074.5	
1.915	1075.9	
1.983	1078.7	
2.017	1080.2	
2.051	1081.4	
2.085	1083.1	
2.119	1084.6	
2.154	1086.1	

System: butoxyethoxyethanol + sodium chloride + water; phases: Liquid
Fixed: Temperature, K = 303.15
Fixed: Pressure, kPa = 101
Fixed: Solvent: Mass fraction of butoxyethoxyethanol = .08
Property: Viscosity, Pa*s (Liquid); method: Capillary tube (Ostwald; Ubbelohde) method
Molality, mol/kg of sodium chloride	Viscosity, Pa*s	uncertainty
0	.001069	
.1709	.001089	
.5128	.001132	
.8547	.001182	
1.196	.001239	
1.538	.001299	
1.881	.001401	
1.915	.001413	
1.983	.001436	
2.017	.001451	
2.051	.001463	
2.085	.001481	
2.119	.001504	
2.154	.001527	

System: butoxyethoxyethanol + water; phases: Liquid
Property: Mass density, kg/m3 (Liquid); method: Vibrating tube method
Temperature, K	Pressure, kPa	Mass fraction of butoxyethoxyethanol	Mass density, kg/m3	uncertainty
303.15	101.325	.08	996.7	

System: butoxyethoxyethanol + water; phases: Liquid
Property: Viscosity, Pa*s (Liquid); method: Capillary tube (Ostwald; Ubbelohde) method
Temperature, K	Pressure, kPa	Mass fraction of butoxyethoxyethanol	Viscosity, Pa*s	uncertainty
303.15	101.325	.08	.001069	
