Measured thermophysical data. Thermodynamics of Ketone + Amine Mixtures. Part VIII. Molar Excess Enthalpies at 298.15 K for n-Alkanone + Aniline or + N-Methylaniline Systems
Source: J. Chem. Eng. Data, 2011, 10.1021/je200333p
Compound 1: propanone, C3H6O, purity 99.5%
Compound 2: ethyl methyl ketone, C4H8O, purity 99.5%
Compound 3: propyl methyl ketone, C5H10O, purity 99%
Compound 4: phenylmethylamine, C7H9N, purity 98%
Compound 5: methyl pentyl ketone, C7H14O, purity 99%
Compound 6: aniline, C6H7N, purity 99.5%

System: propanone; phases: Liquid
Property: Mass density, kg/m3 (Liquid); method: Vibrating tube method
Temperature, K	Pressure, kPa	Mass density, kg/m3	uncertainty
298.15	101.325	785.094	

System: ethyl methyl ketone; phases: Liquid
Property: Mass density, kg/m3 (Liquid); method: Vibrating tube method
Temperature, K	Pressure, kPa	Mass density, kg/m3	uncertainty
298.15	101.325	799.969	

System: propyl methyl ketone; phases: Liquid
Property: Mass density, kg/m3 (Liquid); method: Vibrating tube method
Temperature, K	Pressure, kPa	Mass density, kg/m3	uncertainty
298.15	101.325	801.522	

System: phenylmethylamine; phases: Liquid
Property: Mass density, kg/m3 (Liquid); method: Vibrating tube method
Temperature, K	Pressure, kPa	Mass density, kg/m3	uncertainty
298.15	101.325	982.237	

System: methyl pentyl ketone; phases: Liquid
Property: Mass density, kg/m3 (Liquid); method: Vibrating tube method
Temperature, K	Pressure, kPa	Mass density, kg/m3	uncertainty
298.15	101.325	811.162	

System: aniline; phases: Liquid
Property: Mass density, kg/m3 (Liquid); method: Vibrating tube method
Temperature, K	Pressure, kPa	Mass density, kg/m3	uncertainty
298.15	101.325	1017.457	

System: aniline + propanone; phases: Liquid
Fixed: Temperature, K = 298.15
Fixed: Pressure, kPa = 101
Property: Excess molar enthalpy (molar enthalpy of mixing), kJ/mol (Liquid); method: Calvet calorimetry
Mole fraction of propanone	Excess molar enthalpy (molar enthalpy of mixing), kJ/mol	uncertainty
.113	-.427	-.00427
.2145	-.746	-.00746
.3052	-.965	-.00965
.4107	-1.165	-.01165
.5014	-1.243	-.01243
.5082	-1.245	-.01245
.6015	-1.219	-.01219
.6991	-1.076	-.01076
.8045	-.816	-.00816
.9002	-.48	-.0048

System: aniline + ethyl methyl ketone; phases: Liquid
Fixed: Temperature, K = 298.15
Fixed: Pressure, kPa = 101
Property: Excess molar enthalpy (molar enthalpy of mixing), kJ/mol (Liquid); method: Calvet calorimetry
Mole fraction of ethyl methyl ketone	Excess molar enthalpy (molar enthalpy of mixing), kJ/mol	uncertainty
.1156	-.378	-.00378
.1565	-.499	-.00499
.2099	-.648	-.00648
.3121	-.879	-.00879
.4116	-1.075	-.01075
.5106	-1.173	-.01173
.6086	-1.171	-.01171
.7009	-1.071	-.01071
.8064	-.814	-.00814
.9018	-.469	-.00469

System: aniline + propyl methyl ketone; phases: Liquid
Fixed: Temperature, K = 298.15
Fixed: Pressure, kPa = 101
Property: Excess molar enthalpy (molar enthalpy of mixing), kJ/mol (Liquid); method: Calvet calorimetry
Mole fraction of propyl methyl ketone	Excess molar enthalpy (molar enthalpy of mixing), kJ/mol	uncertainty
.1113	-.293	-.00293
.2052	-.511	-.00511
.308	-.766	-.00766
.4073	-.926	-.00926
.5067	-1.027	-.01027
.5088	-1.029	-.01029
.6049	-1.049	-.01049
.6088	-1.051	-.01051
.7108	-.94	-.0094
.7979	-.737	-.00737
.8995	-.432	-.00432

System: aniline + methyl pentyl ketone; phases: Liquid
Fixed: Temperature, K = 298.15
Fixed: Pressure, kPa = 101
Property: Excess molar enthalpy (molar enthalpy of mixing), kJ/mol (Liquid); method: Calvet calorimetry
Mole fraction of methyl pentyl ketone	Excess molar enthalpy (molar enthalpy of mixing), kJ/mol	uncertainty
.1124	-.131	-.00131
.2179	-.294	-.00294
.3082	-.449	-.00449
.4052	-.588	-.00588
.4523	-.647	-.00647
.5096	-.691	-.00691
.5554	-.724	-.00724
.6024	-.744	-.00744
.6026	-.74	-.0074
.7034	-.699	-.00699
.7934	-.565	-.00565
.8479	-.471	-.00471
.8481	-.472	-.00472
.8972	-.346	-.00346

System: propanone + phenylmethylamine; phases: Liquid
Fixed: Temperature, K = 298.15
Fixed: Pressure, kPa = 101
Property: Excess molar enthalpy (molar enthalpy of mixing), kJ/mol (Liquid); method: Calvet calorimetry
Mole fraction of propanone	Excess molar enthalpy (molar enthalpy of mixing), kJ/mol	uncertainty
.1286	-.335	-.00335
.2316	-.5	-.005
.3191	-.598	-.00598
.4089	-.666	-.00666
.5086	-.672	-.00672
.6075	-.622	-.00622
.7097	-.525	-.00525
.8055	-.381	-.00381
.9012	-.204	-.00204

System: ethyl methyl ketone + phenylmethylamine; phases: Liquid
Fixed: Temperature, K = 298.15
Fixed: Pressure, kPa = 101
Property: Excess molar enthalpy (molar enthalpy of mixing), kJ/mol (Liquid); method: Calvet calorimetry
Mole fraction of ethyl methyl ketone	Excess molar enthalpy (molar enthalpy of mixing), kJ/mol	uncertainty
.1361	-.356	-.00356
.2283	-.54	-.0054
.3187	-.676	-.00676
.4093	-.781	-.00781
.509	-.816	-.00816
.6091	-.779	-.00779
.7055	-.672	-.00672
.8028	-.506	-.00506
.903	-.28	-.0028

System: phenylmethylamine + propyl methyl ketone; phases: Liquid
Fixed: Temperature, K = 298.15
Fixed: Pressure, kPa = 101
Property: Excess molar enthalpy (molar enthalpy of mixing), kJ/mol (Liquid); method: Calvet calorimetry
Mole fraction of propyl methyl ketone	Excess molar enthalpy (molar enthalpy of mixing), kJ/mol	uncertainty
.1297	-.332	-.00332
.2222	-.528	-.00528
.3239	-.693	-.00693
.406	-.793	-.00793
.5083	-.837	-.00837
.6057	-.807	-.00807
.7044	-.707	-.00707
.8058	-.529	-.00529
.9031	-.292	-.00292

System: phenylmethylamine + methyl pentyl ketone; phases: Liquid
Fixed: Temperature, K = 298.15
Fixed: Pressure, kPa = 101
Property: Excess molar enthalpy (molar enthalpy of mixing), kJ/mol (Liquid); method: Calvet calorimetry
Mole fraction of methyl pentyl ketone	Excess molar enthalpy (molar enthalpy of mixing), kJ/mol	uncertainty
.1219	-.248	-.00248
.2133	-.415	-.00415
.3078	-.578	-.00578
.4076	-.691	-.00691
.5029	-.741	-.00741
.6064	-.728	-.00728
.7063	-.641	-.00641
.8037	-.489	-.00489
.8975	-.284	-.00284
