Measured thermophysical data. Phase Equilibrium of the Ternary System Cadmium Chloride + l-Threonine + Water at 298.15 K and Standard Molar Enthalpy of Formation of Cd(C4H9NO3)Cl2*H2O
Source: J. Chem. Eng. Data, 2011, 10.1021/je2006133
Compound 1: cadmium chloride, CdCl2, purity 99.6%
Compound 2: butanoic acid, 2-amino-3-hydroxy-, [R-(R*,S*)]-, C4H9NO3, purity 99.8%
Compound 3: water, H2O, purity 99.8%

System: butanoic acid, 2-amino-3-hydroxy-, [R-(R*,S*)]- + water + cadmium chloride; phases: Liquid, Crystal of intercomponent compound 1
Fixed: Temperature, K = 298.15
Fixed: Pressure, kPa = 101
Property: Mass fraction of cadmium chloride (Liquid); method: Titration method
Mass fraction of butanoic acid, 2-amino-3-hydroxy-, [R-(R*,S*)]-	Mass fraction of cadmium chloride	uncertainty
0	.556	.0015
.0168	.5487	.0013
.047	.554	.0015

System: butanoic acid, 2-amino-3-hydroxy-, [R-(R*,S*)]- + water + cadmium chloride; phases: Liquid, Crystal of intercomponent compound 2, Crystal of intercomponent compound 3
Fixed: Pressure, kPa = 101
Property: Mass fraction of cadmium chloride (Liquid); method: Titration method
Temperature, K	Mass fraction of cadmium chloride	uncertainty
298.15	.5671	.0012

System: butanoic acid, 2-amino-3-hydroxy-, [R-(R*,S*)]- + water + cadmium chloride; phases: Liquid, Crystal of intercomponent compound 2, Crystal of intercomponent compound 3
Fixed: Pressure, kPa = 101
Property: Mass fraction of butanoic acid, 2-amino-3-hydroxy-, [R-(R*,S*)]- (Liquid); method: Titration method
Temperature, K	Mass fraction of butanoic acid, 2-amino-3-hydroxy-, [R-(R*,S*)]-	uncertainty
298.15	.1536	.0016

System: butanoic acid, 2-amino-3-hydroxy-, [R-(R*,S*)]- + water + cadmium chloride; phases: Liquid, Crystal of intercomponent compound 3, Crystal
Fixed: Pressure, kPa = 101
Property: Mass fraction of butanoic acid, 2-amino-3-hydroxy-, [R-(R*,S*)]- (Liquid); method: Titration method
Temperature, K	Mass fraction of butanoic acid, 2-amino-3-hydroxy-, [R-(R*,S*)]-	uncertainty
298.15	.2148	.0017
298.15	.2106	.0019

System: butanoic acid, 2-amino-3-hydroxy-, [R-(R*,S*)]- + water + cadmium chloride; phases: Liquid, Crystal of intercomponent compound 3, Crystal
Fixed: Pressure, kPa = 101
Property: Mass fraction of cadmium chloride (Liquid); method: Titration method
Temperature, K	Mass fraction of cadmium chloride	uncertainty
298.15	.4674	.0014
298.15	.4628	.0012

System: butanoic acid, 2-amino-3-hydroxy-, [R-(R*,S*)]- + water + cadmium chloride; phases: Liquid, Crystal of intercomponent compound 1, Crystal of intercomponent compound 2
Fixed: Pressure, kPa = 101
Property: Mass fraction of cadmium chloride (Liquid); method: Titration method
Temperature, K	Mass fraction of cadmium chloride	uncertainty
298.15	.5594	.0015

System: butanoic acid, 2-amino-3-hydroxy-, [R-(R*,S*)]- + water + cadmium chloride; phases: Liquid, Crystal of intercomponent compound 1, Crystal of intercomponent compound 2
Fixed: Pressure, kPa = 101
Property: Mass fraction of butanoic acid, 2-amino-3-hydroxy-, [R-(R*,S*)]- (Liquid); method: Titration method
Temperature, K	Mass fraction of butanoic acid, 2-amino-3-hydroxy-, [R-(R*,S*)]-	uncertainty
298.15	.0871	.0018

System: butanoic acid, 2-amino-3-hydroxy-, [R-(R*,S*)]- + water + cadmium chloride; phases: Liquid, Crystal of intercomponent compound 2
Fixed: Temperature, K = 298.15
Fixed: Pressure, kPa = 101
Property: Mass fraction of cadmium chloride (Liquid); method: Titration method
Mass fraction of butanoic acid, 2-amino-3-hydroxy-, [R-(R*,S*)]-	Mass fraction of cadmium chloride	uncertainty
.0872	.5594	.0013
.1082	.5657	.0016
.1434	.565	.0014

System: butanoic acid, 2-amino-3-hydroxy-, [R-(R*,S*)]- + water + cadmium chloride; phases: Liquid, Crystal of intercomponent compound 3
Fixed: Temperature, K = 298.15
Fixed: Pressure, kPa = 101
Property: Mass fraction of cadmium chloride (Liquid); method: Titration method
Mass fraction of butanoic acid, 2-amino-3-hydroxy-, [R-(R*,S*)]-	Mass fraction of cadmium chloride	uncertainty
.1575	.5489	.0014
.1855	.5034	.0012
.1928	.4835	.0011

System: butanoic acid, 2-amino-3-hydroxy-, [R-(R*,S*)]- + water + cadmium chloride; phases: Liquid, Crystal
Fixed: Temperature, K = 298.15
Fixed: Pressure, kPa = 101
Property: Mass fraction of cadmium chloride (Liquid); method: Titration method
Mass fraction of butanoic acid, 2-amino-3-hydroxy-, [R-(R*,S*)]-	Mass fraction of cadmium chloride	uncertainty
.1998	.4371	.0011
.2067	.4201	.0011
.1994	.3699	.0011
.1978	.3509	.0011
.1705	.2896	.0011
.1646	.2513	.0011
.1545	.2079	.0011
.1374	.1493	.0011
.124	.0885	.0011
.1132	.0546	.0011
.0895	0	.0011
