Measured thermophysical data. Micellar Parameters in Solutions with Cationic Surfactants and N,N-Dimethyldodecan-1-amine Oxide: Influence of Cationic Surfactant Chain Length
Source: J. Chem. Eng. Data, 2012, 10.1021/je201107a
Compound 1: Dodecyldimethylamine oxide, C14H31NO, purity 99%
Compound 2: N-lauryl-N,N,N-trimethylammonium bromide, C15H34BrN, purity 99%
Compound 3: trimethylmyristylammonium bromide, C17H38BrN, purity 99%
Compound 4: ammonium, decyltrimethyl-, bromide, C13H30BrN, purity 99%
Compound 5: sodium salicylate, C7H5NaO3, purity 99.5%
Compound 6: water, H2O, purity 99.9%

System: Dodecyldimethylamine oxide + ammonium, decyltrimethyl-, bromide + water; phases: Liquid
Fixed: Pressure, kPa = 101
Fixed: Temperature, K = 298.15
Property: Viscosity, Pa*s (Liquid); method: Concentric cylinders viscometry
Molality, mol/kg of ammonium, decyltrimethyl-, bromide	Molality, mol/kg of Dodecyldimethylamine oxide	Viscosity, Pa*s	uncertainty
.1	.00093	.00101	.000005
.1	.00185	.00124	.000005
.1	.00262	.00139	.000005
.1	.00359	.00167	.000005

System: Dodecyldimethylamine oxide + ammonium, decyltrimethyl-, bromide + water; phases: Liquid, Air at 1 atmosphere
Fixed: Temperature, K = 298.15
Property: Surface tension liquid-gas, N/m (Liquid); method: Ring tensiometer
Molality, mol/kg of ammonium, decyltrimethyl-, bromide	Molality, mol/kg of Dodecyldimethylamine oxide	Surface tension liquid-gas, N/m	uncertainty
.0000625	.0001875	.04049	.00009
.000185	.000555	.03747	.00008
.00037	.00111	.03539	.00009
.00049	.00147	.03295	.0001
.00061	.00183	.0328	.00009
.0007275	.0021825	.03335	.00009
.000845	.002535	.03391	.00007
.0009625	.0028875	.03375	.00003
.0010775	.0032325	.0332	.00008
.00119	.00357	.03397	.00008
.00025	.00025	.04067	.00009
.00037	.00037	.03979	.0001
.00074	.00074	.03802	.00006
.00086	.00086	.03777	.00008
.00122	.00122	.03518	.0001
.001455	.001455	.03184	.00009
.00169	.00169	.03224	.0001
.001925	.001925	.0327	.00009
.002155	.002155	.03291	.00004
.00238	.00238	.03347	.00004
.002605	.002605	.0331	.00007
.00283	.00283	.03355	.00006
.00147	.00049	.04318	.0001
.0021825	.0007275	.04074	.00008
.0028875	.0009625	.03713	.0001
.0032325	.0010775	.03646	.0001
.00357	.00119	.03574	.00008
.0039075	.0013025	.0344	.0001
.004245	.001415	.03342	.00008
.004575	.001525	.03343	.00008
.004905	.001635	.03361	.00005
.005235	.001745	.03382	.00007

System: N-lauryl-N,N,N-trimethylammonium bromide + Dodecyldimethylamine oxide + water; phases: Liquid
Fixed: Pressure, kPa = 101
Fixed: Temperature, K = 298.15
Property: Viscosity, Pa*s (Liquid); method: Concentric cylinders viscometry
Molality, mol/kg of N-lauryl-N,N,N-trimethylammonium bromide	Molality, mol/kg of Dodecyldimethylamine oxide	Viscosity, Pa*s	uncertainty
.1	.0018	.00128	.000005
.1	.00263	.00136	.000005
.1	.00355	.0016	.000005
.1	.00443	.00172	.000005

System: N-lauryl-N,N,N-trimethylammonium bromide + Dodecyldimethylamine oxide + water; phases: Liquid, Air at 1 atmosphere
Fixed: Temperature, K = 298.15
Property: Surface tension liquid-gas, N/m (Liquid); method: Ring tensiometer
Molality, mol/kg of N-lauryl-N,N,N-trimethylammonium bromide	Molality, mol/kg of Dodecyldimethylamine oxide	Surface tension liquid-gas, N/m	uncertainty
.000125	.000375	.04019	.0001
.0002475	.0007425	.03664	.00009
.00037	.00111	.03612	.00008
.00049	.00147	.0332	.00005
.00061	.00183	.03371	.0001
.0007275	.0021825	.03408	.00008
.000845	.002535	.03464	.00008
.0009625	.0028875	.03424	.00005
.0010775	.0032325	.03468	.00006
.00119	.00357	.03488	.00004
.00025	.00025	.04959	.00008
.000495	.000495	.04378	.00009
.00074	.00074	.03973	.00006
.00098	.00098	.03775	.00009
.00122	.00122	.03519	.00008
.001455	.001455	.03328	.00005
.00169	.00169	.03375	.00007
.001925	.001925	.03421	.0001
.002155	.002155	.03463	.00008
.00238	.00238	.03445	.0001
.002605	.002605	.03489	.00005
.00283	.00283	.03526	.00004
.00305	.00305	.03518	.00005
.00327	.00327	.03555	.00005
.00349	.00349	.03584	.00005
.000375	.000125	.0524	.0001
.0007425	.0002475	.04921	.00009
.00111	.00037	.04742	.00005
.00147	.00049	.043	.00008
.00183	.00061	.0416	.00008
.0021825	.0007275	.03991	.0001
.002535	.000845	.03819	.00009
.0028875	.0009625	.0364	.00005
.0032325	.0010775	.03502	.00006
.00357	.00119	.03457	.00005
.0039075	.0013025	.0346	.0001
.004245	.001415	.03538	.00009
.004575	.001525	.03569	.00008
.004905	.001635	.03566	.00005
.005235	.001745	.03576	.00008

System: trimethylmyristylammonium bromide + Dodecyldimethylamine oxide + water; phases: Liquid
Fixed: Pressure, kPa = 101
Fixed: Temperature, K = 298.15
Property: Viscosity, Pa*s (Liquid); method: Concentric cylinders viscometry
Molality, mol/kg of trimethylmyristylammonium bromide	Molality, mol/kg of Dodecyldimethylamine oxide	Viscosity, Pa*s	uncertainty
.1	.00094	.00115	.000005
.1	.0019	.00125	.000005
.1	.00262	.00138	.000005
.1	.00363	.00138	.000005

System: trimethylmyristylammonium bromide + Dodecyldimethylamine oxide + water; phases: Liquid, Air at 1 atmosphere
Fixed: Temperature, K = 298.15
Property: Surface tension liquid-gas, N/m (Liquid); method: Ring tensiometer
Molality, mol/kg of trimethylmyristylammonium bromide	Molality, mol/kg of Dodecyldimethylamine oxide	Surface tension liquid-gas, N/m	uncertainty
.0000625	.0001875	.04691	.0001
.000125	.000375	.04466	.00006
.0002475	.0007425	.03881	.00008
.00037	.00111	.03496	.00009
.00049	.00147	.03405	.00006
.00061	.00183	.03524	.00006
.0007275	.0021825	.0355	.00005
.000845	.002535	.03592	.00004
.0009625	.0028875	.03601	.00004
.0010775	.0032325	.03611	.00003
.00119	.00357	.03608	.00004
.000125	.000125	.0483	.00009
.00025	.00025	.04742	.00005
.00037	.00037	.04348	.00009
.000495	.000495	.0422	.00008
.000615	.000615	.04036	.00008
.00074	.00074	.03781	.00006
.00086	.00086	.03609	.00006
.00098	.00098	.0343	.00009
.0011	.0011	.03441	.0001
.00122	.00122	.03511	.00008
.00134	.00134	.03547	.00008
.001455	.001455	.03646	.00004
.00169	.00169	.03662	.00005
.001925	.001925	.03671	.00005
.002155	.002155	.0365	.00005
.0001875	.0000625	.05542	.00007
.000375	.000125	.04992	.0001
.000555	.000185	.04737	.0001
.0007425	.0002475	.04554	.00008
.00111	.00037	.03966	.00009
.00147	.00049	.03639	.00008
.00183	.00061	.03316	.00009
.0021825	.0007275	.0335	.00008
.002535	.000845	.03621	.00007
.0028875	.0009625	.03633	.00005
.0032325	.0010775	.03621	.0001
.00357	.00119	.03679	.00004

System: ammonium, decyltrimethyl-, bromide + water; phases: Liquid, Air at 1 atmosphere
Fixed: Temperature, K = 298.15
Property: Surface tension liquid-gas, N/m (Liquid); method: Ring tensiometer
Amount concentration (molarity), mol/dm3 of ammonium, decyltrimethyl-, bromide	Surface tension liquid-gas, N/m	uncertainty
.0118	.05443	.0001
.0211	.04837	.00009
.0286	.04575	.0001
.0348	.04287	.00009
.04	.04018	.00008
.0444	.03798	.00008
.0464	.03719	.00005
.0483	.03621	.00005
.05	.03615	.00005
.0516	.03647	.00004
.0531	.03598	.00005
.0545	.03588	.00006
.0559	.03619	.00006
.0571	.03631	.00005

System: N-lauryl-N,N,N-trimethylammonium bromide + water; phases: Liquid, Air at 1 atmosphere
Fixed: Temperature, K = 298.15
Property: Surface tension liquid-gas, N/m (Liquid); method: Ring tensiometer
Molality, mol/kg of N-lauryl-N,N,N-trimethylammonium bromide	Surface tension liquid-gas, N/m	uncertainty
.0005	.05513	.0001
.00099	.05556	.00009
.00148	.05367	.00008
.00196	.05393	.00009
.00244	.05353	.00009
.00291	.05263	.0001
.00338	.05213	.00008
.00476	.04916	.00008
.00654	.0452	.0001
.00826	.04232	.00009
.00991	.03941	.00008
.0115	.03677	.0001
.013	.03409	.00009
.0138	.03498	.00008
.0145	.03744	.00008
.0153	.03798	.0001
.016	.03833	.0001
.0167	.03847	.00007
.0177	.03869	.00006
.0184	.03846	.00001

System: trimethylmyristylammonium bromide + water; phases: Liquid, Air at 1 atmosphere
Fixed: Temperature, K = 298.15
Property: Surface tension liquid-gas, N/m (Liquid); method: Ring tensiometer
Molality, mol/kg of trimethylmyristylammonium bromide	Surface tension liquid-gas, N/m	uncertainty
.0005	.05396	.00009
.00099	.05231	.00007
.00148	.04635	.0001
.00196	.04165	.0001
.00244	.039	.00004
.00291	.03635	.00008
.00338	.03405	.00009
.00385	.03387	.00005
.00431	.03502	.0001
.00476	.03624	.00005
.00521	.03586	.0001
.00566	.03633	.00006
.0061	.03674	.00004
.00654	.0366	.00006
.00698	.03681	.00005

System: Dodecyldimethylamine oxide + water; phases: Liquid, Air at 1 atmosphere
Fixed: Temperature, K = 298.15
Property: Surface tension liquid-gas, N/m (Liquid); method: Ring tensiometer
Molality, mol/kg of Dodecyldimethylamine oxide	Surface tension liquid-gas, N/m	uncertainty
.00025	.04318	.00007
.0005	.03998	.00005
.00074	.0392	.00009
.00099	.03687	.00005
.00123	.03511	.00005
.00148	.03373	.00009
.00172	.03319	.00007
.00196	.03332	.00005
.00244	.03406	.0001
.00291	.03405	.00005
.00338	.03422	.00007
.00385	.03414	.00005
.00431	.03417	.00008
