Measured thermophysical data. Isobaric Vapor Liquid Equilibrium for Binary Systems of Toluene + Acrylic Acid, Toluene + Acetic Acid, and Cyclohexane + Acrylic Acid at 20 kPa
Source: J. Chem. Eng. Data, 2011, 10.1021/je200655s
Compound 1: vinylformic acid, C3H4O2, purity 99.5%
Compound 2: acetic acid, C2H4O2
Compound 3: toluene, C7H8, purity 99.5%
Compound 4: cyclohexane, C6H12, purity 99.5%
Compound 5: ethanol, C2H6O, purity 99.7%
Compound 6: water, H2O, purity 99.9%

System: vinylformic acid; phases: Liquid, Gas
Property: Vapor or sublimation pressure, kPa (Liquid); method: Ebulliometric method (Recirculating still)
Temperature, K	Vapor or sublimation pressure, kPa	uncertainty
368.4	20	.1

System: acetic acid; phases: Liquid, Gas
Property: Vapor or sublimation pressure, kPa (Liquid); method: Ebulliometric method (Recirculating still)
Temperature, K	Vapor or sublimation pressure, kPa	uncertainty
345.27	20	.1

System: toluene; phases: Liquid, Gas
Property: Vapor or sublimation pressure, kPa (Liquid); method: Ebulliometric method (Recirculating still)
Temperature, K	Vapor or sublimation pressure, kPa	uncertainty
335.25	20	.1

System: cyclohexane; phases: Liquid, Gas
Property: Vapor or sublimation pressure, kPa (Liquid); method: Ebulliometric method (Recirculating still)
Temperature, K	Vapor or sublimation pressure, kPa	uncertainty
308.07	20	.1

System: ethanol + water; phases: Liquid, Gas
Fixed: Pressure, kPa = 50.66
Property: Boiling temperature at pressure P, K (Liquid); method: Ebulliometric method (Recirculating still)
Mole fraction of ethanol	Boiling temperature at pressure P, K	uncertainty
.9313	334.28	.1
.9435	334.49	.1
.8214	334.57	.1
.7017	334.94	.1
.5949	335.51	.1
.473	336.15	.1
.3739	337.13	.1
.3594	337.42	.1
.297	337.75	.1
.2529	337.97	.1
.1842	341.01	.1
.0621	345.73	.1
.0541	347.76	.1
.0229	348.91	.1
.0298	349.77	.1
.0082	352.35	.1

System: ethanol + water; phases: Gas, Liquid
Fixed: Pressure, kPa = 50.66
Property: Mole fraction of ethanol (Gas); method: Chromatography
Mole fraction of ethanol	Mole fraction of ethanol	uncertainty
.9313	.9351	.005
.9435	.9445	.005
.8214	.8279	.005
.7017	.7555	.005
.5949	.6925	.005
.473	.6445	.005
.3739	.6061	.005
.3594	.603	.005
.297	.5828	.005
.2529	.554	.005
.1842	.5151	.005
.0621	.3741	.005
.0541	.3024	.005
.0229	.24	.005
.0298	.2144	.005
.0082	.1538	.005

System: vinylformic acid + toluene; phases: Liquid, Gas
Fixed: Pressure, kPa = 20
Property: Boiling temperature at pressure P, K (Liquid); method: Ebulliometric method (Recirculating still)
Mole fraction of toluene	Boiling temperature at pressure P, K	uncertainty
1	335.25	.1
.8589	336.44	.1
.8264	336.78	.1
.7731	336.95	.1
.7209	337.87	.1
.6371	339.3	.1
.5644	340.3	.1
.5301	340.59	.1
.5035	341.39	.1
.4064	343.32	.1
.3779	344.02	.1
.3213	345.44	.1
.2492	348.05	.1
.2151	349.77	.1
.1711	352.72	.1
.1209	356.29	.1
.0567	361.67	.1
.0253	365.82	.1
0	368.4	.1

System: vinylformic acid + toluene; phases: Gas, Liquid
Fixed: Pressure, kPa = 20
Property: Mole fraction of toluene (Gas); method: Chromatography
Mole fraction of toluene	Mole fraction of toluene	uncertainty
1	1	.005
.8589	.9344	.005
.8264	.9234	.005
.7731	.9164	.005
.7209	.8863	.005
.6371	.8588	.005
.5644	.819	.005
.5301	.8136	.005
.5035	.7814	.005
.4064	.7502	.005
.3779	.7319	.005
.3213	.676	.005
.2492	.6112	.005
.2151	.5746	.005
.1711	.4918	.005
.1209	.3876	.005
.0567	.2087	.005
.0253	.108	.005
0	0	.005

System: acetic acid + toluene; phases: Liquid, Gas
Fixed: Pressure, kPa = 20
Property: Boiling temperature at pressure P, K (Liquid); method: Ebulliometric method (Recirculating still)
Mole fraction of toluene	Boiling temperature at pressure P, K	uncertainty
1	335.25	.1
.8773	334.46	.1
.7791	333.62	.1
.6652	332.65	.1
.5785	332.3	.1
.5175	332.35	.1
.4721	332.48	.1
.4001	332.61	.1
.3549	332.72	.1
.3068	333.33	.1
.261	333.67	.1
.2213	334.29	.1
.1952	334.66	.1
.1551	335.62	.1
.1249	337.25	.1
.0886	339.06	.1
.0552	341.53	.1
.0181	343.62	.1
0	345.27	.1

System: acetic acid + toluene; phases: Gas, Liquid
Fixed: Pressure, kPa = 20
Property: Mole fraction of toluene (Gas); method: Chromatography
Mole fraction of toluene	Mole fraction of toluene	uncertainty
1	1	.005
.8773	.828	.005
.7791	.705	.005
.6652	.6116	.005
.5785	.5693	.005
.5175	.5319	.005
.4721	.5078	.005
.4001	.4875	.005
.3549	.4556	.005
.3068	.4396	.005
.261	.4296	.005
.2213	.3855	.005
.1952	.3645	.005
.1551	.3327	.005
.1249	.2851	.005
.0886	.2106	.005
.0552	.129	.005
.0181	.0534	.005
0	0	.005

System: vinylformic acid + cyclohexane; phases: Liquid, Gas
Fixed: Pressure, kPa = 20
Property: Boiling temperature at pressure P, K (Liquid); method: Ebulliometric method (Recirculating still)
Mole fraction of cyclohexane	Boiling temperature at pressure P, K	uncertainty
1	308.07	.1
.8911	309.82	.1
.722	311.58	.1
.6103	312.55	.1
.5728	312.89	.1
.5062	313.49	.1
.3992	314.8	.1
.3344	315.92	.1
.2121	319.94	.1
.1431	324.89	.1
.129	326.47	.1
.1	330.62	.1
.0902	332.43	.1
.0746	335.61	.1
.0499	342.82	.1
.0273	352.35	.1
.0146	359.23	.1
.0079	363.3	.1
0	368.4	.1

System: vinylformic acid + cyclohexane; phases: Gas, Liquid
Fixed: Pressure, kPa = 20
Property: Mole fraction of cyclohexane (Gas); method: Chromatography
Mole fraction of cyclohexane	Mole fraction of cyclohexane	uncertainty
1	1	.005
.8911	.9755	.005
.722	.9508	.005
.6103	.9391	.005
.5728	.9267	.005
.5062	.9241	.005
.3992	.9151	.005
.3344	.9063	.005
.2121	.8848	.005
.1431	.8235	.005
.129	.8071	.005
.1	.7793	.005
.0902	.7571	.005
.0746	.71	.005
.0499	.5966	.005
.0273	.4127	.005
.0146	.2538	.005
.0079	.1474	.005
0	0	.005
