Measured thermophysical data. Solubility of Carbon Dioxide in Water and Aqueous Solution Containing Sodium Hydroxide at Temperatures from (293.15 to 393.15) K and Pressure up to 5 MPa: Experimental Measurements
Source: J. Chem. Eng. Data, 2012, 10.1021/je200991x
Compound 1: carbon dioxide, CO2, purity 99.7%
Compound 2: sodium hydroxide, HNaO, purity 99%
Compound 3: water, H2O, purity 99.99%

System: carbon dioxide + water; phases: Liquid, Gas
Property: Mole fraction of carbon dioxide (Liquid); method: Chromatography
Temperature, K	Pressure, kPa	Mole fraction of carbon dioxide	uncertainty
298.15	610	.00362	.0001448
298.15	980	.00534	.0002136
298.15	1970	.00985	.000394
298.15	3010	.0147	.000588
298.15	4040	.0188	.000752
298.15	4730	.0222	.000888
323.15	600	.00214	.0000856
323.15	1050	.00331	.0001324
323.15	2060	.00616	.0002464
323.15	2980	.00895	.000358
323.15	4090	.0113	.000452
323.15	4120	.0116	.000464
323.15	5020	.0139	.000556
348.15	540	.00126	.0000504
348.15	1000	.00241	.0000964
348.15	2030	.00467	.0001868
348.15	3100	.00688	.0002752
348.15	4030	.00859	.0003436
348.15	5140	.0106	.000424
373.15	990	.00175	.00007
373.15	2010	.00359	.0001436
373.15	3050	.00541	.0002164
373.15	4040	.00697	.0002788
373.15	5030	.00874	.0003496
373.15	5030	.00857	.0003428
393.15	960	.00141	.0000564
393.15	2030	.00326	.0001304
393.15	3050	.00487	.0001948
393.15	4030	.00617	.0002468
393.15	4830	.00715	.000286

System: carbon dioxide + sodium hydroxide + water; phases: Liquid, Gas
Fixed: Solvent: Amount concentration (molarity), mol/dm3 of sodium hydroxide = 1
Property: Mole fraction of carbon dioxide (Liquid); method: Chromatography
Temperature, K	Pressure, kPa	Mole fraction of carbon dioxide	uncertainty
293.15	320	.0189	.000756
293.15	590	.02	.0008
293.15	1040	.0224	.000896
293.15	2060	.0264	.001056
293.15	3000	.0302	.001208
293.15	4030	.0331	.001324
293.15	4960	.0368	.001472
313.15	280	.0181	.000724
313.15	590	.0197	.000788
313.15	1040	.0216	.000864
313.15	2070	.0243	.000972
313.15	3010	.027	.00108
313.15	4010	.0292	.001168
313.15	5010	.0319	.001276
333.15	290	.0174	.000696
333.15	670	.0192	.000768
333.15	1000	.02	.0008
333.15	1990	.0218	.000872
333.15	3040	.0241	.000964
333.15	3980	.0261	.001044
333.15	5020	.0272	.001088
