Measured thermophysical data. Solubility of 2-Butyl-3-benzofuranyl 4-(2-(Diethylamino)ethoxy)-3,5-diiodophenyl Ketone Hydrochloride (Amiodarone HCl) in Ethanol + Water and N-Methyl-2-pyrrolidone + Water Mixtures at Various Temperatures
Source: J. Chem. Eng. Data, 2012, 10.1021/je201268b
Compound 1: ethanol, C2H6O, purity 99.5%
Compound 2: water, H2O, purity 99.9%
Compound 3: amiodarone, C25H29I2NO3, purity 99.9%
Compound 4: N-methyl-2-pyrrolidone, C5H9NO, purity 99.5%

System: ethanol + amiodarone + water; phases: Liquid, Crystal
Fixed: Pressure, kPa = 101
Property: Mole fraction of amiodarone (Liquid); method: Spectrophotometrical Assay
Temperature, K	Solvent: Mass fraction of water	Mole fraction of amiodarone	uncertainty
293.2	0	.00116	.00003364
298.2	0	.00153	.00004437
303.2	0	.00228	.00006612
308.2	0	.0045	.0001305
313.2	0	.0065	.0001885
293.2	.12	.00227	.00006583
298.2	.12	.00438	.00012702
303.2	.12	.00564	.00016356
308.2	.12	.00848	.00024592
313.2	.12	.0166	.0004814
298.2	.24	.0055	.0001595
303.2	.24	.00741	.00021489
308.2	.24	.00978	.00028362
293.2	.24	.00397	.00011513
313.2	.24	.0167	.0004843
298.2	.35	.00433	.00012557
303.2	.35	.00621	.00018009
293.2	.35	.00329	.00009541
308.2	.35	.00859	.00024911
313.2	.35	.0126	.0003654
293.2	.46	.00259	.00007511
303.2	.46	.00478	.00013862
298.2	.46	.00342	.00009918
308.2	.46	.00641	.00018589
313.2	.46	.0101	.0002929
303.2	.56	.00328	.00009512
298.2	.56	.00209	.00006061
308.2	.56	.00508	.00014732
313.2	.56	.00768	.00022272
293.2	.56	.00158	.00004582
308.2	.66	.00329	.00009541
298.2	.66	.00103	.00002987
313.2	.66	.00489	.00014181
303.2	.66	.00157	.00004553
293.2	.66	.000694	.000020126
308.2	.75	.00151	.00004379
303.2	.75	.000817	.000023693
293.2	.75	.00027	.00000783
313.2	.75	.00247	.00007163
298.2	.75	.000533	.000015457
298.2	.84	.0000997	.0000028913
313.2	.84	.000777	.000022533
308.2	.84	.000369	.000010701
293.2	.84	.0000803	.0000023287
303.2	.84	.000184	.000005336
313.2	.92	.000107	.000003103
298.2	.92	.0000217	.0000006293
293.2	.92	.0000167	.0000004843
303.2	.92	.0000329	.0000009541
308.2	.92	.0000549	.0000015921
313.2	1	.0000118	.0000003422
293.2	1	.0000044	.0000001276
298.2	1	.0000063	.0000001827
308.2	1	.0000093	.0000002697
303.2	1	.0000081	.0000002349

System: ethanol + amiodarone + water; phases: Liquid, Crystal
Fixed: Pressure, kPa = 101
Property: Mass density, kg/m3 (Liquid); method: Pycnometric method
Temperature, K	Solvent: Mass fraction of water	Mass density, kg/m3	uncertainty
293.2	1	1038	
293.2	.92	1020	
293.2	.84	1010	
293.2	.75	992	
293.2	.66	984	
293.2	.56	972	
293.2	.46	958	
293.2	.35	944	
293.2	.24	916	
293.2	.12	874	
293.2	0	820	
298.2	1	1036	
298.2	.92	1006	
298.2	.84	1004	
298.2	.75	1000	
298.2	.66	988	
298.2	.56	976	
298.2	.46	964	
298.2	.35	944	
298.2	.24	926	
298.2	.12	872	
298.2	0	818	
303.2	1	1030	
303.2	.92	1016	
303.2	.84	1000	
303.2	.75	990	
303.2	.66	984	
303.2	.56	976	
303.2	.46	964	
303.2	.35	948	
303.2	.24	922	
303.2	.12	880	
303.2	0	818	
308.2	1	1030	
308.2	.92	1018	
308.2	.84	1002	
308.2	.75	998	
308.2	.66	994	
308.2	.56	988	
308.2	.46	974	
308.2	.35	962	
308.2	.24	938	
308.2	.12	886	
308.2	0	822	
313.2	1	1028	
313.2	.92	1020	
313.2	.84	1008	
313.2	.75	1012	
313.2	.66	1018	
313.2	.56	1022	
313.2	.46	1020	
313.2	.35	1004	
313.2	.24	966	
313.2	.12	896	
313.2	0	818	

System: N-methyl-2-pyrrolidone + amiodarone + water; phases: Liquid, Crystal
Fixed: Pressure, kPa = 101
Property: Mole fraction of amiodarone (Liquid); method: Spectrophotometrical Assay
Temperature, K	Solvent: Mass fraction of water	Mole fraction of amiodarone	uncertainty
293.2	1	.0000044	.0000001276
293.2	.9	.0000416	.0000012064
293.2	.8	.000174	.000005046
293.2	.7	.000433	.000012557
293.2	.6	.000773	.000022417
293.2	.5	.00135	.00003915
293.2	.4	.00197	.00005713
293.2	.3	.00277	.00008033
293.2	.2	.00447	.00012963
293.2	.1	.00603	.00017487
293.2	0	.0089	.0002581
298.2	1	.0000062	.0000001798
298.2	.9	.0000669	.0000019401
298.2	.8	.000226	.000006554
298.2	.7	.000561	.000016269
298.2	.6	.00118	.00003422
298.2	.5	.00195	.00005655
298.2	.4	.00299	.00008671
298.2	.3	.00412	.00011948
298.2	.2	.00554	.00016066
298.2	.1	.00818	.00023722
298.2	0	.0116	.0003364
303.2	1	.0000081	.0000002349
303.2	.9	.0000923	.0000026767
303.2	.8	.000328	.000009512
303.2	.7	.000834	.000024186
303.2	.6	.00159	.00004611
303.2	.5	.00264	.00007656
303.2	.4	.00358	.00010382
303.2	.3	.00526	.00015254
303.2	.2	.0072	.0002088
303.2	.1	.0103	.0002987
303.2	0	.0132	.0003828
308.2	1	.0000093	.0000002697
308.2	.9	.000122	.000003538
308.2	.8	.000452	.000013108
308.2	.7	.00118	.00003422
308.2	.6	.00204	.00005916
308.2	.5	.00363	.00010527
308.2	.4	.00488	.00014152
308.2	.3	.00655	.00018995
308.2	.2	.00968	.00028072
308.2	.1	.0124	.0003596
308.2	0	.0167	.0004843
313.2	1	.0000119	.0000003451
313.2	.9	.000191	.000005539
313.2	.8	.000795	.000023055
313.2	.7	.0015	.0000435
313.2	.6	.00259	.00007511
313.2	.5	.00426	.00012354
313.2	.4	.00568	.00016472
313.2	.3	.0082	.0002378
313.2	.2	.0115	.0003335
313.2	.1	.0142	.0004118
313.2	0	.0189	.0005481

System: N-methyl-2-pyrrolidone + amiodarone + water; phases: Liquid, Crystal
Fixed: Pressure, kPa = 101
Property: Mass density, kg/m3 (Liquid); method: Pycnometric method
Temperature, K	Solvent: Mass fraction of water	Mass density, kg/m3	uncertainty
293.2	1	1038	
293.2	.9	1044	
293.2	.8	1052	
293.2	.7	1062	
293.2	.6	1072	
293.2	.5	1082	
293.2	.4	1092	
293.2	.3	1098	
293.2	.2	1104	
293.2	.1	1102	
293.2	0	1088	
298.2	1	1036	
298.2	.9	1042	
298.2	.8	1046	
298.2	.7	1058	
298.2	.6	1070	
298.2	.5	1082	
298.2	.4	1092	
298.2	.3	1098	
298.2	.2	1100	
298.2	.1	1098	
298.2	0	1088	
303.2	1	1030	
303.2	.9	1040	
303.2	.8	1050	
303.2	.7	1056	
303.2	.6	1066	
303.2	.5	1082	
303.2	.4	1096	
303.2	.3	1100	
303.2	.2	1102	
303.2	.1	1104	
303.2	0	1092	
308.2	1	1030	
308.2	.9	1036	
308.2	.8	1046	
308.2	.7	1060	
308.2	.6	1070	
308.2	.5	1082	
308.2	.4	1090	
308.2	.3	1096	
308.2	.2	1106	
308.2	.1	1104	
308.2	0	1094	
313.2	1	1028	
313.2	.9	1038	
313.2	.8	1050	
313.2	.7	1058	
313.2	.6	1070	
313.2	.5	1084	
313.2	.4	1096	
313.2	.3	1102	
313.2	.2	1112	
313.2	.1	1114	
313.2	0	1104	

System: ethanol + amiodarone; phases: Liquid, Crystal
Property: Mole fraction of amiodarone (Liquid); method: Spectrophotometrical Assay
Temperature, K	Pressure, kPa	Mole fraction of amiodarone	uncertainty
293.2	101	.00116	.00003364
298.2	101	.00153	.00004437
303.2	101	.00228	.00006612
308.2	101	.0045	.0001305
313.2	101	.0065	.0001885

System: ethanol + amiodarone; phases: Liquid, Crystal
Property: Mass density, kg/m3 (Liquid); method: Pycnometric method
Temperature, K	Pressure, kPa	Mass density, kg/m3	uncertainty
293.2	101	820	
298.2	101	818	
303.2	101	818	
308.2	101	822	
313.2	101	818	

System: amiodarone + water; phases: Liquid, Crystal
Property: Mole fraction of amiodarone (Liquid); method: Spectrophotometrical Assay
Temperature, K	Pressure, kPa	Mole fraction of amiodarone	uncertainty
313.2	101	.0000118	.0000003422
293.2	101	.0000044	.0000001276
298.2	101	.0000063	.0000001827
308.2	101	.0000093	.0000002697
303.2	101	.0000081	.0000002349
298.2	101	.0000062	.0000001798
313.2	101	.0000119	.0000003451

System: amiodarone + water; phases: Liquid, Crystal
Property: Mass density, kg/m3 (Liquid); method: Pycnometric method
Temperature, K	Pressure, kPa	Mass density, kg/m3	uncertainty
293.2	101	1038	
298.2	101	1036	
303.2	101	1030	
308.2	101	1030	
313.2	101	1028	

System: N-methyl-2-pyrrolidone + amiodarone; phases: Liquid, Crystal
Property: Mole fraction of amiodarone (Liquid); method: Spectrophotometrical Assay
Temperature, K	Pressure, kPa	Mole fraction of amiodarone	uncertainty
293.2	101	.0089	.0002581
298.2	101	.0116	.0003364
303.2	101	.0132	.0003828
308.2	101	.0167	.0004843
313.2	101	.0189	.0005481

System: N-methyl-2-pyrrolidone + amiodarone; phases: Liquid, Crystal
Property: Mass density, kg/m3 (Liquid); method: Pycnometric method
Temperature, K	Pressure, kPa	Mass density, kg/m3	uncertainty
293.2	101	1088	
298.2	101	1088	
303.2	101	1092	
308.2	101	1094	
313.2	101	1104	
