Measured thermophysical data. Solubility and Micronization of DL-2-Phenoxypropionic Acid in Supercritical CO2
Source: J. Chem. Eng. Data, 2012, 10.1021/je200661p
Compound 1: DL-2-phenoxypropionic acid, C9H10O3, purity 98%
Compound 2: carbon dioxide, CO2

System: carbon dioxide + DL-2-phenoxypropionic acid; phases: Fluid (supercritical or subcritical phases), Crystal
Property: Mole fraction of DL-2-phenoxypropionic acid (Fluid (supercritical or subcritical phases)); method: ultraviolet spectrophotometer
Temperature, K	Pressure, kPa	Mole fraction of DL-2-phenoxypropionic acid	uncertainty
308	10000	.000153	.000000153
308	15000	.000213	.000000213
308	20000	.000245	.000000245
308	25000	.000334	.000000334
308	30000	.000405	.000000405
313	10000	.000161	.000000161
313	15000	.000227	.000000227
313	20000	.000305	.000000305
313	25000	.000402	.000000402
313	30000	.0005	.0000005
318	10000	.000182	.000000182
318	15000	.000258	.000000258
318	20000	.000356	.000000356
318	25000	.000448	.000000448
318	30000	.000656	.000000656
323	10000	.000207	.000000207
323	15000	.000295	.000000295
323	20000	.000427	.000000427
323	25000	.000618	.000000618
323	30000	.000802	.000000802
