Measured thermophysical data. Activity Coefficients at Infinite Dilution of Alkanes, Alkenes, and Alkyl Benzenes in 1-Butyl-3-methylimidazolium Dibutylphosphate Using Gas Liquid Chromatography
Source: J. Chem. Eng. Data, 2012, 10.1021/je201310d
Compound 1: 1-butyl-3-methylimidazolium dibutylphosphate, C16H33N2O4P, purity 99%
Compound 2: pentane, C5H12, purity 99%
Compound 3: n-hexane, C6H14, purity 99%
Compound 4: heptane, C7H16, purity 99%
Compound 5: n-octane, C8H18, purity 99%
Compound 6: nonane, C9H20, purity 99%
Compound 7: n-decane, C10H22, purity 99%
Compound 8: cyclohexane, C6H12, purity 99%
Compound 9: cyclohexane, methyl-, C7H14, purity 99%
Compound 10: isooctane, C8H18, purity 99%
Compound 11: cyclohexene, C6H10, purity 99%
Compound 12: styrene, C8H8, purity 99%
Compound 13: benzene, C6H6, purity 99%
Compound 14: toluene, C7H8, purity 99%
Compound 15: 1,2-dimethylbenzene, C8H10, purity 99%
Compound 16: 1,3-xylene, C8H10, purity 99%
Compound 17: 1,4-xylene, C8H10, purity 99%

System: pentane + 1-butyl-3-methylimidazolium dibutylphosphate; phases: Liquid
Fixed: Pressure, kPa = 101
Fixed: Mole fraction of pentane = 0
Property: Activity coefficient of pentane (Liquid); method: Chromatography
Temperature, K	Activity coefficient of pentane	uncertainty
313.15	4.12	.206
323.15	4.05	.2025
333.15	3.93	.1965
343.15	3.86	.193
353.15	3.79	.1895
363.15	3.72	.186

System: n-hexane + 1-butyl-3-methylimidazolium dibutylphosphate; phases: Liquid
Fixed: Pressure, kPa = 101
Fixed: Mole fraction of n-hexane = 0
Property: Activity coefficient of n-hexane (Liquid); method: Chromatography
Temperature, K	Activity coefficient of n-hexane	uncertainty
313.15	4.73	.2365
323.15	4.63	.2315
333.15	4.51	.2255
343.15	4.45	.2225
353.15	4.32	.216
363.15	4.24	.212

System: heptane + 1-butyl-3-methylimidazolium dibutylphosphate; phases: Liquid
Fixed: Pressure, kPa = 101
Fixed: Mole fraction of heptane = 0
Property: Activity coefficient of heptane (Liquid); method: Chromatography
Temperature, K	Activity coefficient of heptane	uncertainty
313.15	5.5	.275
323.15	5.38	.269
333.15	5.29	.2645
343.15	5.21	.2605
353.15	5.12	.256
363.15	5.05	.2525

System: n-octane + 1-butyl-3-methylimidazolium dibutylphosphate; phases: Liquid
Fixed: Pressure, kPa = 101
Fixed: Mole fraction of n-octane = 0
Property: Activity coefficient of n-octane (Liquid); method: Chromatography
Temperature, K	Activity coefficient of n-octane	uncertainty
313.15	6.54	.327
323.15	6.43	.3215
333.15	6.36	.318
343.15	6.28	.314
353.15	6.21	.3105
363.15	6.15	.3075

System: nonane + 1-butyl-3-methylimidazolium dibutylphosphate; phases: Liquid
Fixed: Pressure, kPa = 101
Fixed: Mole fraction of nonane = 0
Property: Activity coefficient of nonane (Liquid); method: Chromatography
Temperature, K	Activity coefficient of nonane	uncertainty
313.15	7.69	.3845
323.15	7.47	.3735
333.15	7.31	.3655
343.15	7.13	.3565
353.15	7.02	.351
363.15	6.88	.344

System: n-decane + 1-butyl-3-methylimidazolium dibutylphosphate; phases: Liquid
Fixed: Pressure, kPa = 101
Fixed: Mole fraction of n-decane = 0
Property: Activity coefficient of n-decane (Liquid); method: Chromatography
Temperature, K	Activity coefficient of n-decane	uncertainty
313.15	10.04	.502
323.15	9.65	.4825
333.15	9.16	.458
343.15	8.78	.439
353.15	8.54	.427
363.15	8.25	.4125

System: cyclohexane + 1-butyl-3-methylimidazolium dibutylphosphate; phases: Liquid
Fixed: Pressure, kPa = 101
Fixed: Mole fraction of cyclohexane = 0
Property: Activity coefficient of cyclohexane (Liquid); method: Chromatography
Temperature, K	Activity coefficient of cyclohexane	uncertainty
313.15	3.09	.1545
323.15	2.99	.1495
333.15	2.84	.142
343.15	2.76	.138
353.15	2.68	.134
363.15	2.59	.1295

System: cyclohexane, methyl- + 1-butyl-3-methylimidazolium dibutylphosphate; phases: Liquid
Fixed: Pressure, kPa = 101
Fixed: Mole fraction of cyclohexane, methyl- = 0
Property: Activity coefficient of cyclohexane, methyl- (Liquid); method: Chromatography
Temperature, K	Activity coefficient of cyclohexane, methyl-	uncertainty
313.15	3.7	.185
323.15	3.61	.1805
333.15	3.54	.177
343.15	3.48	.174
353.15	3.41	.1705
363.15	3.35	.1675

System: isooctane + 1-butyl-3-methylimidazolium dibutylphosphate; phases: Liquid
Fixed: Pressure, kPa = 101
Fixed: Mole fraction of isooctane = 0
Property: Activity coefficient of isooctane (Liquid); method: Chromatography
Temperature, K	Activity coefficient of isooctane	uncertainty
313.15	6.2	.31
323.15	6.12	.306
333.15	6.06	.303
343.15	6.01	.3005
353.15	5.94	.297
363.15	5.88	.294

System: cyclohexene + 1-butyl-3-methylimidazolium dibutylphosphate; phases: Liquid
Fixed: Pressure, kPa = 101
Fixed: Mole fraction of cyclohexene = 0
Property: Activity coefficient of cyclohexene (Liquid); method: Chromatography
Temperature, K	Activity coefficient of cyclohexene	uncertainty
313.15	2.2	.11
323.15	2.15	.1075
333.15	2.11	.1055
343.15	2.05	.1025
353.15	2.02	.101
363.15	1.96	.098

System: styrene + 1-butyl-3-methylimidazolium dibutylphosphate; phases: Liquid
Fixed: Pressure, kPa = 101
Fixed: Mole fraction of styrene = 0
Property: Activity coefficient of styrene (Liquid); method: Chromatography
Temperature, K	Activity coefficient of styrene	uncertainty
313.15	1.19	.0595
323.15	1.15	.0575
333.15	1.09	.0545
343.15	1.07	.0535
353.15	1.03	.0515
363.15	.98	.049

System: benzene + 1-butyl-3-methylimidazolium dibutylphosphate; phases: Liquid
Fixed: Pressure, kPa = 101
Fixed: Mole fraction of benzene = 0
Property: Activity coefficient of benzene (Liquid); method: Chromatography
Temperature, K	Activity coefficient of benzene	uncertainty
313.15	1.03	.0515
323.15	.97	.0485
333.15	.93	.0465
343.15	.9	.045
353.15	.88	.044
363.15	.85	.0425

System: toluene + 1-butyl-3-methylimidazolium dibutylphosphate; phases: Liquid
Fixed: Pressure, kPa = 101
Fixed: Mole fraction of toluene = 0
Property: Activity coefficient of toluene (Liquid); method: Chromatography
Temperature, K	Activity coefficient of toluene	uncertainty
313.15	1.39	.0695
323.15	1.35	.0675
333.15	1.32	.066
343.15	1.3	.065
353.15	1.29	.0645
363.15	1.27	.0635

System: 1,2-dimethylbenzene + 1-butyl-3-methylimidazolium dibutylphosphate; phases: Liquid
Fixed: Pressure, kPa = 101
Fixed: Mole fraction of 1,2-dimethylbenzene = 0
Property: Activity coefficient of 1,2-dimethylbenzene (Liquid); method: Chromatography
Temperature, K	Activity coefficient of 1,2-dimethylbenzene	uncertainty
313.15	1.8	.09
323.15	1.77	.0885
333.15	1.73	.0865
343.15	1.71	.0855
353.15	1.68	.084
363.15	1.65	.0825

System: 1,3-xylene + 1-butyl-3-methylimidazolium dibutylphosphate; phases: Liquid
Fixed: Pressure, kPa = 101
Fixed: Mole fraction of 1,3-xylene = 0
Property: Activity coefficient of 1,3-xylene (Liquid); method: Chromatography
Temperature, K	Activity coefficient of 1,3-xylene	uncertainty
313.15	1.99	.0995
323.15	1.95	.0975
333.15	1.92	.096
343.15	1.88	.094
353.15	1.85	.0925
363.15	1.83	.0915

System: 1,4-xylene + 1-butyl-3-methylimidazolium dibutylphosphate; phases: Liquid
Fixed: Pressure, kPa = 101
Fixed: Mole fraction of 1,4-xylene = 0
Property: Activity coefficient of 1,4-xylene (Liquid); method: Chromatography
Temperature, K	Activity coefficient of 1,4-xylene	uncertainty
313.15	1.91	.0955
323.15	1.86	.093
333.15	1.82	.091
343.15	1.78	.089
353.15	1.75	.0875
363.15	1.72	.086
