Measured thermophysical data. Liquid Liquid Equilibria of Alkane (C10 C14) + sec-Butylbenzene + Sulfolane
Source: J. Chem. Eng. Data, 2011, 10.1021/je200203k
Compound 1: decane, C10H22
Compound 2: sec-butylbenzene, C10H14
Compound 3: sulfolane, C4H8O2S
Compound 4: dodecane, C12H26
Compound 5: tetradecane, C14H30

System: decane + sulfolane + sec-butylbenzene; phases: Liquid mixture 2, Liquid mixture 1
Fixed: Pressure, kPa = 101
Property: Mass fraction of decane (Liquid mixture 2); method: Chromatography
Property: Mass fraction of sec-butylbenzene (Liquid mixture 1); method: Chromatography
Property: Mass fraction of decane (Liquid mixture 1); method: Chromatography
Temperature, K	Mass fraction of sec-butylbenzene	Mass fraction of decane	uncertainty	Mass fraction of sec-butylbenzene	uncertainty	Mass fraction of decane	uncertainty
323.15	0	.004	.01	0	.01	.995	.01
323.15	.0148	.0044	.01	.1518	.01	.8448	.01
323.15	.0257	.0049	.01	.2488	.01	.7439	.01
323.15	.0428	.0052	.01	.3428	.01	.6396	.01
323.15	.0657	.0056	.01	.4843	.01	.492	.01
323.15	.0978	.0058	.01	.5857	.01	.3705	.01
323.15	.1307	.0061	.01	.6651	.01	.2454	.01
323.15	.1735	.0066	.01	.7143	.01	.1281	.01
348.15	0	.0062	.01	0	.01	.9906	.01
348.15	.0128	.0072	.01	.1003	.01	.8883	.01
348.15	.0302	.0079	.01	.2021	.01	.7852	.01
348.15	.0493	.0083	.01	.3143	.01	.66	.01
348.15	.0788	.0099	.01	.4179	.01	.5497	.01
348.15	.0968	.0106	.01	.5084	.01	.4354	.01
348.15	.1325	.0108	.01	.5854	.01	.3336	.01
348.15	.1706	.0121	.01	.6393	.01	.2159	.01
373.15	0	.0097	.01	0	.01	.9825	.01
373.15	.0135	.0102	.01	.0814	.01	.8972	.01
373.15	.0286	.0118	.01	.1669	.01	.8016	.01
373.15	.0428	.0113	.01	.247	.01	.7183	.01
373.15	.0653	.0114	.01	.3457	.01	.6026	.01
373.15	.105	.0112	.01	.4572	.01	.4563	.01
373.15	.1592	.0127	.01	.5436	.01	.3078	.01
373.15	.1904	.0129	.01	.5486	.01	.171	.01

System: dodecane + sulfolane + sec-butylbenzene; phases: Liquid mixture 1, Liquid mixture 2
Fixed: Pressure, kPa = 101
Property: Mass fraction of dodecane (Liquid mixture 1); method: Chromatography
Property: Mass fraction of sec-butylbenzene (Liquid mixture 2); method: Chromatography
Property: Mass fraction of dodecane (Liquid mixture 2); method: Chromatography
Temperature, K	Mass fraction of sec-butylbenzene	Mass fraction of dodecane	uncertainty	Mass fraction of sec-butylbenzene	uncertainty	Mass fraction of dodecane	uncertainty
323.15	0	.994	.01	0	.01	.0022	.01
323.15	.1222	.87	.01	.0112	.01	.0022	.01
323.15	.2771	.7113	.01	.0275	.01	.0023	.01
323.15	.4068	.5756	.01	.0543	.01	.0026	.01
323.15	.5114	.4629	.01	.0721	.01	.0028	.01
323.15	.5796	.3814	.01	.0886	.01	.0031	.01
323.15	.6504	.2924	.01	.1088	.01	.0035	.01
323.15	.7052	.1804	.01	.1494	.01	.0036	.01
348.15	0	.989	.01	0	.01	.0036	.01
348.15	.1414	.8462	.01	.0143	.01	.0041	.01
348.15	.2949	.6813	.01	.0421	.01	.0049	.01
348.15	.4269	.5402	.01	.0744	.01	.0058	.01
348.15	.512	.4399	.01	.0955	.01	.0062	.01
348.15	.5857	.3411	.01	.1221	.01	.0065	.01
348.15	.6507	.252	.01	.1586	.01	.007	.01
348.15	.6808	.1716	.01	.2021	.01	.0076	.01
373.15	0	.979	.01	0	.01	.005	.01
373.15	.1385	.8394	.01	.022	.01	.0094	.01
373.15	.28	.6862	.01	.0497	.01	.0101	.01
373.15	.4078	.5349	.01	.0773	.01	.0091	.01
373.15	.5199	.3852	.01	.1137	.01	.0092	.01
373.15	.5736	.3025	.01	.1348	.01	.0094	.01
373.15	.6027	.2347	.01	.1647	.01	.01	.01
373.15	.615	.1569	.01	.2002	.01	.0109	.01

System: sulfolane + sec-butylbenzene + tetradecane; phases: Liquid mixture 1, Liquid mixture 2
Fixed: Pressure, kPa = 101
Property: Mass fraction of tetradecane (Liquid mixture 1); method: Chromatography
Property: Mass fraction of sec-butylbenzene (Liquid mixture 2); method: Chromatography
Property: Mass fraction of tetradecane (Liquid mixture 2); method: Chromatography
Temperature, K	Mass fraction of sec-butylbenzene	Mass fraction of tetradecane	uncertainty	Mass fraction of sec-butylbenzene	uncertainty	Mass fraction of tetradecane	uncertainty
323.15	0	.9934	.01	0	.01	.0009	.01
323.15	.151	.8401	.01	.0112	.01	.0012	.01
323.15	.2563	.7336	.01	.0201	.01	.0014	.01
323.15	.3849	.6009	.01	.0365	.01	.0015	.01
323.15	.5003	.4783	.01	.054	.01	.0019	.01
323.15	.6178	.3399	.01	.0851	.01	.002	.01
323.15	.6876	.2402	.01	.1149	.01	.0021	.01
323.15	.7181	.1748	.01	.1476	.01	.0024	.01
348.15	0	.9876	.01	0	.01	.002	.01
348.15	.1133	.8715	.01	.0089	.01	.0021	.01
348.15	.237	.7398	.01	.0248	.01	.0025	.01
348.15	.338	.6348	.01	.0359	.01	.0025	.01
348.15	.4663	.4956	.01	.0653	.01	.0032	.01
348.15	.5802	.3601	.01	.1077	.01	.0038	.01
348.15	.6549	.2494	.01	.148	.01	.0048	.01
348.15	.6762	.1614	.01	.1969	.01	.0059	.01
373.15	0	.9774	.01	0	.01	.0038	.01
373.15	.1436	.8299	.01	.021	.01	.0042	.01
373.15	.236	.7297	.01	.0373	.01	.0046	.01
373.15	.3254	.6302	.01	.0563	.01	.0052	.01
373.15	.4491	.4877	.01	.0858	.01	.0058	.01
373.15	.5454	.3549	.01	.1252	.01	.0075	.01
373.15	.6157	.2371	.01	.1698	.01	.0073	.01
373.15	.6214	.1363	.01	.2228	.01	.0072	.01
