Measured thermophysical data. Molar Volumes and Heat Capacities of Aqueous Solutions of Short-Chain Aliphatic Sodium Carboxylates at 25 deg C
Source: J. Chem. Eng. Data, 2011, 10.1021/je200964m
Compound 1: sodium methanoate, CHNaO2, purity 99%
Compound 2: sodium propionate, C3H5NaO2, purity 99%
Compound 3: anhydrous sodium acetate, C2H3NaO2, purity 99%
Compound 4: sodium butanoate, C4H7NaO2, purity 99%
Compound 5: water, H2O, purity 99.99%

System: anhydrous sodium acetate + water; phases: Liquid
Fixed: Pressure, kPa = 100
Fixed: Temperature, K = 298.15
Property: Mass density, kg/m3 (Liquid); method: Vibrating tube method
Molality, mol/kg of anhydrous sodium acetate	Mass density, kg/m3	uncertainty
.01999	997.898	.01
.02177	997.982	.01
.03988	998.731	.01
.04259	998.856	.01
.06003	999.574	.01
.06004	999.577	.01
.08011	1000.408	.01
.08018	1000.417	.01
.1002	1001.247	.01
.1002	1001.255	.01
.25	1007.38	.01
.4956	1017.133	.01
.4998	1017.288	.01
.9999	1036.136	.01
1.997	1070.477	.01
2.003	1070.589	.01
4.532	1141.59	.01

System: anhydrous sodium acetate + water; phases: Liquid
Fixed: Pressure, kPa = 100
Fixed: Temperature, K = 298.15
Property: Molar heat capacity at constant pressure, J/K/mol (Liquid); method: Flow calorimetry
Molality, mol/kg of anhydrous sodium acetate	Molar heat capacity at constant pressure, J/K/mol	uncertainty
.01999	75.3370701885067	.00208825
.02177	75.3348134280724	.00208795
.03988	75.3388547387613	.00208565
.04259	75.3338083177555	.00208515
.06003	75.3307285315949	.00208275
.06004	75.334393359031	.00208285
.08011	75.340035964743	.00208035
.08018	75.3367493738311	.00208025
.1002	75.3382216827462	.00207765
.1002	75.3400347461034	.0020777
.25	75.3707637775781	.00205905
.4956	75.481141937337	.00203105
.4998	75.4763076892047	.0020304
.9999	75.8608259186452	.0019809
1.997	77.1307969836369	.00190555
2.003	77.1290484843139	.0019049
4.532	81.9930202687826	.00179435

System: sodium propionate + water; phases: Liquid
Fixed: Pressure, kPa = 100
Fixed: Temperature, K = 298.15
Property: Mass density, kg/m3 (Liquid); method: Vibrating tube method
Molality, mol/kg of sodium propionate	Mass density, kg/m3	uncertainty
.01002	997.478	.01
.02029	997.9	.01
.04064	998.74	.01
.06027	999.536	.01
.08026	1000.385	.01
.1002	1001.208	.01
.1998	1005.242	.01
.5005	1016.942	.01
.7511	1026.374	.01
1	1035.327	.01
1.982	1067.677	.01
3.972	1119.872	.01
5.982	1158.323	.01
8.004	1185.887	.01

System: sodium propionate + water; phases: Liquid
Fixed: Pressure, kPa = 100
Fixed: Temperature, K = 298.15
Property: Molar heat capacity at constant pressure, J/K/mol (Liquid); method: Flow calorimetry
Molality, mol/kg of sodium propionate	Molar heat capacity at constant pressure, J/K/mol	uncertainty
.01002	75.3537336043343	.00208975
.02029	75.3707461204444	.00208855
.04064	75.4051908212021	.0020862
.06027	75.4404997411037	.002084
.08026	75.4703354116458	.0020816
.1002	75.5067892096837	.0020794
.1998	75.6945277884916	.0020687
.5005	76.3103772069414	.002039
.7511	76.8654346752924	.0020167
1	77.4769914817238	.0019972
1.982	80.1898401029678	.0019364
3.972	86.5066215468969	.0018622
5.982	92.6950185071275	.0018099
8.004	98.5163605474689	.00176865

System: sodium butanoate + water; phases: Liquid
Fixed: Pressure, kPa = 100
Fixed: Temperature, K = 298.15
Property: Mass density, kg/m3 (Liquid); method: Vibrating tube method
Molality, mol/kg of sodium butanoate	Mass density, kg/m3	uncertainty
.01976	997.868	.01
.04005	998.697	.01
.06005	999.507	.01
.08053	1000.319	.01
.102	1001.172	.01
.2495	1006.975	.01
.4997	1016.488	.01
.7508	1025.47	.01
1	1034.04	.01
1.993	1064.546	.01
4	1109.055	.01
5.997	1136.236	.01

System: sodium butanoate + water; phases: Liquid
Fixed: Pressure, kPa = 100
Fixed: Temperature, K = 298.15
Property: Molar heat capacity at constant pressure, J/K/mol (Liquid); method: Flow calorimetry
Molality, mol/kg of sodium butanoate	Molar heat capacity at constant pressure, J/K/mol	uncertainty
.01976	75.4065334201443	.00208905
.04005	75.4710528425163	.00208695
.06005	75.5386205571628	.002085
.08053	75.6109529448538	.0020831
.102	75.6770052063951	.00208085
.2495	76.1912458751774	.00206735
.4997	77.1157131378859	.00204695
.7508	78.0902681745659	.00202895
1	79.1069357002512	.00201345
1.993	83.4241893734794	.00196695
4	91.225233070959	.0018845
5.997	97.9858273858835	.00181505

System: sodium methanoate + water; phases: Liquid
Fixed: Pressure, kPa = 100
Fixed: Temperature, K = 298.15
Property: Mass density, kg/m3 (Liquid); method: Vibrating tube method
Molality, mol/kg of sodium methanoate	Mass density, kg/m3	uncertainty
.01004	997.512	.01
.02003	997.907	.01
.04064	998.753	.01
.06027	999.589	.01
.08026	1000.449	.01
.1002	1001.247	.01
.1998	1005.363	.01
.5005	1017.336	.01
.75	1027.242	.01
1.008	1037.006	.01
2.576	1092.067	.01
3.968	1134.814	.01
6.036	1190.197	.01
8.011	1235.127	.01
10.011	1275.624	.01
.00974	997.482	.01
.02065	997.932	.01
.04058	998.75	.01
.06153	999.685	.01
.08098	1000.466	.01
.1006	1001.274	.01
.25	1007.389	.01
.5003	1017.411	.01
.7507	1027.174	.01
1	1036.614	.01
2	1072.425	.01
4	1135.381	.01
5.998	1188.906	.01

System: sodium methanoate + water; phases: Liquid
Fixed: Pressure, kPa = 100
Fixed: Temperature, K = 298.15
Property: Molar heat capacity at constant pressure, J/K/mol (Liquid); method: Flow calorimetry
Molality, mol/kg of sodium methanoate	Molar heat capacity at constant pressure, J/K/mol	uncertainty
.01004	74.712611218383	.00207255
.02003	74.7913618542608	.0020737
.04064	74.7888326258773	.0020715
.06027	74.7625620898893	.00206875
.08026	74.7337642765991	.0020659
.1002	74.7190076265827	.00206345
.1998	74.619604212655	.0020506
.5005	74.4111377387276	.00201525
.75	74.3290354633454	.00198935
1.008	74.2644598820029	.00196395
2.576	75.4627444540558	.0018649
3.968	75.9331119999419	.00177825
6.036	77.805209438457	.00169745
8.011	81.1322079304521	.001668
10.011	84.0186452167437	.00163755
.00974	74.6898628105085	.00207195
.02065	74.6998998694433	.0020711
.04058	74.7127915156174	.0020694
.06153	74.6552090254672	.00206565
.08098	74.6315247436704	.002063
.1006	74.6172863737477	.0020606
.25	74.491636233823	.00204205
.5003	74.2959612895232	.00201215
.7507	74.1820184817367	.00198535
1	73.8629369728052	.00195405
2	74.3200027573976	.00188115
4	75.9753151182237	.00177715
5.998	78.4316857481475	.0017132
