Measured thermophysical data. Temperature dependence of the surface tension and  density at 0.1 MPa for 1-ethyl- and  1-butyl-3-methylimidazolium dicyanamide
Source: J. Chem. Eng. Data, 2011, 10.1021/je200502j
Compound 1: 1-ethyl-3-methylimidazolium dicyanamide, C8H11N5, purity 98%
Compound 2: 1-butyl-3-methylimidazolium dicyanamide, C10H15N5, purity 98%

System: 1-ethyl-3-methylimidazolium dicyanamide; phases: Liquid, Air at 1 atmosphere
Property: Surface tension liquid-gas, N/m (Liquid); method: Wihelmy Plate Method
Temperature, K	Surface tension liquid-gas, N/m	uncertainty
278.18	.06174	.00003
282.17	.06123	.000006
288.32	.06067	.000008
292.96	.06047	.000006
298.31	.06	.000014
303.06	.05962	.000008
308.37	.0594	.000002
313.3	.05884	.000005
318.4	.05854	.000006
323.52	.05818	.000008
328.38	.05796	.000003
333.33	.0575	.000006
338.11	.05698	.000011
343.19	.05671	.000007
348.45	.05636	.00001

System: 1-ethyl-3-methylimidazolium dicyanamide; phases: Liquid, Air at 1 atmosphere
Property: Surface tension liquid-gas, N/m (Liquid); method: du Nouy Ring Method
Temperature, K	Surface tension liquid-gas, N/m	uncertainty
278.16	.06196	.000015
282.21	.06163	.000017
288.28	.06107	.000025
292.96	.06127	.000013
298.3	.06062	.000012
303.07	.06056	.000019
308.32	.06013	.000019
313.38	.05989	.000022
318.38	.05888	.000029
323.62	.05893	.000015
328.35	.05826	.000038
333.33	.05782	.000043
338.21	.05731	.000038
343.25	.05685	.000045
348.34	.05703	.000022
356.46	.05562	.000089

System: 1-butyl-3-methylimidazolium dicyanamide; phases: Liquid, Air at 1 atmosphere
Property: Surface tension liquid-gas, N/m (Liquid); method: Wihelmy Plate Method
Temperature, K	Surface tension liquid-gas, N/m	uncertainty
282.53	.04671	.000015
288.31	.04637	.000018
292.97	.04614	.000007
298.67	.04581	.000007
303.21	.04542	.000008
308.4	.04533	.000005
313.4	.04501	.000009
318.59	.04481	.000006
323.24	.04447	.000022
328.43	.04421	.000008
333.09	.04398	.000018
338.46	.04365	.000016
343.34	.04348	.000008
348.72	.04316	.000006
356.49	.04272	.000013

System: 1-butyl-3-methylimidazolium dicyanamide; phases: Liquid, Air at 1 atmosphere
Property: Surface tension liquid-gas, N/m (Liquid); method: du Nouy Ring Method
Temperature, K	Surface tension liquid-gas, N/m	uncertainty
282.54	.04651	.000115
288.36	.0464	.000073
292.97	.04624	.000096
298.69	.04588	.000078
303.2	.04587	.00006
308.43	.04556	.000053
313.45	.04499	.000108
318.82	.04511	.000045
323.3	.0445	.000058
328.55	.04412	.000049
333.18	.04399	.000041
338.48	.04353	.000093
343.65	.04322	.000153
348.78	.04348	.000091
356.47	.04266	.000101
