Measured thermophysical data. Solid Liquid Equilibria for Six Binary Mixtures Involving Heptanedioic Acid, Pentanedioic Acid, Hexanedioic Acid, 2,3-Dimethylbutanedioic Acid, 2,2-Dimethylbutanedioic Acid, and 3-Methylheptanedioic Acid
Source: J. Chem. Eng. Data, 2012, 10.1021/je200800f
Compound 1: pimelic acid, C7H12O4, purity 99%
Compound 2: 2,2-dimethylsuccinic acid, C6H10O4, purity 99%
Compound 3: 3-methylglutaric acid, C6H10O4, purity 99%
Compound 4: 1,6-hexanedioic acid, C6H10O4, purity 99%
Compound 5: glutaric acid, C5H8O4, purity 99%
Compound 6: 2,3-dimethylsuccinic acid, C6H10O4, purity 99%

System: pimelic acid; phases: Crystal, Liquid, Air at 1 atmosphere
Property: Molar enthalpy of transition or fusion, kJ/mol (Crystal); method: DSC/DTA
Molar enthalpy of transition or fusion, kJ/mol	uncertainty
28.8	.5

System: pimelic acid; phases: Crystal, Liquid, Air at 1 atmosphere
Property: Normal melting temperature, K (Crystal); method: DSC/DTA
Normal melting temperature, K	uncertainty
377.4	1

System: 2,2-dimethylsuccinic acid; phases: Crystal, Liquid, Air at 1 atmosphere
Property: Molar enthalpy of transition or fusion, kJ/mol (Crystal); method: DSC/DTA
Molar enthalpy of transition or fusion, kJ/mol	uncertainty
38.1	.5

System: 2,2-dimethylsuccinic acid; phases: Crystal 1, Liquid, Air at 1 atmosphere
Property: Normal melting temperature, K (Crystal 1); method: DSC/DTA
Normal melting temperature, K	uncertainty
411	1

System: 3-methylglutaric acid; phases: Crystal, Liquid, Air at 1 atmosphere
Property: Molar enthalpy of transition or fusion, kJ/mol (Crystal); method: DSC/DTA
Molar enthalpy of transition or fusion, kJ/mol	uncertainty
30.9	.5

System: 3-methylglutaric acid; phases: Crystal 1, Liquid, Air at 1 atmosphere
Property: Normal melting temperature, K (Crystal 1); method: DSC/DTA
Normal melting temperature, K	uncertainty
358.6	1

System: 1,6-hexanedioic acid; phases: Crystal, Liquid, Air at 1 atmosphere
Property: Molar enthalpy of transition or fusion, kJ/mol (Crystal); method: DSC/DTA
Molar enthalpy of transition or fusion, kJ/mol	uncertainty
35.2	.7

System: 1,6-hexanedioic acid; phases: Crystal, Liquid, Air at 1 atmosphere
Property: Normal melting temperature, K (Crystal); method: DSC/DTA
Normal melting temperature, K	uncertainty
426.3	1

System: glutaric acid; phases: Crystal, Liquid, Air at 1 atmosphere
Property: Molar enthalpy of transition or fusion, kJ/mol (Crystal); method: DSC/DTA
Molar enthalpy of transition or fusion, kJ/mol	uncertainty
21.5	.4

System: glutaric acid; phases: Crystal, Liquid, Air at 1 atmosphere
Property: Normal melting temperature, K (Crystal); method: DSC/DTA
Normal melting temperature, K	uncertainty
369.1	1

System: 2,3-dimethylsuccinic acid; phases: Crystal, Liquid, Air at 1 atmosphere
Property: Molar enthalpy of transition or fusion, kJ/mol (Crystal); method: DSC/DTA
Molar enthalpy of transition or fusion, kJ/mol	uncertainty
16.9	.3

System: 2,3-dimethylsuccinic acid; phases: Crystal, Liquid, Air at 1 atmosphere
Property: Normal melting temperature, K (Crystal); method: DSC/DTA
Normal melting temperature, K	uncertainty
392.5	1

System: pimelic acid + 2,2-dimethylsuccinic acid; phases: Crystal, Crystal, Liquid, Air at 1 atmosphere
Fixed: Pressure, kPa = 101.325
Property: Eutectic composition: mole fraction of pimelic acid (Crystal); method: Derived from phase diagram analysis
Eutectic composition: mole fraction of pimelic acid	uncertainty
.662	

System: pimelic acid + 2,2-dimethylsuccinic acid; phases: Crystal, Crystal, Liquid, Air at 1 atmosphere
Fixed: Pressure, kPa = 101.325
Property: Eutectic temperature, K (Crystal); method: DSC/DTA
Eutectic temperature, K	uncertainty
359.55	1

System: pimelic acid + 2,2-dimethylsuccinic acid; phases: Liquid, Crystal 1
Fixed: Pressure, kPa = 101
Property: Solid-liquid equilibrium temperature, K (Liquid); method: DSC/DTA
Mole fraction of pimelic acid	Solid-liquid equilibrium temperature, K	uncertainty
0	411	1
.0525	408.2	1
.1001	404.63	1
.1503	401.97	1
.1984	397.98	1
.2464	395.35	1
.3052	392.98	1
.3538	389.77	1
.4063	385.91	1
.4522	379.65	1
.5068	375	1
.5542	370.74	1
.5972	368.06	1

System: pimelic acid + 2,2-dimethylsuccinic acid; phases: Liquid, Crystal 1
Fixed: Pressure, kPa = 101
Property: Solid-liquid equilibrium temperature, K (Liquid); method: DSC/DTA
Mole fraction of pimelic acid	Solid-liquid equilibrium temperature, K	uncertainty
.7996	366.93	1
.8486	368.88	1
.9	373	1
.9506	373.86	1
1	377.4	1

System: pimelic acid + 3-methylglutaric acid; phases: Crystal, Crystal, Liquid, Air at 1 atmosphere
Fixed: Pressure, kPa = 101.325
Property: Eutectic composition: mole fraction of pimelic acid (Crystal); method: Derived from phase diagram analysis
Eutectic composition: mole fraction of pimelic acid	uncertainty
.383	

System: pimelic acid + 3-methylglutaric acid; phases: Crystal, Crystal, Liquid, Air at 1 atmosphere
Fixed: Pressure, kPa = 101.325
Property: Eutectic temperature, K (Crystal); method: DSC/DTA
Eutectic temperature, K	uncertainty
339.3	1

System: pimelic acid + 3-methylglutaric acid; phases: Liquid, Crystal 1
Fixed: Pressure, kPa = 101
Property: Solid-liquid equilibrium temperature, K (Liquid); method: DSC/DTA
Mole fraction of pimelic acid	Solid-liquid equilibrium temperature, K	uncertainty
0	358.6	1
.0508	356.05	1
.0964	353.91	1
.1488	352.46	1
.2016	349.79	1
.2541	348.42	1
.2996	344.32	1

System: pimelic acid + 3-methylglutaric acid; phases: Liquid, Crystal 1
Fixed: Pressure, kPa = 101
Property: Solid-liquid equilibrium temperature, K (Liquid); method: DSC/DTA
Mole fraction of pimelic acid	Solid-liquid equilibrium temperature, K	uncertainty
.5538	351.13	1
.59	354.36	1
.6519	356.74	1
.7015	359.33	1
.7524	362.28	1
.7971	367.01	1
.8482	370.32	1
.8947	372.41	1
.9489	375.42	1
1	377.4	1

System: 2,2-dimethylsuccinic acid + 3-methylglutaric acid; phases: Crystal, Crystal, Liquid, Air at 1 atmosphere
Fixed: Pressure, kPa = 101.325
Property: Eutectic composition: mole fraction of 2,2-dimethylsuccinic acid (Crystal); method: Derived from phase diagram analysis
Eutectic composition: mole fraction of 2,2-dimethylsuccinic acid	uncertainty
.212	

System: 2,2-dimethylsuccinic acid + 3-methylglutaric acid; phases: Crystal, Crystal, Liquid, Air at 1 atmosphere
Fixed: Pressure, kPa = 101.325
Property: Eutectic temperature, K (Crystal); method: DSC/DTA
Eutectic temperature, K	uncertainty
349.51	1

System: 2,2-dimethylsuccinic acid + 3-methylglutaric acid; phases: Liquid, Crystal 1
Fixed: Pressure, kPa = 101
Property: Solid-liquid equilibrium temperature, K (Liquid); method: DSC/DTA
Mole fraction of 2,2-dimethylsuccinic acid	Solid-liquid equilibrium temperature, K	uncertainty
0	358.6	1
.0546	355.58	1
.1017	353.55	1

System: 2,2-dimethylsuccinic acid + 3-methylglutaric acid; phases: Liquid, Crystal 1
Fixed: Pressure, kPa = 101
Property: Solid-liquid equilibrium temperature, K (Liquid); method: DSC/DTA
Mole fraction of 2,2-dimethylsuccinic acid	Solid-liquid equilibrium temperature, K	uncertainty
.3515	366.68	1
.4	374.06	1
.4483	372.42	1
.5	376.61	1
.5514	385.13	1
.6005	388.68	1
.6575	390.73	1
.7	392.15	1
.745	396.92	1
.7975	397.72	1
.8416	401.9	1
.8995	404.37	1
.9479	407.43	1
1	411	1

System: glutaric acid + pimelic acid; phases: Crystal, Crystal, Liquid, Air at 1 atmosphere
Fixed: Pressure, kPa = 101.325
Property: Eutectic temperature, K (Crystal); method: DSC/DTA
Eutectic temperature, K	uncertainty
342.1	1

System: glutaric acid + pimelic acid; phases: Crystal, Crystal, Liquid, Air at 1 atmosphere
Fixed: Pressure, kPa = 101.325
Property: Eutectic composition: mole fraction of pimelic acid (Crystal); method: Derived from phase diagram analysis
Eutectic composition: mole fraction of pimelic acid	uncertainty
.598	.01

System: glutaric acid + pimelic acid; phases: Liquid, Crystal
Fixed: Pressure, kPa = 101
Property: Solid-liquid equilibrium temperature, K (Liquid); method: DSC/DTA
Mole fraction of pimelic acid	Solid-liquid equilibrium temperature, K	uncertainty
0	369.1	1
.0484	367.9	1
.0993	364.3	1
.1499	360.8	1
.1978	356	1
.2522	354.9	1
.3026	347.2	1

System: glutaric acid + pimelic acid; phases: Liquid, Crystal
Fixed: Pressure, kPa = 101
Property: Solid-liquid equilibrium temperature, K (Liquid); method: DSC/DTA
Mole fraction of pimelic acid	Solid-liquid equilibrium temperature, K	uncertainty
.4471	345.6	1
.4965	349.9	1
.5559	353.6	1
.6002	356.4	1
.6531	358.7	1
.7009	360.5	1
.7503	364.9	1
.7966	367.5	1
.8512	370.4	1
.8999	372.9	1
.9501	376.2	1
1	377.4	1

System: pimelic acid + 1,6-hexanedioic acid; phases: Crystal, Crystal, Liquid, Air at 1 atmosphere
Fixed: Pressure, kPa = 101.325
Property: Eutectic temperature, K (Crystal); method: DSC/DTA
Eutectic temperature, K	uncertainty
364.5	1

System: pimelic acid + 1,6-hexanedioic acid; phases: Crystal, Crystal, Liquid, Air at 1 atmosphere
Fixed: Pressure, kPa = 101.325
Property: Eutectic composition: mole fraction of pimelic acid (Crystal); method: Derived from phase diagram analysis
Eutectic composition: mole fraction of pimelic acid	uncertainty
.239	.01

System: pimelic acid + 1,6-hexanedioic acid; phases: Liquid, Crystal
Fixed: Pressure, kPa = 101
Property: Solid-liquid equilibrium temperature, K (Liquid); method: DSC/DTA
Mole fraction of 1,6-hexanedioic acid	Solid-liquid equilibrium temperature, K	uncertainty
0	377.4	1
.0499	375.6	1
.0998	373.1	1
.1499	369.7	1

System: pimelic acid + 1,6-hexanedioic acid; phases: Liquid, Crystal
Fixed: Pressure, kPa = 101
Property: Solid-liquid equilibrium temperature, K (Liquid); method: DSC/DTA
Mole fraction of 1,6-hexanedioic acid	Solid-liquid equilibrium temperature, K	uncertainty
.301	374.9	1
.3506	378.5	1
.399	387.7	1
.4494	389.6	1
.501	394.4	1
.5518	398.4	1
.6002	402.2	1
.6511	405.9	1
.7002	408.4	1
.7501	411.6	1
.7999	414.1	1
.8501	417.1	1
.8999	419.7	1
.95	422.9	1
1	426.3	1

System: pimelic acid + 2,3-dimethylsuccinic acid; phases: Crystal, Crystal, Liquid, Air at 1 atmosphere
Fixed: Pressure, kPa = 101.325
Property: Eutectic temperature, K (Crystal); method: DSC/DTA
Eutectic temperature, K	uncertainty
346	1

System: pimelic acid + 2,3-dimethylsuccinic acid; phases: Crystal, Crystal, Liquid, Air at 1 atmosphere
Fixed: Pressure, kPa = 101.325
Property: Eutectic composition: mole fraction of pimelic acid (Crystal); method: Derived from phase diagram analysis
Eutectic composition: mole fraction of pimelic acid	uncertainty
.443	.01

System: pimelic acid + 2,3-dimethylsuccinic acid; phases: Liquid, Crystal
Fixed: Pressure, kPa = 101
Property: Solid-liquid equilibrium temperature, K (Liquid); method: DSC/DTA
Mole fraction of pimelic acid	Solid-liquid equilibrium temperature, K	uncertainty
0	392.5	1
.0479	384.3	1
.1006	381.2	1
.1504	377.5	1
.1981	373.6	1
.2482	365.1	1
.3005	363.7	1
.3461	357.9	1

System: pimelic acid + 2,3-dimethylsuccinic acid; phases: Liquid, Crystal
Fixed: Pressure, kPa = 101
Property: Solid-liquid equilibrium temperature, K (Liquid); method: DSC/DTA
Mole fraction of pimelic acid	Solid-liquid equilibrium temperature, K	uncertainty
.5569	355.7	1
.6039	357.6	1
.6477	359.4	1
.6945	363.6	1
.7507	365.1	1
.802	367.4	1
.8501	370	1
.8971	372.8	1
.9508	375.6	1
1	377.4	1
