Measured thermophysical data. Solubility of Phenothiazine in Water, Ethanol, and Propylene Glycol at (298.2 to 338.2) K and Their Binary and Ternary Mixtures at 298.2 K
Source: J. Chem. Eng. Data, 2011, 10.1021/je2001649
Compound 1: phenthiazine, C12H9NS, purity 98%
Compound 2: ethanol, C2H6O, purity 99.9%
Compound 3: propylene glycol, C3H8O2, purity 99.5%
Compound 4: water, H2O, purity 99.9%

System: phenthiazine; phases: Crystal, Liquid, Air at 1 atmosphere
Property: Normal melting temperature, K (Crystal); method: Visual observation
Normal melting temperature, K	uncertainty
456	

System: ethanol + phenthiazine; phases: Liquid, Crystal
Fixed: Pressure, kPa = 101
Property: Mass density, kg/m3 (Liquid); method: Pycnometric method
Temperature, K	Mass density, kg/m3	uncertainty
298.2	797	18.331
308.2	791	18.193
318.2	787	18.101
328.2	780	17.94

System: ethanol + phenthiazine; phases: Liquid, Crystal
Fixed: Pressure, kPa = 101
Property: Mole fraction of phenthiazine (Liquid); method: Density calibration data
Temperature, K	Mole fraction of phenthiazine	uncertainty
298.2	.00876	.001
308.2	.01	.001
318.2	.0122	.001
328.2	.0145	.001
298.2	.008753	.001

System: propylene glycol + phenthiazine; phases: Liquid, Crystal
Fixed: Pressure, kPa = 101
Property: Mass density, kg/m3 (Liquid); method: Pycnometric method
Temperature, K	Mass density, kg/m3	uncertainty
298.2	1034	23.782
308.2	1030	23.69
318.2	1022	23.506
328.2	1017	23.391
338.2	1013	23.299

System: propylene glycol + phenthiazine; phases: Liquid, Crystal
Fixed: Pressure, kPa = 101
Property: Mole fraction of phenthiazine (Liquid); method: Density calibration data
Temperature, K	Mole fraction of phenthiazine	uncertainty
298.2	.00416	.001
308.2	.0054	.001
318.2	.00656	.001
328.2	.00763	.001
338.2	.00852	.001

System: phenthiazine + water; phases: Liquid, Crystal
Fixed: Pressure, kPa = 101
Property: Mass density, kg/m3 (Liquid); method: Pycnometric method
Temperature, K	Mass density, kg/m3	uncertainty
298.2	996	1
308.2	994	1
318.2	993	1
328.2	992	1
338.2	991	1

System: phenthiazine + water; phases: Liquid, Crystal
Fixed: Pressure, kPa = 101
Property: Mole fraction of phenthiazine (Liquid); method: Density calibration data
Temperature, K	Mole fraction of phenthiazine	uncertainty
298.2	.000000156	.000000003588
308.2	.000000198	.000000004554
318.2	.000000252	.000000005796
328.2	.000000358	.000000008234
338.2	.000000491	.000000011293

System: propylene glycol + ethanol + phenthiazine; phases: Liquid, Crystal
Fixed: Temperature, K = 298.2
Fixed: Pressure, kPa = 101
Property: Mass density, kg/m3 (Liquid); method: Pycnometric method
Solvent: Mole fraction of ethanol	Mass density, kg/m3	uncertainty
1	797	21.519
.816	820	22.14
.663	837	22.599
.535	858	23.166
.425	877	23.679
.33	907	24.489
.247	925	24.975
.174	946	25.542
.11	968	26.136
.052	1009	27.243

System: propylene glycol + ethanol + phenthiazine; phases: Liquid, Crystal
Fixed: Temperature, K = 298.2
Fixed: Pressure, kPa = 101
Property: Mole fraction of phenthiazine (Liquid); method: Density calibration data
Solvent: Mole fraction of ethanol	Mole fraction of phenthiazine	uncertainty
1	.008753	.001
.816	.008759	.001
.663	.00888	.001
.535	.008526	.001
.425	.008376	.001
.33	.007941	.001
.247	.007468	.001
.174	.007044	.001
.11	.006416	.001
.052	.005274	.001

System: ethanol + phenthiazine + water; phases: Liquid, Crystal
Fixed: Temperature, K = 298.2
Fixed: Pressure, kPa = 101
Property: Mass density, kg/m3 (Liquid); method: Pycnometric method
Solvent: Mole fraction of ethanol	Mass density, kg/m3	uncertainty
.948	825	22.275
.889	846	22.842
.824	869	23.463
.751	890	24.03
.668	909	24.543
.572	929	25.083
.463	948	25.596
.334	963	26.001
.182	980	26.46

System: ethanol + phenthiazine + water; phases: Liquid, Crystal
Fixed: Temperature, K = 298.2
Fixed: Pressure, kPa = 101
Property: Mole fraction of phenthiazine (Liquid); method: Density calibration data
Solvent: Mole fraction of ethanol	Mole fraction of phenthiazine	uncertainty
.948	.005559	.001
.889	.004307	.001
.824	.002738	.001
.751	.001098	.001
.668	.0004322	.001
.572	.0002999	.001
.463	.0002088	.001
.334	.00008594	.001
.182	.000004129	.001

System: propylene glycol + phenthiazine + water; phases: Liquid, Crystal
Fixed: Temperature, K = 298.2
Fixed: Pressure, kPa = 101
Property: Mass density, kg/m3 (Liquid); method: Pycnometric method
Solvent: Mole fraction of propylene glycol	Mass density, kg/m3	uncertainty
.974	1013	27.351
.942	1011	27.297
.905	1008	27.216
.859	1007	27.189
.803	1005	27.135
.731	1003	27.081
.636	1002	27.054
.505	1001	27.027
.312	999	26.973

System: propylene glycol + phenthiazine + water; phases: Liquid, Crystal
Fixed: Temperature, K = 298.2
Fixed: Pressure, kPa = 101
Property: Mole fraction of phenthiazine (Liquid); method: Density calibration data
Solvent: Mole fraction of propylene glycol	Mole fraction of phenthiazine	uncertainty
.974	.002743	.001
.942	.001833	.001
.905	.001389	.001
.859	.0007826	.001
.803	.0005094	.001
.731	.0001982	.001
.636	.00009518	.001
.505	.00003018	.001
.312	.00001407	.001
