Measured thermophysical data. Vapor Pressures and Sublimation Enthalpies of Nickelocene and Cobaltocene Measured by Thermogravimetry
Source: J. Chem. Eng. Data, 2011, 10.1021/je200815v
Compound 1: ferrocene, C10H10Fe, purity 98%
Compound 2: nickelocene, C10H10Ni, purity 98%
Compound 3: cobaltocene, C10H10Co, purity 98%

System: ferrocene; phases: Crystal, Liquid, Air at 1 atmosphere
Property: Normal melting temperature, K (Crystal); method: DSC/DTA
Normal melting temperature, K	uncertainty
447.9	.2

System: ferrocene; phases: Crystal, Liquid, Air at 1 atmosphere
Property: Molar enthalpy of transition or fusion, kJ/mol (Crystal); method: DSC/DTA
Molar enthalpy of transition or fusion, kJ/mol	uncertainty
17.2	1.4

System: ferrocene; phases: Crystal, Gas
Property: Vapor or sublimation pressure, kPa (Crystal); method: Rate of evaporation
Temperature, K	Vapor or sublimation pressure, kPa	uncertainty
348.2	.066	
353.2	.094	
358.2	.132	
363.2	.184	
368.2	.254	
373.2	.349	
378.2	.472	
383.2	.636	
388.2	.852	
393.2	1.127	
398.2	1.486	
403.2	1.944	
408.2	2.523	
413.2	3.264	
353.2	.094	
358.2	.133	
363.2	.185	
368.2	.255	
373.2	.348	
378.2	.473	
383.2	.637	
388.2	.852	
393.2	1.127	
398.2	1.487	
403.2	1.94	
408.2	2.523	
413.2	3.254	

System: nickelocene; phases: Crystal, Liquid, Air at 1 atmosphere
Property: Molar enthalpy of transition or fusion, kJ/mol (Crystal); method: DSC/DTA
Molar enthalpy of transition or fusion, kJ/mol	uncertainty
18	.4

System: nickelocene; phases: Crystal, Liquid
Property: Solid-liquid equilibrium temperature, K (Crystal); method: DSC/DTA
Pressure, kPa	Solid-liquid equilibrium temperature, K	uncertainty
101.325	450.09	.34

System: nickelocene; phases: Crystal
Fixed: Pressure, kPa = 101.325
Property: Molar heat capacity at constant pressure, J/K/mol (Crystal); method: Small sample (50 mg) DSC
Temperature, K	Molar heat capacity at constant pressure, J/K/mol	uncertainty
295	198.89	
298.15	203.05	
300	204.37	
305	209.47	
310	212.87	
315	216.08	
320	218.72	
325	221.37	
330	223.82	
335	226.47	
340	229.49	
345	232.13	
350	234.59	
355	237.23	
360	239.88	
365	242.33	
370	244.98	
375	247.05	
380	247.05	
385	251.97	
390	254.61	
395	257.25	
400	261.03	
405	264.05	
410	266.89	
415	271.04	

System: nickelocene; phases: Crystal, Gas
Property: Vapor or sublimation pressure, kPa (Crystal); method: Rate of evaporation
Temperature, K	Vapor or sublimation pressure, kPa	uncertainty
348.23	.0855	
353.22	.1127	
358.19	.1481	
363.16	.2014	
368.17	.2694	
373.2	.3679	
378.18	.4973	
383.18	.672	
388.22	.9025	
393.17	1.2037	
398.18	1.5999	
403.17	2.1102	
408.22	2.7813	
413.17	3.6077	
348.16	.0867	
353.23	.1164	
358.22	.1496	
363.16	.2024	
368.22	.2713	
373.17	.372	
378.21	.4976	
383.21	.6752	
388.22	.9028	
393.23	1.2151	
398.16	1.6069	
403.23	2.125	
408.19	2.7759	
413.21	3.6159	
348.16	.0884	
353.22	.1202	
358.18	.1566	
363.17	.2136	
368.16	.2863	
373.21	.388	
378.19	.5319	
383.19	.7075	
388.22	.9615	
393.17	1.2786	
398.18	1.6978	
403.17	2.2324	
408.22	2.9247	
413.16	3.7865	
353.17	.1103	
358.17	.1483	
363.19	.1987	
368.17	.2664	
373.2	.3609	
378.16	.4891	
383.22	.6597	
388.15	.8814	
393.17	1.181	
398.17	1.562	
403.23	2.0796	
408.2	2.7175	
413.22	3.5441	
348.21	.0769	
358.18	.1674	
363.19	.2155	
368.22	.2891	
373.17	.3884	
378.22	.5294	
383.22	.7167	
388.16	.9569	
393.17	1.2749	
398.17	1.6934	
403.23	2.235	
408.19	2.916	
413.22	3.7819	
348.21	.0897	
353.15	.119	
358.24	.1615	
363.18	.2131	
368.17	.2892	
373.2	.392	
378.17	.5322	
383.23	.7198	
388.15	.9586	
393.16	1.2788	
398.16	1.6943	
403.23	2.2416	
408.19	2.916	
413.21	3.7805	
348.18	.0905	
353.21	.1238	
358.2	.1672	
363.16	.2232	
368.22	.3004	
373.17	.408	
378.2	.5528	
383.18	.7427	
388.18	.9936	
393.2	1.3308	
398.2	1.7639	
403.19	2.3104	
408.15	3.0031	
413.18	3.897	
348.2	.0939	
353.18	.1185	
358.16	.1593	
363.16	.2119	
368.19	.2877	
373.22	.3877	
378.2	.5213	
383.2	.7054	
388.22	.9477	
393.15	1.2611	
398.15	1.6732	
403.22	2.2097	
408.19	2.8874	
413.23	3.7579	
348.18	.084	
353.22	.1116	
358.21	.1445	
363.16	.1977	
368.23	.2654	
373.18	.3585	
378.22	.4836	
383.21	.6541	
388.21	.885	
393.23	1.1792	
398.15	1.5596	
403.23	2.0677	
408.19	2.7012	
413.22	3.5225	

System: cobaltocene; phases: Crystal, Liquid, Air at 1 atmosphere
Property: Molar enthalpy of transition or fusion, kJ/mol (Crystal); method: DSC/DTA
Molar enthalpy of transition or fusion, kJ/mol	uncertainty
17.8	.7

System: cobaltocene; phases: Crystal, Liquid
Property: Solid-liquid equilibrium temperature, K (Crystal); method: DSC/DTA
Pressure, kPa	Solid-liquid equilibrium temperature, K	uncertainty
101.325	450.52	.6

System: cobaltocene; phases: Crystal
Fixed: Pressure, kPa = 101.325
Property: Molar heat capacity at constant pressure, J/K/mol (Crystal); method: Small sample (50 mg) DSC
Temperature, K	Molar heat capacity at constant pressure, J/K/mol	uncertainty
295	195.55	
298.15	196.87	
300	197.06	
305	197.63	
310	197.82	
315	198.39	
320	200.28	
325	201.6	
330	203.87	
335	206.52	
340	209.73	
345	212.76	
350	215.97	
355	220.51	
360	225.24	
365	230.16	
370	232.43	
375	235.45	
380	239.8	
385	245.48	
390	250.58	
395	256.07	
400	262.12	
405	268.55	
410	274.79	
415	282.54	

System: cobaltocene; phases: Crystal, Gas
Property: Vapor or sublimation pressure, kPa (Crystal); method: Rate of evaporation
Temperature, K	Vapor or sublimation pressure, kPa	uncertainty
353.23	.0703	
358.23	.0908	
363.18	.1195	
368.16	.1576	
373.2	.2098	
378.23	.285	
383.19	.3807	
388.17	.5104	
393.23	.6877	
398.21	.9145	
403.18	1.2163	
408.2	1.6063	
413.21	2.101	
353.22	.0709	
358.21	.091	
363.18	.1172	
368.2	.156	
373.23	.2107	
378.2	.28	
383.16	.3809	
388.21	.5111	
393.19	.6819	
398.2	.9092	
403.2	1.2042	
408.18	1.5753	
413.22	2.0467	
353.19	.0753	
358.17	.0987	
363.17	.1277	
368.21	.1729	
373.17	.231	
378.2	.3144	
383.22	.4246	
388.18	.5674	
393.15	.7538	
398.2	.9983	
403.17	1.3001	
408.2	1.6764	
413.21	2.1296	
353.22	.0707	
358.21	.0889	
363.21	.1167	
368.16	.1539	
373.22	.21	
378.16	.2815	
383.19	.3797	
388.15	.5088	
393.21	.6769	
398.17	.8942	
403.15	1.1647	
408.19	1.5085	
413.21	1.9296	
353.18	.0721	
358.16	.0948	
363.17	.1254	
368.21	.1676	
373.19	.2228	
378.22	.3024	
383.16	.4043	
388.2	.5457	
393.18	.7276	
398.16	.9707	
403.21	1.29	
408.15	1.6804	
413.16	2.1757	
353.16	.0768	
358.23	.1019	
363.16	.1338	
368.2	.1785	
373.18	.2392	
378.2	.3213	
383.23	.4327	
388.19	.581	
393.15	.7713	
398.22	1.0199	
403.18	1.3315	
408.21	1.7286	
413.21	2.2108	
353.23	.0792	
358.21	.1028	
363.2	.1354	
368.16	.1799	
373.23	.2451	
378.17	.3287	
383.19	.4437	
388.23	.5984	
393.21	.7997	
398.19	1.0564	
403.23	1.3943	
408.17	1.8102	
413.17	2.343	
