Measured thermophysical data. P-rho-T Measurements for 1-Alkyl-3-methylimidazolium-Based Ionic Liquids with Tetrafluoroborate and a Trifluoromethanesulfonate Anion
Source: J. Chem. Eng. Data, 2012, 10.1021/je200903m
Compound 1: 1-ethyl-3-methylimidazolium tetrafluoroborate, C6H11BF4N2, purity 99.8%
Compound 2: 1-hexyl-3-methylimidazolium tetrafluoroborate, C10H19BF4N2, purity 99%
Compound 3: 1-ethyl-3-methylimidazolium triflate, C7H11F3N2O3S, purity 99%
Compound 4: 1-butyl-3-methylimidazolium triflate, C9H15F3N2O3S, purity 99%
Compound 5: 1-hexyl-3-methylimidazolium trifluoromethanesulfonate, C11H19F3N2O3S, purity 99%

System: 1-ethyl-3-methylimidazolium tetrafluoroborate; phases: Liquid
Property: Mass density, kg/m3 (Liquid); method: Isochoric PVT measurement
Temperature, K	Pressure, kPa	Mass density, kg/m3	uncertainty
292.029	1055.4	1288.31	1.28831
312.051	1111.5	1273.28	1.27328
298.634	1139.7	1283.3	1.2833
319.239	1155.6	1268	1.268
326.257	1166.5	1262.28	1.26228
305.23	1194.1	1278.54	1.27854
333.62	1252.9	1257.28	1.25728
285.804	1326.9	1292.98	1.29298
341.04	1357.1	1251.73	1.25173
325.651	9902.1	1267.42	1.26742
340.348	9969.2	1256.69	1.25669
318.372	9976	1272.71	1.27271
285.119	9993.5	1296.4	1.2964
347.971	10024	1251.12	1.25112
304.695	10037	1282.74	1.28274
332.985	10159	1261.67	1.26167
298.143	10219	1287.74	1.28774
291.59	10267	1292.43	1.29243
311.556	10293	1277.95	1.27795
325.659	18720	1272.06	1.27206
285.204	19389	1300.88	1.30088
311.554	19542	1282.12	1.28212
340.365	19698	1261.02	1.26102
304.693	19721	1287.13	1.28713
348.043	19820	1256	1.256
298.145	19834	1291.82	1.29182
318.36	19918	1277.33	1.27733
333.066	19960	1266.75	1.26675
333.066	19960	1266.75	1.26675
355.847	20035	1250.42	1.25042
291.577	20094	1295.79	1.29579
298.146	20203	1291.81	1.29181
298.146	29284	1295.18	1.29518
284.743	29331	1305.75	1.30575
355.861	29675	1255.31	1.25531
348.021	29830	1260.33	1.26033
332.865	29859	1271.38	1.27138
340.548	29899	1266.08	1.26608
304.62	29983	1291.2	1.2912
318.494	30004	1281.46	1.28146
311.493	30054	1286.49	1.28649
325.589	30106	1276.66	1.27666
292.001	30197	1300.22	1.30022
298.162	30299	1295.16	1.29516
304.388	39527	1294.57	1.29457
298.153	39774	1299.63	1.29963
340.415	39835	1270.69	1.27069
332.792	39915	1275.99	1.27599
298.147	39935	1299.63	1.29963
348.237	39938	1265.38	1.26538
311.405	39938	1290.56	1.29056
318.404	39958	1285.84	1.28584
325.589	39966	1280.8	1.2808
291.302	39987	1305.11	1.30511
284.727	40082	1309.71	1.30971
356.015	40147	1259.61	1.25961
356.015	40147	1259.61	1.25961
304.61	49734	1299.01	1.29901
348.153	49790	1269.99	1.26999
356.019	49918	1264.68	1.26468
290.95	50018	1309.1	1.3091
325.502	50050	1285.18	1.28518
332.852	50074	1280.13	1.28013
318.367	50094	1289.9	1.2899
340.39	50227	1275.3	1.2753
311.72	50382	1293.87	1.29387
298.153	50710	1304.44	1.30444
304.088	59595	1303.87	1.30387
340.278	59745	1279.45	1.27945
332.567	59788	1284.52	1.28452
347.769	59854	1274.63	1.27463
356.401	59860	1269.25	1.26925
311.508	60021	1298.35	1.29835
325.39	60094	1289.24	1.28924
318.573	60242	1293.23	1.29323
298.146	61191	1308.4	1.3084

System: 1-hexyl-3-methylimidazolium tetrafluoroborate; phases: Liquid
Property: Mass density, kg/m3 (Liquid); method: Isochoric PVT measurement
Temperature, K	Pressure, kPa	Mass density, kg/m3	uncertainty
298.155	104	1146.14	1.14614
299.113	712.5	1145.27	1.14527
230.793	1012.8	1196.2	1.1962
333.472	1089.8	1121.71	1.12171
315.842	1234.2	1133.94	1.13394
349.189	1374.3	1111.71	1.11171
256.483	1742.5	1177.35	1.17735
243.645	1941.6	1186.98	1.18698
269.899	2119.2	1166.18	1.16618
284.269	2189.9	1156.39	1.15639
219.916	2501.7	1205.15	1.20515
357.125	9595.1	1111.13	1.11113
341.606	9779.8	1121.11	1.12111
323.554	9964.4	1133.35	1.13335
306.824	10007	1144.66	1.14466
275.799	10046	1165.7	1.1657
249.02	10085	1186.52	1.18652
236.445	10093	1195.71	1.19571
262.309	10140	1176.87	1.17687
290.725	10282	1155.88	1.15588
225.139	11244	1204.69	1.20469
242.307	19417	1195.2	1.1952
269.118	19855	1176.3	1.1763
332.357	19953	1132.67	1.13267
298.522	20112	1155.26	1.15526
255.694	20148	1185.95	1.18595
315.252	20171	1144	1.144
351.2	20298	1120.38	1.12038
283.499	20904	1165.06	1.16506
231.393	21744	1204.14	1.20414
357.115	26381	1119.93	1.11993
275.797	29402	1175.74	1.17574
323.548	29837	1143.36	1.14336
290.726	29904	1164.49	1.16449
341.626	29941	1131.97	1.13197
249.02	30013	1194.61	1.19461
262.309	30102	1185.39	1.18539
236.457	30111	1203.69	1.20369
290.664	30442	1164.48	1.16448
290.666	30768	1165.27	1.16527
306.83	30854	1154.59	1.15459
350.487	39672	1131.28	1.13128
298.152	39688	1164.06	1.16406
298.165	39707	1163.88	1.16388
283.605	39900	1175.1	1.1751
332.158	39991	1142.68	1.14268
269.393	40201	1184.79	1.18479
298.174	40239	1163.87	1.16387
298.15	40557	1164.66	1.16466
255.994	40643	1194.01	1.19401
315.376	41468	1153.9	1.1539
243.677	41792	1203.05	1.20305
357.118	46792	1130.77	1.13077
305.929	49286	1163.44	1.16344
305.934	49685	1163.24	1.16324
248.82	49885	1202.6	1.2026
290.943	49928	1174.49	1.17449
340.92	49956	1141.99	1.14199
276.43	50285	1184.19	1.18419
322.713	50376	1153.32	1.15332
263.018	51186	1193.4	1.1934
330.586	59794	1152.68	1.15268
268.898	59865	1192.9	1.1929
349.884	60027	1141.28	1.14128
283.571	60349	1183.59	1.18359
314.421	60539	1162.55	1.16255
299.377	61164	1173.79	1.17379

System: 1-ethyl-3-methylimidazolium triflate; phases: Liquid
Property: Mass density, kg/m3 (Liquid); method: Isochoric PVT measurement
Temperature, K	Pressure, kPa	Mass density, kg/m3	uncertainty
298.19	124.2	1386.18	1.38618
285.095	728.1	1397.61	1.39761
271.401	1190.5	1408.62	1.40862
331.492	1256.6	1358.62	1.35862
265.067	1265.2	1414.41	1.41441
315.407	1377.5	1372.29	1.37229
300.18	1687.5	1385.35	1.38535
272.278	2655.9	1408.53	1.40853
338.105	9067.3	1358	1.358
271.043	9677.3	1413.82	1.41382
322.297	9799.1	1371.63	1.37163
291.916	10046	1396.94	1.39694
306.751	10122	1384.72	1.38472
264.312	10134	1419.79	1.41979
277.838	10946	1407.96	1.40796
271.042	11097	1414.79	1.41479
314.042	19458	1384.01	1.38401
271.041	19702	1419.12	1.41912
277.844	19967	1413.12	1.41312
347.763	20122	1357.09	1.35709
284.576	20183	1407.3	1.4073
271.052	20286	1419.1	1.4191
299.543	20406	1396.18	1.39618
332.559	22229	1370.66	1.37066
306.759	29599	1395.48	1.39548
264.213	29714	1429.2	1.4292
271.041	29909	1424.08	1.42408
291.424	29930	1406.61	1.40661
322.294	30090	1383.21	1.38321
277.795	30125	1418.42	1.41842
339.277	30155	1370.02	1.37002
271.041	30156	1424.07	1.42407
284.934	30204	1412.4	1.4124
264.143	39698	1434.17	1.43417
277.678	39776	1423.39	1.42339
298.187	39944	1405.91	1.40591
271.038	40035	1428.5	1.4285
291.94	40088	1411.69	1.41169
347.765	40116	1369.21	1.36921
284.65	40227	1417.71	1.41771
271.039	40309	1428.49	1.42849
314.641	40402	1394.69	1.39469
330.678	40501	1382.4	1.3824
291.917	41361	1412.67	1.41267
291.485	49838	1417.02	1.41702
277.453	49840	1427.83	1.42783
305.754	49851	1405.17	1.40517
338.466	50063	1381.64	1.38164
284.725	50105	1422.67	1.42267
299.193	50157	1410.96	1.41096
271.029	50162	1433.46	1.43346
271.029	50199	1433.45	1.43345
322.27	50268	1393.94	1.39394
346.743	59641	1380.85	1.38085
329.979	59857	1393.19	1.39319
313.345	59888	1404.41	1.40441
271.038	60071	1437.92	1.43792
306.578	60078	1410.23	1.41023
299.138	60111	1416.26	1.41626
284.686	60421	1427.09	1.42709
292.62	61503	1421.86	1.42186

System: 1-butyl-3-methylimidazolium triflate; phases: Liquid
Property: Mass density, kg/m3 (Liquid); method: Isochoric PVT measurement
Temperature, K	Pressure, kPa	Mass density, kg/m3	uncertainty
331.304	241.1	1270.51	1.27051
314.845	831	1284.6	1.2846
341.681	1330.2	1262.9	1.2629
323.398	1581.8	1277.54	1.27754
291.26	1592.1	1304.62	1.30462
307.165	1752	1291.55	1.29155
299.03	2480.8	1298.81	1.29881
298.158	9701.7	1303.63	1.30363
298.149	9757.7	1303.63	1.30363
314.206	9839.1	1290.64	1.29064
350.144	9957.7	1262.06	1.26206
305.45	10034	1297.93	1.29793
298.166	10081.2	1303.62	1.30362
323.182	10082	1283.58	1.28358
340.733	10118	1269.5	1.2695
331.38	10182	1276.63	1.27663
298.171	10432	1304.22	1.30422
290.527	10565	1310.84	1.31084
331.381	19050	1282.64	1.28264
305.451	19292	1303.2	1.3032
306.053	19559	1302.52	1.30252
350.152	19909	1268.55	1.26855
298.157	19936	1309.73	1.30973
298.151	19969	1309.73	1.30973
323.198	20072	1289.53	1.28953
314.211	20109	1296.78	1.29678
298.153	20141	1309.72	1.30972
340.747	20227	1275.61	1.27561
290.513	20585	1315.76	1.31576
330.391	28233	1288.68	1.28868
321.817	29288	1295.81	1.29581
314.323	29477	1301.43	1.30143
305.999	29921	1308.61	1.30861
298.156	30053	1314.64	1.31464
341.386	30102	1281.54	1.28154
350.01	30185	1274.67	1.27467
298.154	30285	1314.63	1.31463
290.692	30827	1321.18	1.32118
330.498	39240	1294.79	1.29479
350.311	39671	1280.63	1.28063
340.706	39738	1287.53	1.28753
314.211	39744	1307.53	1.30753
323.069	39773	1300.33	1.30033
305.901	39945	1313.54	1.31354
298.16	40303	1320.08	1.32008
290.497	40403	1326.13	1.32613
298.156	40410	1320.08	1.32008
339.842	49769	1293.74	1.29374
331.781	49813	1299.3	1.2993
313.929	49845	1312.46	1.31246
350.378	50208	1286.54	1.28654
298.153	50367	1324.98	1.32498
305.999	50404	1318.95	1.31895
323.164	50452	1306.39	1.30639
298.167	50464	1324.97	1.32497
347.879	58421	1292.89	1.29289
321.663	59111	1311.47	1.31147
313.409	59599	1317.95	1.31795
305.413	59674	1323.93	1.32393
331.385	59986	1305.41	1.30541
340.934	60046	1298.28	1.29828

System: 1-hexyl-3-methylimidazolium trifluoromethanesulfonate; phases: Liquid
Property: Mass density, kg/m3 (Liquid); method: Isochoric PVT measurement
Temperature, K	Pressure, kPa	Mass density, kg/m3	uncertainty
303.139	103.8	1234.94	1.23494
342.34	977.2	1206.6	1.2066
312.667	1137.8	1229.31	1.22931
332.502	1153.4	1214.09	1.21409
303.928	1169.5	1236.1	1.2361
322.861	1202	1221.53	1.22153
303.154	8671.3	1241.37	1.24137
341.511	9933.5	1213.37	1.21337
303.148	9948.5	1242.12	1.24212
331.615	10028	1220.82	1.22082
351.766	10055	1205.85	1.20585
312.124	10064	1235.43	1.23543
303.154	10145	1241.33	1.24133
321.321	10225	1228.6	1.2286
303.154	18778	1246.84	1.24684
311.103	19363	1240.66	1.24066
303.156	19876	1246.81	1.24681
351.769	19878	1212.55	1.21255
321.343	19896	1234.67	1.23467
312.129	19984	1241.37	1.24137
341.516	20038	1220.02	1.22002
331.614	20974	1227.76	1.22776
311.642	29371	1246.09	1.24609
303.149	29540	1252.92	1.25292
330.451	29706	1233.91	1.23391
320.693	29908	1239.86	1.23986
351.537	29910	1219.2	1.2192
340.306	30074	1227.04	1.22704
303.16	30131	1252.9	1.2529
350.06	39798	1226.25	1.22625
340.067	39808	1233.11	1.23311
330.072	40113	1239.07	1.23907
321.26	40148	1245.28	1.24528
303.163	40525	1258.84	1.25884
312.35	40711	1252.12	1.25212
303.158	40749	1258.84	1.25884
339.162	49816	1238.32	1.23832
349.94	49966	1232.3	1.2323
303.151	50077	1263.74	1.26374
311.104	50109	1258.15	1.25815
303.154	50213	1263.74	1.26374
330.662	50504	1244.49	1.24449
321.701	51336	1251.33	1.25133
348.25	58008	1237.59	1.23759
339.455	59226	1243.78	1.24378
311.402	59971	1263.03	1.26303
320.012	60231	1257.4	1.2574
330.332	60665	1250.61	1.25061
