Measured thermophysical data. Experimental Vapor Pressures of Five Saturated Fatty Acid Ethyl Ester (FAEE) Components of Biodiesel
Source: J. Chem. Eng. Data, 2011, 10.1021/je200730m
Compound 1: hexanoic acid, ethyl ester, C8H16O2, purity 98%
Compound 2: octanoic acid, ethyl ester, C10H20O2, purity 98%
Compound 3: ethyl decanoate, C12H24O2, purity 99%
Compound 4: ethyl laurate, C14H28O2, purity 98%
Compound 5: tetradecanoic acid, ethyl ester, C16H32O2, purity 99%

System: hexanoic acid, ethyl ester; phases: Liquid, Gas
Property: Vapor or sublimation pressure, kPa (Liquid); method: Closed cell (Static) method
Temperature, K	Vapor or sublimation pressure, kPa	uncertainty
253.41	.00344	.0002
263.26	.0106	.0004
283.06	.0663	.0021
293.05	.144	.0044
303.03	.291	.0088
313.15	.562	.017
323.18	1.018	.0102
333.11	1.781	.0053
343.09	2.978	.0089
351.97	4.553	.0137
362.1	7.184	.0216
372.13	10.933	.0328
382.15	16.065	.0482
392.23	23.187	.0696
402.19	32.56	.0977
412.21	44.896	.1347
422.19	60.618	.1819
432.28	80.756	.2423
442.29	105.573	.3167
452.34	136.73	.4102
462.43	174.601	.5238

System: octanoic acid, ethyl ester; phases: Liquid, Gas
Property: Vapor or sublimation pressure, kPa (Liquid); method: Closed cell (Static) method
Temperature, K	Vapor or sublimation pressure, kPa	uncertainty
273.26	.00219	.0002
283.08	.00627	.0003
293.05	.0156	.0006
303.09	.035	.0012
313.2	.0757	.0024
323.31	.152	.0047
351.9	.869	.0087
362.1	1.487	.0045
372.06	2.432	.0073
382.13	3.872	.0116
392.19	5.904	.0177
402.13	8.723	.0262
412.13	12.674	.038
422.12	18.044	.0541
432.22	25.219	.0757
442.26	34.491	.1035
452.3	46.421	.1393

System: ethyl decanoate; phases: Liquid, Gas
Property: Vapor or sublimation pressure, kPa (Liquid); method: Closed cell (Static) method
Temperature, K	Vapor or sublimation pressure, kPa	uncertainty
303.1	.00446	.0002
313.16	.0105	.0004
333.23	.0478	.0015
343.2	.0952	.003
353.16	.181	.0055
363.12	.328	.0099
412.15	3.65	.011
422.13	5.472	.0164
432.24	8.07	.0242
442.23	11.548	.0346
452.28	16.281	.0488
462.37	22.35	.0671

System: ethyl laurate; phases: Liquid, Gas
Property: Vapor or sublimation pressure, kPa (Liquid); method: Closed cell (Static) method
Temperature, K	Vapor or sublimation pressure, kPa	uncertainty
313.1	.00183	.0002
351.88	.0346	.0011
362.1	.0674	.0021
372.12	.124	.0038
382.17	.229	.007
392.24	.399	.0121
402.2	.669	.0067
422.15	1.695	.0051
432.26	2.647	.0079
442.27	3.986	.012
452.31	5.804	.0174
462.43	8.49	.0255

System: tetradecanoic acid, ethyl ester; phases: Liquid, Gas
Property: Vapor or sublimation pressure, kPa (Liquid); method: Closed cell (Static) method
Temperature, K	Vapor or sublimation pressure, kPa	uncertainty
333.22	.00147	.0001
343.19	.00361	.0002
353.15	.00775	.0003
363.09	.0163	.0006
371.72	.0302	.001
382.03	.0572	.0018
391.87	.105	.0033
401.89	.187	.0057
411.93	.322	.0098
421.97	.539	.0163
432.22	.887	.0089
442.39	1.394	.0042
452.25	2.127	.0064
462.3	3.2	.0096
