Measured thermophysical data. Vapor Liquid Equilibria of the trans-1,3,3,3-Tetrafluoropropene  (R1234ze(E)) + Isobutane (R600a) System at Various Temperatures  from (258.150 to 288.150) K
Source: J. Chem. Eng. Data, 2012, 10.1021/je2011055
Compound 1: trans-1,3,3,3-tetrafluoropropene, C3H2F4, purity 99.5%
Compound 2: 2-methylpropane, C4H10, purity 99.9%

System: trans-1,3,3,3-tetrafluoropropene; phases: Liquid, Gas
Property: Vapor or sublimation pressure, kPa (Liquid); method: Closed cell (Static) method
Temperature, K	Vapor or sublimation pressure, kPa	uncertainty
258.15	119.3	.5
268.15	178.4	.5
278.15	258.1	.5
288.15	362.8	.5

System: 2-methylpropane; phases: Liquid, Gas
Property: Vapor or sublimation pressure, kPa (Liquid); method: Closed cell (Static) method
Temperature, K	Vapor or sublimation pressure, kPa	uncertainty
258.15	88.9	.5
268.15	130.8	.5
278.15	186.7	.5
288.15	258.7	.5

System: 2-methylpropane + trans-1,3,3,3-tetrafluoropropene; phases: Liquid, Gas
Property: Vapor or sublimation pressure, kPa (Liquid); method: Closed cell (Static) method
Mole fraction of trans-1,3,3,3-tetrafluoropropene	Temperature, K	Vapor or sublimation pressure, kPa	uncertainty
0	258.15	88.9	.5
.143	258.15	123.3	.5
.303	258.15	138.1	.5
.417	258.15	142.7	.5
.522	258.15	145.1	.5
.631	258.15	145.8	.5
.7	258.15	145.2	.5
.76	258.15	143.8	.5
.863	258.15	138.5	.5
1	258.15	119.3	.5
0	268.15	130.8	.5
.14	268.15	178.1	.5
.3	268.15	200.2	.5
.417	268.15	207.7	.5
.522	268.15	211.6	.5
.63	268.15	212.9	.5
.698	268.15	212.3	.5
.762	268.15	210.2	.5
.863	268.15	203.4	.5
1	268.15	178.4	.5
0	278.15	186.7	.5
.138	278.15	249.6	.5
.301	278.15	281.6	.5
.415	278.15	292.9	.5
.521	278.15	299.1	.5
.63	278.15	301.5	.5
.698	278.15	301	.5
.761	278.15	298.3	.5
.862	278.15	289.7	.5
1	278.15	258.1	.5
0	288.15	258.7	.5
.137	288.15	340.9	.5
.299	288.15	385.5	.5
.414	288.15	401.9	.5
.521	288.15	411.4	.5
.63	288.15	415.5	.5
.697	288.15	415.3	.5
.761	288.15	412.3	.5
.862	288.15	401.5	.5
1	288.15	362.8	.5

System: 2-methylpropane + trans-1,3,3,3-tetrafluoropropene; phases: Gas, Liquid
Property: Mole fraction of trans-1,3,3,3-tetrafluoropropene (Gas); method: Chromatography
Mole fraction of trans-1,3,3,3-tetrafluoropropene	Temperature, K	Mole fraction of trans-1,3,3,3-tetrafluoropropene	uncertainty
0	258.15	0	.005
.143	258.15	.351	.005
.303	258.15	.48	.005
.417	258.15	.536	.005
.522	258.15	.578	.005
.631	258.15	.623	.005
.7	258.15	.655	.005
.76	258.15	.688	.005
.863	258.15	.769	.005
1	258.15	1	.005
0	268.15	0	.005
.14	268.15	.337	.005
.3	268.15	.474	.005
.417	268.15	.534	.005
.522	268.15	.581	.005
.63	268.15	.631	.005
.698	268.15	.667	.005
.762	268.15	.7	.005
.863	268.15	.783	.005
1	268.15	1	.005
0	278.15	0	.005
.138	278.15	.323	.005
.301	278.15	.468	.005
.415	278.15	.532	.005
.521	278.15	.584	.005
.63	278.15	.638	.005
.698	278.15	.674	.005
.761	278.15	.711	.005
.862	278.15	.795	.005
1	278.15	1	.005
0	288.15	0	.005
.137	288.15	.309	.005
.299	288.15	.461	.005
.414	288.15	.529	.005
.521	288.15	.586	.005
.63	288.15	.643	.005
.697	288.15	.682	.005
.761	288.15	.721	.005
.862	288.15	.805	.005
1	288.15	1	.005
