Measured thermophysical data. Excess Properties and Vapor Pressure of 2-Diethylaminoethylamine + n-Heptane
Source: J. Chem. Eng. Data, 2011, 10.1021/je200820v
Compound 1: heptane, C7H16, purity 99%
Compound 2: N,N-diethylethylenediamine, C6H16N2, purity 99%

System: heptane; phases: Liquid, Gas
Property: Vapor or sublimation pressure, kPa (Liquid); method: Closed cell (Static) method
Temperature, K	Vapor or sublimation pressure, kPa	uncertainty
273.15	1.5355	.015355
293.15	4.7595	.047595
298.15	6.1353	.061353
303.15	7.8288	.078288
313.15	12.392	.12392
323.15	18.96	.1896
333.15	28.14	.2814
343.15	40.64	.4064
353.15	57.27	.5727
363.15	78.937	.78937

System: N,N-diethylethylenediamine; phases: Liquid, Gas
Property: Vapor or sublimation pressure, kPa (Liquid); method: Closed cell (Static) method
Temperature, K	Vapor or sublimation pressure, kPa	uncertainty
273.15	.1291	.001291
293.15	.5288	.005288
298.15	.7256	.007256
303.15	.9831	.009831
313.15	1.741	.01741
323.15	2.957	.02957
333.15	4.833	.04833
343.15	7.634	.07634
353.15	11.696	.11696
363.15	17.429	.17429

System: N,N-diethylethylenediamine + heptane; phases: Liquid, Gas
Property: Vapor or sublimation pressure, kPa (Liquid); method: Closed cell (Static) method
Temperature, K	Mole fraction of N,N-diethylethylenediamine	Vapor or sublimation pressure, kPa	uncertainty
298.15	.1186	5.6731	.056731
298.15	.1978	5.3447	.053447
298.15	.3215	4.9079	.049079
298.15	.4404	4.4694	.044694
298.15	.5444	4.0384	.040384
298.15	.6554	3.5153	.035153
298.15	.7527	2.9711	.029711
298.15	.8469	2.2298	.022298
298.15	.9311	1.4549	.014549
303.15	.1186	7.2423	.072423
303.15	.1978	6.8209	.068209
303.15	.3215	6.2602	.062602
303.15	.4404	5.6948	.056948
303.15	.5444	5.1435	.051435
303.15	.6554	4.4763	.044763
303.15	.7527	3.7902	.037902
303.15	.8469	2.8556	.028556
303.15	.9311	1.8988	.018988
313.15	.1186	11.474	.11474
313.15	.1978	10.804	.10804
313.15	.3215	9.907	.09907
313.15	.4404	8.998	.08998
313.15	.5444	8.123	.08123
313.15	.6554	7.069	.07069
313.15	.7527	6.009	.06009
313.15	.8469	4.564	.04564
313.15	.9311	3.148	.03148
323.15	.1186	17.569	.17569
323.15	.1978	16.545	.16545
323.15	.3215	15.163	.15163
323.15	.4404	13.756	.13756
323.15	.5444	12.417	.12417
323.15	.6554	10.813	.10813
323.15	.7527	9.228	.09228
323.15	.8469	7.072	.07072
323.15	.9311	5.05	.0505
333.15	.1186	26.093	.26093
333.15	.1978	24.585	.24585
333.15	.3215	22.522	.22522
333.15	.4404	20.418	.20418
333.15	.5444	18.435	.18435
333.15	.6554	16.07	.1607
333.15	.7527	13.771	.13771
333.15	.8469	10.65	.1065
333.15	.9311	7.862	.07862
343.15	.1186	37.709	.37709
343.15	.1978	35.557	.35557
343.15	.3215	32.564	.32564
343.15	.4404	29.513	.29513
343.15	.5444	26.658	.26658
343.15	.6554	23.27	.2327
343.15	.7527	20.024	.20024
343.15	.8469	15.634	.15634
343.15	.9311	11.915	.11915
353.15	.1186	53.1708	.531708
353.15	.1978	50.1876	.501876
353.15	.3215	45.9577	.459577
353.15	.4404	41.649	.41649
353.15	.5444	37.6454	.376454
353.15	.6554	32.9142	.329142
353.15	.7527	28.4436	.284436
353.15	.8469	22.4229	.224229
353.15	.9311	17.6152	.176152
363.15	.1186	73.3255	.733255
363.15	.1978	69.2924	.692924
363.15	.3215	63.4515	.634515
363.15	.4404	57.5124	.575124
363.15	.5444	52.0276	.520276
363.15	.6554	45.572	.45572
363.15	.7527	39.5495	.395495
363.15	.8469	31.4826	.314826
363.15	.9311	25.4613	.254613
273.15	0	1.5355	.015355
293.15	0	4.7595	.047595
298.15	0	6.1353	.061353
303.15	0	7.8288	.078288
313.15	0	12.392	.12392
323.15	0	18.96	.1896
333.15	0	28.14	.2814
343.15	0	40.64	.4064
353.15	0	57.27	.5727
363.15	0	78.937	.78937
273.15	1	.1291	.001291
293.15	1	.5288	.005288
298.15	1	.7256	.007256
303.15	1	.9831	.009831
313.15	1	1.741	.01741
323.15	1	2.957	.02957
333.15	1	4.833	.04833
343.15	1	7.634	.07634
353.15	1	11.696	.11696
363.15	1	17.429	.17429
273.15	.1186	1.4158	.014158
273.15	.1978	1.3396	.013396
273.15	.3215	1.2352	.012352
273.15	.4404	1.1341	.011341
273.15	.5444	1.0293	.010293
273.15	.6554	.8999	.008999
273.15	.7527	.7548	.007548
273.15	.8469	.558	.00558
273.15	.9311	.3289	.003289
293.15	.1186	4.3987	.043987
293.15	.1978	4.1461	.041461
293.15	.3215	3.8096	.038096
293.15	.4404	3.4734	.034734
293.15	.5444	3.1402	.031402
293.15	.6554	2.7345	.027345
293.15	.7527	2.3072	.023072
293.15	.8469	1.7153	.017153
293.15	.9311	1.1041	.011041

System: N,N-diethylethylenediamine + heptane; phases: Liquid
Fixed: Pressure, kPa = 101
Fixed: Temperature, K = 303.15
Property: Excess molar enthalpy (molar enthalpy of mixing), kJ/mol (Liquid); method: Calvet calorimetry
Mole fraction of N,N-diethylethylenediamine	Excess molar enthalpy (molar enthalpy of mixing), kJ/mol	uncertainty
.0612	.2839	.005678
.1118	.4827	.009654
.1488	.6	.012
.2038	.7491	.014982
.2452	.84	.0168
.3051	.9278	.018556
.4078	1.0038	.020076
.5068	.9983	.019966
.6156	.9057	.018114
.7084	.7668	.015336
.7471	.6861	.013722
.8058	.5628	.011256
.8841	.3625	.00725
