Measured thermophysical data. Phase Equilibria Involved in the Extractive Distillation of Cyclohexane + Cyclohexene Using Diethyl Carbonate as an Entrainer
Source: J. Chem. Eng. Data, 2011, 10.1021/je200784y
Compound 1: cyclohexane, C6H12, purity 99.8%
Compound 2: cyclohexene, C6H10, purity 99.5%
Compound 3: carbonic acid, diethyl ester, C5H10O3, purity 99%

System: carbonic acid, diethyl ester; phases: Liquid, Gas
Property: Vapor or sublimation pressure, kPa (Liquid); method: Ebulliometric method (Recirculating still)
Temperature, K	Vapor or sublimation pressure, kPa	uncertainty
354.68	22.56	.05
357.44	25.03	.05
359.95	27.54	.05
362.26	29.99	.05
364.46	32.51	.05
366.57	35.05	.05
368.45	37.52	.05
370.28	40.03	.05
372.04	42.49	.05
373.73	45.05	.05
375.26	47.47	.05
376.81	50.04	.05
378.22	52.46	.05
379.67	55.03	.05
381.03	57.56	.05
382.32	59.95	.05
383.6	62.52	.05
384.81	64.97	.05
385.98	67.44	.05
387.13	70.02	.05
388.28	72.51	.05
389.32	74.96	.05
390.35	77.43	.05
391.39	79.97	.05
392.45	82.52	.05
393.34	84.84	.05
394.36	87.52	.05
395.23	89.81	.05
396.21	92.53	.05
397.03	94.89	.05
397.96	97.54	.05
398.81	100.03	.05
399.27	101.38	.05

System: carbonic acid, diethyl ester + cyclohexane; phases: Liquid, Gas
Property: Boiling temperature at pressure P, K (Liquid); method: Ebulliometric method (Recirculating still)
Mole fraction of cyclohexane	Pressure, kPa	Boiling temperature at pressure P, K	uncertainty
.014	100	396.14	.02
.036	100	392.79	.02
.054	100	390.27	.02
.082	100	386.59	.02
.143	100	380.74	.02
.186	100	376.41	.02
.239	100	372.83	.02
.3	100	369.8	.02
.366	100	366.91	.02
.42	100	364.92	.02
.456	100	363.59	.02
.508	100	362.22	.02
.555	100	360.85	.02
.617	100	359.61	.02
.659	100	358.68	.02
.704	100	357.74	.02
.764	100	356.74	.02
.805	100	356.16	.02
.864	100	355.27	.02
.902	100	354.67	.02
.954	100	353.94	.02
.981	100	353.64	.02

System: carbonic acid, diethyl ester + cyclohexane; phases: Gas, Liquid
Property: Mole fraction of cyclohexane (Gas); method: Chromatography
Mole fraction of cyclohexane	Pressure, kPa	Mole fraction of cyclohexane	uncertainty
.014	100	.077	.001
.036	100	.184	.001
.054	100	.263	.001
.082	100	.358	.001
.143	100	.5	.001
.186	100	.581	.001
.239	100	.655	.001
.3	100	.709	.001
.366	100	.749	.001
.42	100	.779	.001
.456	100	.802	.001
.508	100	.82	.001
.555	100	.839	.001
.617	100	.857	.001
.659	100	.875	.001
.704	100	.887	.001
.764	100	.902	.001
.805	100	.916	.001
.864	100	.936	.001
.902	100	.951	.001
.954	100	.973	.001
.981	100	.989	.001

System: carbonic acid, diethyl ester + cyclohexene; phases: Liquid, Gas
Property: Boiling temperature at pressure P, K (Liquid); method: Ebulliometric method (Recirculating still)
Mole fraction of cyclohexene	Pressure, kPa	Boiling temperature at pressure P, K	uncertainty
.017	100	396.36	.02
.04	100	393.68	.02
.065	100	391.13	.02
.093	100	388.57	.02
.127	100	385.76	.02
.171	100	382.24	.02
.219	100	379	.02
.274	100	375.62	.02
.332	100	372.9	.02
.381	100	370.6	.02
.436	100	368.65	.02
.48	100	366.87	.02
.532	100	365.27	.02
.58	100	363.89	.02
.641	100	362.58	.02
.681	100	361.62	.02
.728	100	360.65	.02
.781	100	359.66	.02
.827	100	358.65	.02
.883	100	357.72	.02
.944	100	356.56	.02
.983	100	355.95	.02

System: carbonic acid, diethyl ester + cyclohexene; phases: Gas, Liquid
Property: Mole fraction of cyclohexene (Gas); method: Chromatography
Mole fraction of cyclohexene	Pressure, kPa	Mole fraction of cyclohexene	uncertainty
.017	100	.075	.001
.04	100	.165	.001
.065	100	.251	.001
.093	100	.336	.001
.127	100	.412	.001
.171	100	.504	.001
.219	100	.575	.001
.274	100	.641	.001
.332	100	.698	.001
.381	100	.736	.001
.436	100	.77	.001
.48	100	.796	.001
.532	100	.821	.001
.58	100	.842	.001
.641	100	.866	.001
.681	100	.878	.001
.728	100	.898	.001
.781	100	.916	.001
.827	100	.931	.001
.883	100	.95	.001
.944	100	.974	.001
.983	100	.99	.001

System: carbonic acid, diethyl ester + cyclohexane + cyclohexene; phases: Liquid, Gas
Property: Mole fraction of cyclohexene (Liquid); method: Chromatography
Property: Mole fraction of cyclohexane (Gas); method: Chromatography
Property: Mole fraction of cyclohexene (Gas); method: Chromatography
Temperature, K	Pressure, kPa	Mole fraction of cyclohexane	Mole fraction of cyclohexene	uncertainty	Mole fraction of cyclohexane	uncertainty	Mole fraction of cyclohexene	uncertainty
388.1	100	.048	.054	.001	.188	.001	.161	.001
374.83	100	.043	.236	.001	.128	.001	.538	.001
366.35	100	.045	.44	.001	.092	.001	.709	.001
360.82	100	.049	.652	.001	.074	.001	.815	.001
356.26	100	.05	.897	.001	.056	.001	.917	.001
357.02	100	.101	.792	.001	.119	.001	.832	.001
358.91	100	.1	.692	.001	.131	.001	.784	.001
360.98	100	.1	.578	.001	.148	.001	.732	.001
363.47	100	.099	.471	.001	.167	.001	.672	.001
366.49	100	.097	.36	.001	.194	.001	.598	.001
369.42	100	.102	.277	.001	.228	.001	.515	.001
372.98	100	.101	.199	.001	.256	.001	.415	.001
378.38	100	.101	.109	.001	.305	.001	.261	.001
371.68	100	.197	.106	.001	.478	.001	.208	.001
367.55	100	.2	.2	.001	.419	.001	.347	.001
364.52	100	.198	.297	.001	.357	.001	.458	.001
361.85	100	.207	.406	.001	.319	.001	.537	.001
359.87	100	.205	.5	.001	.29	.001	.602	.001
357.32	100	.204	.651	.001	.24	.001	.689	.001
355.83	100	.198	.746	.001	.232	.001	.729	.001
356.23	100	.299	.6	.001	.345	.001	.6	.001
357.77	100	.299	.501	.001	.377	.001	.545	.001
359.72	100	.302	.396	.001	.414	.001	.472	.001
361.53	100	.299	.296	.001	.462	.001	.393	.001
363.65	100	.295	.205	.001	.518	.001	.303	.001
368.47	100	.292	.052	.001	.637	.001	.097	.001
363.06	100	.399	.099	.001	.679	.001	.142	.001
360.86	100	.406	.19	.001	.609	.001	.246	.001
358.94	100	.401	.301	.001	.536	.001	.353	.001
357.31	100	.405	.402	.001	.486	.001	.433	.001
355.25	100	.399	.542	.001	.43	.001	.538	.001
355.64	100	.496	.399	.001	.547	.001	.402	.001
357.18	100	.496	.302	.001	.593	.001	.323	.001
358.72	100	.498	.196	.001	.659	.001	.227	.001
361.14	100	.503	.053	.001	.775	.001	.071	.001
358.17	100	.604	.108	.001	.771	.001	.122	.001
356.76	100	.596	.205	.001	.7	.001	.217	.001
354.77	100	.591	.346	.001	.624	.001	.342	.001
355.17	100	.7	.196	.001	.754	.001	.195	.001
357.16	100	.699	.055	.001	.847	.001	.06	.001
354.94	100	.796	.105	.001	.847	.001	.104	.001
354.15	100	.897	.051	.001	.923	.001	.05	.001
