Measured thermophysical data. Liquid-Liquid Phase Behaviors of Geraniol in Aqueous  Alcohol Mixtures
Source: J. Chem. Eng. Data, 2012, 10.1021/je200940a
Compound 1: geraniol, C10H18O, purity 98%
Compound 2: methanol, CH4O, purity 99.9%
Compound 3: ethanol, C2H6O, purity 99.8%
Compound 4: water, H2O

System: methanol + geraniol + water; phases: Liquid mixture 2, Liquid mixture 1
Fixed: Pressure, kPa = 101
Property: Mole fraction of water (Liquid mixture 2); method: Chromatography
Property: Mole fraction of methanol (Liquid mixture 1); method: Chromatography
Property: Mole fraction of water (Liquid mixture 1); method: Chromatography
Temperature, K	Mole fraction of methanol	Mole fraction of water	uncertainty	Mole fraction of methanol	uncertainty	Mole fraction of water	uncertainty
283.15	0	.2228	.001	0	.001	.9997	.001
283.15	.0702	.2309	.001	.0522	.001	.9472	.001
283.15	.167	.2376	.001	.1228	.001	.8767	.001
283.15	.2549	.2575	.001	.1804	.001	.819	.001
283.15	.3164	.2745	.001	.2403	.001	.7578	.001
283.15	.3779	.3004	.001	.2929	.001	.7051	.001
283.15	.4181	.3352	.001	.3382	.001	.6585	.001
283.15	.4526	.4535	.001	.4183	.001	.5568	.001
298.15	0	.2339	.001	0	.001	.9999	.001
298.15	.0768	.2389	.001	.0517	.001	.9481	.001
298.15	.1398	.2483	.001	.0888	.001	.911	.001
298.15	.1955	.2538	.001	.1314	.001	.8683	.001
298.15	.2814	.2857	.001	.1947	.001	.8043	.001
298.15	.3383	.3066	.001	.2475	.001	.7513	.001
298.15	.4032	.3631	.001	.3113	.001	.6851	.001
298.15	.4239	.41	.001	.3625	.001	.6285	.001
298.15	.4262	.4617	.001	.3893	.001	.5855	.001
313.15	0	.2385	.001	0	.001	.9998	.001
313.15	.0768	.2493	.001	.0452	.001	.9539	.001
313.15	.1749	.2779	.001	.1089	.001	.8909	.001
313.15	.2655	.2823	.001	.1732	.001	.8261	.001
313.15	.3142	.3189	.001	.2205	.001	.7782	.001
313.15	.3738	.3518	.001	.2754	.001	.7218	.001
313.15	.4102	.3971	.001	.3245	.001	.6679	.001
313.15	.3992	.4896	.001	.3579	.001	.6224	.001

System: ethanol + geraniol + water; phases: Liquid mixture 2, Liquid mixture 1
Fixed: Pressure, kPa = 100
Property: Mole fraction of ethanol (Liquid mixture 2); method: Chromatography
Property: Mole fraction of water (Liquid mixture 1); method: Chromatography
Property: Mole fraction of ethanol (Liquid mixture 1); method: Chromatography
Temperature, K	Mole fraction of water	Mole fraction of ethanol	uncertainty	Mole fraction of water	uncertainty	Mole fraction of ethanol	uncertainty
283.15	.2228	0	.001	.9997	.001	0	.001
283.15	.2342	.06	.001	.9783	.001	.0212	.001
283.15	.2365	.1127	.001	.9572	.001	.0423	.001
283.15	.2657	.1982	.001	.925	.001	.0747	.001
283.15	.2783	.2284	.001	.9153	.001	.0844	.001
283.15	.3121	.2894	.001	.8904	.001	.109	.001
283.15	.3586	.3321	.001	.8695	.001	.1299	.001
283.15	.4009	.354	.001	.8458	.001	.1524	.001
283.15	.4414	.3654	.001	.8336	.001	.1645	.001
283.15	.4704	.3613	.001	.8268	.001	.171	.001
283.15	.5028	.3608	.001	.8028	.001	.1939	.001
298.15	.2339	0	.001	.9999	.001	0	.001
298.15	.2483	.0687	.001	.9799	.001	.0199	.001
298.15	.2711	.1274	.001	.9605	.001	.0392	.001
298.15	.2915	.1881	.001	.941	.001	.0587	.001
298.15	.3098	.2294	.001	.9237	.001	.076	.001
298.15	.3361	.2817	.001	.901	.001	.0985	.001
298.15	.3634	.3067	.001	.8888	.001	.1105	.001
298.15	.408	.3288	.001	.8713	.001	.1279	.001
298.15	.4455	.3389	.001	.853	.001	.1443	.001
298.15	.4817	.3402	.001	.8419	.001	.1556	.001
298.15	.6597	.2824	.001	.7603	.001	.2192	.001
313.15	.2385	0	.001	.9998	.001	0	.001
313.15	.2574	.0772	.001	.9811	.001	.0188	.001
313.15	.2752	.1397	.001	.9632	.001	.0366	.001
313.15	.3123	.2037	.001	.9422	.001	.0575	.001
313.15	.3353	.2468	.001	.9316	.001	.0681	.001
313.15	.3668	.3065	.001	.8974	.001	.1019	.001
313.15	.4119	.3242	.001	.8839	.001	.1152	.001
313.15	.4403	.323	.001	.8768	.001	.122	.001
313.15	.7908	.1929	.001	.6634	.001	.2698	.001

System: geraniol + water; phases: Liquid mixture 2, Liquid mixture 1
Property: Mole fraction of water (Liquid mixture 2); method: Chromatography
Temperature, K	Pressure, kPa	Mole fraction of water	uncertainty
283.15	101	.2228	.001
298.15	101	.2339	.001
313.15	101	.2385	.001
283.15	100	.2228	.001
298.15	100	.2339	.001
313.15	100	.2385	.001

System: geraniol + water; phases: Liquid mixture 1, Liquid mixture 2
Property: Mole fraction of water (Liquid mixture 1); method: Chromatography
Temperature, K	Pressure, kPa	Mole fraction of water	uncertainty
283.15	101	.9997	.001
298.15	101	.9999	.001
313.15	101	.9998	.001
283.15	100	.9997	.001
298.15	100	.9999	.001
313.15	100	.9998	.001
