Measured thermophysical data. Activity Coefficients at Infinite Dilution of Volatile Compounds in Water: Effect of Temperature and Salt Concentration
Source: J. Chem. Eng. Data, 2012, 10.1021/je2013878
Compound 1: 1-octen-3-ol, C8H16O, purity 98%
Compound 2: 1-penten-3-ol, C5H10O, purity 99%
Compound 3: butanal, 3-methyl-, C5H10O, purity 97%
Compound 4: hexaldehyde, C6H12O, purity 98%
Compound 5: phenylmethanal, C7H6O, purity 99%
Compound 6: 2,3-pentanedione, C5H8O2, purity 98%
Compound 7: ethyl ethanoate, C4H8O2, purity 99%
Compound 8: sodium chloride, ClNa, purity 99.5%
Compound 9: water, H2O, purity 99.9%

System: ethyl ethanoate + sodium chloride + water; phases: Liquid
Fixed: Pressure, kPa = 101
Fixed: Mole fraction of ethyl ethanoate = 0
Fixed: Temperature, K = 313.15
Property: Activity coefficient of ethyl ethanoate (Liquid); method: Chromatography
Molality, mol/kg of sodium chloride	Activity coefficient of ethyl ethanoate	uncertainty
0	71	7.1
.34	86	8.6
.86	121	12.1
1.71	186	18.6

System: butanal, 3-methyl- + sodium chloride + water; phases: Liquid
Fixed: Pressure, kPa = 101
Fixed: Mole fraction of butanal, 3-methyl- = 0
Fixed: Temperature, K = 313.15
Property: Activity coefficient of butanal, 3-methyl- (Liquid); method: Chromatography
Molality, mol/kg of sodium chloride	Activity coefficient of butanal, 3-methyl-	uncertainty
0	179	17.9
.34	200	20
.86	244	24.4
1.71	350	35

System: 2,3-pentanedione + sodium chloride + water; phases: Liquid
Fixed: Pressure, kPa = 101
Fixed: Mole fraction of 2,3-pentanedione = 0
Fixed: Temperature, K = 313.15
Property: Activity coefficient of 2,3-pentanedione (Liquid); method: Chromatography
Molality, mol/kg of sodium chloride	Activity coefficient of 2,3-pentanedione	uncertainty
0	160	16
.34	196	19.6
.86	236	23.6
1.71	324	32.4

System: 1-penten-3-ol + sodium chloride + water; phases: Liquid
Fixed: Pressure, kPa = 101
Fixed: Mole fraction of 1-penten-3-ol = 0
Fixed: Temperature, K = 313.15
Property: Activity coefficient of 1-penten-3-ol (Liquid); method: Chromatography
Molality, mol/kg of sodium chloride	Activity coefficient of 1-penten-3-ol	uncertainty
0	49	4.9
.34	56	5.6
.86	66	6.6

System: hexaldehyde + sodium chloride + water; phases: Liquid
Fixed: Pressure, kPa = 101
Fixed: Mole fraction of hexaldehyde = 0
Fixed: Temperature, K = 313.15
Property: Activity coefficient of hexaldehyde (Liquid); method: Chromatography
Molality, mol/kg of sodium chloride	Activity coefficient of hexaldehyde	uncertainty
0	601	60.1
.34	768	76.8
.86	1029	102.9
1.71	1644	164.4

System: phenylmethanal + sodium chloride + water; phases: Liquid
Fixed: Pressure, kPa = 101
Fixed: Mole fraction of phenylmethanal = 0
Fixed: Temperature, K = 313.15
Property: Activity coefficient of phenylmethanal (Liquid); method: Chromatography
Molality, mol/kg of sodium chloride	Activity coefficient of phenylmethanal	uncertainty
0	570	57
.34	646	64.6
.86	788	78.8
1.71	1003	100.3

System: 1-octen-3-ol + sodium chloride + water; phases: Liquid
Fixed: Pressure, kPa = 101
Fixed: Mole fraction of 1-octen-3-ol = 0
Fixed: Temperature, K = 313.15
Property: Activity coefficient of 1-octen-3-ol (Liquid); method: Chromatography
Molality, mol/kg of sodium chloride	Activity coefficient of 1-octen-3-ol	uncertainty
0	2164	216.4
.34	2493	249.3
.86	3537	353.7
1.71	5679	567.9

System: 1-octen-3-ol + water; phases: Liquid
Fixed: Temperature, K = 313.15
Fixed: Pressure, kPa = 101
Property: Activity coefficient of 1-octen-3-ol (Liquid); method: Chromatography
Mole fraction of 1-octen-3-ol	Activity coefficient of 1-octen-3-ol	uncertainty
0	2164	216.4

System: 1-penten-3-ol + water; phases: Liquid
Fixed: Temperature, K = 313.15
Fixed: Pressure, kPa = 101
Property: Activity coefficient of 1-penten-3-ol (Liquid); method: Chromatography
Mole fraction of 1-penten-3-ol	Activity coefficient of 1-penten-3-ol	uncertainty
0	49	4.9

System: butanal, 3-methyl- + water; phases: Liquid
Fixed: Temperature, K = 313.15
Fixed: Pressure, kPa = 101
Property: Activity coefficient of butanal, 3-methyl- (Liquid); method: Chromatography
Mole fraction of butanal, 3-methyl-	Activity coefficient of butanal, 3-methyl-	uncertainty
0	179	17.9

System: hexaldehyde + water; phases: Liquid
Fixed: Temperature, K = 313.15
Fixed: Pressure, kPa = 101
Property: Activity coefficient of hexaldehyde (Liquid); method: Chromatography
Mole fraction of hexaldehyde	Activity coefficient of hexaldehyde	uncertainty
0	601	60.1

System: phenylmethanal + water; phases: Liquid
Fixed: Temperature, K = 313.15
Fixed: Pressure, kPa = 101
Property: Activity coefficient of phenylmethanal (Liquid); method: Chromatography
Mole fraction of phenylmethanal	Activity coefficient of phenylmethanal	uncertainty
0	570	57

System: 2,3-pentanedione + water; phases: Liquid
Fixed: Temperature, K = 313.15
Fixed: Pressure, kPa = 101
Property: Activity coefficient of 2,3-pentanedione (Liquid); method: Chromatography
Mole fraction of 2,3-pentanedione	Activity coefficient of 2,3-pentanedione	uncertainty
0	160	16

System: ethyl ethanoate + water; phases: Liquid
Fixed: Temperature, K = 313.15
Fixed: Pressure, kPa = 101
Property: Activity coefficient of ethyl ethanoate (Liquid); method: Chromatography
Mole fraction of ethyl ethanoate	Activity coefficient of ethyl ethanoate	uncertainty
0	71	7.1
