Measured thermophysical data. Densities and Viscosities of Binary Mixtures of Cyclohexanone and 2-Alkanols
Source: J. Chem. Eng. Data, 2012, 10.1021/je200806n
Compound 1: cyclohexanone, C6H10O, purity 99%
Compound 2: 2-propanol, C3H8O, purity 99%
Compound 3: butan-2-ol, C4H10O, purity 99%
Compound 4: 2-pentanol, C5H12O, purity 99%
Compound 5: 2-hydroxyhexane, C6H14O, purity 99%
Compound 6: amylmethylcarbinol, C7H16O, purity 99%

System: cyclohexanone; phases: Liquid
Property: Mass density, kg/m3 (Liquid); method: Vibrating tube method
Temperature, K	Pressure, kPa	Mass density, kg/m3	uncertainty
298.15	101.3	941.91	.01
303.15	101.3	937.24	.01
308.15	101.3	932.67	.01
313.15	101.3	927.72	.01

System: cyclohexanone; phases: Liquid
Property: Viscosity, Pa*s (Liquid); method: Capillary tube (Ostwald; Ubbelohde) method
Temperature, K	Pressure, kPa	Viscosity, Pa*s	uncertainty
298.15	101.3	.002057	.000002
303.15	101.3	.001847	.000002
308.15	101.3	.001694	.000002
313.15	101.3	.001546	.000002

System: 2-propanol; phases: Liquid
Property: Mass density, kg/m3 (Liquid); method: Vibrating tube method
Temperature, K	Pressure, kPa	Mass density, kg/m3	uncertainty
298.15	101.3	781.09	.01
303.15	101.3	776.57	.01
308.15	101.3	771.87	.01
313.15	101.3	767.36	.01

System: 2-propanol; phases: Liquid
Property: Viscosity, Pa*s (Liquid); method: Capillary tube (Ostwald; Ubbelohde) method
Temperature, K	Pressure, kPa	Viscosity, Pa*s	uncertainty
298.15	101.3	.002055	.000002
303.15	101.3	.001788	.000002
308.15	101.3	.001563	.000002
313.15	101.3	.001378	.000002

System: butan-2-ol; phases: Liquid
Property: Mass density, kg/m3 (Liquid); method: Vibrating tube method
Temperature, K	Pressure, kPa	Mass density, kg/m3	uncertainty
298.15	101.3	803.01	.01
303.15	101.3	798.29	.01
308.15	101.3	793.57	.01
313.15	101.3	789.15	.01

System: butan-2-ol; phases: Liquid
Property: Viscosity, Pa*s (Liquid); method: Capillary tube (Ostwald; Ubbelohde) method
Temperature, K	Pressure, kPa	Viscosity, Pa*s	uncertainty
298.15	101.3	.003104	.000002
303.15	101.3	.002597	.000002
308.15	101.3	.002152	.000002
313.15	101.3	.001733	.000002

System: 2-pentanol; phases: Liquid
Property: Mass density, kg/m3 (Liquid); method: Vibrating tube method
Temperature, K	Pressure, kPa	Mass density, kg/m3	uncertainty
298.15	101.3	805.41	.01
303.15	101.3	801.21	.01
308.15	101.3	796.64	.01
313.15	101.3	792.51	.01

System: 2-pentanol; phases: Liquid
Property: Viscosity, Pa*s (Liquid); method: Capillary tube (Ostwald; Ubbelohde) method
Temperature, K	Pressure, kPa	Viscosity, Pa*s	uncertainty
298.15	101.3	.003499	.000002
303.15	101.3	.002801	.000002
308.15	101.3	.002334	.000002
313.15	101.3	.001993	.000002

System: 2-hydroxyhexane; phases: Liquid
Property: Mass density, kg/m3 (Liquid); method: Vibrating tube method
Temperature, K	Pressure, kPa	Mass density, kg/m3	uncertainty
298.15	101.3	810.14	.01
303.15	101.3	806.13	.01
308.15	101.3	802.06	.01
313.15	101.3	797.96	.01

System: 2-hydroxyhexane; phases: Liquid
Property: Viscosity, Pa*s (Liquid); method: Capillary tube (Ostwald; Ubbelohde) method
Temperature, K	Pressure, kPa	Viscosity, Pa*s	uncertainty
298.15	101.3	.004101	.000002
303.15	101.3	.003411	.000002
308.15	101.3	.002819	.000002
313.15	101.3	.002219	.000002

System: amylmethylcarbinol; phases: Liquid
Property: Mass density, kg/m3 (Liquid); method: Vibrating tube method
Temperature, K	Pressure, kPa	Mass density, kg/m3	uncertainty
298.15	101.3	813.18	.01
303.15	101.3	809.26	.01
308.15	101.3	805.01	.01
313.15	101.3	801.14	.01

System: amylmethylcarbinol; phases: Liquid
Property: Viscosity, Pa*s (Liquid); method: Capillary tube (Ostwald; Ubbelohde) method
Temperature, K	Pressure, kPa	Viscosity, Pa*s	uncertainty
298.15	101.3	.005023	.000002
303.15	101.3	.004151	.000002
308.15	101.3	.003478	.000002
313.15	101.3	.002852	.000002

System: 2-propanol + cyclohexanone; phases: Liquid
Fixed: Pressure, kPa = 101.3
Property: Mass density, kg/m3 (Liquid); method: Vibrating tube method
Temperature, K	Mole fraction of cyclohexanone	Mass density, kg/m3	uncertainty
298.15	0	781.09	.01
298.15	.0812	797.69	.01
298.15	.1576	812.54	.01
298.15	.2398	827.76	.01
298.15	.3495	846.99	.01
298.15	.4363	861.43	.01
298.15	.5601	880.96	.01
298.15	.6502	894.41	.01
298.15	.7403	907.32	.01
298.15	.8481	922.15	.01
298.15	.9384	934.01	.01
298.15	1	941.91	.01
303.15	0	776.57	.01
303.15	.0812	792.97	.01
303.15	.1576	807.67	.01
303.15	.2398	822.83	.01
303.15	.3495	841.93	.01
303.15	.4363	856.27	.01
303.15	.5601	875.76	.01
303.15	.6502	889.21	.01
303.15	.7403	902.15	.01
303.15	.8481	917.06	.01
303.15	.9384	929.05	.01
303.15	1	937.24	.01
308.15	0	771.87	.01
308.15	.0812	788.11	.01
308.15	.1576	802.73	.01
308.15	.2398	817.68	.01
308.15	.3495	836.59	.01
308.15	.4363	851.05	.01
308.15	.5601	870.51	.01
308.15	.6502	884.09	.01
308.15	.7403	897.23	.01
308.15	.8481	912.28	.01
308.15	.9384	924.41	.01
308.15	1	932.67	.01
313.15	0	767.36	.01
313.15	.0812	783.28	.01
313.15	.1576	797.79	.01
313.15	.2398	812.71	.01
313.15	.3495	831.76	.01
313.15	.4363	846.26	.01
313.15	.5601	865.33	.01
313.15	.6502	878.95	.01
313.15	.7403	892.17	.01
313.15	.8481	907.09	.01
313.15	.9384	919.35	.01
313.15	1	927.72	.01

System: 2-propanol + cyclohexanone; phases: Liquid
Fixed: Pressure, kPa = 101.3
Property: Viscosity, Pa*s (Liquid); method: Capillary tube (Ostwald; Ubbelohde) method
Temperature, K	Mole fraction of cyclohexanone	Viscosity, Pa*s	uncertainty
298.15	0	.002055	.000002
298.15	.0812	.001689	.000002
298.15	.1576	.001436	.000002
298.15	.2398	.001236	.000002
298.15	.3495	.001067	.000002
298.15	.4363	.001023	.000002
298.15	.5601	.001076	.000002
298.15	.6502	.001177	.000002
298.15	.7403	.001331	.000002
298.15	.8481	.001581	.000002
298.15	.9384	.001845	.000002
298.15	1	.002057	.000002
303.15	0	.001788	.000002
303.15	.0812	.001489	.000002
303.15	.1576	.001268	.000002
303.15	.2398	.001081	.000002
303.15	.3495	.000934	.000002
303.15	.4363	.000899	.000002
303.15	.5601	.000951	.000002
303.15	.6502	.001056	.000002
303.15	.7403	.001202	.000002
303.15	.8481	.001437	.000002
303.15	.9384	.001675	.000002
303.15	1	.001847	.000002
308.15	0	.001563	.000002
308.15	.0812	.001301	.000002
308.15	.1576	.001098	.000002
308.15	.2398	.000934	.000002
308.15	.3495	.000809	.000002
308.15	.4363	.000779	.000002
308.15	.5601	.000845	.000002
308.15	.6502	.000949	.000002
308.15	.7403	.001087	.000002
308.15	.8481	.001301	.000002
308.15	.9384	.001537	.000002
308.15	1	.001694	.000002
313.15	0	.001378	.000002
313.15	.0812	.001142	.000002
313.15	.1576	.000961	.000002
313.15	.2398	.000817	.000002
313.15	.3495	.000715	.000002
313.15	.4363	.000689	.000002
313.15	.5601	.000751	.000002
313.15	.6502	.000854	.000002
313.15	.7403	.000995	.000002
313.15	.8481	.001211	.000002
313.15	.9384	.001412	.000002
313.15	1	.001546	.000002

System: butan-2-ol + cyclohexanone; phases: Liquid
Fixed: Pressure, kPa = 101.3
Property: Mass density, kg/m3 (Liquid); method: Vibrating tube method
Temperature, K	Mole fraction of cyclohexanone	Mass density, kg/m3	uncertainty
298.15	0	803.01	.01
298.15	.0814	814.99	.01
298.15	.1598	826.39	.01
298.15	.2444	838.54	.01
298.15	.3514	853.71	.01
298.15	.4404	866.19	.01
298.15	.5596	882.62	.01
298.15	.6523	895.31	.01
298.15	.738	906.94	.01
298.15	.8494	921.86	.01
298.15	.9361	933.34	.01
298.15	1	941.91	.01
303.15	0	798.29	.01
303.15	.0814	811.03	.01
303.15	.1598	822.21	.01
303.15	.2444	834.13	.01
303.15	.3514	849.09	.01
303.15	.4404	861.39	.01
303.15	.5596	877.71	.01
303.15	.6523	890.36	.01
303.15	.738	901.93	.01
303.15	.8494	916.99	.01
303.15	.9361	928.57	.01
303.15	1	937.24	.01
308.15	0	793.57	.01
308.15	.0814	805.17	.01
308.15	.1598	816.34	.01
308.15	.2444	828.18	.01
308.15	.3514	843.19	.01
308.15	.4404	855.62	.01
308.15	.5596	872.19	.01
308.15	.6523	884.99	.01
308.15	.738	896.81	.01
308.15	.8494	912.09	.01
308.15	.9361	924.04	.01
308.15	1	932.67	.01
313.15	0	789.15	.01
313.15	.0814	800.53	.01
313.15	.1598	811.48	.01
313.15	.2444	823.15	.01
313.15	.3514	838.01	.01
313.15	.4404	850.33	.01
313.15	.5596	866.91	.01
313.15	.6523	879.69	.01
313.15	.738	891.52	.01
313.15	.8494	907.01	.01
313.15	.9361	918.99	.01
313.15	1	927.72	.01

System: butan-2-ol + cyclohexanone; phases: Liquid
Fixed: Pressure, kPa = 101.3
Property: Viscosity, Pa*s (Liquid); method: Capillary tube (Ostwald; Ubbelohde) method
Temperature, K	Mole fraction of cyclohexanone	Viscosity, Pa*s	uncertainty
298.15	0	.003104	.000002
298.15	.0814	.002511	.000002
298.15	.1598	.002067	.000002
298.15	.2444	.001737	.000002
298.15	.3514	.001472	.000002
298.15	.4404	.001361	.000002
298.15	.5596	.001332	.000002
298.15	.6523	.0014	.000002
298.15	.738	.001501	.000002
298.15	.8494	.001704	.000002
298.15	.9361	.001889	.000002
298.15	1	.002057	.000002
303.15	0	.002597	.000002
303.15	.0814	.002163	.000002
303.15	.1598	.00182	.000002
303.15	.2444	.001535	.000002
303.15	.3514	.001305	.000002
303.15	.4404	.001206	.000002
303.15	.5596	.001183	.000002
303.15	.6523	.001249	.000002
303.15	.738	.001354	.000002
303.15	.8494	.001558	.000002
303.15	.9361	.001716	.000002
303.15	1	.001847	.000002
308.15	0	.002152	.000002
308.15	.0814	.001828	.000002
308.15	.1598	.001561	.000002
308.15	.2444	.00133	.000002
308.15	.3514	.001128	.000002
308.15	.4404	.001039	.000002
308.15	.5596	.001036	.000002
308.15	.6523	.001108	.000002
308.15	.738	.001224	.000002
308.15	.8494	.00141	.000002
308.15	.9361	.001572	.000002
308.15	1	.001694	.000002
313.15	0	.001733	.000002
313.15	.0814	.001441	.000002
313.15	.1598	.001186	.000002
313.15	.2444	.000982	.000002
313.15	.3514	.000841	.000002
313.15	.4404	.000794	.000002
313.15	.5596	.000825	.000002
313.15	.6523	.000914	.000002
313.15	.738	.001051	.000002
313.15	.8494	.001248	.000002
313.15	.9361	.00143	.000002
313.15	1	.001546	.000002

System: cyclohexanone + 2-pentanol; phases: Liquid
Fixed: Pressure, kPa = 101.3
Property: Mass density, kg/m3 (Liquid); method: Vibrating tube method
Temperature, K	Mole fraction of cyclohexanone	Mass density, kg/m3	uncertainty
298.15	0	805.41	.01
298.15	.0824	815.31	.01
298.15	.1615	825.12	.01
298.15	.2401	835.08	.01
298.15	.3492	849.18	.01
298.15	.4397	861.19	.01
298.15	.5607	877.71	.01
298.15	.6496	890.14	.01
298.15	.7399	903.04	.01
298.15	.8498	919.21	.01
298.15	.9396	932.71	.01
298.15	1	941.91	.01
303.15	0	801.21	.01
303.15	.0824	810.99	.01
303.15	.1615	820.69	.01
303.15	.2401	830.58	.01
303.15	.3492	844.64	.01
303.15	.4397	856.51	.01
303.15	.5607	872.97	.01
303.15	.6496	885.41	.01
303.15	.7399	898.27	.01
303.15	.8498	914.43	.01
303.15	.9396	928.12	.01
303.15	1	937.24	.01
308.15	0	796.64	.01
308.15	.0824	806.31	.01
308.15	.1615	815.92	.01
308.15	.2401	825.68	.01
308.15	.3492	839.56	.01
308.15	.4397	851.41	.01
308.15	.5607	867.74	.01
308.15	.6496	880.19	.01
308.15	.7399	893.11	.01
308.15	.8498	909.42	.01
308.15	.9396	923.33	.01
308.15	1	932.67	.01
313.15	0	792.51	.01
313.15	.0824	801.99	.01
313.15	.1615	811.53	.01
313.15	.2401	821.06	.01
313.15	.3492	834.77	.01
313.15	.4397	846.47	.01
313.15	.5607	862.65	.01
313.15	.6496	875.09	.01
313.15	.7399	888.08	.01
313.15	.8498	904.33	.01
313.15	.9396	917.99	.01
313.15	1	927.72	.01

System: cyclohexanone + 2-pentanol; phases: Liquid
Fixed: Pressure, kPa = 101.3
Property: Viscosity, Pa*s (Liquid); method: Capillary tube (Ostwald; Ubbelohde) method
Temperature, K	Mole fraction of cyclohexanone	Viscosity, Pa*s	uncertainty
298.15	0	.003499	.000002
298.15	.0824	.002631	.000002
298.15	.1615	.002178	.000002
298.15	.2401	.001822	.000002
298.15	.3492	.001465	.000002
298.15	.4397	.001277	.000002
298.15	.5607	.001191	.000002
298.15	.6496	.00123	.000002
298.15	.7399	.001354	.000002
298.15	.8498	.001597	.000002
298.15	.9396	.001855	.000002
298.15	1	.002057	.000002
303.15	0	.002801	.000002
303.15	.0824	.002307	.000002
303.15	.1615	.001893	.000002
303.15	.2401	.00158	.000002
303.15	.3492	.001241	.000002
303.15	.4397	.001081	.000002
303.15	.5607	.001016	.000002
303.15	.6496	.001072	.000002
303.15	.7399	.001205	.000002
303.15	.8498	.001417	.000002
303.15	.9396	.001685	.000002
303.15	1	.001847	.000002
308.15	0	.002334	.000002
308.15	.0824	.001891	.000002
308.15	.1615	.001541	.000002
308.15	.2401	.001265	.000002
308.15	.3492	.001007	.000002
308.15	.4397	.000881	.000002
308.15	.5607	.000865	.000002
308.15	.6496	.000935	.000002
308.15	.7399	.001062	.000002
308.15	.8498	.001294	.000002
308.15	.9396	.001523	.000002
308.15	1	.001694	.000002
313.15	0	.001993	.000002
313.15	.0824	.001596	.000002
313.15	.1615	.001285	.000002
313.15	.2401	.001056	.000002
313.15	.3492	.000838	.000002
313.15	.4397	.00075	.000002
313.15	.5607	.000771	.000002
313.15	.6496	.000848	.000002
313.15	.7399	.000982	.000002
313.15	.8498	.001194	.000002
313.15	.9396	.001388	.000002
313.15	1	.001546	.000002

System: cyclohexanone + 2-hydroxyhexane; phases: Liquid
Fixed: Pressure, kPa = 101.3
Property: Mass density, kg/m3 (Liquid); method: Vibrating tube method
Temperature, K	Mole fraction of cyclohexanone	Mass density, kg/m3	uncertainty
298.15	0	810.14	.01
298.15	.0821	818.43	.01
298.15	.1612	826.61	.01
298.15	.2409	835.25	.01
298.15	.3496	847.88	.01
298.15	.4391	858.93	.01
298.15	.56	874.62	.01
298.15	.649	886.88	.01
298.15	.7391	899.87	.01
298.15	.8492	916.79	.01
298.15	.9395	931.44	.01
298.15	1	941.91	.01
303.15	0	806.13	.01
303.15	.0821	814.12	.01
303.15	.1612	822.29	.01
303.15	.2409	830.81	.01
303.15	.3496	843.37	.01
303.15	.4391	854.32	.01
303.15	.56	869.92	.01
303.15	.649	882.07	.01
303.15	.7391	895.12	.01
303.15	.8492	912.01	.01
303.15	.9395	926.63	.01
303.15	1	937.24	.01
308.15	0	802.06	.01
308.15	.0821	809.89	.01
308.15	.1612	818.07	.01
308.15	.2409	826.44	.01
308.15	.3496	838.88	.01
308.15	.4391	849.76	.01
308.15	.56	865.28	.01
308.15	.649	877.39	.01
308.15	.7391	890.41	.01
308.15	.8492	907.19	.01
308.15	.9395	921.93	.01
308.15	1	932.67	.01
313.15	0	797.96	.01
313.15	.0821	805.91	.01
313.15	.1612	814.07	.01
313.15	.2409	822.41	.01
313.15	.3496	834.71	.01
313.15	.4391	845.48	.01
313.15	.56	860.83	.01
313.15	.649	872.97	.01
313.15	.7391	885.97	.01
313.15	.8492	902.71	.01
313.15	.9395	917.21	.01
313.15	1	927.72	.01

System: cyclohexanone + 2-hydroxyhexane; phases: Liquid
Fixed: Pressure, kPa = 101.3
Property: Viscosity, Pa*s (Liquid); method: Capillary tube (Ostwald; Ubbelohde) method
Temperature, K	Mole fraction of cyclohexanone	Viscosity, Pa*s	uncertainty
298.15	0	.004101	.000002
298.15	.0821	.003432	.000002
298.15	.1612	.002879	.000002
298.15	.2409	.002406	.000002
298.15	.3496	.001896	.000002
298.15	.4391	.001591	.000002
298.15	.56	.001359	.000002
298.15	.649	.001325	.000002
298.15	.7391	.001388	.000002
298.15	.8492	.001576	.000002
298.15	.9395	.001842	.000002
298.15	1	.002057	.000002
303.15	0	.003411	.000002
303.15	.0821	.002834	.000002
303.15	.1612	.002346	.000002
303.15	.2409	.001932	.000002
303.15	.3496	.001477	.000002
303.15	.4391	.00123	.000002
303.15	.56	.00108	.000002
303.15	.649	.001082	.000002
303.15	.7391	.001173	.000002
303.15	.8492	.0014	.000002
303.15	.9395	.001662	.000002
303.15	1	.001847	.000002
308.15	0	.002819	.000002
308.15	.0821	.002278	.000002
308.15	.1612	.001823	.000002
308.15	.2409	.001453	.000002
308.15	.3496	.001122	.000002
308.15	.4391	.000949	.000002
308.15	.56	.000873	.000002
308.15	.649	.000907	.000002
308.15	.7391	.001026	.000002
308.15	.8492	.001249	.000002
308.15	.9395	.001505	.000002
308.15	1	.001694	.000002
313.15	0	.002219	.000002
313.15	.0821	.001686	.000002
313.15	.1612	.001307	.000002
313.15	.2409	.001024	.000002
313.15	.3496	.000781	.000002
313.15	.4391	.000679	.000002
313.15	.56	.000655	.000002
313.15	.649	.000727	.000002
313.15	.7391	.00085	.000002
313.15	.8492	.001068	.000002
313.15	.9395	.001326	.000002
313.15	1	.001546	.000002

System: cyclohexanone + amylmethylcarbinol; phases: Liquid
Fixed: Pressure, kPa = 101.3
Property: Mass density, kg/m3 (Liquid); method: Vibrating tube method
Temperature, K	Mole fraction of cyclohexanone	Mass density, kg/m3	uncertainty
298.15	0	813.18	.01
298.15	.0826	820.37	.01
298.15	.1625	827.64	.01
298.15	.2415	835.26	.01
298.15	.3506	846.69	.01
298.15	.44	856.83	.01
298.15	.5603	871.72	.01
298.15	.6494	883.79	.01
298.15	.7394	896.96	.01
298.15	.85	914.67	.01
298.15	.9392	930.26	.01
298.15	1	941.91	.01
303.15	0	809.26	.01
303.15	.0826	816.21	.01
303.15	.1625	823.36	.01
303.15	.2415	830.91	.01
303.15	.3506	842.19	.01
303.15	.44	852.22	.01
303.15	.5603	866.99	.01
303.15	.6494	878.98	.01
303.15	.7394	892.15	.01
303.15	.85	909.91	.01
303.15	.9392	925.58	.01
303.15	1	937.24	.01
308.15	0	805.01	.01
308.15	.0826	811.69	.01
308.15	.1625	818.81	.01
308.15	.2415	826.28	.01
308.15	.3506	837.46	.01
308.15	.44	847.44	.01
308.15	.5603	862.12	.01
308.15	.6494	874.11	.01
308.15	.7394	887.29	.01
308.15	.85	905.04	.01
308.15	.9392	920.79	.01
308.15	1	932.67	.01
313.15	0	801.14	.01
313.15	.0826	807.61	.01
313.15	.1625	814.53	.01
313.15	.2415	821.87	.01
313.15	.3506	832.94	.01
313.15	.44	842.79	.01
313.15	.5603	857.35	.01
313.15	.6494	869.26	.01
313.15	.7394	882.32	.01
313.15	.85	900.06	.01
313.15	.9392	915.85	.01
313.15	1	927.72	.01

System: cyclohexanone + amylmethylcarbinol; phases: Liquid
Fixed: Pressure, kPa = 101.3
Property: Viscosity, Pa*s (Liquid); method: Capillary tube (Ostwald; Ubbelohde) method
Temperature, K	Mole fraction of cyclohexanone	Viscosity, Pa*s	uncertainty
298.15	0	.005023	.000002
298.15	.0826	.004282	.000002
298.15	.1625	.00364	.000002
298.15	.2415	.003081	.000002
298.15	.3506	.002401	.000002
298.15	.44	.001954	.000002
298.15	.5603	.001513	.000002
298.15	.6494	.001308	.000002
298.15	.7394	.001243	.000002
298.15	.85	.001391	.000002
298.15	.9392	.001727	.000002
298.15	1	.002057	.000002
303.15	0	.004151	.000002
303.15	.0826	.003546	.000002
303.15	.1625	.002986	.000002
303.15	.2415	.002473	.000002
303.15	.3506	.001874	.000002
303.15	.44	.001468	.000002
303.15	.5603	.001107	.000002
303.15	.6494	.000971	.000002
303.15	.7394	.000976	.000002
303.15	.85	.001193	.000002
303.15	.9392	.001535	.000002
303.15	1	.001847	.000002
308.15	0	.003478	.000002
308.15	.0826	.00294	.000002
308.15	.1625	.0024479	.000002
308.15	.2415	.001999	.000002
308.15	.3506	.001482	.000002
308.15	.44	.001141	.000002
308.15	.5603	.000849	.000002
308.15	.6494	.000773	.000002
308.15	.7394	.000816	.000002
308.15	.85	.001054	.000002
308.15	.9392	.001411	.000002
308.15	1	.001694	.000002
313.15	0	.002852	.000002
313.15	.0826	.002412	.000002
313.15	.1625	.001989	.000002
313.15	.2415	.001604	.000002
313.15	.3506	.001151	.000002
313.15	.44	.000862	.000002
313.15	.5603	.000627	.000002
313.15	.6494	.000576	.000002
313.15	.7394	.000647	.000002
313.15	.85	.00091	.000002
313.15	.9392	.001256	.000002
313.15	1	.001546	.000002
