Measured thermophysical data. Effects of Concentration, Temperature, and Solvent Composition on the Partial Molar Volumes of Sodium Lauryl Sulfate in Methanol (1) + Water (2) Mixed Solvent Media
Source: J. Chem. Eng. Data, 2011, 10.1021/je2003622
Compound 1: water, H2O
Compound 2: methanol, CH4O
Compound 3: sodium dodecyl sulfate, C12H25NaO4S

System: methanol + water; phases: Liquid
Fixed: Pressure, kPa = 101
Property: Mass density, kg/m3 (Liquid); method: Pycnometric method
Mass fraction of methanol	Temperature, K	Mass density, kg/m3	uncertainty
.0806	298.15	982.97	.05
.0806	308.15	979.73	.05
.0806	318.15	976.04	.05
.0806	323.15	974.38	.05
.1647	298.15	969.63	.05
.1647	308.15	966.32	.05
.1647	318.15	961.62	.05
.1647	323.15	958.75	.05
.2526	298.15	956.2	.05
.2526	308.15	951.6	.05
.2526	318.15	946.26	.05
.2526	323.15	943.31	.05
.3446	298.15	939.57	.05
.3446	308.15	933.64	.05
.3446	318.15	931.4	.05
.3446	323.15	928	.05

System: methanol + water; phases: Liquid
Fixed: Pressure, kPa = 101
Property: Viscosity, Pa*s (Liquid); method: Capillary tube (Ostwald; Ubbelohde) method
Mass fraction of methanol	Temperature, K	Viscosity, Pa*s	uncertainty
.0806	298.15	.0010844	
.0806	308.15	.0008665	
.0806	318.15	.0007017	
.0806	323.15	.0006375	
.1647	298.15	.0013106	
.1647	308.15	.0010217	
.1647	318.15	.0008075	
.1647	323.15	.00073	
.2526	298.15	.0014712	
.2526	308.15	.0011418	
.2526	318.15	.0008957	
.2526	323.15	.0008052	
.3446	298.15	.0014475	
.3446	308.15	.0012034	
.3446	318.15	.0009309	
.3446	323.15	.0008288	

System: methanol + sodium dodecyl sulfate + water; phases: Liquid
Fixed: Pressure, kPa = 101
Property: Mass density, kg/m3 (Liquid); method: Pycnometric method
Solvent: Mass fraction of methanol	Temperature, K	Molality, mol/kg of sodium dodecyl sulfate	Mass density, kg/m3	uncertainty
0	298.15	.11591	1001.71	.05
0	298.15	.0992	1001.07	.05
0	298.15	.08753	1000.63	.05
0	298.15	.0771	1000.24	.05
0	298.15	.05935	999.5	.05
0	298.15	.04734	999.03	.05
0	298.15	.04026	998.74	.05
0	298.15	.03036	998.33	.05
0	308.15	.11635	997.99	.05
0	308.15	.09957	997.46	.05
0	308.15	.08785	997.09	.05
0	308.15	.07737	996.76	.05
0	308.15	.05955	996.13	.05
0	308.15	.04749	995.73	.05
0	308.15	.0404	995.48	.05
0	308.15	.03046	995.13	.05
.0806	298.15	.12182	988.67	.05
.0806	298.15	.10165	987.73	.05
.0806	298.15	.08982	987.21	.05
.0806	298.15	.07882	986.7	.05
.0806	298.15	.06113	985.88	.05
.0806	298.15	.04896	985.29	.05
.0806	298.15	.04097	984.92	.05
.0806	298.15	.03183	984.49	.05
.0806	308.15	.12232	984.72	.05
.0806	308.15	.10205	983.92	.05
.0806	308.15	.09017	983.45	.05
.0806	308.15	.07912	983	.05
.0806	308.15	.06135	982.29	.05
.0806	308.15	.04914	981.77	.05
.0806	308.15	.04112	981.44	.05
.0806	308.15	.03194	981.06	.05
.1647	298.15	.11801	975.67	.05
.1647	298.15	.10281	974.9	.05
.1647	298.15	.08996	974.27	.05
.1647	298.15	.07774	973.66	.05
.1647	298.15	.05984	972.75	.05
.1647	298.15	.04751	972.1	.05
.1647	298.15	.04175	971.81	.05
.1647	298.15	.03148	971.28	.05
.1647	308.15	.11851	971.69	.05
.1647	308.15	.10323	971	.05
.1647	308.15	.09032	970.45	.05
.1647	308.15	.07806	969.9	.05
.1647	308.15	.06007	969.1	.05
.1647	308.15	.04769	968.53	.05
.1647	308.15	.0419	968.27	.05
.1647	308.15	.03159	967.78	.05
.2526	298.15	.12371	963.01	.05
.2526	298.15	.10533	962.04	.05
.2526	298.15	.09186	961.3	.05
.2526	298.15	.07991	960.66	.05
.2526	298.15	.0597	959.56	.05
.2526	298.15	.04925	958.96	.05
.2526	298.15	.0434	958.64	.05
.2526	298.15	.03298	958.06	.05
.2526	308.15	.12441	957.78	.05
.2526	308.15	.10591	956.88	.05
.2526	308.15	.09236	956.24	.05
.2526	308.15	.08034	955.65	.05
.2526	308.15	.06002	954.63	.05
.2526	308.15	.04951	954.1	.05
.2526	308.15	.04362	953.8	.05
.2526	308.15	.03315	953.29	.05
.3446	298.15	.12398	946.97	.05
.3446	298.15	.10717	945.99	.05
.3446	298.15	.09392	945.2	.05
.3446	298.15	.0813	944.47	.05
.3446	298.15	.05846	943.11	.05
.3446	298.15	.04902	942.55	.05
.3446	298.15	.04081	942.05	.05
.3446	298.15	.03216	941.53	.05
.3446	308.15	.12487	940.45	.05
.3446	308.15	.10793	939.55	.05
.3446	308.15	.09457	938.83	.05
.3446	308.15	.08186	938.17	.05
.3446	308.15	.05885	936.92	.05
.3446	308.15	.04935	936.38	.05
.3446	308.15	.04108	935.93	.05
.3446	308.15	.03237	935.45	.05
0	318.15	.11688	993.63	.05
0	318.15	.10001	993.17	.05
0	318.15	.08824	992.85	.05
0	318.15	.07771	992.57	.05
0	318.15	.0598	992.03	.05
0	318.15	.04769	991.69	.05
0	318.15	.04056	991.47	.05
0	318.15	.03059	991.17	.05
0	323.15	.11718	991.18	.05
0	323.15	.10026	990.76	.05
0	323.15	.08845	990.47	.05
0	323.15	.0779	990.21	.05
0	323.15	.05995	989.71	.05
0	323.15	.0478	989.39	.05
0	323.15	.04066	989.19	.05
0	323.15	.03066	988.91	.05
.0806	318.15	.12289	980.36	.05
.0806	318.15	.10251	979.65	.05
.0806	318.15	.09057	979.25	.05
.0806	318.15	.07946	978.88	.05
.0806	318.15	.06161	978.24	.05
.0806	318.15	.04934	977.8	.05
.0806	318.15	.04128	977.51	.05
.0806	318.15	.03207	977.2	.05
.0806	323.15	.12314	978.43	.05
.0806	323.15	.10271	977.78	.05
.0806	323.15	.09074	977.38	.05
.0806	323.15	.07962	977	.05
.0806	323.15	.06173	976.43	.05
.0806	323.15	.04943	976.02	.05
.0806	323.15	.04136	975.76	.05
.0806	323.15	.03213	975.46	.05
.1647	318.15	.11918	966.38	.05
.1647	318.15	.1038	965.81	.05
.1647	318.15	.09082	965.28	.05
.1647	318.15	.07848	964.78	.05
.1647	318.15	.06039	964.08	.05
.1647	318.15	.04794	963.57	.05
.1647	318.15	.04212	963.35	.05
.1647	318.15	.03176	962.92	.05
.1647	323.15	.11959	963.25	.05
.1647	323.15	.10415	962.67	.05
.1647	323.15	.09112	962.21	.05
.1647	323.15	.07873	961.77	.05
.1647	323.15	.06058	961.06	.05
.1647	323.15	.04809	960.6	.05
.1647	323.15	.04225	960.39	.05
.1647	323.15	.03185	959.98	.05
.2526	318.15	.12521	951.85	.05
.2526	318.15	.10658	951.06	.05
.2526	318.15	.09294	950.44	.05
.2526	318.15	.08084	949.89	.05
.2526	318.15	.06038	949	.05
.2526	318.15	.0498	948.52	.05
.2526	318.15	.04388	948.26	.05
.2526	318.15	.03334	947.77	.05
.2526	323.15	.12565	948.63	.05
.2526	323.15	.10695	947.85	.05
.2526	323.15	.09326	947.3	.05
.2526	323.15	.08111	946.81	.05
.2526	323.15	.06058	945.92	.05
.2526	323.15	.04997	945.47	.05
.2526	323.15	.04402	945.23	.05
.2526	323.15	.03345	944.76	.05
.3446	318.15	.12527	937.54	.05
.3446	318.15	.10826	936.76	.05
.3446	318.15	.09486	936.09	.05
.3446	318.15	.08211	935.46	.05
.3446	318.15	.05902	934.35	.05
.3446	318.15	.04948	933.87	.05
.3446	318.15	.04119	933.47	.05
.3446	318.15	.03246	933.02	.05
.3446	323.15	.12578	933.9	.05
.3446	323.15	.10869	933.13	.05
.3446	323.15	.09523	932.51	.05
.3446	323.15	.08242	931.93	.05
.3446	323.15	.05925	930.82	.05
.3446	323.15	.04967	930.38	.05
.3446	323.15	.04135	929.99	.05
.3446	323.15	.03258	929.56	.05

System: sodium dodecyl sulfate + water; phases: Liquid
Property: Mass density, kg/m3 (Liquid); method: Pycnometric method
Temperature, K	Molality, mol/kg of sodium dodecyl sulfate	Pressure, kPa	Mass density, kg/m3	uncertainty
298.15	.11591	101	1001.71	.05
298.15	.0992	101	1001.07	.05
298.15	.08753	101	1000.63	.05
298.15	.0771	101	1000.24	.05
298.15	.05935	101	999.5	.05
298.15	.04734	101	999.03	.05
298.15	.04026	101	998.74	.05
298.15	.03036	101	998.33	.05
308.15	.11635	101	997.99	.05
308.15	.09957	101	997.46	.05
308.15	.08785	101	997.09	.05
308.15	.07737	101	996.76	.05
308.15	.05955	101	996.13	.05
308.15	.04749	101	995.73	.05
308.15	.0404	101	995.48	.05
308.15	.03046	101	995.13	.05
318.15	.11688	101	993.63	.05
318.15	.10001	101	993.17	.05
318.15	.08824	101	992.85	.05
318.15	.07771	101	992.57	.05
318.15	.0598	101	992.03	.05
318.15	.04769	101	991.69	.05
318.15	.04056	101	991.47	.05
318.15	.03059	101	991.17	.05
323.15	.11718	101	991.18	.05
323.15	.10026	101	990.76	.05
323.15	.08845	101	990.47	.05
323.15	.0779	101	990.21	.05
323.15	.05995	101	989.71	.05
323.15	.0478	101	989.39	.05
323.15	.04066	101	989.19	.05
323.15	.03066	101	988.91	.05
