Measured thermophysical data. Densities, Excess Molar Volumes, Viscosity, and Refractive Indices of  Binary Mixtures of Ethanoic Acid and Trichloroethylene with  Dimethylbenzenes at Different Temperatures
Source: J. Chem. Eng. Data, 2012, 10.1021/je201211f
Compound 1: ethanoic acid, C2H4O2, purity 99.8%
Compound 2: ethene, trichloro-, C2HCl3, purity 99.5%
Compound 3: 1,2-dimethylbenzene, C8H10, purity 99%
Compound 4: 1,3-xylene, C8H10, purity 99%
Compound 5: 1,4-xylene, C8H10, purity 99%

System: ethanoic acid; phases: Liquid
Fixed: Pressure, kPa = 101.325
Property: Mass density, kg/m3 (Liquid); method: Vibrating tube method
Temperature, K	Mass density, kg/m3	uncertainty
298.15	1043.58	.01

System: ethanoic acid; phases: Liquid
Fixed: Pressure, kPa = 101.325
Property: Refractive index (Na D-line) (Liquid); method: Standard Abbe refractometry
Temperature, K	Refractive index (Na D-line)	uncertainty
298.15	1.3698	.0002

System: ethanoic acid; phases: Liquid
Fixed: Pressure, kPa = 101.325
Property: Viscosity, Pa*s (Liquid); method: Capillary tube (Ostwald; Ubbelohde) method
Temperature, K	Viscosity, Pa*s	uncertainty
298.15	.001127	.000003

System: ethene, trichloro-; phases: Liquid
Fixed: Pressure, kPa = 101.325
Property: Mass density, kg/m3 (Liquid); method: Vibrating tube method
Temperature, K	Mass density, kg/m3	uncertainty
298.15	1455.53	.01

System: ethene, trichloro-; phases: Liquid
Fixed: Pressure, kPa = 101.325
Property: Refractive index (Na D-line) (Liquid); method: Standard Abbe refractometry
Temperature, K	Refractive index (Na D-line)	uncertainty
298.15	1.475	.0002

System: ethene, trichloro-; phases: Liquid
Fixed: Pressure, kPa = 101.325
Property: Viscosity, Pa*s (Liquid); method: Capillary tube (Ostwald; Ubbelohde) method
Temperature, K	Viscosity, Pa*s	uncertainty
298.15	.000582	.000003

System: 1,2-dimethylbenzene; phases: Liquid
Fixed: Pressure, kPa = 101.325
Property: Mass density, kg/m3 (Liquid); method: Vibrating tube method
Temperature, K	Mass density, kg/m3	uncertainty
298.15	875.57	.01

System: 1,2-dimethylbenzene; phases: Liquid
Fixed: Pressure, kPa = 101.325
Property: Refractive index (Na D-line) (Liquid); method: Standard Abbe refractometry
Temperature, K	Refractive index (Na D-line)	uncertainty
298.15	1.5024	.0002

System: 1,2-dimethylbenzene; phases: Liquid
Fixed: Pressure, kPa = 101.325
Property: Viscosity, Pa*s (Liquid); method: Capillary tube (Ostwald; Ubbelohde) method
Temperature, K	Viscosity, Pa*s	uncertainty
298.15	.000757	.000003

System: 1,3-xylene; phases: Liquid
Fixed: Pressure, kPa = 101.325
Property: Mass density, kg/m3 (Liquid); method: Vibrating tube method
Temperature, K	Mass density, kg/m3	uncertainty
298.15	859.88	.01

System: 1,3-xylene; phases: Liquid
Fixed: Pressure, kPa = 101.325
Property: Refractive index (Na D-line) (Liquid); method: Standard Abbe refractometry
Temperature, K	Refractive index (Na D-line)	uncertainty
298.15	1.4944	.0002

System: 1,3-xylene; phases: Liquid
Fixed: Pressure, kPa = 101.325
Property: Viscosity, Pa*s (Liquid); method: Capillary tube (Ostwald; Ubbelohde) method
Temperature, K	Viscosity, Pa*s	uncertainty
298.15	.000589	.000003

System: 1,4-xylene; phases: Liquid
Fixed: Pressure, kPa = 101.325
Property: Mass density, kg/m3 (Liquid); method: Vibrating tube method
Temperature, K	Mass density, kg/m3	uncertainty
298.15	856.68	.01

System: 1,4-xylene; phases: Liquid
Fixed: Pressure, kPa = 101.325
Property: Refractive index (Na D-line) (Liquid); method: Standard Abbe refractometry
Temperature, K	Refractive index (Na D-line)	uncertainty
298.15	1.4929	.0002

System: 1,4-xylene; phases: Liquid
Fixed: Pressure, kPa = 101.325
Property: Viscosity, Pa*s (Liquid); method: Capillary tube (Ostwald; Ubbelohde) method
Temperature, K	Viscosity, Pa*s	uncertainty
298.15	.000609	.000003

System: ethanoic acid + 1,3-xylene; phases: Liquid
Fixed: Pressure, kPa = 101
Property: Mass density, kg/m3 (Liquid); method: Vibrating tube method
Temperature, K	Mole fraction of ethanoic acid	Mass density, kg/m3	uncertainty
293.15	.0777	869.99	.1
293.15	.1623	876.98	.1
293.15	.2143	881.73	.1
293.15	.2833	888.6	.1
293.15	.35	895.97	.1
293.15	.3896	900.67	.1
293.15	.4801	912.73	.1
293.15	.5621	925.38	.1
293.15	.6204	935.7	.1
293.15	.7214	956.29	.1
293.15	.8155	980.67	.1
293.15	.8758	999.34	.1
293.15	.9672	1034.28	.1
298.15	.0777	865.62	.1
298.15	.1623	872.54	.1
298.15	.2143	877.22	.1
298.15	.2833	884	.1
298.15	.35	891.29	.1
298.15	.3896	895.94	.1
298.15	.4801	907.88	.1
298.15	.5621	920.41	.1
298.15	.6204	930.66	.1
298.15	.7214	951.08	.1
298.15	.8155	975.31	.1
298.15	.8758	993.89	.1
298.15	.9672	1028.66	.1
303.15	.0777	861.24	.1
303.15	.2143	872.69	.1
303.15	.2833	879.39	.1
303.15	.35	886.59	.1
303.15	.3896	891.18	.1
303.15	.4801	903	.1
303.15	.5621	915.43	.1
303.15	.6204	925.59	.1
303.15	.7214	945.86	.1
303.15	.8155	969.94	.1
303.15	.8758	988.44	.1
303.15	.9672	1023.08	.1

System: ethanoic acid + 1,3-xylene; phases: Liquid
Fixed: Pressure, kPa = 101
Fixed: Temperature, K = 298.15
Property: Viscosity, Pa*s (Liquid); method: Capillary tube (Ostwald; Ubbelohde) method
Mole fraction of ethanoic acid	Viscosity, Pa*s	uncertainty
.0962	.0005885	.000003
.1625	.0005929	.000003
.3223	.0006061	.000003
.3797	.0006144	.000003
.4773	.0006308	.000003
.557	.0006504	.000003
.6405	.0006798	.000003
.7182	.0007206	.000003
.7955	.0007754	.000003
.8721	.0008578	.000003
.9649	.0010231	.000003

System: ethanoic acid + 1,3-xylene; phases: Liquid
Fixed: Pressure, kPa = 101
Fixed: Temperature, K = 298.15
Property: Refractive index (Na D-line) (Liquid); method: Standard Abbe refractometry
Mole fraction of ethanoic acid	Refractive index (Na D-line)	uncertainty
.0962	1.4877	.0002
.1625	1.4829	.0002
.3223	1.4682	.0002
.3797	1.4616	.0002
.4773	1.4523	.0002
.557	1.4424	.0002
.6405	1.4319	.0002
.7182	1.421	.0002
.7955	1.4066	.0002
.8721	1.3931	.0002
.9649	1.3773	.0002

System: ethanoic acid + 1,2-dimethylbenzene; phases: Liquid
Fixed: Pressure, kPa = 101
Property: Mass density, kg/m3 (Liquid); method: Vibrating tube method
Temperature, K	Mole fraction of ethanoic acid	Mass density, kg/m3	uncertainty
293.15	.0479	882.96	.1
293.15	.1264	888.76	.1
293.15	.2399	898.21	.1
293.15	.2632	900.31	.1
293.15	.3036	904.17	.1
293.15	.4089	915.71	.1
293.15	.4323	918.49	.1
293.15	.479	924.47	.1
293.15	.5609	935.9	.1
293.15	.6332	947.71	.1
293.15	.7184	964.07	.1
293.15	.7912	980.62	.1
293.15	.8814	1005.53	.1
293.15	.9652	1034.87	.1
298.15	.0479	878.72	.1
298.15	.1264	884.42	.1
298.15	.2399	893.74	.1
298.15	.2632	895.82	.1
298.15	.3036	899.62	.1
298.15	.4089	911.04	.1
298.15	.4323	913.77	.1
298.15	.479	919.7	.1
298.15	.5609	930.9	.1
298.15	.6332	942.68	.1
298.15	.7184	958.92	.1
298.15	.7912	975.33	.1
298.15	.8814	1000.08	.1
298.15	.9652	1029.28	.1
303.15	.0479	874.46	.1
303.15	.1264	880.07	.1
303.15	.2399	889.26	.1
303.15	.2632	891.31	.1
303.15	.3036	895.06	.1
303.15	.4089	906.34	.1
303.15	.4323	909.03	.1
303.15	.479	914.91	.1
303.15	.5609	926.08	.1
303.15	.6332	937.66	.1
303.15	.7184	953.75	.1
303.15	.7912	970.03	.1
303.15	.8814	994.74	.1
303.15	.9652	1023.69	.1

System: ethanoic acid + 1,2-dimethylbenzene; phases: Liquid
Fixed: Pressure, kPa = 101
Fixed: Temperature, K = 298.15
Property: Viscosity, Pa*s (Liquid); method: Capillary tube (Ostwald; Ubbelohde) method
Mole fraction of ethanoic acid	Viscosity, Pa*s	uncertainty
.0852	.0007491	.000003
.1881	.0007412	.000003
.2447	.0007448	.000003
.3206	.0007457	.000003
.3894	.0007476	.000003
.4729	.0007532	.000003
.5694	.0007667	.000003
.6388	.0007838	.000003
.7151	.0008113	.000003
.8031	.0008592	.000003
.8817	.0009274	.000003
.9589	.0010346	.000003

System: ethanoic acid + 1,2-dimethylbenzene; phases: Liquid
Fixed: Pressure, kPa = 101
Fixed: Temperature, K = 298.15
Property: Refractive index (Na D-line) (Liquid); method: Standard Abbe refractometry
Mole fraction of ethanoic acid	Refractive index (Na D-line)	uncertainty
.0852	1.4965	.0002
.1881	1.4875	.0002
.2447	1.4816	.0002
.3206	1.4747	.0002
.3894	1.4672	.0002
.4729	1.4579	.0002
.5569	1.4472	.0002
.636	1.4363	.0002
.7151	1.424	.0002
.8031	1.4099	.0002
.8817	1.3951	.0002
.9589	1.379	.0002

System: ethanoic acid + 1,4-xylene; phases: Liquid
Fixed: Pressure, kPa = 101
Property: Mass density, kg/m3 (Liquid); method: Vibrating tube method
Temperature, K	Mole fraction of ethanoic acid	Mass density, kg/m3	uncertainty
293.15	.0415	864.09	.1
293.15	.1166	870.08	.1
293.15	.157	873.55	.1
293.15	.1651	874.28	.1
293.15	.2466	882	.1
293.15	.2659	884.01	.1
293.15	.3246	890.49	.1
293.15	.4234	902.44	.1
293.15	.4717	909.04	.1
293.15	.5505	921.33	.1
293.15	.6435	938.19	.1
293.15	.7299	957.01	.1
293.15	.8099	977.97	.1
293.15	.8851	1001.76	.1
293.15	.9601	1030.99	.1
298.15	.0415	859.71	.1
298.15	.1166	865.62	.1
298.15	.157	869.05	.1
298.15	.1651	869.76	.1
298.15	.2466	877.4	.1
298.15	.2659	879.38	.1
298.15	.3246	885.78	.1
298.15	.4234	897.64	.1
298.15	.4717	904.17	.1
298.15	.5505	916.35	.1
298.15	.6435	933.07	.1
298.15	.7299	951.78	.1
298.15	.8099	972.61	.1
298.15	.8851	996.29	.1
298.15	.9601	1025.4	.1
303.15	.0415	855.31	.1
303.15	.1166	861.15	.1
303.15	.157	864.53	.1
303.15	.1651	865.24	.1
303.15	.2466	872.79	.1
303.15	.2659	874.76	.1
303.15	.3246	881.08	.1
303.15	.4234	892.81	.1
303.15	.4717	899.29	.1
303.15	.5505	911.38	.1
303.15	.6435	927.95	.1
303.15	.7299	946.53	.1
303.15	.8099	967.24	.1
303.15	.8851	990.81	.1
303.15	.9601	1019.76	.1

System: ethanoic acid + 1,4-xylene; phases: Liquid
Fixed: Pressure, kPa = 101
Fixed: Temperature, K = 298.15
Property: Viscosity, Pa*s (Liquid); method: Capillary tube (Ostwald; Ubbelohde) method
Mole fraction of ethanoic acid	Viscosity, Pa*s	uncertainty
.0863	.0006099	.000003
.173	.0006095	.000003
.2386	.0006117	.000003
.3096	.0006159	.000003
.3987	.000625	.000003
.4897	.0006398	.000003
.5621	.0006575	.000003
.6323	.00068	.000003
.7212	.0007243	.000003
.7965	.0007753	.000003
.8784	.0008675	.000003
.955	.0010026	.000003

System: ethanoic acid + 1,4-xylene; phases: Liquid
Fixed: Pressure, kPa = 101
Fixed: Temperature, K = 298.15
Property: Refractive index (Na D-line) (Liquid); method: Standard Abbe refractometry
Mole fraction of ethanoic acid	Refractive index (Na D-line)	uncertainty
.0863	1.4874	.0002
.173	1.4805	.0002
.2386	1.4748	.0002
.3096	1.4682	.0002
.3987	1.4598	.0002
.4897	1.4498	.0002
.5621	1.4414	.0002
.6323	1.4325	.0002
.7212	1.4202	.0002
.7965	1.4084	.0002
.8784	1.3939	.0002
.955	1.3791	.0002

System: ethene, trichloro- + 1,3-xylene; phases: Liquid
Fixed: Pressure, kPa = 101
Property: Mass density, kg/m3 (Liquid); method: Vibrating tube method
Temperature, K	Mole fraction of ethene, trichloro-	Mass density, kg/m3	uncertainty
293.15	.0494	886.2	.1
293.15	.0796	899.93	.1
293.15	.1531	934.34	.1
293.15	.23	971.87	.1
293.15	.3097	1012.52	.1
293.15	.4065	1064.66	.1
293.15	.4841	1108.6	.1
293.15	.5561	1151.33	.1
293.15	.6453	1206.86	.1
293.15	.709	1248.6	.1
293.15	.7989	1310.61	.1
293.15	.8937	1380.16	.1
293.15	.974	1442.88	.1
298.15	.0494	881.77	.1
298.15	.0796	895.43	.1
298.15	.1531	929.62	.1
298.15	.23	966.92	.1
298.15	.3097	1007.32	.1
298.15	.4065	1059.1	.1
298.15	.4841	1102.78	.1
298.15	.5561	1145.2	.1
298.15	.6453	1200.35	.1
298.15	.709	1241.79	.1
298.15	.7989	1303.35	.1
298.15	.8937	1372.41	.1
298.15	.974	1434.66	.1
303.15	.0494	877.34	.1
303.15	.0796	890.91	.1
303.15	.1531	924.88	.1
303.15	.23	961.95	.1
303.15	.3097	1002.09	.1
303.15	.4065	1053.53	.1
303.15	.4841	1096.93	.1
303.15	.5561	1139.05	.1
303.15	.6453	1193.84	.1
303.15	.709	1234.95	.1
303.15	.7989	1296.06	.1
303.15	.8937	1364.61	.1
303.15	.974	1426.38	.1

System: ethene, trichloro- + 1,3-xylene; phases: Liquid
Fixed: Pressure, kPa = 101
Fixed: Temperature, K = 298.15
Property: Viscosity, Pa*s (Liquid); method: Capillary tube (Ostwald; Ubbelohde) method
Mole fraction of ethene, trichloro-	Viscosity, Pa*s	uncertainty
.0768	.0005895	.000003
.1465	.0005893	.000003
.2415	.0005895	.000003
.3204	.0005897	.000003
.3935	.0005893	.000003
.496	.0005883	.000003
.5613	.0005875	.000003
.6423	.0005863	.000003
.7204	.0005851	.000003
.7639	.0005844	.000003
.8774	.0005823	.000003
.9596	.0005808	.000003

System: ethene, trichloro- + 1,3-xylene; phases: Liquid
Fixed: Pressure, kPa = 101
Fixed: Temperature, K = 298.15
Property: Refractive index (Na D-line) (Liquid); method: Standard Abbe refractometry
Mole fraction of ethene, trichloro-	Refractive index (Na D-line)	uncertainty
.085	1.4932	.0002
.1622	1.4922	.0002
.2415	1.4908	.0002
.3204	1.4894	.0002
.3935	1.488	.0002
.496	1.4859	.0002
.5613	1.4845	.0002
.6429	1.4825	.0002
.7226	1.4807	.0002
.8061	1.4789	.0002
.8832	1.4773	.0002
.9596	1.4756	.0002

System: ethene, trichloro- + 1,2-dimethylbenzene; phases: Liquid
Fixed: Pressure, kPa = 101
Property: Mass density, kg/m3 (Liquid); method: Vibrating tube method
Temperature, K	Mole fraction of ethene, trichloro-	Mass density, kg/m3	uncertainty
293.15	.088	919.03	.1
293.15	.1511	948.33	.1
293.15	.2426	992.67	.1
293.15	.3249	1034.35	.1
293.15	.3895	1068.4	.1
293.15	.4775	1116.88	.1
293.15	.5495	1158.43	.1
293.15	.6384	1212.22	.1
293.15	.7132	1259.66	.1
293.15	.79	1310.86	.1
293.15	.8776	1372.25	.1
293.15	.9583	1431.95	.1
298.15	.088	914.58	.1
298.15	.1511	943.7	.1
298.15	.2426	987.75	.1
298.15	.3249	1029.15	.1
298.15	.3895	1062.98	.1
298.15	.4775	1111.15	.1
298.15	.5495	1152.41	.1
298.15	.6384	1205.79	.1
298.15	.7132	1252.89	.1
298.15	.79	1303.68	.1
298.15	.8776	1364.6	.1
298.15	.9583	1423.79	.1
303.15	.088	910.12	.1
303.15	.1511	939.06	.1
303.15	.2426	982.82	.1
303.15	.3249	1023.95	.1
303.15	.3895	1057.54	.1
303.15	.4775	1105.38	.1
303.15	.5495	1146.34	.1
303.15	.6384	1199.32	.1
303.15	.7132	1246.08	.1
303.15	.79	1296.47	.1
303.15	.8776	1356.92	.1
303.15	.9583	1415.62	.1

System: ethene, trichloro- + 1,2-dimethylbenzene; phases: Liquid
Fixed: Pressure, kPa = 101
Fixed: Temperature, K = 298.15
Property: Viscosity, Pa*s (Liquid); method: Capillary tube (Ostwald; Ubbelohde) method
Mole fraction of ethene, trichloro-	Viscosity, Pa*s	uncertainty
.0721	.0007421	.000003
.1615	.000725	.000003
.2437	.0007095	.000003
.3181	.0006959	.000003
.3957	.0006808	.000003
.4824	.0006644	.000003
.558	.0006498	.000003
.6346	.0006363	.000003
.7158	.0006224	.000003
.802	.0006081	.000003
.8818	.000595	.000003
.9559	.0005836	.000003

System: ethene, trichloro- + 1,2-dimethylbenzene; phases: Liquid
Fixed: Pressure, kPa = 101
Fixed: Temperature, K = 298.15
Property: Refractive index (Na D-line) (Liquid); method: Standard Abbe refractometry
Mole fraction of ethene, trichloro-	Refractive index (Na D-line)	uncertainty
.0721	1.501	.0002
.1615	1.499	.0002
.2437	1.4973	.0002
.3075	1.4958	.0002
.3957	1.4936	.0002
.4824	1.4917	.0002
.5643	1.4896	.0002
.6346	1.4875	.0002
.7158	1.4847	.0002
.806	1.4813	.0002
.8818	1.4788	.0002
.9637	1.4762	.0002

System: ethene, trichloro- + 1,4-xylene; phases: Liquid
Fixed: Pressure, kPa = 101
Fixed: Temperature, K = 298.15
Property: Viscosity, Pa*s (Liquid); method: Capillary tube (Ostwald; Ubbelohde) method
Mole fraction of ethene, trichloro-	Viscosity, Pa*s	uncertainty
.0897	.0006075	.000003
.154	.000606	.000003
.2402	.0006043	.000003
.318	.0006026	.000003
.399	.0005999	.000003
.4801	.0005968	.000003
.5624	.000594	.000003
.64	.0005915	.000003
.718	.0005888	.000003
.8	.0005861	.000003
.8834	.0005834	.000003
.9632	.0005808	.000003

System: ethene, trichloro- + 1,4-xylene; phases: Liquid
Fixed: Pressure, kPa = 101
Fixed: Temperature, K = 298.15
Property: Refractive index (Na D-line) (Liquid); method: Standard Abbe refractometry
Mole fraction of ethene, trichloro-	Refractive index (Na D-line)	uncertainty
.0897	1.4921	.0002
.154	1.4911	.0002
.2402	1.4897	.0002
.318	1.4885	.0002
.399	1.4873	.0002
.4801	1.486	.0002
.5624	1.4844	.0002
.64	1.4829	.0002
.721	1.4811	.0002
.7988	1.4794	.0002
.8834	1.4775	.0002
.961	1.4753	.0002

System: ethene, trichloro- + 1,4-xylene; phases: Liquid
Fixed: Pressure, kPa = 101
Property: Mass density, kg/m3 (Liquid); method: Vibrating tube method
Temperature, K	Mole fraction of ethene, trichloro-	Mass density, kg/m3	uncertainty
293.15	.0843	899.17	.1
293.15	.1806	944.97	.1
293.15	.2528	980.96	.1
293.15	.3239	1017.91	.1
293.15	.403	1060.83	.1
293.15	.49	1110.44	.1
293.15	.5689	1157.79	.1
293.15	.6381	1201.31	.1
293.15	.7202	1255.5	.1
293.15	.7975	1309.15	.1
293.15	.8925	1379.16	.1
293.15	.9582	1430.28	.1
298.15	.0843	894.6	.1
298.15	.1806	940.12	.1
298.15	.2528	975.88	.1
298.15	.3239	1012.59	.1
298.15	.403	1055.25	.1
298.15	.49	1104.53	.1
298.15	.5689	1151.57	.1
298.15	.6381	1194.8	.1
298.15	.7202	1248.62	.1
298.15	.7975	1301.88	.1
298.15	.8925	1371.4	.1
298.15	.9582	1422.14	.1
303.15	.0843	890.02	.1
303.15	.1806	935.27	.1
303.15	.2528	970.8	.1
303.15	.3239	1007.28	.1
303.15	.403	1049.65	.1
303.15	.49	1098.61	.1
303.15	.5689	1145.35	.1
303.15	.6381	1188.25	.1
303.15	.7202	1241.69	.1
303.15	.7975	1294.56	.1
303.15	.8925	1363.59	.1
303.15	.9582	1413.95	.1
