Measured thermophysical data. Isothermal Vapor-Liquid Equilibrium of (1-Butanol + 1,8-Cineole) at 10 Temperatures between (278.15 and 323.15) K
Source: J. Chem. Eng. Data, 2011, 10.1021/je200011e
Compound 1: butan-1-ol, C4H10O, purity 99.8%
Compound 2: 1,8-cineole, C10H18O, purity 99%

System: butan-1-ol; phases: Liquid, Gas
Property: Vapor or sublimation pressure, kPa (Liquid); method: Closed cell (Static) method
Temperature, K	Vapor or sublimation pressure, kPa	uncertainty
278.15	.2	
283.15	.306	
288.15	.452	
293.15	.664	
298.15	.939	
303.15	1.316	
308.15	1.831	
313.15	2.526	
318.15	3.435	
323.15	4.545	

System: 1,8-cineole; phases: Liquid, Gas
Property: Vapor or sublimation pressure, kPa (Liquid); method: Closed cell (Static) method
Temperature, K	Vapor or sublimation pressure, kPa	uncertainty
278.15	.071	
283.15	.093	
288.15	.13	
293.15	.178	
298.15	.253	
303.15	.346	
308.15	.477	
313.15	.627	
318.15	.828	
323.15	1.101	

System: butan-1-ol + 1,8-cineole; phases: Liquid, Gas
Property: Vapor or sublimation pressure, kPa (Liquid); method: Closed cell (Static) method
Temperature, K	Mole fraction of 1,8-cineole	Vapor or sublimation pressure, kPa	uncertainty
278.15	.0771	.196	
278.15	.1369	.195	
278.15	.1976	.19	
278.15	.2736	.182	
278.15	.3487	.181	
278.15	.4857	.162	
278.15	.5995	.147	
278.15	.6508	.146	
278.15	.681	.142	
278.15	.7741	.128	
278.15	.8852	.111	
278.15	.9346	.095	
283.15	.0771	.31	
283.15	.1369	.292	
283.15	.1976	.296	
283.15	.2736	.271	
283.15	.3487	.255	
283.15	.4857	.24	
283.15	.5995	.219	
283.15	.6508	.215	
283.15	.681	.202	
283.15	.7741	.182	
283.15	.8852	.153	
283.15	.9346	.133	
288.15	.0771	.442	
288.15	.1369	.429	
288.15	.1976	.424	
288.15	.2736	.388	
288.15	.3487	.378	
288.15	.4857	.343	
288.15	.5995	.352	
288.15	.6508	.308	
288.15	.681	.285	
288.15	.7741	.261	
288.15	.8852	.222	
288.15	.9346	.181	
293.15	.0771	.64	
293.15	.1369	.635	
293.15	.1976	.595	
293.15	.2736	.566	
293.15	.3487	.554	
293.15	.4857	.51	
293.15	.5995	.478	
293.15	.6508	.441	
293.15	.681	.428	
293.15	.7741	.383	
293.15	.8852	.305	
293.15	.9346	.249	
298.15	.0771	.909	
298.15	.1369	.901	
298.15	.1976	.843	
298.15	.2736	.807	
298.15	.3487	.789	
298.15	.4857	.718	
298.15	.5995	.668	
298.15	.6508	.636	
298.15	.6811	.597	
298.15	.7742	.532	
298.15	.8852	.434	
298.15	.9346	.359	
303.15	.0771	1.278	
303.15	.1369	1.254	
303.15	.1976	1.185	
303.15	.2736	1.143	
303.15	.3487	1.089	
303.15	.4858	.997	
303.15	.5996	.908	
303.15	.6509	.882	
303.15	.6811	.84	
303.15	.7742	.742	
303.15	.8852	.604	
303.15	.9346	.48	
308.15	.0771	1.774	
308.15	.1369	1.73	
308.15	.1976	1.654	
308.15	.2736	1.596	
308.15	.3487	1.518	
308.15	.4858	1.377	
308.15	.5996	1.257	
308.15	.6509	1.212	
308.15	.6811	1.164	
308.15	.7742	1.034	
308.15	.8853	.814	
308.15	.9347	.68	
313.15	.0771	2.435	
313.15	.1369	2.377	
313.15	.1976	2.277	
313.15	.2737	2.169	
313.15	.3488	2.076	
313.15	.4858	1.894	
313.15	.5996	1.724	
313.15	.6509	1.643	
313.15	.6812	1.58	
313.15	.7743	1.369	
313.15	.8853	1.102	
313.15	.9347	.915	
318.15	.0771	3.304	
318.15	.137	3.168	
318.15	.1977	3.088	
318.15	.2737	2.935	
318.15	.3488	2.809	
318.15	.4859	2.557	
318.15	.5997	2.33	
318.15	.651	2.215	
318.15	.6812	2.124	
318.15	.7743	1.858	
318.15	.8853	1.44	
318.15	.9347	1.213	
323.15	.0771	4.392	
323.15	.137	4.253	
323.15	.1977	4.082	
323.15	.2737	3.891	
323.15	.3488	3.708	
323.15	.486	3.358	
323.15	.5997	3.06	
323.15	.6511	2.917	
323.15	.6813	2.833	
323.15	.7744	2.453	
323.15	.8854	1.924	
323.15	.9348	1.596	
