Measured thermophysical data. Solid Liquid Phase Equilibrium for the Ternary System K2SO4 + KH2PO4 + H2O at (298.15 and 333.15) K
Source: J. Chem. Eng. Data, 2012, 10.1021/je201138z
Compound 1: potassium sulfate, K2O4S, purity 99%
Compound 2: monopotassium dihydrogen phosphate, H2KO4P, purity 99.5%
Compound 3: water, H2O, purity 99%

System: water + monopotassium dihydrogen phosphate + potassium sulfate; phases: Liquid, Crystal
Fixed: Pressure, kPa = 101.3
Property: Mass fraction of monopotassium dihydrogen phosphate (Liquid); method: Titration method
Temperature, K	Mass fraction of potassium sulfate	Mass fraction of monopotassium dihydrogen phosphate	uncertainty
298.15	.0716	0	.003
298.15	.0628	.0367	.003
298.15	.0492	.0964	.003
298.15	.0445	.1324	.003
333.15	.1022	0	.003
333.15	.0953	.0429	.003
333.15	.0838	.0807	.003
333.15	.0741	.1179	.003
333.15	.0662	.1504	.003
333.15	.0611	.1838	.003
333.15	.0575	.2141	.003
333.15	.0419	.2697	.003

System: water + monopotassium dihydrogen phosphate + potassium sulfate; phases: Liquid, Crystal
Fixed: Pressure, kPa = 101.3
Property: Mass fraction of monopotassium dihydrogen phosphate (Liquid); method: Titration method
Temperature, K	Mass fraction of potassium sulfate	Mass fraction of monopotassium dihydrogen phosphate	uncertainty
333.15	.0214	.3049	.003
333.15	.0132	.313	.003
333.15	.0055	.3199	.003
333.15	0	.3303	.003
298.15	.0171	.1875	.003
298.15	.009	.1969	.003
298.15	0	.2144	.003

System: water + monopotassium dihydrogen phosphate + potassium sulfate; phases: Liquid, Crystal, Crystal
Fixed: Pressure, kPa = 101.3
Property: Mass fraction of monopotassium dihydrogen phosphate (Liquid); method: Titration method
Temperature, K	Mass fraction of monopotassium dihydrogen phosphate	uncertainty
298.15	.17	.003
298.15	.1702	.003
298.15	.1706	.003
333.15	.2797	.003
333.15	.2809	.003
333.15	.2818	.003

System: water + monopotassium dihydrogen phosphate + potassium sulfate; phases: Liquid, Crystal
Fixed: Pressure, kPa = 101.3
Property: Mass density, kg/m3 (Liquid); method: Pycnometric method
Temperature, K	Mass fraction of potassium sulfate	Mass density, kg/m3	uncertainty
298.15	.0716	1043.3	.2
298.15	.0628	1052.8	.2
298.15	.0492	1067.4	.2
298.15	.0445	1078.1	.2
333.15	.1022	1058.7	.2
333.15	.0953	1067.3	.2
333.15	.0838	1075.4	.2
333.15	.0741	1083.9	.2
333.15	.0662	1093	.2
333.15	.0611	1102.7	.2
333.15	.0575	1110.8	.2
333.15	.0419	1127.8	.2

System: water + monopotassium dihydrogen phosphate + potassium sulfate; phases: Liquid, Crystal
Fixed: Pressure, kPa = 101.3
Property: Mass density, kg/m3 (Liquid); method: Pycnometric method
Temperature, K	Mass fraction of potassium sulfate	Mass density, kg/m3	uncertainty
298.15	.0171	1079.7	.2
298.15	.009	1076.3	.2
298.15	0	1080.2	.2
333.15	.0214	1127.1	.2
333.15	.0132	1124.5	.2
333.15	.0055	1122.2	.2
333.15	0	1121	.2

System: water + monopotassium dihydrogen phosphate + potassium sulfate; phases: Liquid, Crystal, Crystal
Fixed: Pressure, kPa = 101.3
Property: Mass density, kg/m3 (Liquid); method: Pycnometric method
Temperature, K	Mass density, kg/m3	uncertainty
298.15	1087	.2
298.15	1086.9	.2
298.15	1094.3	.2
333.15	1132.8	.2
333.15	1131.8	.2
333.15	1132.1	.2

System: water + monopotassium dihydrogen phosphate + potassium sulfate; phases: Liquid, Crystal, Crystal
Fixed: Pressure, kPa = 101
Property: Mole fraction of potassium sulfate (Liquid); method: Titration method
Temperature, K	Mole fraction of potassium sulfate	uncertainty
298.15	.0322	.005
298.15	.032	.005
298.15	.0314	.005
333.15	.0403	.005
333.15	.0399	.005
333.15	.0396	.005
