Measured thermophysical data. Vapor Liquid Equilibrium and Liquid Liquid Equilibrium of Ethyl Acetate + Ethanol + 1-Ethyl-3-methylimidazolium Acetate
Source: J. Chem. Eng. Data, 2012, 10.1021/je200869q
Compound 1: 1-ethyl-3-methylimidazolium acetate, C8H14N2O2, purity 99%
Compound 2: ethanol, C2H6O, purity 99.7%
Compound 3: ethyl ethanoate, C4H8O2, purity 99.7%

System: ethanol + ethyl ethanoate + 1-ethyl-3-methylimidazolium acetate; phases: Liquid, Gas
Fixed: Pressure, kPa = 101.3
Property: Boiling temperature at pressure P, K (Liquid); method: Ebulliometric method (Recirculating still)
Mole fraction of 1-ethyl-3-methylimidazolium acetate	Solvent: Mole fraction of ethyl ethanoate	Boiling temperature at pressure P, K	uncertainty
.025	0	352.25	.06
.025	.093	349.07	.06
.025	.192	347.35	.06
.025	.29	346.36	.06
.025	.4	345.86	.06
.026	.476	345.75	.06
.026	.591	345.76	.06
.025	.695	346.18	.06
.025	.802	347.14	.06
.025	.898	348.13	.06
.05	0	353.36	.06
.051	.091	350.15	.06
.049	.202	348.07	.06
.051	.278	346.98	.06
.051	.386	346.36	.06
.051	.502	346.31	.06
.051	.598	346.33	.06
.05	.684	346.88	.06
.05	.791	347.65	.06
.05	.909	348.81	.06
.1	0	354.89	.06
.1	.094	351.61	.06
.11	.211	349.25	.06
.105	.289	348.24	.06
.11	.389	347.36	.06
.101	.489	347.18	.06
.109	.585	347.44	.06
.105	.682	347.77	.06
.108	.801	348.92	.06

System: ethanol + ethyl ethanoate + 1-ethyl-3-methylimidazolium acetate; phases: Gas, Liquid
Fixed: Pressure, kPa = 101.3
Property: Mole fraction of ethyl ethanoate (Gas); method: Chromatography
Mole fraction of 1-ethyl-3-methylimidazolium acetate	Solvent: Mole fraction of ethyl ethanoate	Mole fraction of ethyl ethanoate	uncertainty
.025	0	0	.005
.025	.093	.19	.005
.025	.192	.316	.005
.025	.29	.402	.005
.025	.4	.49	.005
.026	.476	.55	.005
.026	.591	.619	.005
.025	.695	.675	.005
.025	.802	.762	.005
.025	.898	.85	.005
.05	0	0	.005
.051	.091	.198	.005
.049	.202	.342	.005
.051	.278	.436	.005
.051	.386	.525	.005
.051	.502	.588	.005
.051	.598	.653	.005
.05	.684	.714	.005
.05	.791	.786	.005
.05	.909	.89	.005
.1	0	0	.005
.1	.094	.227	.005
.11	.211	.406	.005
.105	.289	.48	.005
.11	.389	.583	.005
.101	.489	.648	.005
.109	.585	.706	.005
.105	.682	.768	.005
.108	.801	.844	.005

System: ethanol + ethyl ethanoate + 1-ethyl-3-methylimidazolium acetate; phases: Liquid mixture 2, Liquid mixture 1
Property: Mole fraction of ethanol (Liquid mixture 2); method: Chromatography
Property: Mole fraction of ethyl ethanoate (Liquid mixture 1); method: Chromatography
Property: Mole fraction of ethanol (Liquid mixture 1); method: Chromatography
Temperature, K	Pressure, kPa	Mole fraction of ethyl ethanoate	Mole fraction of ethanol	uncertainty	Mole fraction of ethyl ethanoate	uncertainty	Mole fraction of ethanol	uncertainty
288.15	1	.206	0	.007	.97	.007	0	.007
288.15	1	.232	.098	.007	.96	.007	.01	.007
288.15	1	.261	.202	.007	.944	.007	.027	.007
288.15	1	.298	.301	.007	.912	.007	.059	.007
288.15	1	.374	.401	.007	.821	.007	.149	.007
288.15	1	.411	.412	.007	.77	.007	.196	.007
288.15	1	.491	.398	.007	.67	.007	.281	.007
288.15	1	.535	.376	.007	.62	.007	.32	.007
299.15	1	.224	0	.007	.974	.007	0	.007
299.15	1	.247	.104	.007	.96	.007	.014	.007
299.15	1	.263	.148	.007	.95	.007	.023	.007
299.15	1	.298	.246	.007	.919	.007	.054	.007
299.15	1	.32	.304	.007	.893	.007	.079	.007
299.15	1	.358	.35	.007	.848	.007	.121	.007
299.15	1	.399	.377	.007	.795	.007	.169	.007
299.15	1	.523	.365	.007	.645	.007	.291	.007
308.15	1	.226	0	.007	.96	.007	0	.007
308.15	1	.24	.05	.007	.953	.007	.006	.007
308.15	1	.271	.151	.007	.937	.007	.022	.007
308.15	1	.311	.252	.007	.908	.007	.053	.007
308.15	1	.339	.302	.007	.881	.007	.08	.007
308.15	1	.387	.353	.007	.825	.007	.133	.007
308.15	1	.469	.367	.007	.725	.007	.22	.007
308.15	1	.558	.336	.007	.625	.007	.295	.007

System: ethyl ethanoate + 1-ethyl-3-methylimidazolium acetate; phases: Liquid mixture 1, Liquid mixture 2, Gas
Property: Liquid-liquid equilibrium temperature, K (Liquid mixture 1); method: VLLE data within a ternary VLE data set.
Pressure, kPa	Liquid-liquid equilibrium temperature, K	uncertainty
101.3	350.13	.06
101.3	350.12	.06
101.3	350.12	.06
