Measured thermophysical data. Densities, Viscosities, and Surface Tensions of Aqueous Mixtures of Sulfolane + Triethanolamine and Sulfolane + Diisopropanolamine
Source: J. Chem. Eng. Data, 2011, 10.1021/je200124h
Compound 1: diethylenediamine, C4H10N2
Compound 2: tetramethylene sulfone, C4H8O2S
Compound 3: triethanolamine, C6H15NO3
Compound 4: diisopropanolamine, C6H15NO2
Compound 5: water, H2O

System: tetramethylene sulfone; phases: Liquid
Fixed: Pressure, kPa = 101.325
Property: Mass density, kg/m3 (Liquid); method: Pycnometric method
Temperature, K	Mass density, kg/m3	uncertainty
303.15	1262.3	.934102
313.15	1254	.92796
323.15	1245.7	.921818
333.15	1236.5	.91501
343.15	1229	.90946

System: tetramethylene sulfone; phases: Liquid
Fixed: Pressure, kPa = 101.325
Property: Viscosity, Pa*s (Liquid); method: Capillary tube (Ostwald; Ubbelohde) method
Temperature, K	Viscosity, Pa*s	uncertainty
303.15	.01018	.000120124
313.15	.00785	.00009263
323.15	.00615	.00007257
333.15	.0044	.00005192
343.15	.00357	.000042126

System: tetramethylene sulfone; phases: Liquid, Air at 1 atmosphere
Property: Surface tension liquid-gas, N/m (Liquid); method: Ring tensiometer
Temperature, K	Surface tension liquid-gas, N/m	uncertainty
303.15	.04795	.00016303
313.15	.04722	.000160548
323.15	.04661	.000158474
333.15	.04574	.000155516
343.15	.04516	.000153544

System: triethanolamine; phases: Liquid
Fixed: Pressure, kPa = 101.325
Property: Mass density, kg/m3 (Liquid); method: Pycnometric method
Temperature, K	Mass density, kg/m3	uncertainty
303.15	1119.6	1.265148
313.15	1113.8	1.258594
323.15	1107.9	1.251927
333.15	1102	1.24526
343.15	1096.2	1.238706

System: triethanolamine; phases: Liquid
Fixed: Pressure, kPa = 101.325
Property: Viscosity, Pa*s (Liquid); method: Capillary tube (Ostwald; Ubbelohde) method
Temperature, K	Viscosity, Pa*s	uncertainty
303.15	.4056	.00478608
313.15	.2086	.00246148
323.15	.116	.0013688
333.15	.06455	.00076169
343.15	.03879	.000457722

System: triethanolamine; phases: Liquid, Air at 1 atmosphere
Property: Surface tension liquid-gas, N/m (Liquid); method: Ring tensiometer
Temperature, K	Surface tension liquid-gas, N/m	uncertainty
303.15	.04513	.000153442
313.15	.04354	.000148036
323.15	.04185	.00014229
333.15	.04004	.000136136
343.15	.03811	.000129574

System: diethylenediamine + water; phases: Liquid
Fixed: Pressure, kPa = 101
Fixed: Mass fraction of diethylenediamine = .0516
Property: Mass density, kg/m3 (Liquid); method: Pycnometric method
Temperature, K	Mass density, kg/m3	uncertainty
303.15	998.34	.7387716
313.15	993.9	.735486
323.15	989.79	.7324446
333.15	985.1	.728974

System: diethylenediamine + water; phases: Liquid
Fixed: Pressure, kPa = 101
Fixed: Mass fraction of diethylenediamine = .0516
Property: Viscosity, Pa*s (Liquid); method: Capillary tube (Ostwald; Ubbelohde) method
Temperature, K	Viscosity, Pa*s	uncertainty
303.15	.000959	.0000063294
313.15	.000775	.000005115
323.15	.000641	.0000042306
333.15	.000542	.0000035772

System: diethylenediamine + water; phases: Liquid, Gas
Fixed: Mass fraction of diethylenediamine = .0516
Property: Surface tension liquid-gas, N/m (Liquid); method: Ring tensiometer
Temperature, K	Surface tension liquid-gas, N/m	uncertainty
303.15	.06956	.000236504
313.15	.06798	.000231132
323.15	.06649	.000226066
333.15	.06517	.000221578

System: diisopropanolamine + tetramethylene sulfone + water; phases: Liquid, Air at 1 atmosphere
Property: Surface tension liquid-gas, N/m (Liquid); method: Ring tensiometer
Temperature, K	Mass fraction of tetramethylene sulfone	Mass fraction of diisopropanolamine	Surface tension liquid-gas, N/m	uncertainty
303.15	0	.3873	.0453	.00015402
303.15	.0993	.3205	.0465	.0001581
303.15	.1417	.263	.047	.0001598
313.15	0	.3873	.0444	.00015096
313.15	.0993	.3205	.0454	.00015436
313.15	.1417	.263	.0464	.00015776
323.15	0	.3873	.0432	.00014688
323.15	.0993	.3205	.0446	.00015164
323.15	.1417	.263	.0456	.00015504
333.15	0	.3873	.0421	.00014314
333.15	.0993	.3205	.043	.0001462
333.15	.1417	.263	.0445	.0001513
343.15	0	.3873	.0405	.0001377
343.15	.0993	.3205	.0421	.00014314
343.15	.1417	.263	.0431	.00014654

System: diisopropanolamine + tetramethylene sulfone + water; phases: Liquid
Fixed: Pressure, kPa = 101
Property: Viscosity, Pa*s (Liquid); method: Capillary tube (Ostwald; Ubbelohde) method
Temperature, K	Mass fraction of tetramethylene sulfone	Mass fraction of diisopropanolamine	Viscosity, Pa*s	uncertainty
303.15	0	.3873	.00542	.000035772
303.15	.0993	.3205	.00421	.000027786
303.15	.1417	.263	.00315	.00002079
313.15	0	.3873	.00374	.000024684
313.15	.0993	.3205	.00292	.000019272
313.15	.1417	.263	.00226	.000014916
323.15	0	.3873	.00256	.000016896
323.15	.0993	.3205	.00214	.000014124
323.15	.1417	.263	.00167	.000011022
333.15	0	.3873	.00188	.000012408
333.15	.0993	.3205	.00161	.000010626
333.15	.1417	.263	.0013	.00000858
343.15	0	.3873	.00142	.000009372
343.15	.0993	.3205	.00122	.000008052
343.15	.1417	.263	.00104	.000006864

System: diisopropanolamine + tetramethylene sulfone + water; phases: Liquid
Fixed: Pressure, kPa = 101
Property: Mass density, kg/m3 (Liquid); method: Pycnometric method
Temperature, K	Mass fraction of tetramethylene sulfone	Mass fraction of diisopropanolamine	Mass density, kg/m3	uncertainty
303.15	0	.3873	1016	.75184
303.15	.0993	.3205	1030	.7622
303.15	.1417	.263	1034	.76516
313.15	0	.3873	1012	.74888
313.15	.0993	.3205	1026	.75924
313.15	.1417	.263	1030	.7622
323.15	0	.3873	1006	.74444
323.15	.0993	.3205	1021	.75554
323.15	.1417	.263	1025	.7585
333.15	0	.3873	1000	.74
333.15	.0993	.3205	1014	.75036
333.15	.1417	.263	1019	.75406
343.15	0	.3873	994.5	.73593
343.15	.0993	.3205	1009	.74666
343.15	.1417	.263	1013	.74962

System: triethanolamine + tetramethylene sulfone + water; phases: Liquid, Air at 1 atmosphere
Property: Surface tension liquid-gas, N/m (Liquid); method: Ring tensiometer
Temperature, K	Mass fraction of tetramethylene sulfone	Mass fraction of triethanolamine	Surface tension liquid-gas, N/m	uncertainty
303.15	0	.4227	.0545	.0001853
303.15	.0406	.4188	.0526	.00017884
303.15	.0962	.3464	.0539	.00018326
303.15	.1347	.2794	.0556	.00018904
313.15	0	.4227	.0538	.00018292
313.15	.0406	.4188	.052	.0001768
313.15	.0962	.3464	.0532	.00018088
313.15	.1347	.2794	.0549	.00018666
323.15	0	.4227	.053	.0001802
323.15	.0406	.4188	.0514	.00017476
323.15	.0962	.3464	.0525	.0001785
323.15	.1347	.2794	.0541	.00018394
333.15	0	.4227	.0523	.00017782
333.15	.0406	.4188	.0507	.00017238
333.15	.0962	.3464	.0518	.00017612
333.15	.1347	.2794	.0533	.00018122
343.15	0	.4227	.0514	.00017476
343.15	.0406	.4188	.0499	.00016966
343.15	.0962	.3464	.0509	.00017306
343.15	.1347	.2794	.0523	.00017782

System: triethanolamine + tetramethylene sulfone + water; phases: Liquid
Fixed: Pressure, kPa = 101
Property: Viscosity, Pa*s (Liquid); method: Capillary tube (Ostwald; Ubbelohde) method
Temperature, K	Mass fraction of tetramethylene sulfone	Mass fraction of triethanolamine	Viscosity, Pa*s	uncertainty
303.15	0	.4227	.00413	.000027258
303.15	.0406	.4188	.00451	.000029766
303.15	.0962	.3464	.00349	.000023034
303.15	.1347	.2794	.00271	.000017886
313.15	0	.4227	.00291	.000019206
313.15	.0406	.4188	.00325	.00002145
313.15	.0962	.3464	.00259	.000017094
313.15	.1347	.2794	.00193	.000012738
323.15	0	.4227	.00216	.000014256
323.15	.0406	.4188	.00241	.000015906
323.15	.0962	.3464	.00195	.00001287
323.15	.1347	.2794	.00151	.000009966
333.15	0	.4227	.00167	.000011022
333.15	.0406	.4188	.00186	.000012276
333.15	.0962	.3464	.0015	.0000099
333.15	.1347	.2794	.00121	.000007986
343.15	0	.4227	.00136	.000008976
343.15	.0406	.4188	.00143	.000009438
343.15	.0962	.3464	.00121	.000007986
343.15	.1347	.2794	.00098	.000006468

System: triethanolamine + tetramethylene sulfone + water; phases: Liquid
Fixed: Pressure, kPa = 101
Property: Mass density, kg/m3 (Liquid); method: Pycnometric method
Temperature, K	Mass fraction of tetramethylene sulfone	Mass fraction of triethanolamine	Mass density, kg/m3	uncertainty
303.15	0	.4227	1052	.77848
303.15	.0406	.4188	1058	.78292
303.15	.0962	.3464	1059	.78366
303.15	.1347	.2794	1064	.78736
313.15	0	.4227	1048	.77552
313.15	.0406	.4188	1054	.77996
313.15	.0962	.3464	1057	.78218
313.15	.1347	.2794	1058	.78292
323.15	0	.4227	1043	.77182
323.15	.0406	.4188	1049	.77626
323.15	.0962	.3464	1051	.77774
323.15	.1347	.2794	1054	.77996
333.15	0	.4227	1037	.76738
333.15	.0406	.4188	1045	.7733
333.15	.0962	.3464	1046	.77404
333.15	.1347	.2794	1049	.77626
343.15	0	.4227	1032	.76368
343.15	.0406	.4188	1040	.7696
343.15	.0962	.3464	1041	.77034
343.15	.1347	.2794	1042	.77108

System: tetramethylene sulfone + water; phases: Liquid
Fixed: Pressure, kPa = 101
Property: Viscosity, Pa*s (Liquid); method: Capillary tube (Ostwald; Ubbelohde) method
Temperature, K	Mass fraction of tetramethylene sulfone	Viscosity, Pa*s	uncertainty
303.15	.0346	.00084	.000005544
303.15	.0487	.00085	.00000561
303.15	.0721	.00088	.000005808
303.15	.1022	.00092	.000006072
303.15	.1635	.00102	.000006732
313.15	.0346	.00069	.000004554
313.15	.0487	.0007	.00000462
313.15	.0721	.00073	.000004818
313.15	.1022	.00076	.000005016
313.15	.1635	.00084	.000005544
323.15	.0346	.00058	.000003828
323.15	.0487	.00059	.000003894
323.15	.0721	.00061	.000004026
323.15	.1022	.00064	.000004224
323.15	.1635	.00071	.000004686
333.15	.0346	.00049	.000003234
333.15	.0487	.0005	.0000033
333.15	.0721	.00052	.000003432
333.15	.1022	.00055	.00000363
333.15	.1635	.00061	.000004026
343.15	.0346	.00043	.000002838
343.15	.0487	.00044	.000002904
343.15	.0721	.00045	.00000297
343.15	.1022	.00048	.000003168
343.15	.1635	.00054	.000003564

System: tetramethylene sulfone + water; phases: Liquid
Fixed: Pressure, kPa = 101
Property: Mass density, kg/m3 (Liquid); method: Pycnometric method
Temperature, K	Mass fraction of tetramethylene sulfone	Mass density, kg/m3	uncertainty
303.15	.0346	1003	.74222
303.15	.0487	1007	.74518
303.15	.0721	1012	.74888
303.15	.1022	1020	.7548
303.15	.1635	1038	.76812
313.15	.0346	999.7	.739778
313.15	.0487	1003	.74222
313.15	.0721	1007	.74518
313.15	.1022	1016	.75184
313.15	.1635	1032	.76368
323.15	.0346	995.2	.736448
323.15	.0487	998.2	.738668
323.15	.0721	1003	.74222
323.15	.1022	1010	.7474
323.15	.1635	1026	.75924
333.15	.0346	990.1	.732674
333.15	.0487	993	.73482
333.15	.0721	998.9	.739186
333.15	.1022	1005	.7437
333.15	.1635	1020	.7548
343.15	.0346	984.3	.728382
343.15	.0487	987	.73038
343.15	.0721	991.7	.733858
343.15	.1022	998	.73852
343.15	.1635	1012	.74888

System: diisopropanolamine + water; phases: Liquid, Air at 1 atmosphere
Property: Surface tension liquid-gas, N/m (Liquid); method: Ring tensiometer
Temperature, K	Mass fraction of diisopropanolamine	Surface tension liquid-gas, N/m	uncertainty
303.15	.3873	.0453	.00015402
313.15	.3873	.0444	.00015096
323.15	.3873	.0432	.00014688
333.15	.3873	.0421	.00014314
343.15	.3873	.0405	.0001377

System: diisopropanolamine + water; phases: Liquid
Property: Viscosity, Pa*s (Liquid); method: Capillary tube (Ostwald; Ubbelohde) method
Temperature, K	Mass fraction of diisopropanolamine	Pressure, kPa	Viscosity, Pa*s	uncertainty
303.15	.3873	101	.00542	.000035772
313.15	.3873	101	.00374	.000024684
323.15	.3873	101	.00256	.000016896
333.15	.3873	101	.00188	.000012408
343.15	.3873	101	.00142	.000009372

System: diisopropanolamine + water; phases: Liquid
Property: Mass density, kg/m3 (Liquid); method: Pycnometric method
Temperature, K	Mass fraction of diisopropanolamine	Pressure, kPa	Mass density, kg/m3	uncertainty
303.15	.3873	101.325	1016	.75184
313.15	.3873	101.325	1012	.74888
323.15	.3873	101.325	1006	.74444
333.15	.3873	101.325	1000	.74
343.15	.3873	101.325	994.5	.73593

System: triethanolamine + water; phases: Liquid, Air at 1 atmosphere
Property: Surface tension liquid-gas, N/m (Liquid); method: Ring tensiometer
Temperature, K	Mass fraction of triethanolamine	Surface tension liquid-gas, N/m	uncertainty
303.15	.4227	.0545	.0001853
313.15	.4227	.0538	.00018292
323.15	.4227	.053	.0001802
333.15	.4227	.0523	.00017782
343.15	.4227	.0514	.00017476

System: triethanolamine + water; phases: Liquid
Property: Viscosity, Pa*s (Liquid); method: Capillary tube (Ostwald; Ubbelohde) method
Temperature, K	Mass fraction of triethanolamine	Pressure, kPa	Viscosity, Pa*s	uncertainty
303.15	.4227	101	.00413	.000027258
313.15	.4227	101	.00291	.000019206
323.15	.4227	101	.00216	.000014256
333.15	.4227	101	.00167	.000011022
343.15	.4227	101	.00136	.000008976

System: triethanolamine + water; phases: Liquid
Property: Mass density, kg/m3 (Liquid); method: Pycnometric method
Temperature, K	Mass fraction of triethanolamine	Pressure, kPa	Mass density, kg/m3	uncertainty
303.15	.4227	101.325	1052	.77848
313.15	.4227	101.325	1048	.77552
323.15	.4227	101.325	1043	.77182
333.15	.4227	101.325	1037	.76738
343.15	.4227	101.325	1032	.76368
