Measured thermophysical data. Salting-Out Effect of NaCl and KCl on the Liquid Liquid Equilibrium of Water + 2-Methylpropanoic Acid + (1-Methylethyl)-benzene System at Several Temperatures
Source: J. Chem. Eng. Data, 2011, 10.1021/je200083a
Compound 1: isopropylbenzene, C9H12
Compound 2: 2-methylpropanoic acid, C4H8O2
Compound 3: water, H2O

System: 2-methylpropanoic acid + isopropylbenzene + water; phases: Liquid mixture 2, Liquid mixture 1
Fixed: Pressure, kPa = 101.3
Property: Mass fraction of isopropylbenzene (Liquid mixture 2); method: Titration method
Property: Mass fraction of 2-methylpropanoic acid (Liquid mixture 1); method: Titration method
Property: Mass fraction of isopropylbenzene (Liquid mixture 1); method: Titration method
Temperature, K	Mass fraction of 2-methylpropanoic acid	Mass fraction of isopropylbenzene	uncertainty	Mass fraction of 2-methylpropanoic acid	uncertainty	Mass fraction of isopropylbenzene	uncertainty
288.2	.0211	.0034	.0005	.0574	.0005	.9408	.0005
288.2	.04	.0022	.0005	.1429	.0005	.8547	.0005
288.2	.0563	.002	.0005	.2452	.0005	.7515	.0005
288.2	.0644	.0023	.0005	.3045	.0005	.6909	.0005
288.2	.0728	.0035	.0005	.3688	.0005	.6257	.0005
288.2	.0819	.0014	.0005	.4339	.0005	.5597	.0005
288.2	.0881	.0039	.0005	.4861	.0005	.5041	.0005
288.2	.0938	.0036	.0005	.5292	.0005	.4564	.0005
298.2	.0218	.002	.0005	.0518	.0005	.9469	.0005
298.2	.0311	.0025	.0005	.0982	.0005	.899	.0005
298.2	.0407	.0024	.0005	.1468	.0005	.8499	.0005
298.2	.0518	.0037	.0005	.2074	.0005	.7878	.0005
298.2	.0612	.0034	.0005	.2724	.0005	.7224	.0005
298.2	.072	.0019	.0005	.3434	.0005	.6499	.0005
298.2	.0773	.0035	.0005	.3811	.0005	.6108	.0005
298.2	.0834	.0038	.0005	.4286	.0005	.5626	.0005
298.2	.0906	.0025	.0005	.492	.0005	.4958	.0005
313.2	.0229	.0025	.0005	.0508	.0005	.9447	.0005
313.2	.0322	.0026	.0005	.0964	.0005	.8991	.0005
313.2	.0394	.0033	.0005	.128	.0005	.8658	.0005
313.2	.0495	.0048	.0005	.1824	.0005	.8111	.0005
313.2	.0582	.007	.0005	.2351	.0005	.7581	.0005
313.2	.0664	.005	.0005	.2913	.0005	.701	.0005
313.2	.0765	.0039	.0005	.362	.0005	.6299	.0005
313.2	.0886	.0055	.0005	.4497	.0005	.5364	.0005
