Measured thermophysical data. Solubility of Carbon Dioxide in Liquid Mixtures of Water + [bmim][CH3SO4]
Source: J. Chem. Eng. Data, 2011, 10.1021/je200477s
Compound 1: carbon dioxide, CO2
Compound 2: 1-butyl-3-methylimidazolium methylsulfate, C9H18N2O4S
Compound 3: water, H2O

System: water + 1-butyl-3-methylimidazolium methylsulfate; phases: Liquid
Fixed: Pressure, kPa = 101
Property: Mass density, kg/m3 (Liquid); method: Pycnometric method
Temperature, K	Mass fraction of 1-butyl-3-methylimidazolium methylsulfate	Mass density, kg/m3	uncertainty
293.15	0	998.3	.1
293.15	.1501	1025.8	.1
293.15	.2002	1035.9	.1
293.15	.2991	1056.1	.1
293.15	.4993	1100.2	.1
293.15	.6519	1134.9	.1
293.15	.8012	1169.4	.1
293.15	.8701	1184.8	.1
293.15	.9325	1198.2	.1
293.15	1	1211.7	.1
295.15	0	997.9	.1
295.15	.1501	1025.1	.1
295.15	.2002	1035.2	.1
295.15	.2991	1055.2	.1
295.15	.4993	1099	.1
295.15	.6519	1133.5	.1
295.15	.8012	1168	.1
295.15	.8701	1183.4	.1
295.15	.9325	1196.8	.1
295.15	1	1210.4	.1
297.15	0	997.4	.1
297.15	.1501	1024.4	.1
297.15	.2002	1034.4	.1
297.15	.2991	1054.3	.1
297.15	.4993	1097.7	.1
297.15	.6519	1132.2	.1
297.15	.8012	1166.6	.1
297.15	.8701	1182.1	.1
297.15	.9325	1195.5	.1
297.15	1	1209.1	.1
299.15	0	996.9	.1
299.15	.1501	1023.7	.1
299.15	.2002	1033.6	.1
299.15	.2991	1053.3	.1
299.15	.4993	1096.5	.1
299.15	.6519	1130.7	.1
299.15	.8012	1165.2	.1
299.15	.8701	1180.7	.1
299.15	.9325	1194.1	.1
299.15	1	1207.7	.1
301.15	0	996.3	.1
301.15	.1501	1022.9	.1
301.15	.2002	1032.8	.1
301.15	.2991	1052.3	.1
301.15	.4993	1095.2	.1
301.15	.6519	1129.4	.1
301.15	.8012	1163.8	.1
301.15	.8701	1179.3	.1
301.15	.9325	1192.8	.1
301.15	1	1206.4	.1
303.15	0	995.7	.1
303.15	.1501	1022.2	.1
303.15	.2002	1031.9	.1
303.15	.2991	1051.3	.1
303.15	.4993	1093.9	.1
303.15	.6519	1128	.1
303.15	.8012	1162.4	.1
303.15	.8701	1177.9	.1
303.15	.9325	1191.4	.1
303.15	1	1205.1	.1

System: carbon dioxide + water + 1-butyl-3-methylimidazolium methylsulfate; phases: Liquid, Gas
Property: Specific volume, m3/kg (Liquid); method: Pycnometric method
Temperature, K	Pressure, kPa	Solvent: Mass fraction of 1-butyl-3-methylimidazolium methylsulfate	Specific volume, m3/kg	uncertainty
293.1	785	.1501	.0009731	.000003
293.1	1222	.1501	.0009726	.000003
293.1	1737	.1501	.0009723	.0000031
293.1	2162	.1501	.0009721	.0000031
293.1	3212	.1501	.0009718	.0000031
293.1	4558	.1501	.0009734	.0000032
333.1	1159	.1501	.0009931	.0000031
333.1	1995	.1501	.00099	.0000031
333.1	3255	.1501	.0009869	.0000031
333.1	4345	.1501	.0009859	.0000031
333.1	5809	.1501	.0009834	.0000031
333.1	7579	.1501	.0009817	.0000031
333.1	10004	.1501	.000979	.0000031
373.1	883	.1501	.0010191	.0000031
373.1	2178	.1501	.0010165	.0000032
373.1	3444	.1501	.0010145	.0000032
373.1	4849	.1501	.0010146	.0000032
373.1	6500	.1501	.0010125	.0000032
373.1	8303	.1501	.0010115	.0000032
293.2	899	.4956	.0009079	.0000028
293.2	1580	.4956	.0009082	.0000028
293.2	2288	.4956	.0009055	.0000028
293.2	2945	.4956	.0009031	.0000028
293.2	3777	.4956	.0009006	.0000029
293.2	5221	.4956	.0008992	.0000029
333.2	1124	.4956	.0009302	.0000029
333.2	2399	.4956	.0009301	.0000029
333.2	3821	.4956	.0009281	.0000029
333.2	5587	.4956	.0009229	.0000029
333.2	7801	.4956	.0009237	.0000029
333.2	9502	.4956	.0009234	.000003
373.1	1220	.4956	.0009595	.000003
373.1	2424	.4956	.0009587	.000003
373.1	3751	.4956	.0009554	.000003
373.1	5092	.4956	.0009553	.000003
373.1	6715	.4956	.0009557	.000003
373.1	8428	.4956	.0009538	.000003
293.1	1027	.8705	.0008448	.0000026
293.1	1582	.8705	.000843	.0000026
293.1	2303	.8705	.0008416	.0000027
293.1	2928	.8705	.0008434	.0000027
293.1	3712	.8705	.0008417	.0000027
293.1	4484	.8705	.0008407	.0000028
333.3	1210	.8705	.0008652	.0000027
333.3	2405	.8705	.0008671	.0000027
333.3	3606	.8705	.0008652	.0000027
333.3	4822	.8705	.0008646	.0000027
333.3	6242	.8705	.0008671	.0000028
333.3	7783	.8705	.0008649	.0000028
333.3	8962	.8705	.0008641	.0000028
373.2	1488	.8705	.0008878	.0000027
373.2	3082	.8705	.0008874	.0000028
373.2	4839	.8705	.000887	.0000028
373.2	6117	.8705	.0008878	.0000028
373.2	7539	.8705	.0008898	.0000028
373.2	9091	.8705	.0008866	.0000029

System: carbon dioxide + water + 1-butyl-3-methylimidazolium methylsulfate; phases: Liquid, Gas
Property: Molality, mol/kg of carbon dioxide (Liquid); method: view cell with known compositions
Temperature, K	Pressure, kPa	Solvent: Mass fraction of 1-butyl-3-methylimidazolium methylsulfate	Molality, mol/kg of carbon dioxide	uncertainty
293.1	785	.1501	.2671	.0013
293.1	1222	.1501	.3922	.0016
293.1	1737	.1501	.5454	.002
293.1	2162	.1501	.6691	.0023
293.1	3212	.1501	.9228	.003
293.1	4558	.1501	1.1746	.0037
333.1	1159	.1501	.1766	.0011
333.1	1995	.1501	.2981	.0013
333.1	3255	.1501	.4603	.0017
333.1	4345	.1501	.5883	.002
333.1	5809	.1501	.7464	.0024
333.1	7579	.1501	.8882	.0028
333.1	10004	.1501	1.0539	.0035
373.1	883	.1501	.0885	.0009
373.1	2178	.1501	.2114	.001
373.1	3444	.1501	.3264	.0013
373.1	4849	.1501	.4468	.0016
373.1	6500	.1501	.5799	.0019
373.1	8303	.1501	.7181	.0023
293.2	899	.4956	.2365	.0012
293.2	1580	.4956	.4021	.0016
293.2	2288	.4956	.5613	.002
293.2	2945	.4956	.6949	.0023
293.2	3777	.4956	.8631	.0028
293.2	5221	.4956	1.0829	.0034
333.2	1124	.4956	.1737	.001
333.2	2399	.4956	.3535	.0014
333.2	3821	.4956	.5506	.0019
333.2	5587	.4956	.7417	.0024
333.2	7801	.4956	.9531	.003
333.2	9502	.4956	1.0835	.0036
373.1	1220	.4956	.135	.0009
373.1	2424	.4956	.2617	.0011
373.1	3751	.4956	.3955	.0014
373.1	5092	.4956	.5295	.0018
373.1	6715	.4956	.6808	.0022
373.1	8428	.4956	.8259	.0026
293.1	1027	.8705	.38	.0015
293.1	1582	.8705	.5824	.002
293.1	2303	.8705	.8365	.0027
293.1	2928	.8705	1.0705	.0034
293.1	3712	.8705	1.3528	.0045
293.1	4484	.8705	1.6373	.0053
333.3	1210	.8705	.2361	.0011
333.3	2405	.8705	.4806	.0017
333.3	3606	.8705	.6992	.0023
333.3	4822	.8705	.9236	.0031
333.3	6242	.8705	1.1612	.0038
333.3	7783	.8705	1.4149	.0046
333.3	8962	.8705	1.6146	.0052
373.2	1488	.8705	.1928	.0009
373.2	3082	.8705	.4075	.0014
373.2	4839	.8705	.63	.0021
373.2	6117	.8705	.7809	.0025
373.2	7539	.8705	.9512	.0032
373.2	9091	.8705	1.1267	.0037
