Measured thermophysical data. Viscosity, Interfacial Tension, Self-Diffusion Coefficient, Density, and Refractive Index of the Ionic Liquid 1-Ethyl-3-methylimidazolium Tetracyanoborate as a Function of Temperature at Atmospheric Pressure
Source: J. Chem. Eng. Data, 2012, 10.1021/je201080c
Compound 1: 1-ethyl-3-methylimidazolium tetracyanoborate, C10H11BN6, purity 98%

System: 1-ethyl-3-methylimidazolium tetracyanoborate; phases: Liquid
Fixed: Pressure, kPa = 101.325
Property: Mass density, kg/m3 (Liquid); method: Vibrating tube method
Temperature, K	Mass density, kg/m3	uncertainty
283.15	1048.33	.209666
288.15	1044.31	.208862
293.15	1040.31	.208062
298.15	1036.34	.207268
303.15	1032.4	.20648
308.15	1028.48	.205696
313.15	1024.59	.204918
318.15	1020.72	.204144
323.15	1016.87	.203374
328.15	1013.06	.202612
333.15	1009.26	.201852
338.15	1005.49	.201098
343.15	1001.74	.200348
348.15	998.01	.199602
353.15	994.28	.198856
358.15	990.59	.198118
363.15	986.92	.197384

System: 1-ethyl-3-methylimidazolium tetracyanoborate; phases: Liquid
Fixed: Pressure, kPa = 101.325
Property: Refractive index (Na D-line) (Liquid); method: Standard Abbe refractometry
Temperature, K	Refractive index (Na D-line)	uncertainty
283.15	1.4533	.0005
293.15	1.4499	.0005
303.15	1.4465	.0005
313.15	1.4432	.0005

System: 1-ethyl-3-methylimidazolium tetracyanoborate; phases: Liquid, Air at 1 atmosphere
Property: Surface tension liquid-gas, N/m (Liquid); method: Pendant drop shape
Temperature, K	Surface tension liquid-gas, N/m	uncertainty
297.04	.04709	.0004709
313.15	.04329	.0004329
323.15	.0416	.000416
333.15	.03953	.0003953
343.15	.03833	.0003833
353.15	.03652	.0003652
363.15	.0358	.000358

System: 1-ethyl-3-methylimidazolium tetracyanoborate; phases: Liquid
Fixed: Pressure, kPa = 101.325
Property: Viscosity, Pa*s (Liquid); method: Surface Light Scattering
Temperature, K	Viscosity, Pa*s	uncertainty
283.15	.03706	.0011118
288.15	.02775	.0008325
293.15	.02179	.0006537
303.15	.01465	.0004395
313.15	.01009	.0003027
323.15	.00761	.0002283
333.15	.00577	.0001731
343.15	.00467	.0001401
353.15	.0037	.000111
363.15	.00316	.0000948
