Measured thermophysical data. Isobaric Vapor-Liquid Equilibrium for Binary Systems  of Toluene + Ethanol, Toluene + Isopropanol at (101.3,  121.3, 161.3 and 201.3) kPa
Source: J. Chem. Eng. Data, 2012, 10.1021/je200921u
Compound 1: ethanol, C2H6O, purity 99.7%
Compound 2: 2-propanol, C3H8O, purity 99.7%
Compound 3: toluene, C7H8, purity 99.7%

System: ethanol; phases: Liquid, Gas
Property: Vapor or sublimation pressure, kPa (Liquid); method: Ebulliometric method (Recirculating still)
Temperature, K	Vapor or sublimation pressure, kPa	uncertainty
351.35	101.3	.1
356.11	121.3	.1
363.55	161.3	.1
369.55	201.3	.1

System: 2-propanol; phases: Liquid, Gas
Property: Vapor or sublimation pressure, kPa (Liquid); method: Ebulliometric method (Recirculating still)
Temperature, K	Vapor or sublimation pressure, kPa	uncertainty
355.35	101.3	.1
359.95	121.3	.1
367.65	161.3	.1
373.65	201.3	.1

System: toluene; phases: Liquid, Gas
Property: Vapor or sublimation pressure, kPa (Liquid); method: Ebulliometric method (Recirculating still)
Temperature, K	Vapor or sublimation pressure, kPa	uncertainty
383.55	101.3	.1
390.26	121.3	.1
400.75	161.3	.1
409.65	201.3	.1
390.25	121.3	.1

System: ethanol + toluene; phases: Liquid, Gas
Property: Boiling temperature at pressure P, K (Liquid); method: Ebulliometric method (Recirculating still)
Mole fraction of ethanol	Pressure, kPa	Boiling temperature at pressure P, K	uncertainty
0	101.3	383.55	.5
.0331	101.3	372.25	.5
.1276	101.3	357.95	.5
.2291	101.3	353.95	.5
.3659	101.3	352.15	.5
.4819	101.3	351.25	.5
.4994	101.3	350.75	.5
.6676	101.3	350.35	.5
.687	101.3	350.35	.5
.7199	101.3	350.25	.5
.7974	101.3	349.65	.5
.8142	101.3	349.75	.5
.8344	101.3	349.85	.5
.84	101.3	350.25	.5
.8792	101.3	350.45	.5
.9586	101.3	351.25	.5
1	101.3	351.35	.5
0	121.3	390.26	.5
.0335	121.3	379.05	.5
.1279	121.3	364.25	.5
.2166	121.3	359.55	.5
.3586	121.3	357.25	.5
.4573	121.3	356.95	.5
.5228	121.3	356.25	.5
.6376	121.3	355.85	.5
.7044	121.3	355.35	.5
.7212	121.3	355.15	.5
.795	121.3	354.85	.5
.8182	121.3	354.75	.5
.8337	121.3	354.45	.5
.8488	121.3	355.05	.5
.8807	121.3	355.15	.5
.9589	121.3	355.55	.5
1	121.3	356.11	.5
0	161.3	400.75	.5
.0333	161.3	390.15	.5
.1231	161.3	374.35	.5
.1943	161.3	369.75	.5
.3542	161.3	366.05	.5
.437	161.3	364.55	.5
.5337	161.3	364.15	.5
.6205	161.3	363.95	.5
.7002	161.3	363.45	.5
.7215	161.3	363.45	.5
.794	161.3	362.65	.5
.8147	161.3	362.55	.5
.8326	161.3	362.35	.5
.8488	161.3	361.95	.5
.8808	161.3	362.05	.5
.9599	161.3	362.85	.5
1	161.3	363.55	.5
0	201.3	409.65	.5
.0293	201.3	399.25	.5
.1158	201.3	381.45	.5
.1757	201.3	377.75	.5
.3479	201.3	372.95	.5
.4161	201.3	371.75	.5
.5088	201.3	370.65	.5
.6128	201.3	370.35	.5
.6974	201.3	369.75	.5
.7205	201.3	369.75	.5
.7899	201.3	368.25	.5
.814	201.3	368.15	.5
.8321	201.3	368.15	.5
.8513	201.3	368.05	.5
.8782	201.3	368.25	.5
.9601	201.3	368.55	.5
1	201.3	369.55	.5

System: ethanol + toluene; phases: Gas, Liquid
Property: Mole fraction of ethanol (Gas); method: Chromatography
Mole fraction of ethanol	Pressure, kPa	Mole fraction of ethanol	uncertainty
0	101.3	0	.02
.0331	101.3	.3438	.02
.1276	101.3	.5753	.02
.2291	101.3	.6557	.02
.3659	101.3	.6796	.02
.4819	101.3	.7027	.02
.4994	101.3	.7248	.02
.6676	101.3	.7496	.02
.687	101.3	.7659	.02
.7199	101.3	.7738	.02
.7974	101.3	.8027	.02
.8142	101.3	.8126	.02
.8344	101.3	.8274	.02
.84	101.3	.8346	.02
.8792	101.3	.8433	.02
.9586	101.3	.9392	.02
1	101.3	1	.02
0	121.3	0	.02
.0335	121.3	.324	.02
.1279	121.3	.5701	.02
.2166	121.3	.655	.02
.3586	121.3	.6995	.02
.4573	121.3	.7048	.02
.5228	121.3	.7253	.02
.6376	121.3	.755	.02
.7044	121.3	.7576	.02
.7212	121.3	.7797	.02
.795	121.3	.807	.02
.8182	121.3	.8201	.02
.8337	121.3	.8296	.02
.8488	121.3	.841	.02
.8807	121.3	.8621	.02
.9589	121.3	.9445	.02
1	121.3	1	.02
0	161.3	0	.02
.0333	161.3	.2796	.02
.1231	161.3	.5718	.02
.1943	161.3	.6375	.02
.3542	161.3	.7046	.02
.437	161.3	.7144	.02
.5337	161.3	.7363	.02
.6205	161.3	.7502	.02
.7002	161.3	.7813	.02
.7215	161.3	.7876	.02
.794	161.3	.8138	.02
.8147	161.3	.8266	.02
.8326	161.3	.8365	.02
.8488	161.3	.8481	.02
.8808	161.3	.868	.02
.9599	161.3	.9492	.02
1	161.3	1	.02
0	201.3	0	.02
.0293	201.3	.2708	.02
.1158	201.3	.5904	.02
.1757	201.3	.6266	.02
.3479	201.3	.705	.02
.4161	201.3	.7136	.02
.5088	201.3	.7516	.02
.6128	201.3	.7581	.02
.6974	201.3	.778	.02
.7205	201.3	.7861	.02
.7899	201.3	.818	.02
.814	201.3	.831	.02
.8321	201.3	.8387	.02
.8513	201.3	.8527	.02
.8782	201.3	.873	.02
.9601	201.3	.9495	.02
1	201.3	1	.02

System: 2-propanol + toluene; phases: Liquid, Gas
Property: Boiling temperature at pressure P, K (Liquid); method: Ebulliometric method (Recirculating still)
Mole fraction of 2-propanol	Pressure, kPa	Boiling temperature at pressure P, K	uncertainty
0	101.3	383.55	.5
.0745	101.3	369.15	.5
.1265	101.3	364.55	.5
.2172	101.3	360.35	.5
.3061	101.3	358.25	.5
.3925	101.3	357.25	.5
.5085	101.3	356.25	.5
.5958	101.3	355.15	.5
.6581	101.3	355.05	.5
.7155	101.3	354.65	.5
.8038	101.3	354.35	.5
.8225	101.3	354.15	.5
.8356	101.3	354.15	.5
.8484	101.3	354.25	.5
.8761	101.3	354.45	.5
.9367	101.3	354.55	.5
1	101.3	355.35	.5
0	121.3	390.25	.5
.065	121.3	376.65	.5
.1197	121.3	370.35	.5
.2142	121.3	365.95	.5
.2987	121.3	364.05	.5
.3802	121.3	362.35	.5
.5042	121.3	361.35	.5
.5974	121.3	360.35	.5
.6553	121.3	360.25	.5
.7313	121.3	359.85	.5
.8037	121.3	359.45	.5
.8248	121.3	359.35	.5
.8356	121.3	359.15	.5
.8517	121.3	359.05	.5
.8757	121.3	359.15	.5
.9373	121.3	359.55	.5
1	121.3	359.95	.5
0	161.3	400.75	.5
.0598	161.3	387.65	.5
.1129	161.3	381.25	.5
.2061	161.3	376.05	.5
.2987	161.3	373.45	.5
.379	161.3	371.35	.5
.4948	161.3	370.15	.5
.5943	161.3	369.45	.5
.6545	161.3	369.05	.5
.7306	161.3	367.45	.5
.8113	161.3	367.35	.5
.8222	161.3	367.25	.5
.8385	161.3	366.85	.5
.8476	161.3	366.75	.5
.8757	161.3	366.65	.5
.9372	161.3	366.85	.5
1	161.3	367.65	.5
0	201.3	409.65	.5
.0566	201.3	396.55	.5
.1054	201.3	389.05	.5
.1945	201.3	383.35	.5
.2741	201.3	380.85	.5
.3696	201.3	377.75	.5
.494	201.3	376.45	.5
.5943	201.3	375.25	.5
.6522	201.3	374.55	.5
.7285	201.3	374.15	.5
.8025	201.3	373.35	.5
.82	201.3	373.25	.5
.8472	201.3	373.05	.5
.8752	201.3	372.95	.5
.9059	201.3	372.95	.5
.9378	201.3	373.15	.5
1	201.3	373.65	.5

System: 2-propanol + toluene; phases: Gas, Liquid
Property: Mole fraction of 2-propanol (Gas); method: Chromatography
Mole fraction of 2-propanol	Pressure, kPa	Mole fraction of 2-propanol	uncertainty
0	101.3	0	.02
.0745	101.3	.3947	.02
.1265	101.3	.5052	.02
.2172	101.3	.5794	.02
.3061	101.3	.6443	.02
.3925	101.3	.6516	.02
.5085	101.3	.6878	.02
.5958	101.3	.7206	.02
.6581	101.3	.7338	.02
.7155	101.3	.7669	.02
.8038	101.3	.8095	.02
.8225	101.3	.8232	.02
.8356	101.3	.833	.02
.8484	101.3	.8423	.02
.8761	101.3	.8641	.02
.9367	101.3	.922	.02
1	101.3	1	.02
0	121.3	0	.02
.065	121.3	.3689	.02
.1197	121.3	.5051	.02
.2142	121.3	.5855	.02
.2987	121.3	.6196	.02
.3802	121.3	.6786	.02
.5042	121.3	.7002	.02
.5974	121.3	.7217	.02
.6553	121.3	.7502	.02
.7313	121.3	.7686	.02
.8037	121.3	.8162	.02
.8248	121.3	.8262	.02
.8356	121.3	.8378	.02
.8517	121.3	.8483	.02
.8757	121.3	.868	.02
.9373	121.3	.9273	.02
1	121.3	1	.02
0	161.3	0	.02
.0598	161.3	.3491	.02
.1129	161.3	.4771	.02
.2061	161.3	.58	.02
.2987	161.3	.6296	.02
.379	161.3	.6922	.02
.4948	161.3	.7215	.02
.5943	161.3	.7382	.02
.6545	161.3	.7513	.02
.7306	161.3	.783	.02
.8113	161.3	.8197	.02
.8222	161.3	.8336	.02
.8385	161.3	.8442	.02
.8476	161.3	.8549	.02
.8757	161.3	.8739	.02
.9372	161.3	.9296	.02
1	161.3	1	.02
0	201.3	0	.02
.0566	201.3	.3166	.02
.1054	201.3	.4846	.02
.1945	201.3	.5772	.02
.2741	201.3	.6193	.02
.3696	201.3	.6921	.02
.494	201.3	.7258	.02
.5943	201.3	.7415	.02
.6522	201.3	.7551	.02
.7285	201.3	.7844	.02
.8025	201.3	.8306	.02
.82	201.3	.8391	.02
.8472	201.3	.8601	.02
.8752	201.3	.8798	.02
.9059	201.3	.9047	.02
.9378	201.3	.9325	.02
1	201.3	1	.02
