Measured thermophysical data. Activity Coefficients of RbF or CsF in the Ethene Glycol + Water System by Potentiometric Measurements at 298.15 K
Source: J. Chem. Eng. Data, 2011, 10.1021/je200178b
Compound 1: rubidium fluoride (RbF), FRb, purity 99.5%
Compound 2: cesium fluoride (CsF), CsF, purity 99.5%
Compound 3: ethylene glycol, C2H6O2, purity 99.5%
Compound 4: water, H2O, purity 99.9%

System: ethylene glycol + water + rubidium fluoride (RbF); phases: Liquid
Fixed: Temperature, K = 298.15
Fixed: Pressure, kPa = 101
Property: Activity coefficient of rubidium fluoride (RbF) (Liquid); method: ion-selective electrode
Solvent: Mass fraction of ethylene glycol	Molality, mol/kg of rubidium fluoride (RbF)	Activity coefficient of rubidium fluoride (RbF)	uncertainty
0	.0046	.9305	
0	.0096	.9047	
0	.014	.8889	
0	.0187	.8759	
0	.0232	.8654	
0	.0275	.8567	
0	.0321	.8486	
0	.0367	.8414	
0	.0411	.8351	
0	.0506	.8235	
0	.0596	.8141	
0	.0685	.806	
0	.0772	.799	
0	.0915	.7891	
0	.1058	.7806	
0	.1293	.769	
0	.1517	.7599	
0	.1747	.7521	
0	.2107	.7421	
0	.2467	.7342	
0	.2819	.7278	
0	.3349	.7202	
0	.3859	.7146	
0	.4584	.7086	
0	.5332	.7043	
0	.6214	.701	
.1	.0027	.9417	
.1	.0055	.9203	
.1	.0093	.9007	
.1	.0132	.8852	
.1	.016	.8765	
.1	.0188	.8684	
.1	.0218	.8609	
.1	.0248	.854	
.1	.0311	.8416	
.1	.0373	.8311	
.1	.0434	.8222	
.1	.0494	.8143	
.1	.0592	.8031	
.1	.0686	.7938	
.1	.0792	.7845	
.1	.095	.7727	
.1	.1111	.7624	
.1	.1274	.7533	
.1	.16	.7382	
.1	.1942	.7252	
.1	.226	.7152	
.1	.2574	.7066	
.1	.3154	.6934	
.1	.3712	.683	
.1	.4403	.6722	
.1	.5024	.664	
.4	.0032	.9241	
.4	.0066	.8972	
.4	.0097	.88	
.4	.0129	.8662	
.4	.016	.8548	
.4	.0192	.8444	
.4	.0221	.8363	
.4	.0284	.8212	
.4	.0348	.8086	
.4	.0412	.7975	
.4	.0482	.7868	
.4	.0586	.7732	
.4	.069	.7615	
.4	.0795	.7509	
.4	.0979	.7349	
.4	.1144	.7223	
.4	.1308	.7111	
.4	.1568	.6953	
.4	.1837	.6807	
.4	.211	.6672	
.4	.2511	.6491	
.4	.2908	.6327	
.4	.3467	.6114	
.4	.4018	.592	
.4	.4821	.5656	
.4	.5601	.5418	
.4	.6398	.519	
.2	.0031	.9301	
.2	.006	.9065	
.2	.0103	.883	
.2	.013	.8714	
.2	.0169	.858	
.2	.02	.8486	
.2	.023	.8406	
.2	.0293	.8259	
.2	.036	.8132	
.2	.0423	.8027	
.2	.0487	.7933	
.2	.0588	.7805	
.2	.0694	.769	
.2	.08	.759	
.2	.0986	.7441	
.2	.1154	.7327	
.2	.1328	.7224	
.2	.1616	.708	
.2	.1889	.6965	
.2	.2172	.6861	
.2	.2577	.6734	
.2	.2983	.6624	
.2	.3565	.649	
.2	.4233	.6361	
.2	.5054	.6226	
.2	.5821	.6117	
.2	.6563	.6024	
.3	.0029	.9357	
.3	.0059	.9128	
.3	.0089	.8958	
.3	.0121	.882	
.3	.0154	.8702	
.3	.0188	.8596	
.3	.0223	.8502	
.3	.0257	.8419	
.3	.0326	.8276	
.3	.0397	.8148	
.3	.0471	.8035	
.3	.0541	.7939	
.3	.0642	.7817	
.3	.086	.7597	
.3	.1056	.7435	
.3	.1243	.7301	
.3	.1425	.7186	
.3	.1715	.7022	
.3	.2	.688	
.3	.2277	.6756	
.3	.2715	.6581	
.3	.3144	.6426	
.3	.3689	.6248	
.3	.4392	.6042	
.3	.519	.5832	
.3	.5963	.5645	
.3	.0754	.7697	

System: ethylene glycol + water + cesium fluoride (CsF); phases: Liquid
Fixed: Temperature, K = 298.15
Fixed: Pressure, kPa = 101
Property: Activity coefficient of cesium fluoride (CsF) (Liquid); method: ion-selective electrode
Solvent: Mass fraction of ethylene glycol	Molality, mol/kg of cesium fluoride (CsF)	Activity coefficient of cesium fluoride (CsF)	uncertainty
0	.0043	.9338	
0	.0085	.9112	
0	.0128	.8953	
0	.0172	.8824	
0	.0215	.872	
0	.0258	.863	
0	.0302	.8551	
0	.0346	.848	
0	.0391	.8416	
0	.1003	.7892	
0	.1138	.7822	
0	.1268	.7762	
0	.1455	.7689	
0	.1632	.7629	
0	.1817	.7575	
0	.2045	.7517	
0	.226	.7471	
0	.2524	.7423	
0	.0437	.8355	
0	.0523	.8257	
0	.0608	.8173	
0	.0698	.8096	
0	.0787	.8028	
0	.0875	.7968	
0	.2823	.7377	
0	.3166	.7335	
0	.3589	.7294	
0	.4086	.7259	
0	.4762	.7227	
.1	.0033	.9368	
.1	.0063	.9162	
.1	.0094	.9007	
.1	.0129	.8873	
.1	.0165	.8761	
.1	.0197	.8674	
.1	.0233	.8589	
.1	.0268	.8515	
.1	.0301	.8453	
.1	.0338	.8388	
.1	.0413	.8275	
.1	.0483	.8183	
.1	.0555	.8099	
.1	.0629	.8024	
.1	.07	.7958	
.1	.0809	.7868	
.1	.0918	.7788	
.1	.1028	.7717	
.1	.1138	.7652	
.1	.1288	.7573	
.1	.1434	.7504	
.1	.1622	.7425	
.1	.184	.7344	
.1	.2096	.726	
.1	.2377	.718	
.1	.2696	.7099	
.1	.3034	.7024	
.1	.3447	.6943	
.1	.394	.6859	
.1	.4516	.6773	
.2	.0031	.9338	
.2	.0057	.9139	
.2	.0087	.897	
.2	.0114	.8852	
.2	.0142	.8747	
.2	.0169	.8657	
.2	.0197	.8576	
.2	.023	.8492	
.2	.0258	.8428	
.2	.0329	.8284	
.2	.0391	.818	
.2	.0454	.8086	
.2	.0515	.8005	
.2	.057	.7929	
.2	.0676	.7828	
.2	.0775	.7738	
.2	.0868	.7662	
.2	.0961	.7595	
.2	.1087	.7512	
.2	.1242	.7422	
.2	.1438	.7325	
.2	.1665	.7228	
.2	.1917	.7137	
.2	.2205	.7047	
.2	.2508	.6968	
.2	.2845	.6891	
.2	.3215	.6819	
.2	.3597	.6756	
.2	.3997	.6699	
.2	.4484	.6639	
.3	.0031	.929	
.3	.0063	.9037	
.3	.0097	.8848	
.3	.0134	.8691	
.3	.0165	.858	
.3	.0202	.8464	
.3	.0231	.8387	
.3	.0262	.8311	
.3	.0293	.8242	
.3	.0326	.8175	
.3	.0394	.8053	
.3	.0461	.7948	
.3	.0531	.7852	
.3	.0597	.777	
.3	.0666	.7694	
.3	.0768	.7594	
.3	.0878	.7499	
.3	.0985	.7417	
.3	.1124	.7323	
.3	.1267	.7237	
.3	.1444	.7144	
.3	.1628	.7059	
.3	.185	.697	
.3	.2103	.6882	
.3	.2389	.6796	
.3	.2708	.6713	
.3	.3066	.6633	
.3	.3449	.6559	
.3	.3904	.6484	
.3	.4353	.642	
.3	.4872	.6357	
.4	.0028	.9276	
.4	.0053	.904	
.4	.008	.8857	
.4	.0106	.8718	
.4	.0134	.8591	
.4	.0164	.8476	
.4	.0193	.8379	
.4	.0222	.8291	
.4	.0252	.8211	
.4	.0283	.8136	
.4	.0341	.8008	
.4	.04	.7898	
.4	.046	.7797	
.4	.0522	.7707	
.4	.0582	.7626	
.4	.0677	.7513	
.4	.0771	.7415	
.4	.0863	.7329	
.4	.0988	.7225	
.4	.111	.7136	
.4	.127	.7032	
.4	.1419	.6947	
.4	.1603	.6854	
.4	.1818	.6759	
.4	.2062	.6664	
.4	.2411	.6548	
.4	.2839	.643	
.4	.3215	.6342	
.4	.3605	.6263	
.4	.4022	.6189	
.4	.4514	.6113	
.4	.5059	.6041	
