Measured thermophysical data. Density, Speed of Sound, Refractive Index, Viscosity, Surface Tension, and Excess Volume of N-Methyl-2-pyrrolidone + 1-Amino-2-propanol {or Bis(2-hydroxypropyl)amine} from T = (293.15 to 323.15) K
Source: J. Chem. Eng. Data, 2011, 10.1021/je200121f
Compound 1: bis(2-hydroxypropyl)amine, C6H15NO2
Compound 2: N-methyl-2-pyrrolidone, C5H9NO, purity 99%
Compound 3: (S)-(+)-1-amino-2-propanol, C3H9NO

System: bis(2-hydroxypropyl)amine; phases: Liquid
Property: Mass density, kg/m3 (Liquid); method: Vibrating tube method
Temperature, K	Pressure, kPa	Mass density, kg/m3	uncertainty
323.15	101	984.1	.2

System: bis(2-hydroxypropyl)amine; phases: Liquid
Property: Speed of sound, m/s (Liquid); method: Sing-around technique in a fixed-path interferometer
Temperature, K	Pressure, kPa	Speed of sound, m/s	uncertainty
323.15	101	1420.3	1.3

System: bis(2-hydroxypropyl)amine; phases: Liquid
Property: Viscosity, Pa*s (Liquid); method: Capillary tube (Ostwald; Ubbelohde) method
Temperature, K	Pressure, kPa	Viscosity, Pa*s	uncertainty
323.15	101	.12573	

System: bis(2-hydroxypropyl)amine; phases: Liquid
Fixed: Pressure, kPa = 101.325
Property: Refractive index (Na D-line) (Liquid); method: Standard Abbe refractometry
Temperature, K	Refractive index (Na D-line)	uncertainty
323.15	1.4512	.00013

System: bis(2-hydroxypropyl)amine; phases: Liquid, Gas
Property: Surface tension liquid-gas, N/m (Liquid); method: Ring tensiometer
Temperature, K	Surface tension liquid-gas, N/m	uncertainty
323.15	.0345	.00009

System: N-methyl-2-pyrrolidone; phases: Liquid
Property: Mass density, kg/m3 (Liquid); method: Vibrating tube method
Temperature, K	Pressure, kPa	Mass density, kg/m3	uncertainty
293.15	101	1033.6	.2
303.15	101	1024.7	.2
313.15	101	1015.7	.2
323.15	101	1006.8	.2
293.15	101	1033.6	.2
303.15	101	1024.7	.2
313.15	101	1015.7	.2
323.15	101	1006.8	.2

System: N-methyl-2-pyrrolidone; phases: Liquid
Property: Speed of sound, m/s (Liquid); method: Sing-around technique in a fixed-path interferometer
Temperature, K	Pressure, kPa	Speed of sound, m/s	uncertainty
293.15	101	1567.9	1.3
303.15	101	1529.7	1.3
313.15	101	1491.2	1.3
323.15	101	1454.6	1.3
293.15	101	1567.9	1.3
303.15	101	1529.7	1.3
313.15	101	1491.2	1.3
323.15	101	1454.6	1.3

System: N-methyl-2-pyrrolidone; phases: Liquid
Property: Viscosity, Pa*s (Liquid); method: Capillary tube (Ostwald; Ubbelohde) method
Temperature, K	Pressure, kPa	Viscosity, Pa*s	uncertainty
293.15	101	.001899	
303.15	101	.001592	
313.15	101	.001353	
323.15	101	.00117	
293.15	101	.001899	
303.15	101	.001592	
313.15	101	.001353	
323.15	101	.00117	

System: N-methyl-2-pyrrolidone; phases: Liquid
Fixed: Pressure, kPa = 101.325
Property: Refractive index (Na D-line) (Liquid); method: Standard Abbe refractometry
Temperature, K	Refractive index (Na D-line)	uncertainty
293.15	1.4688	.00013
303.15	1.4657	.00013
313.15	1.4621	.00013
323.15	1.4579	.00013

System: N-methyl-2-pyrrolidone; phases: Liquid, Gas
Property: Surface tension liquid-gas, N/m (Liquid); method: Ring tensiometer
Temperature, K	Surface tension liquid-gas, N/m	uncertainty
293.15	.0427	.00009
303.15	.0415	.00009
313.15	.0408	.00009
323.15	.04	.00009
303.15	.0413	.00009
313.15	.041	.00009
323.15	.0398	.00009

System: (S)-(+)-1-amino-2-propanol; phases: Liquid
Property: Mass density, kg/m3 (Liquid); method: Vibrating tube method
Temperature, K	Pressure, kPa	Mass density, kg/m3	uncertainty
293.15	101	960.8	.2
303.15	101	952.8	.2
313.15	101	944.7	.2
323.15	101	936.5	.2

System: (S)-(+)-1-amino-2-propanol; phases: Liquid
Property: Speed of sound, m/s (Liquid); method: Sing-around technique in a fixed-path interferometer
Temperature, K	Pressure, kPa	Speed of sound, m/s	uncertainty
293.15	101	1560.8	1.3
303.15	101	1528.3	1.3
313.15	101	1495.7	1.3
323.15	101	1462.9	1.3

System: (S)-(+)-1-amino-2-propanol; phases: Liquid
Property: Viscosity, Pa*s (Liquid); method: Capillary tube (Ostwald; Ubbelohde) method
Temperature, K	Pressure, kPa	Viscosity, Pa*s	uncertainty
293.15	101	.03167	
303.15	101	.01771	
313.15	101	.010648	
323.15	101	.006961	

System: (S)-(+)-1-amino-2-propanol; phases: Liquid
Fixed: Pressure, kPa = 101.325
Property: Refractive index (Na D-line) (Liquid); method: Standard Abbe refractometry
Temperature, K	Refractive index (Na D-line)	uncertainty
293.15	1.448	.00013
303.15	1.4442	.00013
313.15	1.4401	.00013
323.15	1.436	.00013

System: (S)-(+)-1-amino-2-propanol; phases: Liquid, Gas
Property: Surface tension liquid-gas, N/m (Liquid); method: Ring tensiometer
Temperature, K	Surface tension liquid-gas, N/m	uncertainty
293.15	.0376	.00009
303.15	.0369	.00009
313.15	.0363	.00009
323.15	.0359	.00009

System: N-methyl-2-pyrrolidone + (S)-(+)-1-amino-2-propanol; phases: Liquid
Fixed: Pressure, kPa = 101
Property: Mass density, kg/m3 (Liquid); method: Vibrating tube method
Mole fraction of N-methyl-2-pyrrolidone	Temperature, K	Mass density, kg/m3	uncertainty
0	293.15	960.8	.2
.1034	293.15	968.2	.2
.2008	293.15	975.3	.2
.3001	293.15	982.8	.2
.4002	293.15	989.5	.2
.4978	293.15	996.5	.2
.5943	293.15	1003.3	.2
.7	293.15	1010.9	.2
.7993	293.15	1018.1	.2
.8913	293.15	1025	.2
1	293.15	1033.6	.2
0	303.15	952.8	.2
.1034	303.15	960	.2
.2008	303.15	966.9	.2
.3001	303.15	974.2	.2
.4002	303.15	980.8	.2
.4978	303.15	987.7	.2
.5943	303.15	994.5	.2
.7	303.15	1002	.2
.7993	303.15	1009.2	.2
.8913	303.15	1016.1	.2
1	303.15	1024.7	.2
0	313.15	944.7	.2
.1034	313.15	951.7	.2
.2008	313.15	958.4	.2
.3001	313.15	965.6	.2
.4002	313.15	972.1	.2
.4978	313.15	978.8	.2
.5943	313.15	985.6	.2
.7	313.15	993.1	.2
.7993	313.15	1000.3	.2
.8913	313.15	1007.2	.2
1	313.15	1015.7	.2
0	323.15	936.5	.2
.1034	323.15	943.2	.2
.2008	323.15	949.8	.2
.3001	323.15	956.9	.2
.4002	323.15	963.3	.2
.4978	323.15	969.9	.2
.5943	323.15	976.7	.2
.7	323.15	984.2	.2
.7993	323.15	991.4	.2
.8913	323.15	998.2	.2
1	323.15	1006.8	.2

System: N-methyl-2-pyrrolidone + (S)-(+)-1-amino-2-propanol; phases: Liquid
Fixed: Pressure, kPa = 101
Property: Speed of sound, m/s (Liquid); method: Sing-around technique in a fixed-path interferometer
Mole fraction of N-methyl-2-pyrrolidone	Temperature, K	Speed of sound, m/s	uncertainty
0	293.15	1560.8	1.3
.1034	293.15	1553.5	1.3
.2008	293.15	1549.1	1.3
.3001	293.15	1547.5	1.3
.4002	293.15	1546	1.3
.4978	293.15	1546.2	1.3
.5943	293.15	1547.4	1.3
.7	293.15	1550.9	1.3
.7993	293.15	1554.8	1.3
.8913	293.15	1559.4	1.3
1	293.15	1567.9	1.3
0	303.15	1528.3	1.3
.1034	303.15	1519.6	1.3
.2008	303.15	1514.7	1.3
.3001	303.15	1511.8	1.3
.4002	303.15	1510	1.3
.4978	303.15	1509.4	1.3
.5943	303.15	1510.3	1.3
.7	303.15	1512.8	1.3
.7993	303.15	1516.8	1.3
.8913	303.15	1520.6	1.3
1	303.15	1529.7	1.3
0	313.15	1495.7	1.3
.1034	313.15	1486	1.3
.2008	313.15	1480.5	1.3
.3001	313.15	1476.6	1.3
.4002	313.15	1474.8	1.3
.4978	313.15	1472.8	1.3
.5943	313.15	1473.5	1.3
.7	313.15	1475.4	1.3
.7993	313.15	1479.1	1.3
.8913	313.15	1482.6	1.3
1	313.15	1491.2	1.3
0	323.15	1462.9	1.3
.1034	323.15	1452.1	1.3
.2008	323.15	1446	1.3
.3001	323.15	1441.6	1.3
.4002	323.15	1440.5	1.3
.4978	323.15	1436.8	1.3
.5943	323.15	1436.8	1.3
.7	323.15	1438.4	1.3
.7993	323.15	1441.7	1.3
.8913	323.15	1445.1	1.3
1	323.15	1454.6	1.3

System: N-methyl-2-pyrrolidone + (S)-(+)-1-amino-2-propanol; phases: Liquid
Fixed: Pressure, kPa = 101
Property: Viscosity, Pa*s (Liquid); method: Capillary tube (Ostwald; Ubbelohde) method
Mole fraction of N-methyl-2-pyrrolidone	Temperature, K	Viscosity, Pa*s	uncertainty
0	293.15	.03167	
.1034	293.15	.018957	
.2008	293.15	.012719	
.3001	293.15	.008746	
.4002	293.15	.007694	
.4978	293.15	.006542	
.5943	293.15	.005578	
.7	293.15	.004249	
.7993	293.15	.003533	
.8913	293.15	.003098	
1	293.15	.001899	
0	303.15	.01771	
.1034	303.15	.011487	
.2008	303.15	.008051	
.3001	303.15	.00578	
.4002	303.15	.00521	
.4978	303.15	.004723	
.5943	303.15	.004271	
.7	303.15	.003395	
.7993	303.15	.002909	
.8913	303.15	.002576	
1	303.15	.001592	
0	313.15	.010648	
.1034	313.15	.007301	
.2008	313.15	.005308	
.3001	313.15	.004045	
.4002	313.15	.003725	
.4978	313.15	.003448	
.5943	313.15	.003375	
.7	313.15	.002775	
.7993	313.15	.002458	
.8913	313.15	.002168	
1	313.15	.001353	
0	323.15	.006961	
.1034	323.15	.004793	
.2008	323.15	.003499	
.3001	323.15	.002939	
.4002	323.15	.002649	
.4978	323.15	.002438	
.5943	323.15	.002731	
.7	323.15	.002317	
.7993	323.15	.002073	
.8913	323.15	.001861	
1	323.15	.00117	

System: N-methyl-2-pyrrolidone + (S)-(+)-1-amino-2-propanol; phases: Liquid
Fixed: Pressure, kPa = 101
Property: Refractive index (Na D-line) (Liquid); method: Standard Abbe refractometry
Mole fraction of N-methyl-2-pyrrolidone	Temperature, K	Refractive index (Na D-line)	uncertainty
0	293.15	1.448	.00013
.1034	293.15	1.4503	.00013
.2008	293.15	1.4523	.00013
.3001	293.15	1.4545	.00013
.4002	293.15	1.4567	.00013
.4978	293.15	1.4585	.00013
.5943	293.15	1.4607	.00013
.7	293.15	1.4632	.00013
.7993	293.15	1.4655	.00013
.8913	293.15	1.4675	.00013
1	293.15	1.4688	.00013
0	303.15	1.4442	.00013
.1034	303.15	1.4464	.00013
.2008	303.15	1.4484	.00013
.3001	303.15	1.4505	.00013
.4002	303.15	1.4527	.00013
.4978	303.15	1.4547	.00013
.5943	303.15	1.4567	.00013
.7	303.15	1.4591	.00013
.7993	303.15	1.4614	.00013
.8913	303.15	1.4635	.00013
1	303.15	1.4657	.00013
0	313.15	1.4401	.00013
.1034	313.15	1.4423	.00013
.2008	313.15	1.4445	.00013
.3001	313.15	1.4464	.00013
.4002	313.15	1.4488	.00013
.4978	313.15	1.4506	.00013
.5943	313.15	1.4528	.00013
.7	313.15	1.4548	.00013
.7993	313.15	1.4572	.00013
.8913	313.15	1.4594	.00013
1	313.15	1.4621	.00013
0	323.15	1.436	.00013
.1034	323.15	1.4382	.00013
.2008	323.15	1.4401	.00013
.3001	323.15	1.4421	.00013
.4002	323.15	1.4442	.00013
.4978	323.15	1.4464	.00013
.5943	323.15	1.4482	.00013
.7	323.15	1.4506	.00013
.7993	323.15	1.4529	.00013
.8913	323.15	1.4552	.00013
1	323.15	1.4579	.00013

System: N-methyl-2-pyrrolidone + (S)-(+)-1-amino-2-propanol; phases: Liquid, Gas
Property: Surface tension liquid-gas, N/m (Liquid); method: Ring tensiometer
Mole fraction of N-methyl-2-pyrrolidone	Temperature, K	Surface tension liquid-gas, N/m	uncertainty
0	293.15	.0376	.00009
.1034	293.15	.0381	.00009
.2008	293.15	.0385	.00009
.3001	293.15	.039	.00009
.4002	293.15	.0395	.00009
.4978	293.15	.04	.00009
.5943	293.15	.0407	.00009
.7	293.15	.0412	.00009
.7993	293.15	.0415	.00009
.8913	293.15	.0421	.00009
1	293.15	.0427	.00009
0	303.15	.0369	.00009
.1034	303.15	.0373	.00009
.2008	303.15	.0378	.00009
.3001	303.15	.0383	.00009
.4002	303.15	.0388	.00009
.4978	303.15	.0392	.00009
.5943	303.15	.0395	.00009
.7	303.15	.0401	.00009
.7993	303.15	.0407	.00009
.8913	303.15	.041	.00009
1	303.15	.0415	.00009
0	313.15	.0363	.00009
.1034	313.15	.0368	.00009
.2008	313.15	.0373	.00009
.3001	313.15	.0377	.00009
.4002	313.15	.0381	.00009
.4978	313.15	.0387	.00009
.5943	313.15	.039	.00009
.7	313.15	.0395	.00009
.7993	313.15	.0402	.00009
.8913	313.15	.0404	.00009
1	313.15	.0408	.00009
0	323.15	.0359	.00009
.1034	323.15	.0362	.00009
.2008	323.15	.0366	.00009
.3001	323.15	.0371	.00009
.4002	323.15	.0376	.00009
.4978	323.15	.038	.00009
.5943	323.15	.0384	.00009
.7	323.15	.0388	.00009
.7993	323.15	.0392	.00009
.8913	323.15	.0395	.00009
1	323.15	.04	.00009

System: bis(2-hydroxypropyl)amine + N-methyl-2-pyrrolidone; phases: Liquid
Fixed: Pressure, kPa = 101
Property: Mass density, kg/m3 (Liquid); method: Vibrating tube method
Mole fraction of N-methyl-2-pyrrolidone	Temperature, K	Mass density, kg/m3	uncertainty
.7804	293.15	1021.9	.2
.8882	293.15	1026.8	.2
1	293.15	1033.6	.2
.4695	303.15	1006	.2
.5721	303.15	1007.3	.2
.6754	303.15	1010.8	.2
.7804	303.15	1013.4	.2
.8882	303.15	1018.2	.2
1	303.15	1024.7	.2
.2764	313.15	993.1	.2
.3733	313.15	994.5	.2
.4695	313.15	997.8	.2
.5721	313.15	998.9	.2
.6754	313.15	1002.3	.2
.7804	313.15	1004.8	.2
.8882	313.15	1009.4	.2
1	313.15	1015.7	.2
0	323.15	984.1	.2
.1049	323.15	984	.2
.1898	323.15	984.4	.2
.2764	323.15	985.1	.2
.3733	323.15	986.4	.2
.4695	323.15	988.2	.2
.5721	323.15	990.6	.2
.6754	323.15	993.5	.2
.7804	323.15	996.8	.2
.8882	323.15	1000.7	.2
1	323.15	1006.8	.2

System: bis(2-hydroxypropyl)amine + N-methyl-2-pyrrolidone; phases: Liquid
Fixed: Pressure, kPa = 101
Property: Speed of sound, m/s (Liquid); method: Sing-around technique in a fixed-path interferometer
Mole fraction of N-methyl-2-pyrrolidone	Temperature, K	Speed of sound, m/s	uncertainty
.7804	293.15	1535.6	1.3
.8882	293.15	1548.8	1.3
1	293.15	1567.9	1.3
.4695	303.15	1483.8	1.3
.5721	303.15	1486.6	1.3
.6754	303.15	1494.7	1.3
.7804	303.15	1499.4	1.3
.8882	303.15	1511.9	1.3
1	303.15	1529.7	1.3
.2764	313.15	1443.5	1.3
.3733	313.15	1445	1.3
.4695	313.15	1450.8	1.3
.5721	313.15	1453.3	1.3
.6754	313.15	1460.3	1.3
.7804	313.15	1463.7	1.3
.8882	313.15	1474.9	1.3
1	313.15	1491.2	1.3
0	323.15	1420.3	1.3
.1049	323.15	1414.2	1.3
.1898	323.15	1411.8	1.3
.2764	323.15	1412.2	1.3
.3733	323.15	1413	1.3
.4695	323.15	1415.4	1.3
.5721	323.15	1419.6	1.3
.6754	323.15	1424.3	1.3
.7804	323.15	1428.6	1.3
.8882	323.15	1438.7	1.3
1	323.15	1454.6	1.3

System: bis(2-hydroxypropyl)amine + N-methyl-2-pyrrolidone; phases: Liquid
Fixed: Pressure, kPa = 101
Property: Viscosity, Pa*s (Liquid); method: Capillary tube (Ostwald; Ubbelohde) method
Mole fraction of N-methyl-2-pyrrolidone	Temperature, K	Viscosity, Pa*s	uncertainty
.7804	293.15	.004857	
.8882	293.15	.002943	
1	293.15	.001899	
.4695	303.15	.020251	
.5721	303.15	.010566	
.6754	303.15	.006229	
.7804	303.15	.003694	
.8882	303.15	.002371	
1	303.15	.001592	
.2764	313.15	.038269	
.3733	313.15	.021142	
.4695	313.15	.011236	
.5721	313.15	.007051	
.6754	313.15	.004495	
.7804	313.15	.00289	
.8882	313.15	.001943	
1	313.15	.001353	
0	323.15	.12573	
.1049	323.15	.061135	
.1898	323.15	.035414	
.2764	323.15	.020934	
.3733	323.15	.01267	
.4695	323.15	.007412	
.5721	323.15	.005022	
.6754	323.15	.00342	
.7804	323.15	.00233	
.8882	323.15	.001631	
1	323.15	.00117	

System: bis(2-hydroxypropyl)amine + N-methyl-2-pyrrolidone; phases: Liquid
Fixed: Pressure, kPa = 101
Property: Refractive index (Na D-line) (Liquid); method: Standard Abbe refractometry
Mole fraction of N-methyl-2-pyrrolidone	Temperature, K	Refractive index (Na D-line)	uncertainty
.7804	293.15	1.4675	.00013
.8882	293.15	1.4682	.00013
1	293.15	1.4688	.00013
.4695	303.15	1.4608	.00013
.5721	303.15	1.4616	.00013
.6754	303.15	1.4623	.00013
.7804	303.15	1.4635	.00013
.8882	303.15	1.4648	.00013
1	303.15	1.4657	.00013
.2764	313.15	1.4558	.00013
.3733	313.15	1.4563	.00013
.4695	313.15	1.4567	.00013
.5721	313.15	1.4576	.00013
.6754	313.15	1.4582	.00013
.7804	313.15	1.4594	.00013
.8882	313.15	1.4607	.00013
1	313.15	1.4621	.00013
0	323.15	1.4512	.00013
.1049	323.15	1.451	.00013
.1898	323.15	1.4511	.00013
.2764	323.15	1.452	.00013
.3733	323.15	1.4524	.00013
.4695	323.15	1.4528	.00013
.5721	323.15	1.4535	.00013
.6754	323.15	1.4541	.00013
.7804	323.15	1.4553	.00013
.8882	323.15	1.4565	.00013
1	323.15	1.4579	.00013

System: bis(2-hydroxypropyl)amine + N-methyl-2-pyrrolidone; phases: Liquid, Gas
Property: Surface tension liquid-gas, N/m (Liquid); method: Ring tensiometer
Mole fraction of N-methyl-2-pyrrolidone	Temperature, K	Surface tension liquid-gas, N/m	uncertainty
.7804	293.15	.0397	.00009
.8882	293.15	.0413	.00009
1	293.15	.0427	.00009
.4695	303.15	.0371	.00009
.5721	303.15	.0376	.00009
.6754	303.15	.0383	.00009
.7804	303.15	.039	.00009
.8882	303.15	.04	.00009
1	303.15	.0413	.00009
.2764	313.15	.036	.00009
.3733	313.15	.0362	.00009
.4695	313.15	.0367	.00009
.5721	313.15	.0372	.00009
.6754	313.15	.0379	.00009
.7804	313.15	.0385	.00009
.8882	313.15	.0395	.00009
1	313.15	.041	.00009
0	323.15	.0345	.00009
.1049	323.15	.0349	.00009
.1898	323.15	.0351	.00009
.2764	323.15	.0351	.00009
.3733	323.15	.0353	.00009
.4695	323.15	.036	.00009
.5721	323.15	.0365	.00009
.6754	323.15	.0371	.00009
.7804	323.15	.0377	.00009
.8882	323.15	.0387	.00009
1	323.15	.0398	.00009
