Measured thermophysical data. Vapor Pressures and Phase Diagrams of Two Methyl Esters of Substituted Benzoic Acids
Source: J. Chem. Eng. Data, 2011, 10.1021/je2007605
Compound 1: benzoic acid, 4-methyl-, methyl ester, C9H10O2, purity 99.3%
Compound 2: methyl p-(dimethylamino)benzoate, C10H13NO2, purity 99.7%

System: benzoic acid, 4-methyl-, methyl ester; phases: Crystal, Liquid, Air at 1 atmosphere
Property: Normal melting temperature, K (Crystal); method: DSC/DTA
Normal melting temperature, K	uncertainty
305.09	.19

System: benzoic acid, 4-methyl-, methyl ester; phases: Crystal, Liquid, Air at 1 atmosphere
Property: Molar enthalpy of transition or fusion, kJ/mol (Crystal); method: DSC/DTA
Molar enthalpy of transition or fusion, kJ/mol	uncertainty
20.2	.4

System: benzoic acid, 4-methyl-, methyl ester; phases: Crystal, Gas
Property: Vapor or sublimation pressure, kPa (Crystal); method: Closed cell (Static) method
Temperature, K	Vapor or sublimation pressure, kPa	uncertainty
269.27	.0004	.00001
271.21	.00052	.00001
273.18	.00067	.00001
275.19	.00087	.00001
277.14	.00112	.00001
279.16	.00145	.00001
281.08	.00184	.00001
283.07	.00235	.00002
285.08	.003	.00002
287.05	.00377	.00002
289.04	.00475	.00002
291.04	.00599	.00002
293.04	.00745	.00003
295.02	.00939	.00003
297.03	.01167	.00004
299.02	.01451	.00005
300.98	.01795	.00005

System: benzoic acid, 4-methyl-, methyl ester; phases: Liquid, Gas
Property: Vapor or sublimation pressure, kPa (Liquid); method: Closed cell (Static) method
Temperature, K	Vapor or sublimation pressure, kPa	uncertainty
293.03	.01066	.00004
295.08	.0127	.00004
297.05	.01498	.00005
299.04	.01755	.00005
301.03	.02057	.00006
303	.02404	.00007
305.03	.02784	.00008
306.98	.03242	.00009
308.97	.03825	.00011
310.97	.0434	.00012
312.95	.05065	.00014
314.97	.05815	.00016
316.99	.06735	.00018
318.9	.07685	.0002
320.95	.08945	.00023
322.94	.1009	.00026
324.92	.1171	.0003
326.96	.132	.00034
328.85	.151	.00048
330.92	.1689	.00052
332.84	.1934	.00058
334.91	.2162	.00064
336.82	.2454	.00071
338.88	.2748	.00079
340.75	.31	.00088
342.8	.3469	.00097
344.71	.3884	.00107
346.77	.4353	.00119
348.75	.484	.00131

System: methyl p-(dimethylamino)benzoate; phases: Crystal, Liquid, Air at 1 atmosphere
Property: Normal melting temperature, K (Crystal); method: DSC/DTA
Normal melting temperature, K	uncertainty
371.29	.05

System: methyl p-(dimethylamino)benzoate; phases: Crystal, Liquid, Air at 1 atmosphere
Property: Molar enthalpy of transition or fusion, kJ/mol (Crystal); method: DSC/DTA
Molar enthalpy of transition or fusion, kJ/mol	uncertainty
23.4	.1

System: methyl p-(dimethylamino)benzoate; phases: Crystal, Gas
Property: Vapor or sublimation pressure, kPa (Crystal); method: Closed cell (Static) method
Temperature, K	Vapor or sublimation pressure, kPa	uncertainty
324.96	.00043	.00001
326.93	.00053	.00001
328.93	.00068	.00001
330.9	.00084	.00001
332.91	.00105	.00001
334.88	.0013	.00001
336.89	.00161	.00001
338.85	.00199	.00001
340.86	.00246	.00002
342.81	.00298	.00002
344.83	.00365	.00002
346.78	.00447	.00002
348.79	.00542	.00002
350.75	.00655	.00003
352.74	.00799	.00003
354.73	.0096	.00003
356.72	.01168	.00004
358.69	.01403	.00005
360.68	.01658	.00005
362.67	.01987	.00006
364.65	.02318	.00007
366.61	.02725	.00008
368.66	.03255	.00009

System: methyl p-(dimethylamino)benzoate; phases: Liquid, Gas
Property: Vapor or sublimation pressure, kPa (Liquid); method: Closed cell (Static) method
Temperature, K	Vapor or sublimation pressure, kPa	uncertainty
352.78	.01105	.00004
354.77	.01276	.00004
356.75	.01475	.00005
358.73	.01697	.00005
360.72	.01953	.00006
362.7	.02236	.00007
364.68	.02563	.00007
366.67	.02928	.00008
368.66	.03341	.00009
370.64	.03797	.0001
372.62	.04321	.00012
374.62	.04885	.00013
376.56	.05553	.00015
378.53	.0627	.00017
380.52	.07058	.00019
382.5	.07972	.00021
384.49	.08949	.00023
386.42	.1006	.00026
388.46	.1126	.00029
390.44	.1259	.00032

System: methyl p-(dimethylamino)benzoate; phases: Crystal, Gas
Property: Vapor or sublimation pressure, kPa (Crystal); method: Knudsen effusion method
Temperature, K	Vapor or sublimation pressure, kPa	uncertainty
311.12	.000082	.00001
313.19	.000104	.00001
315.17	.000131	.00001
317.11	.000166	.00001
319.18	.000211	.00001
323.12	.000332	.00001
325.18	.000421	.00001
327.16	.000525	.00001
329.11	.000662	.00001
331.17	.000829	.00001
333.16	.001019	.00001
