Measured thermophysical data. Determination of the Solid Liquid Phase Diagram of the Binary System Acrylic Acid + Propionic Acid
Source: J. Chem. Eng. Data, 2012, 10.1021/je201193d
Compound 1: vinylformic acid, C3H4O2, purity 99.8%
Compound 2: ethanecarboxylic acid, C3H6O2, purity 99%

System: vinylformic acid; phases: Crystal, Liquid, Air at 1 atmosphere
Property: Normal melting temperature, K (Crystal); method: Visual observation
Normal melting temperature, K	uncertainty
285.9	.07

System: ethanecarboxylic acid; phases: Crystal, Liquid, Air at 1 atmosphere
Property: Normal melting temperature, K (Crystal); method: Visual observation
Normal melting temperature, K	uncertainty
252.55	.07

System: ethanecarboxylic acid + vinylformic acid; phases: Crystal, Crystal of intercomponent compound 1, Liquid, Air at 1 atmosphere
Fixed: Pressure, kPa = 101.325
Property: Eutectic composition: mass fraction of vinylformic acid (Crystal); method: Derived from phase diagram analysis
Eutectic composition: mass fraction of vinylformic acid	uncertainty
.2565	

System: ethanecarboxylic acid + vinylformic acid; phases: Liquid, Crystal
Fixed: Pressure, kPa = 101
Property: Mole fraction of vinylformic acid (Liquid); method: Chromatography
Temperature, K	Mole fraction of vinylformic acid	uncertainty
284.45	.9638	.0001
284.5	.9623	.0001
283.55	.951	.0001
283.55	.9502	.0001
283.5	.9456	.0001
283.5	.9449	.0001
282.65	.9266	.0001
282.6	.9277	.0001
280.9	.9033	.0001
280.85	.9023	.0001
280.65	.8931	.0001
280.35	.8753	.0001
280.3	.8805	.0001
280.25	.8815	.0001
280.25	.8781	.0001
278.3	.8412	.0001
278.25	.8428	.0001
273.45	.7543	.0001
273.35	.7507	.0001
270.95	.7161	.0001
270.85	.7126	.0001
266.55	.6458	.0001
261.15	.5467	.0001
258.85	.5225	.0001

System: ethanecarboxylic acid + vinylformic acid; phases: Liquid, Crystal of intercomponent compound 1
Fixed: Pressure, kPa = 101
Property: Mole fraction of vinylformic acid (Liquid); method: Chromatography
Temperature, K	Mole fraction of vinylformic acid	uncertainty
255.7	.4329	.0001

System: ethanecarboxylic acid + vinylformic acid; phases: Liquid, Crystal
Fixed: Pressure, kPa = 101
Property: Mole fraction of vinylformic acid (Liquid); method: Synthetic method
Temperature, K	Mole fraction of vinylformic acid	uncertainty
285.9	1	.0001
283.5	.945	.0001
282	.9071	.0001
282	.9071	.0001
281.95	.9071	.0001
281.85	.9071	.0001
281.9	.9071	.0001
257.5	.5	.0001

System: ethanecarboxylic acid + vinylformic acid; phases: Liquid, Crystal of intercomponent compound 1
Fixed: Pressure, kPa = 101
Property: Mole fraction of vinylformic acid (Liquid); method: Synthetic method
Temperature, K	Mole fraction of vinylformic acid	uncertainty
258.85	.5204	.0001
254.25	.3943	.0001
252.15	.34	.0001
250.5	.3026	.0001

System: ethanecarboxylic acid + vinylformic acid; phases: Liquid, Crystal
Fixed: Pressure, kPa = 101
Property: Mole fraction of vinylformic acid (Liquid); method: Synthetic method
Temperature, K	Mole fraction of vinylformic acid	uncertainty
248.65	.2565	.0001
250.05	.2134	.0001
250.55	.1783	.0001
251.05	.1479	.0001
251.7	.0979	.0001
251.9	.0515	.0001
252.55	0	.0001
