Measured thermophysical data. Density, Speed of Sound, Refractive Index, and Viscosity of 1-Amino-2-Propanol {or Bis(2-hydroxypropyl)amine} + Triethanolamine + Water from T = (288.15 to 333.15) K
Source: J. Chem. Eng. Data, 2012, 10.1021/je201121t
Compound 1: 1-amino-2-propanol, C3H9NO
Compound 2: diisopropanolamine, C6H15NO2
Compound 3: triethanolamine, C6H15NO3
Compound 4: water, H2O

System: 1-amino-2-propanol; phases: Liquid
Fixed: Pressure, kPa = 101.325
Property: Mass density, kg/m3 (Liquid); method: Vibrating tube method
Temperature, K	Mass density, kg/m3	uncertainty
298.15	956.3	.2

System: 1-amino-2-propanol; phases: Liquid
Fixed: Pressure, kPa = 101.325
Property: Refractive index (Na D-line) (Liquid); method: Standard Abbe refractometry
Temperature, K	Refractive index (Na D-line)	uncertainty
298.15	1.4461	.00013

System: 1-amino-2-propanol; phases: Liquid
Fixed: Pressure, kPa = 101.325
Property: Speed of sound, m/s (Liquid); method: Sing-around technique in a fixed-path interferometer
Temperature, K	Speed of sound, m/s	uncertainty
298.15	1544.1	1.2

System: 1-amino-2-propanol; phases: Liquid
Fixed: Pressure, kPa = 101.325
Property: Viscosity, Pa*s (Liquid); method: Capillary tube (Ostwald; Ubbelohde) method
Temperature, K	Viscosity, Pa*s	uncertainty
298.15	.024234	.0000026

System: diisopropanolamine; phases: Liquid
Fixed: Pressure, kPa = 101.325
Property: Mass density, kg/m3 (Liquid); method: Vibrating tube method
Temperature, K	Mass density, kg/m3	uncertainty
323.15	984.1	.2

System: diisopropanolamine; phases: Liquid
Fixed: Pressure, kPa = 101.325
Property: Refractive index (Na D-line) (Liquid); method: Standard Abbe refractometry
Temperature, K	Refractive index (Na D-line)	uncertainty
323.15	1.4512	.00013

System: diisopropanolamine; phases: Liquid
Fixed: Pressure, kPa = 101.325
Property: Speed of sound, m/s (Liquid); method: Sing-around technique in a fixed-path interferometer
Temperature, K	Speed of sound, m/s	uncertainty
323.15	1414.2	1.2

System: diisopropanolamine; phases: Liquid
Fixed: Pressure, kPa = 101.325
Property: Viscosity, Pa*s (Liquid); method: Capillary tube (Ostwald; Ubbelohde) method
Temperature, K	Viscosity, Pa*s	uncertainty
323.15	.12565	.0000026

System: triethanolamine; phases: Liquid
Fixed: Pressure, kPa = 101.325
Property: Mass density, kg/m3 (Liquid); method: Vibrating tube method
Temperature, K	Mass density, kg/m3	uncertainty
298.15	1121	.2

System: triethanolamine; phases: Liquid
Fixed: Pressure, kPa = 101.325
Property: Refractive index (Na D-line) (Liquid); method: Standard Abbe refractometry
Temperature, K	Refractive index (Na D-line)	uncertainty
298.15	1.4832	.00013

System: triethanolamine; phases: Liquid
Fixed: Pressure, kPa = 101.325
Property: Speed of sound, m/s (Liquid); method: Sing-around technique in a fixed-path interferometer
Temperature, K	Speed of sound, m/s	uncertainty
298.15	1611.5	1.2

System: triethanolamine; phases: Liquid
Fixed: Pressure, kPa = 101.325
Property: Viscosity, Pa*s (Liquid); method: Capillary tube (Ostwald; Ubbelohde) method
Temperature, K	Viscosity, Pa*s	uncertainty
298.15	.60595	.0000026

System: 1-amino-2-propanol + triethanolamine + water; phases: Liquid
Fixed: Pressure, kPa = 101
Property: Mass density, kg/m3 (Liquid); method: Vibrating tube method
Mole fraction of 1-amino-2-propanol	Mole fraction of triethanolamine	Temperature, K	Mass density, kg/m3	uncertainty
.0126	0	288.15	999.3	.2
.0094	.0018	288.15	1001.1	.2
.0064	.0035	288.15	1003.1	.2
.0033	.0048	288.15	1005	.2
.0016	.0055	288.15	1005.9	.2
0	.0064	288.15	1006.8	.2
.026	0	288.15	1000.1	.2
.0196	.0034	288.15	1003.9	.2
.0132	.0067	288.15	1008.1	.2
.0066	.0101	288.15	1010.9	.2
.0033	.0116	288.15	1012.6	.2
0	.0134	288.15	1014.8	.2
.0565	0	288.15	1003	.2
.0429	.0073	288.15	1009.9	.2
.0285	.015	288.15	1016.7	.2
.0145	.0218	288.15	1024	.2
.0078	.0256	288.15	1027.4	.2
0	.0294	288.15	1030.9	.2
.0126	0	293.15	998.3	.2
.0094	.0018	293.15	1000.1	.2
.0064	.0035	293.15	1002.1	.2
.0033	.0048	293.15	1004	.2
.0016	.0055	293.15	1004.9	.2
0	.0064	293.15	1005.8	.2
.026	0	293.15	999	.2
.0196	.0034	293.15	1002.7	.2
.0132	.0067	293.15	1006.9	.2
.0066	.0101	293.15	1009.8	.2
.0033	.0116	293.15	1011.5	.2
0	.0134	293.15	1013.6	.2
.0565	0	293.15	1001.4	.2
.0429	.0073	293.15	1008.3	.2
.0285	.015	293.15	1015.2	.2
.0145	.0218	293.15	1022.6	.2
.0078	.0256	293.15	1025.9	.2
0	.0294	293.15	1029.4	.2
.0126	0	298.15	997	.2
.0094	.0018	298.15	998.9	.2
.0064	.0035	298.15	1000.8	.2
.0033	.0048	298.15	1002.8	.2
.0016	.0055	298.15	1003.6	.2
0	.0064	298.15	1004.6	.2
.026	0	298.15	997.6	.2
.0196	.0034	298.15	1001.3	.2
.0132	.0067	298.15	1005.5	.2
.0066	.0101	298.15	1008.4	.2
.0033	.0116	298.15	1010.1	.2
0	.0134	298.15	1012.2	.2
.0565	0	298.15	999.6	.2
.0429	.0073	298.15	1006.5	.2
.0285	.015	298.15	1013.5	.2
.0145	.0218	298.15	1020.9	.2
.0078	.0256	298.15	1024.2	.2
0	.0294	298.15	1027.8	.2
.0126	0	303.15	995.6	.2
.0094	.0018	303.15	997.4	.2
.0064	.0035	303.15	999.3	.2
.0033	.0048	303.15	1001.3	.2
.0016	.0055	303.15	1002.1	.2
0	.0064	303.15	1003.1	.2
.026	0	303.15	995.9	.2
.0196	.0034	303.15	999.7	.2
.0132	.0067	303.15	1003.9	.2
.0066	.0101	303.15	1006.8	.2
.0033	.0116	303.15	1008.5	.2
0	.0134	303.15	1010.6	.2
.0565	0	303.15	997.5	.2
.0429	.0073	303.15	1004.6	.2
.0285	.015	303.15	1011.6	.2
.0145	.0218	303.15	1019	.2
.0078	.0256	303.15	1022.4	.2
0	.0294	303.15	1026	.2
.0126	0	308.15	993.9	.2
.0094	.0018	308.15	995.7	.2
.0064	.0035	308.15	997.6	.2
.0033	.0048	308.15	999.6	.2
.0016	.0055	308.15	1000.4	.2
0	.0064	308.15	1001.4	.2
.026	0	308.15	994.1	.2
.0196	.0034	308.15	997.9	.2
.0132	.0067	308.15	1002.1	.2
.0066	.0101	308.15	1005	.2
.0033	.0116	308.15	1006.7	.2
0	.0134	308.15	1008.9	.2
.0565	0	308.15	995.4	.2
.0429	.0073	308.15	1002.4	.2
.0285	.015	308.15	1009.5	.2
.0145	.0218	308.15	1017	.2
.0078	.0256	308.15	1020.3	.2
0	.0294	308.15	1024	.2
.0126	0	313.15	992	.2
.0094	.0018	313.15	993.8	.2
.0064	.0035	313.15	995.8	.2
.0033	.0048	313.15	997.7	.2
.0016	.0055	313.15	998.5	.2
0	.0064	313.15	999.5	.2
.026	0	313.15	992.1	.2
.0196	.0034	313.15	995.9	.2
.0132	.0067	313.15	1000.1	.2
.0066	.0101	313.15	1003	.2
.0033	.0116	313.15	1004.7	.2
0	.0134	313.15	1006.9	.2
.0565	0	313.15	993	.2
.0429	.0073	313.15	1000.1	.2
.0285	.015	313.15	1007.2	.2
.0145	.0218	313.15	1014.7	.2
.0078	.0256	313.15	1018.1	.2
0	.0294	313.15	1021.8	.2
.0126	0	323.15	987.7	.2
.0094	.0018	323.15	989.6	.2
.0064	.0035	323.15	991.5	.2
.0033	.0048	323.15	993.3	.2
.0016	.0055	323.15	994.3	.2
0	.0064	323.15	995	.2
.026	0	323.15	987.5	.2
.0196	.0034	323.15	991.2	.2
.0132	.0067	323.15	994.7	.2
.0066	.0101	323.15	998.6	.2
.0033	.0116	323.15	1000.4	.2
0	.0134	323.15	1002.3	.2
.0565	0	323.15	987.8	.2
.0429	.0073	323.15	995	.2
.0285	.015	323.15	1002.2	.2
.0145	.0218	323.15	1009.6	.2
.0078	.0256	323.15	1013.4	.2
0	.0294	323.15	1017.3	.2
.0126	0	333.15	982.6	.2
.0094	.0018	333.15	984.5	.2
.0064	.0035	333.15	985.4	.2
.0033	.0048	333.15	987.6	.2
.0016	.0055	333.15	987.7	.2
0	.0064	333.15	988.6	.2
.026	0	333.15	982.2	.2
.0196	.0034	333.15	985.9	.2
.0132	.0067	333.15	988.8	.2
.0066	.0101	333.15	992.5	.2
.0033	.0116	333.15	994.3	.2
0	.0134	333.15	996.2	.2
.0565	0	333.15	982.1	.2
.0429	.0073	333.15	989.4	.2
.0285	.015	333.15	996.7	.2
.0145	.0218	333.15	1003.8	.2
.0078	.0256	333.15	1008	.2
0	.0294	333.15	1011.2	.2

System: 1-amino-2-propanol + triethanolamine + water; phases: Liquid
Fixed: Pressure, kPa = 101
Property: Speed of sound, m/s (Liquid); method: Sing-around technique in a fixed-path interferometer
Mole fraction of 1-amino-2-propanol	Mole fraction of triethanolamine	Temperature, K	Speed of sound, m/s	uncertainty
.0126	0	288.15	1506.4	1.2
.0094	.0018	288.15	1504	1.2
.0064	.0035	288.15	1501.3	1.2
.0033	.0048	288.15	1498.7	1.2
.0016	.0055	288.15	1494.8	1.2
0	.0064	288.15	1491.4	1.2
.026	0	288.15	1549.8	1.2
.0196	.0034	288.15	1542	1.2
.0132	.0067	288.15	1535.3	1.2
.0066	.0101	288.15	1524.3	1.2
.0033	.0116	288.15	1522.2	1.2
0	.0134	288.15	1517.8	1.2
.0565	0	288.15	1635.1	1.2
.0429	.0073	288.15	1620.6	1.2
.0285	.015	288.15	1602.2	1.2
.0145	.0218	288.15	1586.8	1.2
.0078	.0256	288.15	1580.8	1.2
0	.0294	288.15	1570.1	1.2
.0126	0	293.15	1519.7	1.2
.0094	.0018	293.15	1517.4	1.2
.0064	.0035	293.15	1515.1	1.2
.0033	.0048	293.15	1511.3	1.2
.0016	.0055	293.15	1509.4	1.2
0	.0064	293.15	1506.2	1.2
.026	0	293.15	1560.1	1.2
.0196	.0034	293.15	1553	1.2
.0132	.0067	293.15	1546.3	1.2
.0066	.0101	293.15	1536.3	1.2
.0033	.0116	293.15	1534.6	1.2
0	.0134	293.15	1531	1.2
.0565	0	293.15	1637.9	1.2
.0429	.0073	293.15	1624.9	1.2
.0285	.015	293.15	1608.2	1.2
.0145	.0218	293.15	1594	1.2
.0078	.0256	293.15	1588.5	1.2
0	.0294	293.15	1579	1.2
.0126	0	298.15	1531.3	1.2
.0094	.0018	298.15	1529.1	1.2
.0064	.0035	298.15	1527.1	1.2
.0033	.0048	298.15	1523.6	1.2
.0016	.0055	298.15	1521.4	1.2
0	.0064	298.15	1518.9	1.2
.026	0	298.15	1568.5	1.2
.0196	.0034	298.15	1562	1.2
.0132	.0067	298.15	1556.4	1.2
.0066	.0101	298.15	1546.5	1.2
.0033	.0116	298.15	1545.2	1.2
0	.0134	298.15	1541.8	1.2
.0565	0	298.15	1640	1.2
.0429	.0073	298.15	1628.2	1.2
.0285	.015	298.15	1613.1	1.2
.0145	.0218	298.15	1600.1	1.2
.0078	.0256	298.15	1595	1.2
0	.0294	298.15	1586	1.2
.0126	0	303.15	1541.9	1.2
.0094	.0018	303.15	1539.3	1.2
.0064	.0035	303.15	1537.3	1.2
.0033	.0048	303.15	1532.8	1.2
.0016	.0055	303.15	1532.3	1.2
0	.0064	303.15	1529.4	1.2
.026	0	303.15	1574.8	1.2
.0196	.0034	303.15	1568.9	1.2
.0132	.0067	303.15	1564.4	1.2
.0066	.0101	303.15	1555.1	1.2
.0033	.0116	303.15	1553.7	1.2
0	.0134	303.15	1550.7	1.2
.0565	0	303.15	1641.9	1.2
.0429	.0073	303.15	1630.5	1.2
.0285	.015	303.15	1616.8	1.2
.0145	.0218	303.15	1604.3	1.2
.0078	.0256	303.15	1600.3	1.2
0	.0294	303.15	1594.3	1.2
.0126	0	308.15	1550.6	1.2
.0094	.0018	308.15	1547.4	1.2
.0064	.0035	308.15	1546.1	1.2
.0033	.0048	308.15	1541.9	1.2
.0016	.0055	308.15	1541.6	1.2
0	.0064	308.15	1538.8	1.2
.026	0	308.15	1580.4	1.2
.0196	.0034	308.15	1575.1	1.2
.0132	.0067	308.15	1571	1.2
.0066	.0101	308.15	1562.5	1.2
.0033	.0116	308.15	1561.7	1.2
0	.0134	308.15	1558.5	1.2
.0565	0	308.15	1642.3	1.2
.0429	.0073	308.15	1631.2	1.2
.0285	.015	308.15	1619.2	1.2
.0145	.0218	308.15	1607.9	1.2
.0078	.0256	308.15	1604.2	1.2
0	.0294	308.15	1597	1.2
.0126	0	313.15	1557.5	1.2
.0094	.0018	313.15	1554.8	1.2
.0064	.0035	313.15	1553.5	1.2
.0033	.0048	313.15	1549.5	1.2
.0016	.0055	313.15	1549.3	1.2
0	.0064	313.15	1546.7	1.2
.026	0	313.15	1584.7	1.2
.0196	.0034	313.15	1579.8	1.2
.0132	.0067	313.15	1576.6	1.2
.0066	.0101	313.15	1568.8	1.2
.0033	.0116	313.15	1567.8	1.2
0	.0134	313.15	1565	1.2
.0565	0	313.15	1642.4	1.2
.0429	.0073	313.15	1631.6	1.2
.0285	.015	313.15	1620.9	1.2
.0145	.0218	313.15	1610.3	1.2
.0078	.0256	313.15	1607.2	1.2
0	.0294	313.15	1600.6	1.2
.0126	0	323.15	1566.6	1.2
.0094	.0018	323.15	1564.2	1.2
.0064	.0035	323.15	1562	1.2
.0033	.0048	323.15	1559.9	1.2
.0016	.0055	323.15	1559	1.2
0	.0064	323.15	1558.2	1.2
.026	0	323.15	1590.2	1.2
.0196	.0034	323.15	1585.8	1.2
.0132	.0067	323.15	1581.6	1.2
.0066	.0101	323.15	1577.2	1.2
.0033	.0116	323.15	1575.2	1.2
0	.0134	323.15	1573.2	1.2
.0565	0	323.15	1636.4	1.2
.0429	.0073	323.15	1628.4	1.2
.0285	.015	323.15	1620.4	1.2
.0145	.0218	323.15	1611.8	1.2
.0078	.0256	323.15	1608.3	1.2
0	.0294	323.15	1604.6	1.2
.0126	0	333.15	1571.3	1.2
.0094	.0018	333.15	1569	1.2
.0064	.0035	333.15	1567.3	1.2
.0033	.0048	333.15	1565.8	1.2
.0016	.0055	333.15	1564.9	1.2
0	.0064	333.15	1564.3	1.2
.026	0	333.15	1590.8	1.2
.0196	.0034	333.15	1587.2	1.2
.0132	.0067	333.15	1583.8	1.2
.0066	.0101	333.15	1580.3	1.2
.0033	.0116	333.15	1578.7	1.2
0	.0134	333.15	1577.1	1.2
.0565	0	333.15	1628.5	1.2
.0429	.0073	333.15	1622.2	1.2
.0285	.015	333.15	1616	1.2
.0145	.0218	333.15	1609.2	1.2
.0078	.0256	333.15	1606.7	1.2
0	.0294	333.15	1603.5	1.2

System: 1-amino-2-propanol + triethanolamine + water; phases: Liquid
Fixed: Pressure, kPa = 101
Property: Viscosity, Pa*s (Liquid); method: Capillary tube (Ostwald; Ubbelohde) method
Mole fraction of 1-amino-2-propanol	Mole fraction of triethanolamine	Temperature, K	Viscosity, Pa*s	uncertainty
.0126	0	288.15	.001382	.0000026
.0094	.0018	288.15	.001379	.0000026
.0064	.0035	288.15	.001356	.0000026
.0033	.0048	288.15	.001346	.0000026
.0016	.0055	288.15	.001304	.0000026
0	.0064	288.15	.001304	.0000026
.026	0	288.15	.001731	.0000026
.0196	.0034	288.15	.001691	.0000026
.0132	.0067	288.15	.00166	.0000026
.0066	.0101	288.15	.001628	.0000026
.0033	.0116	288.15	.001593	.0000026
0	.0134	288.15	.00157	.0000026
.0565	0	288.15	.002741	.0000026
.0429	.0073	288.15	.00265	.0000026
.0285	.015	288.15	.002579	.0000026
.0145	.0218	288.15	.002512	.0000026
.0078	.0256	288.15	.002443	.0000026
0	.0294	288.15	.0024	.0000026
.0126	0	293.15	.001228	.0000026
.0094	.0018	293.15	.001221	.0000026
.0064	.0035	293.15	.001198	.0000026
.0033	.0048	293.15	.001181	.0000026
.0016	.0055	293.15	.001175	.0000026
0	.0064	293.15	.001141	.0000026
.026	0	293.15	.001488	.0000026
.0196	.0034	293.15	.00145	.0000026
.0132	.0067	293.15	.001405	.0000026
.0066	.0101	293.15	.001371	.0000026
.0033	.0116	293.15	.00134	.0000026
0	.0134	293.15	.00133	.0000026
.0565	0	293.15	.002334	.0000026
.0429	.0073	293.15	.002196	.0000026
.0285	.015	293.15	.002137	.0000026
.0145	.0218	293.15	.0021	.0000026
.0078	.0256	293.15	.00209	.0000026
0	.0294	293.15	.00207	.0000026
.0126	0	298.15	.00103	.0000026
.0094	.0018	298.15	.001026	.0000026
.0064	.0035	298.15	.001018	.0000026
.0033	.0048	298.15	.001012	.0000026
.0016	.0055	298.15	.001018	.0000026
0	.0064	298.15	.000998	.0000026
.026	0	298.15	.001273	.0000026
.0196	.0034	298.15	.001249	.0000026
.0132	.0067	298.15	.001241	.0000026
.0066	.0101	298.15	.001234	.0000026
.0033	.0116	298.15	.001199	.0000026
0	.0134	298.15	.001161	.0000026
.0565	0	298.15	.001985	.0000026
.0429	.0073	298.15	.001908	.0000026
.0285	.015	298.15	.001877	.0000026
.0145	.0218	298.15	.00184	.0000026
.0078	.0256	298.15	.001813	.0000026
0	.0294	298.15	.001789	.0000026
.0126	0	303.15	.000894	.0000026
.0094	.0018	303.15	.000892	.0000026
.0064	.0035	303.15	.000898	.0000026
.0033	.0048	303.15	.000898	.0000026
.0016	.0055	303.15	.000891	.0000026
0	.0064	303.15	.000872	.0000026
.026	0	303.15	.001122	.0000026
.0196	.0034	303.15	.0011	.0000026
.0132	.0067	303.15	.001082	.0000026
.0066	.0101	303.15	.001076	.0000026
.0033	.0116	303.15	.001052	.0000026
0	.0134	303.15	.001039	.0000026
.0565	0	303.15	.001721	.0000026
.0429	.0073	303.15	.001661	.0000026
.0285	.015	303.15	.001638	.0000026
.0145	.0218	303.15	.00159	.0000026
.0078	.0256	303.15	.001582	.0000026
0	.0294	303.15	.001559	.0000026
.0126	0	308.15	.000781	.0000026
.0094	.0018	308.15	.000774	.0000026
.0064	.0035	308.15	.000776	.0000026
.0033	.0048	308.15	.000776	.0000026
.0016	.0055	308.15	.000767	.0000026
0	.0064	308.15	.000765	.0000026
.026	0	308.15	.00099	.0000026
.0196	.0034	308.15	.00096	.0000026
.0132	.0067	308.15	.00095	.0000026
.0066	.0101	308.15	.000945	.0000026
.0033	.0116	308.15	.000919	.0000026
0	.0134	308.15	.000914	.0000026
.0565	0	308.15	.001493	.0000026
.0429	.0073	308.15	.001441	.0000026
.0285	.015	308.15	.001421	.0000026
.0145	.0218	308.15	.001395	.0000026
.0078	.0256	308.15	.001387	.0000026
0	.0294	308.15	.001369	.0000026
.0126	0	313.15	.000682	.0000026
.0094	.0018	313.15	.000672	.0000026
.0064	.0035	313.15	.000674	.0000026
.0033	.0048	313.15	.00069	.0000026
.0016	.0055	313.15	.000681	.0000026
0	.0064	313.15	.000664	.0000026
.026	0	313.15	.000868	.0000026
.0196	.0034	313.15	.000834	.0000026
.0132	.0067	313.15	.000831	.0000026
.0066	.0101	313.15	.000833	.0000026
.0033	.0116	313.15	.000806	.0000026
0	.0134	313.15	.000801	.0000026
.0565	0	313.15	.001299	.0000026
.0429	.0073	313.15	.001263	.0000026
.0285	.015	313.15	.001247	.0000026
.0145	.0218	313.15	.001234	.0000026
.0078	.0256	313.15	.00123	.0000026
0	.0294	313.15	.001204	.0000026
.0126	0	323.15	.000573	.0000026
.0094	.0018	323.15	.000578	.0000026
.0064	.0035	323.15	.000573	.0000026
.0033	.0048	323.15	.000564	.0000026
.0016	.0055	323.15	.00056	.0000026
0	.0064	323.15	.000555	.0000026
.026	0	323.15	.00072	.0000026
.0196	.0034	323.15	.000705	.0000026
.0132	.0067	323.15	.000705	.0000026
.0066	.0101	323.15	.000693	.0000026
.0033	.0116	323.15	.00068	.0000026
0	.0134	323.15	.000688	.0000026
.0565	0	323.15	.001049	.0000026
.0429	.0073	323.15	.001027	.0000026
.0285	.015	323.15	.001032	.0000026
.0145	.0218	323.15	.001014	.0000026
.0078	.0256	323.15	.000996	.0000026
0	.0294	323.15	.000988	.0000026
.0126	0	333.15	.000543	.0000026
.0094	.0018	333.15	.000542	.0000026
.0064	.0035	333.15	.000543	.0000026
.0033	.0048	333.15	.000541	.0000026
.0016	.0055	333.15	.000538	.0000026
0	.0064	333.15	.000536	.0000026
.026	0	333.15	.000636	.0000026
.0196	.0034	333.15	.000624	.0000026
.0132	.0067	333.15	.000623	.0000026
.0066	.0101	333.15	.000618	.0000026
.0033	.0116	333.15	.000627	.0000026
0	.0134	333.15	.000612	.0000026
.0565	0	333.15	.00086	.0000026
.0429	.0073	333.15	.00084	.0000026
.0285	.015	333.15	.000851	.0000026
.0145	.0218	333.15	.000835	.0000026
.0078	.0256	333.15	.000826	.0000026
0	.0294	333.15	.00082	.0000026

System: 1-amino-2-propanol + triethanolamine + water; phases: Liquid
Fixed: Pressure, kPa = 101
Property: Refractive index (Na D-line) (Liquid); method: Standard Abbe refractometry
Mole fraction of 1-amino-2-propanol	Mole fraction of triethanolamine	Temperature, K	Refractive index (Na D-line)	uncertainty
.0126	0	288.15	1.3399	.00013
.0094	.0018	288.15	1.3403	.00013
.0064	.0035	288.15	1.3405	.00013
.0033	.0048	288.15	1.3405	.00013
.0016	.0055	288.15	1.3406	.00013
0	.0064	288.15	1.3406	.00013
.026	0	288.15	1.3468	.00013
.0196	.0034	288.15	1.3473	.00013
.0132	.0067	288.15	1.3478	.00013
.0066	.0101	288.15	1.3479	.00013
.0033	.0116	288.15	1.3478	.00013
0	.0134	288.15	1.3479	.00013
.0565	0	288.15	1.3604	.00013
.0429	.0073	288.15	1.3616	.00013
.0285	.015	288.15	1.3622	.00013
.0145	.0218	288.15	1.3626	.00013
.0078	.0256	288.15	1.3628	.00013
0	.0294	288.15	1.363	.00013
.0126	0	293.15	1.3395	.00013
.0094	.0018	293.15	1.3399	.00013
.0064	.0035	293.15	1.34	.00013
.0033	.0048	293.15	1.3401	.00013
.0016	.0055	293.15	1.3403	.00013
0	.0064	293.15	1.3401	.00013
.026	0	293.15	1.3463	.00013
.0196	.0034	293.15	1.3467	.00013
.0132	.0067	293.15	1.3473	.00013
.0066	.0101	293.15	1.3474	.00013
.0033	.0116	293.15	1.3473	.00013
0	.0134	293.15	1.3475	.00013
.0565	0	293.15	1.3598	.00013
.0429	.0073	293.15	1.3608	.00013
.0285	.015	293.15	1.3614	.00013
.0145	.0218	293.15	1.3617	.00013
.0078	.0256	293.15	1.3622	.00013
0	.0294	293.15	1.3624	.00013
.0126	0	298.15	1.339	.00013
.0094	.0018	298.15	1.3393	.00013
.0064	.0035	298.15	1.3395	.00013
.0033	.0048	298.15	1.3396	.00013
.0016	.0055	298.15	1.3397	.00013
0	.0064	298.15	1.3396	.00013
.026	0	298.15	1.346	.00013
.0196	.0034	298.15	1.3463	.00013
.0132	.0067	298.15	1.3467	.00013
.0066	.0101	298.15	1.3469	.00013
.0033	.0116	298.15	1.3468	.00013
0	.0134	298.15	1.3469	.00013
.0565	0	298.15	1.359	.00013
.0429	.0073	298.15	1.3598	.00013
.0285	.015	298.15	1.3605	.00013
.0145	.0218	298.15	1.361	.00013
.0078	.0256	298.15	1.3615	.00013
0	.0294	298.15	1.3618	.00013
.0126	0	303.15	1.3384	.00013
.0094	.0018	303.15	1.3388	.00013
.0064	.0035	303.15	1.339	.00013
.0033	.0048	303.15	1.339	.00013
.0016	.0055	303.15	1.3392	.00013
0	.0064	303.15	1.339	.00013
.026	0	303.15	1.3456	.00013
.0196	.0034	303.15	1.3458	.00013
.0132	.0067	303.15	1.3462	.00013
.0066	.0101	303.15	1.3462	.00013
.0033	.0116	303.15	1.3463	.00013
0	.0134	303.15	1.3463	.00013
.0565	0	303.15	1.3582	.00013
.0429	.0073	303.15	1.3591	.00013
.0285	.015	303.15	1.3595	.00013
.0145	.0218	303.15	1.3603	.00013
.0078	.0256	303.15	1.3608	.00013
0	.0294	303.15	1.3611	.00013
.0126	0	308.15	1.3377	.00013
.0094	.0018	308.15	1.338	.00013
.0064	.0035	308.15	1.3384	.00013
.0033	.0048	308.15	1.3383	.00013
.0016	.0055	308.15	1.3385	.00013
0	.0064	308.15	1.3383	.00013
.026	0	308.15	1.3449	.00013
.0196	.0034	308.15	1.3452	.00013
.0132	.0067	308.15	1.3454	.00013
.0066	.0101	308.15	1.3455	.00013
.0033	.0116	308.15	1.3455	.00013
0	.0134	308.15	1.3456	.00013
.0565	0	308.15	1.3574	.00013
.0429	.0073	308.15	1.3584	.00013
.0285	.015	308.15	1.3588	.00013
.0145	.0218	308.15	1.3595	.00013
.0078	.0256	308.15	1.36	.00013
0	.0294	308.15	1.3603	.00013
.0126	0	313.15	1.337	.00013
.0094	.0018	313.15	1.3374	.00013
.0064	.0035	313.15	1.3376	.00013
.0033	.0048	313.15	1.3376	.00013
.0016	.0055	313.15	1.3378	.00013
0	.0064	313.15	1.3379	.00013
.026	0	313.15	1.3441	.00013
.0196	.0034	313.15	1.3444	.00013
.0132	.0067	313.15	1.3448	.00013
.0066	.0101	313.15	1.3449	.00013
.0033	.0116	313.15	1.3448	.00013
0	.0134	313.15	1.3449	.00013
.0565	0	313.15	1.3564	.00013
.0429	.0073	313.15	1.3574	.00013
.0285	.015	313.15	1.358	.00013
.0145	.0218	313.15	1.3586	.00013
.0078	.0256	313.15	1.3592	.00013
0	.0294	313.15	1.3594	.00013

System: triethanolamine + diisopropanolamine + water; phases: Liquid
Fixed: Pressure, kPa = 101
Property: Mass density, kg/m3 (Liquid); method: Vibrating tube method
Mole fraction of diisopropanolamine	Mole fraction of triethanolamine	Temperature, K	Mass density, kg/m3	uncertainty
.0071	0	288.15	1002.6	.2
.0057	.0019	288.15	1003.5	.2
.0038	.0033	288.15	1004.6	.2
.0018	.0049	288.15	1005.6	.2
.0009	.0056	288.15	1006	.2
0	.0064	288.15	1006.8	.2
.0148	0	288.15	1004.8	.2
.0112	.0034	288.15	1007.5	.2
.0075	.0066	288.15	1009.8	.2
.004	.01	288.15	1012.4	.2
.0019	.0117	288.15	1013.5	.2
0	.0134	288.15	1014.8	.2
.0329	0	288.15	1012.5	.2
.0246	.0075	288.15	1017.2	.2
.0165	.0147	288.15	1021.7	.2
.0084	.0221	288.15	1026.4	.2
.0042	.0256	288.15	1029.1	.2
0	.0294	288.15	1030.9	.2
.0071	0	293.15	1001.6	.2
.0057	.0019	293.15	1002.5	.2
.0038	.0033	293.15	1003.6	.2
.0018	.0049	293.15	1004.6	.2
.0009	.0056	293.15	1005.1	.2
0	.0064	293.15	1005.8	.2
.0148	0	293.15	1003.7	.2
.0112	.0034	293.15	1006.4	.2
.0075	.0066	293.15	1008.7	.2
.004	.01	293.15	1011.3	.2
.0019	.0117	293.15	1012.4	.2
0	.0134	293.15	1013.6	.2
.0329	0	293.15	1011	.2
.0246	.0075	293.15	1015.7	.2
.0165	.0147	293.15	1020.2	.2
.0084	.0221	293.15	1025.1	.2
.0042	.0256	293.15	1027.6	.2
0	.0294	293.15	1029.4	.2
.0071	0	298.15	1000.3	.2
.0057	.0019	298.15	1001.3	.2
.0038	.0033	298.15	1002.3	.2
.0018	.0049	298.15	1003.4	.2
.0009	.0056	298.15	1003.8	.2
0	.0064	298.15	1004.6	.2
.0148	0	298.15	1002.4	.2
.0112	.0034	298.15	1005	.2
.0075	.0066	298.15	1007.3	.2
.004	.01	298.15	1009.9	.2
.0019	.0117	298.15	1011	.2
0	.0134	298.15	1012.2	.2
.0329	0	298.15	1009.3	.2
.0246	.0075	298.15	1014	.2
.0165	.0147	298.15	1018.6	.2
.0084	.0221	298.15	1023.3	.2
.0042	.0256	298.15	1026	.2
0	.0294	298.15	1027.8	.2
.0071	0	303.15	998.9	.2
.0057	.0019	303.15	999.8	.2
.0038	.0033	303.15	1000.9	.2
.0018	.0049	303.15	1001.9	.2
.0009	.0056	303.15	1002.3	.2
0	.0064	303.15	1003.1	.2
.0148	0	303.15	1000.8	.2
.0112	.0034	303.15	1003.5	.2
.0075	.0066	303.15	1005.7	.2
.004	.01	303.15	1008.3	.2
.0019	.0117	303.15	1009.4	.2
0	.0134	303.15	1010.6	.2
.0329	0	303.15	1007.4	.2
.0246	.0075	303.15	1012.2	.2
.0165	.0147	303.15	1016.7	.2
.0084	.0221	303.15	1021.5	.2
.0042	.0256	303.15	1024.1	.2
0	.0294	303.15	1026.1	.2
.0071	0	308.15	997.2	.2
.0057	.0019	308.15	998.1	.2
.0038	.0033	308.15	999.2	.2
.0018	.0049	308.15	1000.2	.2
.0009	.0056	308.15	1000.6	.2
0	.0064	308.15	1001.4	.2
.0148	0	308.15	999	.2
.0112	.0034	308.15	1001.7	.2
.0075	.0066	308.15	1003.9	.2
.004	.01	308.15	1006.5	.2
.0019	.0117	308.15	1007.7	.2
0	.0134	308.15	1008.9	.2
.0329	0	308.15	1005.3	.2
.0246	.0075	308.15	1010.1	.2
.0165	.0147	308.15	1014.7	.2
.0084	.0221	308.15	1019.4	.2
.0042	.0256	308.15	1022.1	.2
0	.0294	308.15	1024	.2
.0071	0	313.15	995.3	.2
.0057	.0019	313.15	996.2	.2
.0038	.0033	313.15	997.3	.2
.0018	.0049	313.15	998.3	.2
.0009	.0056	313.15	998.7	.2
0	.0064	313.15	999.5	.2
.0148	0	313.15	997.1	.2
.0112	.0034	313.15	999.7	.2
.0075	.0066	313.15	1002.1	.2
.004	.01	313.15	1004.5	.2
.0019	.0117	313.15	1005.7	.2
0	.0134	313.15	1006.9	.2
.0329	0	313.15	1003.2	.2
.0246	.0075	313.15	1007.8	.2
.0165	.0147	313.15	1012.4	.2
.0084	.0221	313.15	1017.2	.2
.0042	.0256	313.15	1019.9	.2
0	.0294	313.15	1021.8	.2
.0071	0	323.15	990.6	.2
.0057	.0019	323.15	991.8	.2
.0038	.0033	323.15	993	.2
.0018	.0049	323.15	994.2	.2
.0009	.0056	323.15	994.5	.2
0	.0064	323.15	995	.2
.0148	0	323.15	993	.2
.0112	.0034	323.15	995.4	.2
.0075	.0066	323.15	997.8	.2
.004	.01	323.15	1000.1	.2
.0019	.0117	323.15	1001.1	.2
0	.0134	323.15	1002.3	.2
.0329	0	323.15	998.4	.2
.0246	.0075	323.15	1003.1	.2
.0165	.0147	323.15	1007.8	.2
.0084	.0221	323.15	1012.6	.2
.0042	.0256	323.15	1014.9	.2
0	.0294	323.15	1017.3	.2
.0071	0	333.15	982.3	.2
.0057	.0019	333.15	984	.2
.0038	.0033	333.15	985.7	.2
.0018	.0049	333.15	986.6	.2
.0009	.0056	333.15	987.4	.2
0	.0064	333.15	988.6	.2
.0148	0	333.15	987.6	.2
.0112	.0034	333.15	990.3	.2
.0075	.0066	333.15	992.6	.2
.004	.01	333.15	994.1	.2
.0019	.0117	333.15	995.3	.2
0	.0134	333.15	996.2	.2
.0329	0	333.15	992.8	.2
.0246	.0075	333.15	997.5	.2
.0165	.0147	333.15	1002.2	.2
.0084	.0221	333.15	1006.9	.2
.0042	.0256	333.15	1009.5	.2
0	.0294	333.15	1011.2	.2

System: triethanolamine + diisopropanolamine + water; phases: Liquid
Fixed: Pressure, kPa = 101
Property: Speed of sound, m/s (Liquid); method: Sing-around technique in a fixed-path interferometer
Mole fraction of diisopropanolamine	Mole fraction of triethanolamine	Temperature, K	Speed of sound, m/s	uncertainty
.0071	0	288.15	1504.7	1.2
.0057	.0019	288.15	1503.8	1.2
.0038	.0033	288.15	1501.7	1.2
.0018	.0049	288.15	1495.7	1.2
.0009	.0056	288.15	1492.8	1.2
0	.0064	288.15	1491.4	1.2
.0148	0	288.15	1540.1	1.2
.0112	.0034	288.15	1537.6	1.2
.0075	.0066	288.15	1530.2	1.2
.004	.01	288.15	1525.4	1.2
.0019	.0117	288.15	1521.3	1.2
0	.0134	288.15	1517.8	1.2
.0329	0	288.15	1623.6	1.2
.0246	.0075	288.15	1610	1.2
.0165	.0147	288.15	1597.8	1.2
.0084	.0221	288.15	1584.8	1.2
.0042	.0256	288.15	1579.4	1.2
0	.0294	288.15	1570.1	1.2
.0071	0	293.15	1518.4	1.2
.0057	.0019	293.15	1517.7	1.2
.0038	.0033	293.15	1515.6	1.2
.0018	.0049	293.15	1509.9	1.2
.0009	.0056	293.15	1507.2	1.2
0	.0064	293.15	1506.2	1.2
.0148	0	293.15	1551.4	1.2
.0112	.0034	293.15	1548.6	1.2
.0075	.0066	293.15	1542.2	1.2
.004	.01	293.15	1537.5	1.2
.0019	.0117	293.15	1533.6	1.2
0	.0134	293.15	1531	1.2
.0329	0	293.15	1627.6	1.2
.0246	.0075	293.15	1616.3	1.2
.0165	.0147	293.15	1604.1	1.2
.0084	.0221	293.15	1592.5	1.2
.0042	.0256	293.15	1587.6	1.2
0	.0294	293.15	1579	1.2
.0071	0	298.15	1529.9	1.2
.0057	.0019	298.15	1529.6	1.2
.0038	.0033	298.15	1527.9	1.2
.0018	.0049	298.15	1522.3	1.2
.0009	.0056	298.15	1519.7	1.2
0	.0064	298.15	1518.9	1.2
.0148	0	298.15	1560.6	1.2
.0112	.0034	298.15	1558.1	1.2
.0075	.0066	298.15	1552.2	1.2
.004	.01	298.15	1547.9	1.2
.0019	.0117	298.15	1544.3	1.2
0	.0134	298.15	1541.8	1.2
.0329	0	298.15	1630.1	1.2
.0246	.0075	298.15	1620.1	1.2
.0165	.0147	298.15	1609.1	1.2
.0084	.0221	298.15	1598.5	1.2
.0042	.0256	298.15	1594.1	1.2
0	.0294	298.15	1586	1.2
.0071	0	303.15	1539.8	1.2
.0057	.0019	303.15	1539.3	1.2
.0038	.0033	303.15	1538.4	1.2
.0018	.0049	303.15	1533.1	1.2
.0009	.0056	303.15	1530.7	1.2
0	.0064	303.15	1529.4	1.2
.0148	0	303.15	1567.8	1.2
.0112	.0034	303.15	1566.1	1.2
.0075	.0066	303.15	1560.6	1.2
.004	.01	303.15	1556.3	1.2
.0019	.0117	303.15	1553	1.2
0	.0134	303.15	1550.7	1.2
.0329	0	303.15	1631.6	1.2
.0246	.0075	303.15	1622.5	1.2
.0165	.0147	303.15	1612.8	1.2
.0084	.0221	303.15	1603.1	1.2
.0042	.0256	303.15	1599.3	1.2
0	.0294	303.15	1592.3	1.2
.0071	0	308.15	1548.3	1.2
.0057	.0019	308.15	1548	1.2
.0038	.0033	308.15	1546.6	1.2
.0018	.0049	308.15	1542	1.2
.0009	.0056	308.15	1539.7	1.2
0	.0064	308.15	1538.8	1.2
.0148	0	308.15	1574.2	1.2
.0112	.0034	308.15	1572.6	1.2
.0075	.0066	308.15	1567.6	1.2
.004	.01	308.15	1564.1	1.2
.0019	.0117	308.15	1560.6	1.2
0	.0134	308.15	1558.5	1.2
.0329	0	308.15	1632.2	1.2
.0246	.0075	308.15	1624.2	1.2
.0165	.0147	308.15	1615.5	1.2
.0084	.0221	308.15	1606.8	1.2
.0042	.0256	308.15	1603.3	1.2
0	.0294	308.15	1597	1.2
.0071	0	313.15	1555.2	1.2
.0057	.0019	313.15	1555.4	1.2
.0038	.0033	313.15	1553.8	1.2
.0018	.0049	313.15	1549.7	1.2
.0009	.0056	313.15	1547.3	1.2
0	.0064	313.15	1546.7	1.2
.0148	0	313.15	1579.1	1.2
.0112	.0034	313.15	1577.7	1.2
.0075	.0066	313.15	1573.2	1.2
.004	.01	313.15	1569.9	1.2
.0019	.0117	313.15	1567.1	1.2
0	.0134	313.15	1565	1.2
.0329	0	313.15	1631.8	1.2
.0246	.0075	313.15	1624.7	1.2
.0165	.0147	313.15	1617.3	1.2
.0084	.0221	313.15	1609.3	1.2
.0042	.0256	313.15	1606.3	1.2
0	.0294	313.15	1600.6	1.2
.0071	0	323.15	1565.4	1.2
.0057	.0019	323.15	1564.1	1.2
.0038	.0033	323.15	1563	1.2
.0018	.0049	323.15	1559.9	1.2
.0009	.0056	323.15	1560.1	1.2
0	.0064	323.15	1558.2	1.2
.0148	0	323.15	1587.3	1.2
.0112	.0034	323.15	1583.4	1.2
.0075	.0066	323.15	1580.5	1.2
.004	.01	323.15	1576.8	1.2
.0019	.0117	323.15	1574.9	1.2
0	.0134	323.15	1573.2	1.2
.0329	0	323.15	1629.9	1.2
.0246	.0075	323.15	1623.1	1.2
.0165	.0147	323.15	1617	1.2
.0084	.0221	323.15	1611.4	1.2
.0042	.0256	323.15	1607.2	1.2
0	.0294	323.15	1604.6	1.2
.0071	0	333.15	1570.2	1.2
.0057	.0019	333.15	1569.2	1.2
.0038	.0033	333.15	1568.6	1.2
.0018	.0049	333.15	1565.7	1.2
.0009	.0056	333.15	1565.9	1.2
0	.0064	333.15	1564.3	1.2
.0148	0	333.15	1588.2	1.2
.0112	.0034	333.15	1585.3	1.2
.0075	.0066	333.15	1583.1	1.2
.004	.01	333.15	1580	1.2
.0019	.0117	333.15	1578.6	1.2
0	.0134	333.15	1577.1	1.2
.0329	0	333.15	1623.1	1.2
.0246	.0075	333.15	1617.4	1.2
.0165	.0147	333.15	1613.1	1.2
.0084	.0221	333.15	1609.1	1.2
.0042	.0256	333.15	1605.7	1.2
0	.0294	333.15	1603.5	1.2

System: triethanolamine + diisopropanolamine + water; phases: Liquid
Fixed: Pressure, kPa = 101
Property: Viscosity, Pa*s (Liquid); method: Capillary tube (Ostwald; Ubbelohde) method
Mole fraction of diisopropanolamine	Mole fraction of triethanolamine	Temperature, K	Viscosity, Pa*s	uncertainty
.0071	0	288.15	.001478	.0000026
.0057	.0019	288.15	.001438	.0000026
.0038	.0033	288.15	.001427	.0000026
.0018	.0049	288.15	.001368	.0000026
.0009	.0056	288.15	.00134	.0000026
0	.0064	288.15	.001304	.0000026
.0148	0	288.15	.001834	.0000026
.0112	.0034	288.15	.001772	.0000026
.0075	.0066	288.15	.001749	.0000026
.004	.01	288.15	.00173	.0000026
.0019	.0117	288.15	.001652	.0000026
0	.0134	288.15	.00157	.0000026
.0329	0	288.15	.003378	.0000026
.0246	.0075	288.15	.003191	.0000026
.0165	.0147	288.15	.00294	.0000026
.0084	.0221	288.15	.002729	.0000026
.0042	.0256	288.15	.0026	.0000026
0	.0294	288.15	.0024	.0000026
.0071	0	293.15	.001261	.0000026
.0057	.0019	293.15	.001245	.0000026
.0038	.0033	293.15	.001235	.0000026
.0018	.0049	293.15	.001185	.0000026
.0009	.0056	293.15	.001153	.0000026
0	.0064	293.15	.001141	.0000026
.0148	0	293.15	.00161	.0000026
.0112	.0034	293.15	.001525	.0000026
.0075	.0066	293.15	.001509	.0000026
.004	.01	293.15	.001465	.0000026
.0019	.0117	293.15	.001444	.0000026
0	.0134	293.15	.00133	.0000026
.0329	0	293.15	.002803	.0000026
.0246	.0075	293.15	.002664	.0000026
.0165	.0147	293.15	.00246	.0000026
.0084	.0221	293.15	.002315	.0000026
.0042	.0256	293.15	.00221	.0000026
0	.0294	293.15	.00207	.0000026
.0071	0	298.15	.001097	.0000026
.0057	.0019	298.15	.001072	.0000026
.0038	.0033	298.15	.001075	.0000026
.0018	.0049	298.15	.001026	.0000026
.0009	.0056	298.15	.001007	.0000026
0	.0064	298.15	.000998	.0000026
.0148	0	298.15	.00137	.0000026
.0112	.0034	298.15	.001319	.0000026
.0075	.0066	298.15	.00131	.0000026
.004	.01	298.15	.001282	.0000026
.0019	.0117	298.15	.001267	.0000026
0	.0134	298.15	.001161	.0000026
.0329	0	298.15	.002363	.0000026
.0246	.0075	298.15	.002248	.0000026
.0165	.0147	298.15	.002051	.0000026
.0084	.0221	298.15	.001977	.0000026
.0042	.0256	298.15	.00191	.0000026
0	.0294	298.15	.001789	.0000026
.0071	0	303.15	.000958	.0000026
.0057	.0019	303.15	.000931	.0000026
.0038	.0033	303.15	.00093	.0000026
.0018	.0049	303.15	.000892	.0000026
.0009	.0056	303.15	.000873	.0000026
0	.0064	303.15	.000872	.0000026
.0148	0	303.15	.001211	.0000026
.0112	.0034	303.15	.001146	.0000026
.0075	.0066	303.15	.001133	.0000026
.004	.01	303.15	.001126	.0000026
.0019	.0117	303.15	.001116	.0000026
0	.0134	303.15	.001039	.0000026
.0329	0	303.15	.00208	.0000026
.0246	.0075	303.15	.001915	.0000026
.0165	.0147	303.15	.001762	.0000026
.0084	.0221	303.15	.001706	.0000026
.0042	.0256	303.15	.00166	.0000026
0	.0294	303.15	.00157	.0000026
.0071	0	308.15	.000834	.0000026
.0057	.0019	308.15	.000813	.0000026
.0038	.0033	308.15	.000805	.0000026
.0018	.0049	308.15	.000769	.0000026
.0009	.0056	308.15	.000756	.0000026
0	.0064	308.15	.000765	.0000026
.0148	0	308.15	.001046	.0000026
.0112	.0034	308.15	.001011	.0000026
.0075	.0066	308.15	.001009	.0000026
.004	.01	308.15	.000997	.0000026
.0019	.0117	308.15	.000972	.0000026
0	.0134	308.15	.000914	.0000026
.0329	0	308.15	.001803	.0000026
.0246	.0075	308.15	.001642	.0000026
.0165	.0147	308.15	.00156	.0000026
.0084	.0221	308.15	.001507	.0000026
.0042	.0256	308.15	.001454	.0000026
0	.0294	308.15	.001369	.0000026
.0071	0	313.15	.000738	.0000026
.0057	.0019	313.15	.000708	.0000026
.0038	.0033	313.15	.000712	.0000026
.0018	.0049	313.15	.000673	.0000026
.0009	.0056	313.15	.000654	.0000026
0	.0064	313.15	.000664	.0000026
.0148	0	313.15	.000914	.0000026
.0112	.0034	313.15	.000889	.0000026
.0075	.0066	313.15	.000889	.0000026
.004	.01	313.15	.000859	.0000026
.0019	.0117	313.15	.000848	.0000026
0	.0134	313.15	.000801	.0000026
.0329	0	313.15	.00154	.0000026
.0246	.0075	313.15	.001429	.0000026
.0165	.0147	313.15	.001324	.0000026
.0084	.0221	313.15	.001308	.0000026
.0042	.0256	313.15	.00126	.0000026
0	.0294	313.15	.001204	.0000026
.0071	0	323.15	.000597	.0000026
.0057	.0019	323.15	.000579	.0000026
.0038	.0033	323.15	.000574	.0000026
.0018	.0049	323.15	.000565	.0000026
.0009	.0056	323.15	.00056	.0000026
0	.0064	323.15	.000555	.0000026
.0148	0	323.15	.000775	.0000026
.0112	.0034	323.15	.000752	.0000026
.0075	.0066	323.15	.000729	.0000026
.004	.01	323.15	.000724	.0000026
.0019	.0117	323.15	.000712	.0000026
0	.0134	323.15	.000688	.0000026
.0329	0	323.15	.0012	.0000026
.0246	.0075	323.15	.00114	.0000026
.0165	.0147	323.15	.0011	.0000026
.0084	.0221	323.15	.00105	.0000026
.0042	.0256	323.15	.00103	.0000026
0	.0294	323.15	.000988	.0000026
.0071	0	333.15	.00056	.0000026
.0057	.0019	333.15	.000542	.0000026
.0038	.0033	333.15	.000533	.0000026
.0018	.0049	333.15	.000529	.0000026
.0009	.0056	333.15	.000526	.0000026
0	.0064	333.15	.00052	.0000026
.0148	0	333.15	.000667	.0000026
.0112	.0034	333.15	.000661	.0000026
.0075	.0066	333.15	.00065	.0000026
.004	.01	333.15	.000644	.0000026
.0019	.0117	333.15	.000627	.0000026
0	.0134	333.15	.000612	.0000026
.0329	0	333.15	.000985	.0000026
.0246	.0075	333.15	.00097	.0000026
.0165	.0147	333.15	.000927	.0000026
.0084	.0221	333.15	.000892	.0000026
.0042	.0256	333.15	.000848	.0000026
0	.0294	333.15	.00082	.0000026

System: triethanolamine + diisopropanolamine + water; phases: Liquid
Fixed: Pressure, kPa = 101
Property: Refractive index (Na D-line) (Liquid); method: Standard Abbe refractometry
Mole fraction of diisopropanolamine	Mole fraction of triethanolamine	Temperature, K	Refractive index (Na D-line)	uncertainty
.0071	0	288.15	1.3405	.00013
.0057	.0019	288.15	1.341	.00013
.0038	.0033	288.15	1.3409	.00013
.0018	.0049	288.15	1.3408	.00013
.0009	.0056	288.15	1.3407	.00013
0	.0064	288.15	1.3406	.00013
.0148	0	288.15	1.347	.00013
.0112	.0034	288.15	1.3477	.00013
.0075	.0066	288.15	1.3477	.00013
.004	.01	288.15	1.3481	.00013
.0019	.0117	288.15	1.3478	.00013
0	.0134	288.15	1.3479	.00013
.0329	0	288.15	1.3626	.00013
.0246	.0075	288.15	1.363	.00013
.0165	.0147	288.15	1.363	.00013
.0084	.0221	288.15	1.3631	.00013
.0042	.0256	288.15	1.3631	.00013
0	.0294	288.15	1.363	.00013
.0071	0	293.15	1.3401	.00013
.0057	.0019	293.15	1.3406	.00013
.0038	.0033	293.15	1.3405	.00013
.0018	.0049	293.15	1.3403	.00013
.0009	.0056	293.15	1.3402	.00013
0	.0064	293.15	1.3401	.00013
.0148	0	293.15	1.3465	.00013
.0112	.0034	293.15	1.3472	.00013
.0075	.0066	293.15	1.3472	.00013
.004	.01	293.15	1.3475	.00013
.0019	.0117	293.15	1.3473	.00013
0	.0134	293.15	1.3475	.00013
.0329	0	293.15	1.3619	.00013
.0246	.0075	293.15	1.3622	.00013
.0165	.0147	293.15	1.3623	.00013
.0084	.0221	293.15	1.3625	.00013
.0042	.0256	293.15	1.3625	.00013
0	.0294	293.15	1.3624	.00013
.0071	0	298.15	1.3396	.00013
.0057	.0019	298.15	1.3401	.00013
.0038	.0033	298.15	1.34	.00013
.0018	.0049	298.15	1.3398	.00013
.0009	.0056	298.15	1.3396	.00013
0	.0064	298.15	1.3396	.00013
.0148	0	298.15	1.346	.00013
.0112	.0034	298.15	1.3467	.00013
.0075	.0066	298.15	1.3467	.00013
.004	.01	298.15	1.3469	.00013
.0019	.0117	298.15	1.3467	.00013
0	.0134	298.15	1.3469	.00013
.0329	0	298.15	1.3613	.00013
.0246	.0075	298.15	1.3617	.00013
.0165	.0147	298.15	1.3616	.00013
.0084	.0221	298.15	1.3618	.00013
.0042	.0256	298.15	1.3618	.00013
0	.0294	298.15	1.3618	.00013
.0071	0	303.15	1.339	.00013
.0057	.0019	303.15	1.3395	.00013
.0038	.0033	303.15	1.3394	.00013
.0018	.0049	303.15	1.3392	.00013
.0009	.0056	303.15	1.3389	.00013
0	.0064	303.15	1.339	.00013
.0148	0	303.15	1.3454	.00013
.0112	.0034	303.15	1.3461	.00013
.0075	.0066	303.15	1.346	.00013
.004	.01	303.15	1.3463	.00013
.0019	.0117	303.15	1.3461	.00013
0	.0134	303.15	1.3463	.00013
.0329	0	303.15	1.3606	.00013
.0246	.0075	303.15	1.3609	.00013
.0165	.0147	303.15	1.361	.00013
.0084	.0221	303.15	1.3612	.00013
.0042	.0256	303.15	1.3611	.00013
0	.0294	303.15	1.3611	.00013
.0071	0	308.15	1.3383	.00013
.0057	.0019	308.15	1.3388	.00013
.0038	.0033	308.15	1.3388	.00013
.0018	.0049	308.15	1.3385	.00013
.0009	.0056	308.15	1.3383	.00013
0	.0064	308.15	1.3383	.00013
.0148	0	308.15	1.3446	.00013
.0112	.0034	308.15	1.3454	.00013
.0075	.0066	308.15	1.3454	.00013
.004	.01	308.15	1.3456	.00013
.0019	.0117	308.15	1.3454	.00013
0	.0134	308.15	1.3456	.00013
.0329	0	308.15	1.3598	.00013
.0246	.0075	308.15	1.36	.00013
.0165	.0147	308.15	1.3601	.00013
.0084	.0221	308.15	1.3604	.00013
.0042	.0256	308.15	1.3604	.00013
0	.0294	308.15	1.3603	.00013
.0071	0	313.15	1.3377	.00013
.0057	.0019	313.15	1.3382	.00013
.0038	.0033	313.15	1.3381	.00013
.0018	.0049	313.15	1.338	.00013
.0009	.0056	313.15	1.3378	.00013
0	.0064	313.15	1.3379	.00013
.0148	0	313.15	1.3439	.00013
.0112	.0034	313.15	1.3446	.00013
.0075	.0066	313.15	1.3446	.00013
.004	.01	313.15	1.3447	.00013
.0019	.0117	313.15	1.3446	.00013
0	.0134	313.15	1.3449	.00013
.0329	0	313.15	1.3589	.00013
.0246	.0075	313.15	1.3592	.00013
.0165	.0147	313.15	1.3592	.00013
.0084	.0221	313.15	1.3596	.00013
.0042	.0256	313.15	1.3596	.00013
0	.0294	313.15	1.3594	.00013

System: 1-amino-2-propanol + water; phases: Liquid
Property: Mass density, kg/m3 (Liquid); method: Vibrating tube method
Mole fraction of 1-amino-2-propanol	Temperature, K	Pressure, kPa	Mass density, kg/m3	uncertainty
.0126	288.15	101.325	999.3	.2
.0126	293.15	101.325	998.3	.2
.0126	298.15	101.325	997	.2
.0126	303.15	101.325	995.6	.2
.0126	308.15	101.325	993.9	.2
.0126	313.15	101.325	992	.2
.0126	323.15	101.325	987.7	.2
.0126	333.15	101.325	982.6	.2
.026	288.15	101.325	1000.1	.2
.026	303.15	101.325	995.9	.2
.026	293.15	101.325	999	.2
.026	308.15	101.325	994.1	.2
.026	313.15	101.325	992.1	.2
.026	323.15	101.325	987.5	.2
.026	298.15	101.325	997.6	.2
.026	333.15	101.325	982.2	.2
.0565	298.15	101.325	999.6	.2
.0565	313.15	101.325	993	.2
.0565	288.15	101.325	1003	.2
.0565	303.15	101.325	997.5	.2
.0565	323.15	101.325	987.8	.2
.0565	308.15	101.325	995.4	.2
.0565	293.15	101.325	1001.4	.2
.0565	333.15	101.325	982.1	.2

System: 1-amino-2-propanol + water; phases: Liquid
Property: Speed of sound, m/s (Liquid); method: Sing-around technique in a fixed-path interferometer
Mole fraction of 1-amino-2-propanol	Temperature, K	Pressure, kPa	Speed of sound, m/s	uncertainty
.0126	288.15	101.325	1506.4	1.2
.026	288.15	101.325	1549.8	1.2
.0565	288.15	101.325	1635.1	1.2
.0126	293.15	101.325	1519.7	1.2
.026	293.15	101.325	1560.1	1.2
.0565	293.15	101.325	1637.9	1.2
.0126	298.15	101.325	1531.3	1.2
.026	298.15	101.325	1568.5	1.2
.0565	298.15	101.325	1640	1.2
.0126	303.15	101.325	1541.9	1.2
.026	303.15	101.325	1574.8	1.2
.0565	303.15	101.325	1641.9	1.2
.0126	308.15	101.325	1550.6	1.2
.026	308.15	101.325	1580.4	1.2
.0565	308.15	101.325	1642.3	1.2
.0126	313.15	101.325	1557.5	1.2
.026	313.15	101.325	1584.7	1.2
.0565	313.15	101.325	1642.4	1.2
.0126	323.15	101.325	1566.6	1.2
.026	323.15	101.325	1590.2	1.2
.0565	323.15	101.325	1636.4	1.2
.0126	333.15	101.325	1571.3	1.2
.026	333.15	101.325	1590.8	1.2
.0565	333.15	101.325	1628.5	1.2

System: 1-amino-2-propanol + water; phases: Liquid
Property: Viscosity, Pa*s (Liquid); method: Capillary tube (Ostwald; Ubbelohde) method
Mole fraction of 1-amino-2-propanol	Temperature, K	Pressure, kPa	Viscosity, Pa*s	uncertainty
.0126	288.15	101.325	.001382	.0000026
.026	288.15	101.325	.001731	.0000026
.0565	288.15	101.325	.002741	.0000026
.0126	293.15	101.325	.001228	.0000026
.026	293.15	101.325	.001488	.0000026
.0565	293.15	101.325	.002334	.0000026
.0126	298.15	101.325	.00103	.0000026
.026	298.15	101.325	.001273	.0000026
.0565	298.15	101.325	.001985	.0000026
.0126	303.15	101.325	.000894	.0000026
.026	303.15	101.325	.001122	.0000026
.0565	303.15	101.325	.001721	.0000026
.0126	308.15	101.325	.000781	.0000026
.026	308.15	101.325	.00099	.0000026
.0565	308.15	101.325	.001493	.0000026
.0126	313.15	101.325	.000682	.0000026
.026	313.15	101.325	.000868	.0000026
.0565	313.15	101.325	.001299	.0000026
.0126	323.15	101.325	.000573	.0000026
.026	323.15	101.325	.00072	.0000026
.0565	323.15	101.325	.001049	.0000026
.0126	333.15	101.325	.000543	.0000026
.026	333.15	101.325	.000636	.0000026
.0565	333.15	101.325	.00086	.0000026

System: 1-amino-2-propanol + water; phases: Liquid
Property: Refractive index (Na D-line) (Liquid); method: Standard Abbe refractometry
Mole fraction of 1-amino-2-propanol	Temperature, K	Pressure, kPa	Refractive index (Na D-line)	uncertainty
.0126	288.15	101.325	1.3399	.00013
.026	288.15	101.325	1.3468	.00013
.0565	288.15	101.325	1.3604	.00013
.0126	293.15	101.325	1.3395	.00013
.026	293.15	101.325	1.3463	.00013
.0565	293.15	101.325	1.3598	.00013
.0126	298.15	101.325	1.339	.00013
.026	298.15	101.325	1.346	.00013
.0565	298.15	101.325	1.359	.00013
.0126	303.15	101.325	1.3384	.00013
.026	303.15	101.325	1.3456	.00013
.0565	303.15	101.325	1.3582	.00013
.0126	308.15	101.325	1.3377	.00013
.026	308.15	101.325	1.3449	.00013
.0565	308.15	101.325	1.3574	.00013
.0126	313.15	101.325	1.337	.00013
.026	313.15	101.325	1.3441	.00013
.0565	313.15	101.325	1.3564	.00013

System: triethanolamine + water; phases: Liquid
Property: Mass density, kg/m3 (Liquid); method: Vibrating tube method
Mole fraction of triethanolamine	Temperature, K	Pressure, kPa	Mass density, kg/m3	uncertainty
.0064	288.15	101.325	1006.8	.2
.0134	288.15	101.325	1014.8	.2
.0294	288.15	101.325	1030.9	.2
.0064	293.15	101.325	1005.8	.2
.0134	293.15	101.325	1013.6	.2
.0294	293.15	101.325	1029.4	.2
.0064	298.15	101.325	1004.6	.2
.0134	298.15	101.325	1012.2	.2
.0294	298.15	101.325	1027.8	.2
.0064	303.15	101.325	1003.1	.2
.0134	303.15	101.325	1010.6	.2
.0294	303.15	101.325	1026	.2
.0064	308.15	101.325	1001.4	.2
.0134	308.15	101.325	1008.9	.2
.0294	308.15	101.325	1024	.2
.0064	313.15	101.325	999.5	.2
.0134	313.15	101.325	1006.9	.2
.0294	313.15	101.325	1021.8	.2
.0064	323.15	101.325	995	.2
.0134	323.15	101.325	1002.3	.2
.0294	323.15	101.325	1017.3	.2
.0064	333.15	101.325	988.6	.2
.0134	333.15	101.325	996.2	.2
.0294	333.15	101.325	1011.2	.2
.0294	303.15	101.325	1026.1	.2

System: triethanolamine + water; phases: Liquid
Property: Speed of sound, m/s (Liquid); method: Sing-around technique in a fixed-path interferometer
Mole fraction of triethanolamine	Temperature, K	Pressure, kPa	Speed of sound, m/s	uncertainty
.0064	288.15	101.325	1491.4	1.2
.0134	288.15	101.325	1517.8	1.2
.0294	288.15	101.325	1570.1	1.2
.0064	293.15	101.325	1506.2	1.2
.0134	293.15	101.325	1531	1.2
.0294	293.15	101.325	1579	1.2
.0064	298.15	101.325	1518.9	1.2
.0134	298.15	101.325	1541.8	1.2
.0294	298.15	101.325	1586	1.2
.0064	303.15	101.325	1529.4	1.2
.0134	303.15	101.325	1550.7	1.2
.0294	303.15	101.325	1594.3	1.2
.0064	308.15	101.325	1538.8	1.2
.0134	308.15	101.325	1558.5	1.2
.0294	308.15	101.325	1597	1.2
.0064	313.15	101.325	1546.7	1.2
.0134	313.15	101.325	1565	1.2
.0294	313.15	101.325	1600.6	1.2
.0064	323.15	101.325	1558.2	1.2
.0134	323.15	101.325	1573.2	1.2
.0294	323.15	101.325	1604.6	1.2
.0064	333.15	101.325	1564.3	1.2
.0134	333.15	101.325	1577.1	1.2
.0294	333.15	101.325	1603.5	1.2
.0294	303.15	101.325	1592.3	1.2

System: triethanolamine + water; phases: Liquid
Property: Viscosity, Pa*s (Liquid); method: Capillary tube (Ostwald; Ubbelohde) method
Mole fraction of triethanolamine	Temperature, K	Pressure, kPa	Viscosity, Pa*s	uncertainty
.0064	288.15	101.325	.001304	.0000026
.0134	288.15	101.325	.00157	.0000026
.0294	288.15	101.325	.0024	.0000026
.0064	293.15	101.325	.001141	.0000026
.0134	293.15	101.325	.00133	.0000026
.0294	293.15	101.325	.00207	.0000026
.0064	298.15	101.325	.000998	.0000026
.0134	298.15	101.325	.001161	.0000026
.0294	298.15	101.325	.001789	.0000026
.0064	303.15	101.325	.000872	.0000026
.0134	303.15	101.325	.001039	.0000026
.0294	303.15	101.325	.001559	.0000026
.0064	308.15	101.325	.000765	.0000026
.0134	308.15	101.325	.000914	.0000026
.0294	308.15	101.325	.001369	.0000026
.0064	313.15	101.325	.000664	.0000026
.0134	313.15	101.325	.000801	.0000026
.0294	313.15	101.325	.001204	.0000026
.0064	323.15	101.325	.000555	.0000026
.0134	323.15	101.325	.000688	.0000026
.0294	323.15	101.325	.000988	.0000026
.0064	333.15	101.325	.000536	.0000026
.0134	333.15	101.325	.000612	.0000026
.0294	333.15	101.325	.00082	.0000026
.0294	303.15	101.325	.00157	.0000026
.0064	333.15	101.325	.00052	.0000026

System: triethanolamine + water; phases: Liquid
Property: Refractive index (Na D-line) (Liquid); method: Standard Abbe refractometry
Mole fraction of triethanolamine	Temperature, K	Pressure, kPa	Refractive index (Na D-line)	uncertainty
.0064	288.15	101.325	1.3406	.00013
.0134	288.15	101.325	1.3479	.00013
.0294	288.15	101.325	1.363	.00013
.0064	293.15	101.325	1.3401	.00013
.0134	293.15	101.325	1.3475	.00013
.0294	293.15	101.325	1.3624	.00013
.0064	298.15	101.325	1.3396	.00013
.0134	298.15	101.325	1.3469	.00013
.0294	298.15	101.325	1.3618	.00013
.0064	303.15	101.325	1.339	.00013
.0134	303.15	101.325	1.3463	.00013
.0294	303.15	101.325	1.3611	.00013
.0064	308.15	101.325	1.3383	.00013
.0134	308.15	101.325	1.3456	.00013
.0294	308.15	101.325	1.3603	.00013
.0064	313.15	101.325	1.3379	.00013
.0134	313.15	101.325	1.3449	.00013
.0294	313.15	101.325	1.3594	.00013

System: diisopropanolamine + water; phases: Liquid
Property: Mass density, kg/m3 (Liquid); method: Vibrating tube method
Mole fraction of diisopropanolamine	Temperature, K	Pressure, kPa	Mass density, kg/m3	uncertainty
.0071	288.15	101.325	1002.6	.2
.0148	288.15	101.325	1004.8	.2
.0329	288.15	101.325	1012.5	.2
.0071	293.15	101.325	1001.6	.2
.0148	293.15	101.325	1003.7	.2
.0329	293.15	101.325	1011	.2
.0071	298.15	101.325	1000.3	.2
.0148	298.15	101.325	1002.4	.2
.0329	298.15	101.325	1009.3	.2
.0071	303.15	101.325	998.9	.2
.0148	303.15	101.325	1000.8	.2
.0329	303.15	101.325	1007.4	.2
.0071	308.15	101.325	997.2	.2
.0148	308.15	101.325	999	.2
.0329	308.15	101.325	1005.3	.2
.0071	313.15	101.325	995.3	.2
.0148	313.15	101.325	997.1	.2
.0329	313.15	101.325	1003.2	.2
.0071	323.15	101.325	990.6	.2
.0148	323.15	101.325	993	.2
.0329	323.15	101.325	998.4	.2
.0071	333.15	101.325	982.3	.2
.0148	333.15	101.325	987.6	.2
.0329	333.15	101.325	992.8	.2

System: diisopropanolamine + water; phases: Liquid
Property: Speed of sound, m/s (Liquid); method: Sing-around technique in a fixed-path interferometer
Mole fraction of diisopropanolamine	Temperature, K	Pressure, kPa	Speed of sound, m/s	uncertainty
.0071	288.15	101.325	1504.7	1.2
.0148	288.15	101.325	1540.1	1.2
.0329	288.15	101.325	1623.6	1.2
.0071	293.15	101.325	1518.4	1.2
.0148	293.15	101.325	1551.4	1.2
.0329	293.15	101.325	1627.6	1.2
.0071	298.15	101.325	1529.9	1.2
.0148	298.15	101.325	1560.6	1.2
.0329	298.15	101.325	1630.1	1.2
.0071	303.15	101.325	1539.8	1.2
.0148	303.15	101.325	1567.8	1.2
.0329	303.15	101.325	1631.6	1.2
.0071	308.15	101.325	1548.3	1.2
.0148	308.15	101.325	1574.2	1.2
.0329	308.15	101.325	1632.2	1.2
.0071	313.15	101.325	1555.2	1.2
.0148	313.15	101.325	1579.1	1.2
.0329	313.15	101.325	1631.8	1.2
.0071	323.15	101.325	1565.4	1.2
.0148	323.15	101.325	1587.3	1.2
.0329	323.15	101.325	1629.9	1.2
.0071	333.15	101.325	1570.2	1.2
.0148	333.15	101.325	1588.2	1.2
.0329	333.15	101.325	1623.1	1.2

System: diisopropanolamine + water; phases: Liquid
Property: Viscosity, Pa*s (Liquid); method: Capillary tube (Ostwald; Ubbelohde) method
Mole fraction of diisopropanolamine	Temperature, K	Pressure, kPa	Viscosity, Pa*s	uncertainty
.0071	288.15	101.325	.001478	.0000026
.0148	288.15	101.325	.001834	.0000026
.0329	288.15	101.325	.003378	.0000026
.0071	293.15	101.325	.001261	.0000026
.0148	293.15	101.325	.00161	.0000026
.0329	293.15	101.325	.002803	.0000026
.0071	298.15	101.325	.001097	.0000026
.0148	298.15	101.325	.00137	.0000026
.0329	298.15	101.325	.002363	.0000026
.0071	303.15	101.325	.000958	.0000026
.0148	303.15	101.325	.001211	.0000026
.0329	303.15	101.325	.00208	.0000026
.0071	308.15	101.325	.000834	.0000026
.0148	308.15	101.325	.001046	.0000026
.0329	308.15	101.325	.001803	.0000026
.0071	313.15	101.325	.000738	.0000026
.0148	313.15	101.325	.000914	.0000026
.0329	313.15	101.325	.00154	.0000026
.0071	323.15	101.325	.000597	.0000026
.0148	323.15	101.325	.000775	.0000026
.0329	323.15	101.325	.0012	.0000026
.0071	333.15	101.325	.00056	.0000026
.0148	333.15	101.325	.000667	.0000026
.0329	333.15	101.325	.000985	.0000026

System: diisopropanolamine + water; phases: Liquid
Property: Refractive index (Na D-line) (Liquid); method: Standard Abbe refractometry
Mole fraction of diisopropanolamine	Temperature, K	Pressure, kPa	Refractive index (Na D-line)	uncertainty
.0071	288.15	101.325	1.3405	.00013
.0148	288.15	101.325	1.347	.00013
.0329	288.15	101.325	1.3626	.00013
.0071	293.15	101.325	1.3401	.00013
.0148	293.15	101.325	1.3465	.00013
.0329	293.15	101.325	1.3619	.00013
.0071	298.15	101.325	1.3396	.00013
.0148	298.15	101.325	1.346	.00013
.0329	298.15	101.325	1.3613	.00013
.0071	303.15	101.325	1.339	.00013
.0148	303.15	101.325	1.3454	.00013
.0329	303.15	101.325	1.3606	.00013
.0071	308.15	101.325	1.3383	.00013
.0148	308.15	101.325	1.3446	.00013
.0329	308.15	101.325	1.3598	.00013
.0071	313.15	101.325	1.3377	.00013
.0148	313.15	101.325	1.3439	.00013
.0329	313.15	101.325	1.3589	.00013
