Measured thermophysical data. Measurement and Modeling of CO2 Frost Points in the CO2 Methane Systems
Source: J. Chem. Eng. Data, 2011, 10.1021/je200261a
Compound 1: methane, CH4, purity 99.995%
Compound 2: carbon dioxide, CO2, purity 99.99%

System: methane + carbon dioxide; phases: Gas, Crystal
Property: Boiling temperature at pressure P, K (Gas); method: DSC/DTA
Mole fraction of carbon dioxide	Pressure, kPa	Boiling temperature at pressure P, K	uncertainty
.108	2031	200.5	.02
.108	4446.1	205.3	.02
.108	1342.4	197.5	.02
.178	2943.2	210.3	.02
.178	1581.5	205.1	.02
.178	869.5	197.4	.02
.178	497.3	191.1	.02
.334	1144	209.5	.02
.334	727	203.8	.02
.334	572	202.6	.02
.334	447.6	199.5	.02
.334	307.1	194.2	.02
.424	854	209.5	.02
.424	478.1	202.5	.02
.424	293.1	196.5	.02
.542	567.8	209.1	.02
.542	328.7	202.7	.02
