Measured thermophysical data. Isothermal Vapor Liquid Equilibrium Data of Propan-1-ol + 2,2,4-Trimethylpentane and Butan-1-ol + 2,2,4-Trimethylpentane at 318.15 K
Source: J. Chem. Eng. Data, 2011, 10.1021/je200279q
Compound 1: propan-1-ol, C3H8O
Compound 2: butan-1-ol, C4H10O
Compound 3: pentane, 2,2,4-trimethyl-, C8H18

System: propan-1-ol; phases: Liquid
Fixed: Pressure, kPa = 101.325
Property: Mass density, kg/m3 (Liquid); method: Pycnometric method
Temperature, K	Mass density, kg/m3	uncertainty
298.15	799.5	

System: propan-1-ol; phases: Liquid
Fixed: Pressure, kPa = 101.325
Property: Refractive index (Na D-line) (Liquid); method: Standard Abbe refractometry
Temperature, K	Refractive index (Na D-line)	uncertainty
298.15	1.3833	

System: butan-1-ol; phases: Liquid
Fixed: Pressure, kPa = 101.325
Property: Mass density, kg/m3 (Liquid); method: Pycnometric method
Temperature, K	Mass density, kg/m3	uncertainty
298.15	805.8	

System: butan-1-ol; phases: Liquid
Fixed: Pressure, kPa = 101.325
Property: Refractive index (Na D-line) (Liquid); method: Standard Abbe refractometry
Temperature, K	Refractive index (Na D-line)	uncertainty
298.15	1.3973	

System: pentane, 2,2,4-trimethyl-; phases: Liquid
Fixed: Pressure, kPa = 101.325
Property: Mass density, kg/m3 (Liquid); method: Pycnometric method
Temperature, K	Mass density, kg/m3	uncertainty
298.15	687.5	

System: pentane, 2,2,4-trimethyl-; phases: Liquid
Fixed: Pressure, kPa = 101.325
Property: Refractive index (Na D-line) (Liquid); method: Standard Abbe refractometry
Temperature, K	Refractive index (Na D-line)	uncertainty
298.15	1.3892	

System: propan-1-ol + pentane, 2,2,4-trimethyl-; phases: Liquid, Gas
Property: Vapor or sublimation pressure, kPa (Liquid); method: Ebulliometric method (Recirculating still)
Mole fraction of propan-1-ol	Temperature, K	Vapor or sublimation pressure, kPa	uncertainty
.0475	318.15	9	.02
.0539	318.15	19.13	.02
.0759	318.15	19.93	.02
.1262	318.15	20.53	.02
.1265	318.15	20.53	.02
.1507	318.15	20.66	.02
.1514	318.15	20.66	.02
.1966	318.15	20.93	.02
.2416	318.15	21.06	.02
.2751	318.15	21.06	.02
.2784	318.15	20.93	.02
.3925	318.15	21.13	.02
.3997	318.15	21.06	.02
.4225	318.15	21	.02
.4294	318.15	21	.02
.506	318.15	20.93	.02
.5673	318.15	20.66	.02
.6061	318.15	20.66	.02
.6248	318.15	20.33	.02
.681	318.15	20.27	.02
.7875	318.15	19.47	.02
.9182	318.15	15.47	.02

System: propan-1-ol + pentane, 2,2,4-trimethyl-; phases: Gas, Liquid
Property: Mole fraction of propan-1-ol (Gas); method: Chromatography
Mole fraction of propan-1-ol	Temperature, K	Mole fraction of propan-1-ol	uncertainty
.0475	318.15	.1888	.02
.0539	318.15	.1948	.02
.0759	318.15	.2467	.02
.1262	318.15	.2719	.02
.1265	318.15	.2742	.02
.1507	318.15	.2903	.02
.1514	318.15	.2906	.02
.1966	318.15	.3083	.02
.2416	318.15	.3186	.02
.2751	318.15	.3206	.02
.2784	318.15	.3294	.02
.3925	318.15	.3317	.02
.3997	318.15	.3371	.02
.4225	318.15	.3534	.02
.4294	318.15	.3596	.02
.506	318.15	.3491	.02
.5673	318.15	.3679	.02
.6061	318.15	.3707	.02
.6248	318.15	.3634	.02
.681	318.15	.3897	.02
.7875	318.15	.4062	.02
.9182	318.15	.5673	.02

System: butan-1-ol + pentane, 2,2,4-trimethyl-; phases: Liquid, Gas
Property: Vapor or sublimation pressure, kPa (Liquid); method: Ebulliometric method (Recirculating still)
Mole fraction of butan-1-ol	Temperature, K	Vapor or sublimation pressure, kPa	uncertainty
.0797	318.15	16.4	.02
.1015	318.15	16.4	.02
.102	318.15	16.4	.02
.1066	318.15	16.33	.02
.3039	318.15	16.13	.02
.3633	318.15	16	.02
.3638	318.15	15.93	.02
.3837	318.15	15.87	.02
.4933	318.15	15.53	.02
.5897	318.15	15.27	.02
.6242	318.15	15.07	.02
.6624	318.15	14.93	.02
.6657	318.15	14.93	.02
.7458	318.15	14.4	.02
.8359	318.15	13.6	.02
.8623	318.15	13	.02
.8831	318.15	12.53	.02
.9191	318.15	11.4	.02
.923	318.15	11.27	.02
.9483	318.15	9.33	.02
.9751	318.15	7.2	.02

System: butan-1-ol + pentane, 2,2,4-trimethyl-; phases: Gas, Liquid
Property: Mole fraction of butan-1-ol (Gas); method: Chromatography
Mole fraction of butan-1-ol	Temperature, K	Mole fraction of butan-1-ol	uncertainty
.0797	318.15	.0991	.02
.1015	318.15	.096	.02
.102	318.15	.1012	.02
.1066	318.15	.1013	.02
.3039	318.15	.1572	.02
.3633	318.15	.1671	.02
.3638	318.15	.1691	.02
.3837	318.15	.17	.02
.4933	318.15	.1768	.02
.5897	318.15	.1888	.02
.6242	318.15	.1905	.02
.6624	318.15	.2011	.02
.6657	318.15	.2033	.02
.7458	318.15	.222	.02
.8359	318.15	.247	.02
.8623	318.15	.2524	.02
.8831	318.15	.2574	.02
.9191	318.15	.2834	.02
.923	318.15	.2936	.02
.9483	318.15	.3532	.02
.9751	318.15	.4642	.02
