Measured thermophysical data. Organic Salt Effect of Tetramethylammonium Bicarbonate  on Vapor-Liquid Equilibrium of the Dimehyl Carbonate +  Methanol System
Source: J. Chem. Eng. Data, 2012, 10.1021/je200697m
Compound 1: methanol, CH4O, purity 99.5%
Compound 2: dimethyl carbonate, C3H6O3, purity 99%
Compound 3: tetramethylammonium bicarbonate, C5H13NO3

System: methanol; phases: Liquid, Gas
Property: Vapor or sublimation pressure, kPa (Liquid); method: Ebulliometric method (Recirculating still)
Temperature, K	Vapor or sublimation pressure, kPa	uncertainty
337.84	101.32	.1333

System: dimethyl carbonate; phases: Liquid, Gas
Property: Vapor or sublimation pressure, kPa (Liquid); method: Ebulliometric method (Recirculating still)
Temperature, K	Vapor or sublimation pressure, kPa	uncertainty
363.41	101.32	.1333

System: methanol + dimethyl carbonate; phases: Liquid, Gas
Property: Boiling temperature at pressure P, K (Liquid); method: Ebulliometric method (Recirculating still)
Mole fraction of dimethyl carbonate	Pressure, kPa	Boiling temperature at pressure P, K	uncertainty
0	101.32	337.84	.05
.0546	101.32	337.66	.05
.0838	101.32	337.45	.05
.1059	101.32	337.36	.05
.151	101.32	336.96	.05
.2185	101.32	337.05	.05
.3547	101.32	337.35	.05
.4162	101.32	337.92	.05
.4829	101.32	338.56	.05
.5531	101.32	339.48	.05
.6434	101.32	341.18	.05
.7315	101.32	343.1	.05
.8447	101.32	347.69	.05
.901	101.32	351.62	.05
.9563	101.32	356.78	.05
1	101.32	363.41	.05

System: methanol + dimethyl carbonate; phases: Gas, Liquid
Property: Mole fraction of dimethyl carbonate (Gas); method: Chromatography
Mole fraction of dimethyl carbonate	Pressure, kPa	Mole fraction of dimethyl carbonate	uncertainty
0	101.32	0	.01
.0546	101.32	.0786	.01
.0838	101.32	.1015	.01
.1059	101.32	.1191	.01
.151	101.32	.1524	.01
.2185	101.32	.1763	.01
.3547	101.32	.2298	.01
.4162	101.32	.2555	.01
.4829	101.32	.2625	.01
.5531	101.32	.2982	.01
.6434	101.32	.3327	.01
.7315	101.32	.3872	.01
.8447	101.32	.5063	.01
.901	101.32	.6197	.01
.9563	101.32	.7701	.01
1	101.32	1	.01

System: methanol + dimethyl carbonate + tetramethylammonium bicarbonate; phases: Gas, Liquid
Fixed: Pressure, kPa = 101.32
Property: Mole fraction of dimethyl carbonate (Gas); method: Chromatography
Mole fraction of tetramethylammonium bicarbonate	Solvent: Mole fraction of dimethyl carbonate	Mole fraction of dimethyl carbonate	uncertainty
.04	.06	.0784	.01
.04	.1201	.16	.01
.04	.16	.1782	.01
.04	.1999	.1916	.01
.04	.3	.2387	.01
.04	.4	.2692	.01
.04	.5	.3137	.01
.04	.6499	.3536	.01
.04	.75	.4021	.01
.04	.9298	.7039	.01
.07	.06	.0849	.01
.07	.1201	.1639	.01
.07	.16	.1916	.01
.07	.1999	.2101	.01
.07	.3	.2679	.01
.07	.4	.2962	.01
.07	.5	.3386	.01
.07	.6499	.3878	.01
.07	.75	.431	.01
.07	.9298	.6691	.01
.1	.06	.0941	.01
.1	.1201	.1822	.01
.1	.16	.2325	.01
.1	.1999	.266	.01
.1	.3	.3018	.01
.1	.4	.3238	.01
.1	.5	.3596	.01
.1	.6499	.4274	.01
.1	.75	.4677	.01
.1	.8499	.5787	.01

System: methanol + dimethyl carbonate + tetramethylammonium bicarbonate; phases: Liquid, Gas
Fixed: Pressure, kPa = 101.32
Property: Boiling temperature at pressure P, K (Liquid); method: Ebulliometric method (Recirculating still)
Mole fraction of tetramethylammonium bicarbonate	Solvent: Mole fraction of dimethyl carbonate	Boiling temperature at pressure P, K	uncertainty
.04	.06	339.56	.05
.04	.1201	339.06	.05
.04	.16	338.93	.05
.04	.1999	338.86	.05
.04	.3	339.29	.05
.04	.4	340.07	.05
.04	.5	341.37	.05
.04	.6499	343.98	.05
.04	.75	346.5	.05
.04	.9298	357.95	.05
.07	.06	341.83	.05
.07	.1201	341.17	.05
.07	.16	341.05	.05
.07	.1999	340.97	.05
.07	.3	341.17	.05
.07	.4	341.68	.05
.07	.5	343.2	.05
.07	.6499	345.55	.05
.07	.75	347.52	.05
.07	.9298	357.34	.05
.1	.06	344.8	.05
.1	.1201	343.8	.05
.1	.16	343.6	.05
.1	.1999	343.41	.05
.1	.3	343.31	.05
.1	.4	343.92	.05
.1	.5	345.42	.05
.1	.6499	347.83	.05
.1	.75	349.74	.05
.1	.8499	353.67	.05
.1	.9298	358.25	.05

System: methanol + tetramethylammonium bicarbonate; phases: Liquid, Gas
Property: Vapor or sublimation pressure, kPa (Liquid); method: Ebulliometric method (Recirculating still)
Mole fraction of tetramethylammonium bicarbonate	Temperature, K	Vapor or sublimation pressure, kPa	uncertainty
.04	340.53	101.32	.133
.04	334.53	78.89	.133
.04	333.27	74.9	.133
.04	332.06	70.91	.133
.04	330.98	67.72	.133
.04	329.1	62.94	.133
.04	326.37	56.02	.133
.04	321.24	45.66	.133
.04	315.19	34.49	.133
.04	312.97	31.03	.133
.04	309.38	25.98	.133
.07	343.09	101.32	.133
.07	341.48	94.82	.133
.07	340.06	89.5	.133
.07	338.46	84.19	.133
.07	336.85	78.87	.133
.07	335.13	73.56	.133
.07	333.08	67.71	.133
.07	331.31	62.92	.133
.07	329.16	57.61	.133
.07	325.69	49.63	.133
.07	319.83	39	.133
.07	317.01	34.48	.133
.07	314.78	31.03	.133
.07	312.92	28.37	.133
.1	346.32	101.32	.133
.1	344.7	94.82	.133
.1	343.19	89.5	.133
.1	340.83	81.53	.133
.1	338.18	73.55	.133
.1	336.14	67.71	.133
.1	334.33	62.92	.133
.1	329.82	52.29	.133
.1	325.98	44.31	.133
.1	319.81	34.48	.133
.1	318.32	32.35	.133
.1	315.4	28.37	.133
