Measured thermophysical data. Sulfonate-Based Ionic Liquids in the Liquid Liquid Extraction of Aromatic Hydrocarbons
Source: J. Chem. Eng. Data, 2011, 10.1021/je200274h
Compound 1: heptane, C7H16, purity 99.5%
Compound 2: toluene, C7H8, purity 99.7%
Compound 3: 1-ethyl-3-methylimidazolium methanesulfonate, C7H14N2O3S, purity 99%
Compound 4: 1-ethyl-3-methylimidazolium trifluoromethanesulfonate, C7H11F3N2O3S, purity 99%
Compound 5: 1-ethyl-3-methylimidazolium 1,1,2,2-tetrafluoroethanesulfonate, C8H12F4N2O3S, purity 99%

System: toluene + heptane + 1-ethyl-3-methylimidazolium methanesulfonate; phases: Liquid mixture 1, Liquid mixture 2
Fixed: Temperature, K = 313.2
Fixed: Pressure, kPa = 101.3
Property: Mole fraction of heptane (Liquid mixture 1); method: H NMR
Property: Mole fraction of toluene (Liquid mixture 2); method: H NMR
Property: Mole fraction of heptane (Liquid mixture 2); method: H NMR
Mole fraction of toluene	Mole fraction of heptane	uncertainty	Mole fraction of toluene	uncertainty	Mole fraction of heptane	uncertainty
0	1	.003	0	.003	.002	.003
.0454	.9546	.003	.0072	.003	.0019	.003
.0955	.9045	.003	.0133	.003	.0017	.003
.1888	.8112	.003	.0277	.003	.0016	.003
.3021	.6979	.003	.0408	.003	.0014	.003
.4486	.5514	.003	.0582	.003	.0013	.003
.5256	.4744	.003	.0732	.003	.0014	.003
.5991	.4009	.003	.0818	.003	.0013	.003
.6918	.3082	.003	.0965	.003	.0012	.003
.779	.221	.003	.1076	.003	.0009	.003
.8568	.1432	.003	.1184	.003	.0009	.003

System: toluene + heptane + 1-ethyl-3-methylimidazolium trifluoromethanesulfonate; phases: Liquid mixture 1, Liquid mixture 2
Fixed: Temperature, K = 313.2
Fixed: Pressure, kPa = 101.3
Property: Mole fraction of heptane (Liquid mixture 1); method: H NMR
Property: Mole fraction of toluene (Liquid mixture 2); method: H NMR
Property: Mole fraction of heptane (Liquid mixture 2); method: H NMR
Mole fraction of toluene	Mole fraction of heptane	uncertainty	Mole fraction of toluene	uncertainty	Mole fraction of heptane	uncertainty
0	1	.003	0	.003	.0082	.003
.0386	.9614	.003	.0131	.003	.0076	.003
.0801	.9199	.003	.0276	.003	.0073	.003
.1612	.8388	.003	.0622	.003	.0078	.003
.236	.764	.003	.0791	.003	.0085	.003
.3949	.6051	.003	.1332	.003	.0071	.003
.5148	.4852	.003	.1416	.003	.0051	.003
.5847	.4153	.003	.157	.003	.0053	.003
.6668	.3332	.003	.2076	.003	.0054	.003
.7699	.2301	.003	.2433	.003	.0045	.003
.8506	.1494	.003	.2718	.003	.0033	.003
1	0	.003	.3586	.003	0	.003

System: toluene + heptane + 1-ethyl-3-methylimidazolium 1,1,2,2-tetrafluoroethanesulfonate; phases: Liquid mixture 1, Liquid mixture 2
Fixed: Temperature, K = 313.2
Fixed: Pressure, kPa = 101.3
Property: Mole fraction of heptane (Liquid mixture 1); method: H NMR
Property: Mole fraction of toluene (Liquid mixture 2); method: H NMR
Property: Mole fraction of heptane (Liquid mixture 2); method: H NMR
Mole fraction of toluene	Mole fraction of heptane	uncertainty	Mole fraction of toluene	uncertainty	Mole fraction of heptane	uncertainty
0	1	.003	0	.003	.0049	.003
.0395	.9605	.003	.0124	.003	.0056	.003
.0804	.9196	.003	.0247	.003	.0056	.003
.1721	.8279	.003	.0473	.003	.0049	.003
.2835	.7165	.003	.0754	.003	.0049	.003
.4214	.5786	.003	.1073	.003	.0045	.003
.5206	.4794	.003	.1313	.003	.0043	.003
.5909	.4091	.003	.1497	.003	.0038	.003
.6836	.3164	.003	.1761	.003	.0035	.003
.7768	.2232	.003	.1929	.003	.0026	.003
.8549	.1451	.003	.2173	.003	.0022	.003
1	0	.003	.2714	.003	0	.003
