Measured thermophysical data. Evaluation of the Performance of Four Solvents for the Liquid Liquid Extraction of Acrylic Acid from Water
Source: J. Chem. Eng. Data, 2012, 10.1021/je201130h
Compound 1: water, H2O
Compound 2: vinylformic acid, C3H4O2, purity 99%
Compound 3: 4-methyl-2-pentanone, C6H12O, purity 99.5%
Compound 4: toluene, C7H8, purity 99.5%
Compound 5: 1,2-dimethylbenzene, C8H10, purity 99.5%
Compound 6: 1,4-xylene, C8H10, purity 99.5%

System: water; phases: Liquid
Fixed: Pressure, kPa = 101.325
Property: Mass density, kg/m3 (Liquid); method: Vibrating tube method
Temperature, K	Mass density, kg/m3	uncertainty
298.15	997.02	.1

System: vinylformic acid; phases: Liquid
Fixed: Pressure, kPa = 101.325
Property: Mass density, kg/m3 (Liquid); method: Vibrating tube method
Temperature, K	Mass density, kg/m3	uncertainty
298.15	1059.17	.1

System: 4-methyl-2-pentanone; phases: Liquid
Fixed: Pressure, kPa = 101.325
Property: Mass density, kg/m3 (Liquid); method: Vibrating tube method
Temperature, K	Mass density, kg/m3	uncertainty
298.15	798.09	.1

System: toluene; phases: Liquid
Fixed: Pressure, kPa = 101.325
Property: Mass density, kg/m3 (Liquid); method: Vibrating tube method
Temperature, K	Mass density, kg/m3	uncertainty
298.15	862.34	.1

System: 1,2-dimethylbenzene; phases: Liquid
Fixed: Pressure, kPa = 101.325
Property: Mass density, kg/m3 (Liquid); method: Vibrating tube method
Temperature, K	Mass density, kg/m3	uncertainty
298.15	875.52	.1

System: 1,4-xylene; phases: Liquid
Fixed: Pressure, kPa = 101.325
Property: Mass density, kg/m3 (Liquid); method: Vibrating tube method
Temperature, K	Mass density, kg/m3	uncertainty
298.15	856.65	.1

System: vinylformic acid + 4-methyl-2-pentanone + water; phases: Liquid mixture 1, Liquid mixture 2
Fixed: Pressure, kPa = 101
Fixed: Temperature, K = 298.15
Property: Mass fraction of 4-methyl-2-pentanone (Liquid mixture 1); method: Titration method
Mass fraction of water	Mass fraction of 4-methyl-2-pentanone	uncertainty
.915	.016	
.91	.02	
.745	.038	
.674	.054	
.66	.062	
.603	.086	
.459	.156	
.401	.194	
.33	.235	
.281	.289	
.223	.354	
.174	.444	
.039	.763	
.038	.763	
.017	.93	

System: vinylformic acid + 4-methyl-2-pentanone + water; phases: Liquid mixture 1, Liquid mixture 2
Fixed: Temperature, K = 298.15
Fixed: Pressure, kPa = 101
Property: Mass density, kg/m3 (Liquid mixture 1); method: Vibrating tube method
Mass fraction of water	Mass density, kg/m3	uncertainty
.915	1003.877	.1
.91	1002.178	.1
.745	1017.122	.1
.674	1017.745	.1
.66	1019.782	.1
.603	1014.057	.1
.459	1000.676	.1
.401	993.278	.1
.33	987.56	.1
.281	973.664	.1
.223	955.597	.1
.174	934.445	.1
.039	857.004	.1
.038	848.639	.1
.017	810.479	.1

System: vinylformic acid + 4-methyl-2-pentanone + water; phases: Liquid mixture 1, Liquid mixture 2
Fixed: Pressure, kPa = 101
Fixed: Temperature, K = 298.15
Property: Mass density, kg/m3 (Liquid mixture 1); method: Vibrating tube method
Mass fraction of water	Mass density, kg/m3	uncertainty
.99	997.307	.1
.987	998.048	.1
.98	998.453	.1
.97	1000.152	.1
.92	1001.881	.1
.914	1004.49	.1
.911	1001.447	.1
.91	1003.205	.1
.89	1007.306	.1

System: vinylformic acid + 4-methyl-2-pentanone + water; phases: Liquid mixture 2, Liquid mixture 1
Fixed: Temperature, K = 298.15
Fixed: Pressure, kPa = 101
Property: Mass density, kg/m3 (Liquid mixture 2); method: Vibrating tube method
Mass fraction of 4-methyl-2-pentanone	Mass density, kg/m3	uncertainty
.905	817.78	.1
.89	820.629	.1
.87	825.437	.1
.785	846.247	.1
.76	851.885	.1
.675	873.872	.1
.765	852.757	.1
.705	866.383	.1
.695	867.806	.1

System: vinylformic acid + 4-methyl-2-pentanone + water; phases: Liquid mixture 1, Liquid mixture 2
Fixed: Temperature, K = 298.15
Fixed: Pressure, kPa = 101.3
Property: Mass fraction of 4-methyl-2-pentanone (Liquid mixture 1); method: Titration method
Property: Mass fraction of 4-methyl-2-pentanone (Liquid mixture 2); method: Titration method
Property: Mass fraction of water (Liquid mixture 2); method: Titration method
Mass fraction of water	Mass fraction of 4-methyl-2-pentanone	uncertainty	Mass fraction of 4-methyl-2-pentanone	uncertainty	Mass fraction of water	uncertainty
.99	.008	.05	.905	.05	.02	.05
.987	.009	.05	.89	.05	.025	.05
.98	.012	.05	.87	.05	.025	.05
.97	.022	.05	.785	.05	.035	.05
.92	.02	.05	.76	.05	.045	.05
.914	.025	.05	.675	.05	.08	.05
.911	.012	.05	.765	.05	.035	.05
.91	.02	.05	.705	.05	.065	.05
.89	.03	.05	.695	.05	.07	.05

System: vinylformic acid + toluene + water; phases: Liquid mixture 1, Liquid mixture 2
Fixed: Pressure, kPa = 101
Fixed: Temperature, K = 298.15
Property: Mass fraction of toluene (Liquid mixture 1); method: Titration method
Mass fraction of water	Mass fraction of toluene	uncertainty
.896	.006	
.802	.008	
.763	.023	
.702	.028	
.501	.063	
.41	.048	
.291	.08	
.27	.093	
.265	.097	
.237	.116	
.202	.162	
.087	.353	
.061	.426	
.041	.488	
.025	.557	
.023	.598	
.019	.603	
.014	.638	

System: vinylformic acid + toluene + water; phases: Liquid mixture 1, Liquid mixture 2
Fixed: Temperature, K = 298.15
Fixed: Pressure, kPa = 101
Property: Mass density, kg/m3 (Liquid mixture 1); method: Vibrating tube method
Mass fraction of water	Mass density, kg/m3	uncertainty
.896	1019.122	.1
.802	1028.273	.1
.763	1035.054	.1
.702	1040.413	.1
.501	1055.055	.1
.41	1048.867	.1
.291	1051.332	.1
.27	1047.139	.1
.265	1043.938	.1
.237	1041.346	.1
.202	1029.029	.1
.087	982.97	.1
.061	964.85	.1
.041	952.492	.1
.025	940.435	.1
.023	935.357	.1
.019	931.286	.1
.014	927.332	.1

System: vinylformic acid + toluene + water; phases: Liquid mixture 1, Liquid mixture 2
Fixed: Temperature, K = 298.15
Fixed: Pressure, kPa = 101
Property: Mass density, kg/m3 (Liquid mixture 1); method: Vibrating tube method
Mass fraction of water	Mass density, kg/m3	uncertainty
.97	1005.182	.1
.86	1022.064	.1
.81	1028.195	.1
.79	1031.207	.1
.71	1038.607	.1
.705	1039.441	.1
.7	1039.5	.1
.69	1041.699	.1
.66	1044.831	.1
.64	1045.538	.1
.62	1049.231	.1
.59	1050.91	.1

System: vinylformic acid + toluene + water; phases: Liquid mixture 2, Liquid mixture 1
Fixed: Pressure, kPa = 101
Fixed: Temperature, K = 298.15
Property: Mass density, kg/m3 (Liquid mixture 2); method: Vibrating tube method
Mass fraction of toluene	Mass density, kg/m3	uncertainty
.98	868.776	.1
.92	878.559	.1
.9	883.291	.1
.88	886.155	.1
.865	891.688	.1
.85	891.376	.1
.84	892.731	.1
.83	894.163	.1
.817	896.775	.1
.82	897.35	.1
.795	900.517	.1
.775	904.007	.1

System: vinylformic acid + toluene + water; phases: Liquid mixture 1, Liquid mixture 2
Fixed: Temperature, K = 298.15
Fixed: Pressure, kPa = 101.3
Property: Mass fraction of toluene (Liquid mixture 1); method: Titration method
Property: Mass fraction of toluene (Liquid mixture 2); method: Titration method
Property: Mass fraction of water (Liquid mixture 2); method: Titration method
Mass fraction of water	Mass fraction of toluene	uncertainty	Mass fraction of toluene	uncertainty	Mass fraction of water	uncertainty
.97	.03	.05	.98	.05	.02	.05
.86	.02	.05	.92	.05	.02	.05
.81	.02	.05	.9	.05	.02	.05
.79	.02	.05	.88	.05	.02	.05
.71	.03	.05	.865	.05	.015	.05
.705	.025	.05	.85	.05	.02	.05
.7	.03	.05	.84	.05	.02	.05
.69	.03	.05	.83	.05	.02	.05
.66	.03	.05	.817	.05	.033	.05
.64	.03	.05	.82	.05	.02	.05
.62	.035	.05	.795	.05	.015	.05
.59	.035	.05	.775	.05	.02	.05

System: vinylformic acid + 1,2-dimethylbenzene + water; phases: Liquid mixture 1, Liquid mixture 2
Fixed: Temperature, K = 298.15
Fixed: Pressure, kPa = 101
Property: Mass fraction of 1,2-dimethylbenzene (Liquid mixture 1); method: Titration method
Mass fraction of water	Mass fraction of 1,2-dimethylbenzene	uncertainty
.704	.014	
.474	.022	
.424	.035	
.365	.053	
.3	.054	
.254	.071	
.224	.092	
.188	.13	
.094	.275	
.073	.347	
.056	.396	
.049	.418	
.034	.472	
.022	.519	
.017	.57	
.008	.692	
.007	.848	

System: vinylformic acid + 1,2-dimethylbenzene + water; phases: Liquid mixture 1, Liquid mixture 2
Fixed: Temperature, K = 298.15
Fixed: Pressure, kPa = 101
Property: Mass density, kg/m3 (Liquid mixture 1); method: Vibrating tube method
Mass fraction of water	Mass density, kg/m3	uncertainty
.704	1042.151	.1
.474	1057.934	.1
.424	1058.858	.1
.365	1062.641	.1
.3	1061.855	.1
.254	1057.796	.1
.224	1053.994	.1
.188	1044.222	.1
.094	1007.475	.1
.073	992.907	.1
.056	983.107	.1
.049	978.966	.1
.034	968.762	.1
.022	962.454	.1
.017	950.42	.1
.008	913.954	.1
.007	907.956	.1

System: vinylformic acid + 1,2-dimethylbenzene + water; phases: Liquid mixture 1, Liquid mixture 2
Fixed: Pressure, kPa = 101
Fixed: Temperature, K = 298.15
Property: Mass density, kg/m3 (Liquid mixture 1); method: Vibrating tube method
Mass fraction of water	Mass density, kg/m3	uncertainty
.985	1000.087	.1
.9	1013.043	.1
.885	1015.455	.1
.865	1018.092	.1
.825	1025.301	.1
.82	1026.066	.1
.79	1030.363	.1
.77	1033.287	.1
.765	1034.298	.1
.73	1039.098	.1

System: vinylformic acid + 1,2-dimethylbenzene + water; phases: Liquid mixture 2, Liquid mixture 1
Fixed: Pressure, kPa = 101
Fixed: Temperature, K = 298.15
Property: Mass density, kg/m3 (Liquid mixture 2); method: Vibrating tube method
Mass fraction of 1,2-dimethylbenzene	Mass density, kg/m3	uncertainty
.98	881.275	.1
.85	883.16	.1
.8	892.758	.1
.785	895.284	.1
.755	899.225	.1
.75	899.716	.1
.73	906.52	.1
.725	907.729	.1
.72	908.486	.1
.715	909.932	.1

System: vinylformic acid + 1,2-dimethylbenzene + water; phases: Liquid mixture 1, Liquid mixture 2
Fixed: Temperature, K = 298.15
Fixed: Pressure, kPa = 101.3
Property: Mass fraction of 1,2-dimethylbenzene (Liquid mixture 1); method: Titration method
Property: Mass fraction of 1,2-dimethylbenzene (Liquid mixture 2); method: Titration method
Property: Mass fraction of water (Liquid mixture 2); method: Titration method
Mass fraction of water	Mass fraction of 1,2-dimethylbenzene	uncertainty	Mass fraction of 1,2-dimethylbenzene	uncertainty	Mass fraction of water	uncertainty
.985	.015	.05	.98	.05	.02	.05
.9	.025	.05	.85	.05	.005	.05
.885	.015	.05	.8	.05	.01	.05
.865	.015	.05	.785	.05	.01	.05
.825	.015	.05	.755	.05	.01	.05
.82	.015	.05	.75	.05	.01	.05
.79	.02	.05	.73	.05	.02	.05
.77	.02	.05	.725	.05	.01	.05
.765	.02	.05	.72	.05	.015	.05
.73	.02	.05	.715	.05	.01	.05

System: vinylformic acid + 1,4-xylene + water; phases: Liquid mixture 1, Liquid mixture 2
Fixed: Temperature, K = 298.15
Fixed: Pressure, kPa = 101
Property: Mass fraction of 1,4-xylene (Liquid mixture 1); method: Titration method
Mass fraction of water	Mass fraction of 1,4-xylene	uncertainty
.844	.01	
.785	.015	
.766	.018	
.566	.026	
.395	.026	
.347	.04	
.347	.037	
.301	.04	
.255	.067	
.163	.151	
.091	.278	
.024	.575	
.014	.608	
.013	.625	

System: vinylformic acid + 1,4-xylene + water; phases: Liquid mixture 1, Liquid mixture 2
Fixed: Pressure, kPa = 101
Fixed: Temperature, K = 298.15
Property: Mass density, kg/m3 (Liquid mixture 1); method: Vibrating tube method
Mass fraction of water	Mass density, kg/m3	uncertainty
.844	1015.651	.1
.785	1022.182	.1
.766	1023.055	.1
.566	1042.691	.1
.395	1060.027	.1
.347	1057.796	.1
.347	1051.224	.1
.301	1050.203	.1
.255	1052.619	.1
.163	1031.364	.1
.091	990.528	.1
.024	930.026	.1
.014	919.7	.1
.013	916.773	.1

System: vinylformic acid + 1,4-xylene + water; phases: Liquid mixture 1, Liquid mixture 2
Fixed: Temperature, K = 298.15
Fixed: Pressure, kPa = 101
Property: Mass density, kg/m3 (Liquid mixture 1); method: Vibrating tube method
Mass fraction of water	Mass density, kg/m3	uncertainty
.985	996.688	.1
.9	1009.044	.1
.85	1015.141	.1
.845	1016.141	.1
.83	1017.475	.1
.68	1032.257	.1
.78	1022.594	.1

System: vinylformic acid + 1,4-xylene + water; phases: Liquid mixture 2, Liquid mixture 1
Fixed: Temperature, K = 298.15
Fixed: Pressure, kPa = 101
Property: Mass density, kg/m3 (Liquid mixture 2); method: Vibrating tube method
Mass fraction of 1,4-xylene	Mass density, kg/m3	uncertainty
.98	867.52	.1
.825	877.994	.1
.8	881.694	.1
.79	883.827	.1
.77	886.486	.1
.67	906.62	.1
.78	885.453	.1

System: vinylformic acid + 1,4-xylene + water; phases: Liquid mixture 1, Liquid mixture 2
Fixed: Temperature, K = 298.15
Fixed: Pressure, kPa = 101.3
Property: Mass fraction of 1,4-xylene (Liquid mixture 1); method: Titration method
Property: Mass fraction of 1,4-xylene (Liquid mixture 2); method: Titration method
Property: Mass fraction of water (Liquid mixture 2); method: Titration method
Mass fraction of water	Mass fraction of 1,4-xylene	uncertainty	Mass fraction of 1,4-xylene	uncertainty	Mass fraction of water	uncertainty
.985	.015	.05	.98	.05	.02	.05
.9	.02	.05	.825	.05	.025	.05
.85	.02	.05	.8	.05	.025	.05
.845	.02	.05	.79	.05	.025	.05
.83	.02	.05	.77	.05	.025	.05
.68	.02	.05	.67	.05	.02	.05
.78	.02	.05	.78	.05	.02	.05
