Measured thermophysical data. Determination of Infinite Dilution Partial Molar Excess Enthalpies and Volumes for Some Ionic Liquid Precursors in Water and Methanol Using Tandem Flow Mixing Calorimetry and Vibrating-Tube Densimetry
Source: J. Chem. Eng. Data, 2011, 10.1021/je200093f
Compound 1: 1-methylimidazole, C4H6N2, purity 99%
Compound 2: N-methylpiperidine, C6H13N, purity 99%
Compound 3: N-methylmorpholine, C5H11NO, purity 99.5%
Compound 4: 3-methylpyridine, C6H7N, purity 99.5%
Compound 5: 4-methylpyridine, C6H7N, purity 99%
Compound 6: 2,6-dimethylpyridine, C7H9N, purity 99%
Compound 7: methanol, CH4O, purity 98%
Compound 8: water, H2O, purity 99%

System: 1-methylimidazole; phases: Liquid
Fixed: Pressure, kPa = 101.325
Property: Mass density, kg/m3 (Liquid); method: Vibrating tube method
Temperature, K	Mass density, kg/m3	uncertainty
298.15	1031.14	.2

System: N-methylpiperidine; phases: Liquid
Fixed: Pressure, kPa = 101.325
Property: Mass density, kg/m3 (Liquid); method: Vibrating tube method
Temperature, K	Mass density, kg/m3	uncertainty
288.15	821.53	.2
293.15	817.22	.2
298.15	812.62	.2
303.15	808.16	.2
308.15	803.61	.2

System: N-methylmorpholine; phases: Liquid
Fixed: Pressure, kPa = 101.325
Property: Mass density, kg/m3 (Liquid); method: Vibrating tube method
Temperature, K	Mass density, kg/m3	uncertainty
298.15	914.15	.2

System: 3-methylpyridine; phases: Liquid
Fixed: Pressure, kPa = 101.325
Property: Mass density, kg/m3 (Liquid); method: Vibrating tube method
Temperature, K	Mass density, kg/m3	uncertainty
298.15	952.61	.2

System: 4-methylpyridine; phases: Liquid
Fixed: Pressure, kPa = 101.325
Property: Mass density, kg/m3 (Liquid); method: Vibrating tube method
Temperature, K	Mass density, kg/m3	uncertainty
298.15	949.87	.2

System: 2,6-dimethylpyridine; phases: Liquid
Fixed: Pressure, kPa = 101.325
Property: Mass density, kg/m3 (Liquid); method: Vibrating tube method
Temperature, K	Mass density, kg/m3	uncertainty
298.15	918.19	.2

System: 1-methylimidazole + water; phases: Liquid
Fixed: Pressure, kPa = 101
Fixed: Temperature, K = 298.15
Property: Excess molar enthalpy (molar enthalpy of mixing), kJ/mol (Liquid); method: Calvet calorimetry
Mole fraction of 1-methylimidazole	Excess molar enthalpy (molar enthalpy of mixing), kJ/mol	uncertainty
.006766	-.06261	-.00025044
.005644	-.0524	-.0002096
.00452	-.04203	-.00016812
.003394	-.03167	-.00012668
.002265	-.02114	-.00008456
.001134	-.01062	-.00004248
.006765	-.06285	-.0002514
.005642	-.05253	-.00021012
.004518	-.04217	-.00016868
.003392	-.03174	-.00012696
.002264	-.02121	-.00008484
.001133	-.01066	-.00004264

System: 1-methylimidazole + water; phases: Liquid
Fixed: Pressure, kPa = 101
Fixed: Temperature, K = 298.15
Property: Mass density, kg/m3 (Liquid); method: Vibrating tube method
Mole fraction of 1-methylimidazole	Mass density, kg/m3	uncertainty
.006766	998.483	.2
.005644	998.246	.2
.00452	997.986	.2
.003394	997.75	.2
.002265	997.514	.2
.001134	997.281	.2
.006765	998.459	.2
.005642	998.222	.2
.004518	997.985	.2
.003392	997.75	.2
.002264	997.513	.2
.001133	997.279	.2

System: N-methylpiperidine + water; phases: Liquid
Fixed: Pressure, kPa = 101
Fixed: Temperature, K = 298.15
Property: Excess molar enthalpy (molar enthalpy of mixing), kJ/mol (Liquid); method: Calvet calorimetry
Mole fraction of N-methylpiperidine	Excess molar enthalpy (molar enthalpy of mixing), kJ/mol	uncertainty
.004409	-.12962	-.00051848
.003675	-.10836	-.00043344
.002942	-.08615	-.0003446
.002208	-.06446	-.00025784
.001473	-.0428	-.0001712
.000737	-.02141	-.00008564
.004404	-.12919	-.00051676
.003671	-.10793	-.00043172
.002939	-.0861	-.0003444
.002206	-.0649	-.0002596
.001471	-.04312	-.00017248
.000736	-.02146	-.00008584
.004398	-.1289	-.0005156
.003666	-.10786	-.00043144
.002934	-.08617	-.00034468
.002202	-.06455	-.0002582
.00147	-.04281	-.00017124
.000735	-.02129	-.00008516

System: N-methylpiperidine + water; phases: Liquid
Fixed: Pressure, kPa = 101
Fixed: Temperature, K = 298.15
Property: Mass density, kg/m3 (Liquid); method: Vibrating tube method
Mole fraction of N-methylpiperidine	Mass density, kg/m3	uncertainty
.004409	994.716	.2
.003675	995.081	.2
.002942	995.47	.2
.002208	995.862	.2
.001473	996.26	.2
.000737	996.658	.2
.004404	994.733	.2
.003671	995.097	.2
.002939	995.482	.2
.002206	995.858	.2
.001471	996.253	.2
.000736	996.651	.2
.004398	994.752	.2
.003666	995.109	.2
.002934	995.483	.2
.002202	995.866	.2
.00147	996.261	.2
.000735	996.66	.2

System: N-methylmorpholine + water; phases: Liquid
Fixed: Pressure, kPa = 101
Fixed: Temperature, K = 298.15
Property: Excess molar enthalpy (molar enthalpy of mixing), kJ/mol (Liquid); method: Calvet calorimetry
Mole fraction of N-methylmorpholine	Excess molar enthalpy (molar enthalpy of mixing), kJ/mol	uncertainty
.004858	-.13988	-.00055952
.00405	-.11689	-.00046756
.003242	-.09378	-.00037512
.002434	-.07034	-.00028136
.001624	-.04712	-.00018848
.000813	-.02362	-.00009448
.004854	-.14003	-.00056012
.004048	-.11677	-.00046708
.003242	-.09368	-.00037472
.002433	-.07055	-.0002822
.001623	-.04726	-.00018904
.000812	-.02365	-.0000946

System: N-methylmorpholine + water; phases: Liquid
Fixed: Pressure, kPa = 101
Fixed: Temperature, K = 298.15
Property: Mass density, kg/m3 (Liquid); method: Vibrating tube method
Mole fraction of N-methylmorpholine	Mass density, kg/m3	uncertainty
.004858	997.188	.2
.00405	997.153	.2
.003242	997.121	.2
.002434	997.094	.2
.001624	997.074	.2
.000813	997.058	.2
.004854	997.187	.2
.004048	997.151	.2
.003242	997.121	.2
.002433	997.095	.2
.001623	997.074	.2
.000812	997.058	.2

System: 3-methylpyridine + water; phases: Liquid
Fixed: Pressure, kPa = 101
Fixed: Temperature, K = 298.15
Property: Excess molar enthalpy (molar enthalpy of mixing), kJ/mol (Liquid); method: Calvet calorimetry
Mole fraction of 3-methylpyridine	Excess molar enthalpy (molar enthalpy of mixing), kJ/mol	uncertainty
.005509	-.05122	-.00020488
.004594	-.04322	-.00017288
.003678	-.03485	-.0001394
.002761	-.02632	-.00010528
.001842	-.01766	-.00007064
.000922	-.00892	-.00003568
.005507	-.05107	-.00020428
.004592	-.04296	-.00017184
.003677	-.03465	-.0001386
.00276	-.02619	-.00010476
.001842	-.01757	-.00007028
.000922	-.00888	-.00003552

System: 3-methylpyridine + water; phases: Liquid
Fixed: Pressure, kPa = 101
Fixed: Temperature, K = 298.15
Property: Mass density, kg/m3 (Liquid); method: Vibrating tube method
Mole fraction of 3-methylpyridine	Mass density, kg/m3	uncertainty
.005509	996.98	.2
.004594	996.989	.2
.003678	996.998	.2
.002761	997.007	.2
.001842	997.017	.2
.000922	997.03	.2
.005507	996.982	.2
.004592	996.991	.2
.003677	996.999	.2
.00276	997.008	.2
.001842	997.018	.2
.000922	997.031	.2

System: 4-methylpyridine + water; phases: Liquid
Fixed: Pressure, kPa = 101
Fixed: Temperature, K = 298.15
Property: Excess molar enthalpy (molar enthalpy of mixing), kJ/mol (Liquid); method: Calvet calorimetry
Mole fraction of 4-methylpyridine	Excess molar enthalpy (molar enthalpy of mixing), kJ/mol	uncertainty
.005492	-.05202	-.00020808
.00458	-.0438	-.0001752
.003668	-.03532	-.00014128
.002754	-.02679	-.00010716
.001837	-.01806	-.00007224
.000919	-.00907	-.00003628
.005492	-.05209	-.00020836
.00458	-.04377	-.00017508
.003667	-.03529	-.00014116
.002753	-.02677	-.00010708
.001837	-.01797	-.00007188
.000919	-.00905	-.0000362

System: 4-methylpyridine + water; phases: Liquid
Fixed: Pressure, kPa = 101
Fixed: Temperature, K = 298.15
Property: Mass density, kg/m3 (Liquid); method: Vibrating tube method
Mole fraction of 4-methylpyridine	Mass density, kg/m3	uncertainty
.005492	996.939	.2
.00458	996.955	.2
.003668	996.971	.2
.002754	996.988	.2
.001837	997.005	.2
.000919	997.023	.2
.005492	996.939	.2
.00458	996.956	.2
.003667	996.972	.2
.002753	996.988	.2
.001837	997.005	.2
.000919	997.024	.2

System: 2,6-dimethylpyridine + water; phases: Liquid
Fixed: Pressure, kPa = 101
Fixed: Temperature, K = 298.15
Property: Excess molar enthalpy (molar enthalpy of mixing), kJ/mol (Liquid); method: Calvet calorimetry
Mole fraction of 2,6-dimethylpyridine	Excess molar enthalpy (molar enthalpy of mixing), kJ/mol	uncertainty
.004615	-.07243	-.00028972
.003847	-.06041	-.00024164
.00308	-.04805	-.0001922
.002312	-.03579	-.00014316
.001543	-.02365	-.0000946
.000772	-.01161	-.00004644
.004618	-.07236	-.00028944
.003851	-.06034	-.00024136
.003083	-.04806	-.00019224
.002314	-.03597	-.00014388
.001544	-.02374	-.00009496
.000773	-.01174	-.00004696

System: 2,6-dimethylpyridine + water; phases: Liquid
Fixed: Pressure, kPa = 101
Fixed: Temperature, K = 298.15
Property: Mass density, kg/m3 (Liquid); method: Vibrating tube method
Mole fraction of 2,6-dimethylpyridine	Mass density, kg/m3	uncertainty
.004615	996.644	.2
.003847	996.685	.2
.00308	996.732	.2
.002312	996.792	.2
.001543	996.862	.2
.000772	996.946	.2
.004618	996.644	.2
.003851	996.684	.2
.003083	996.734	.2
.002314	996.791	.2
.001544	996.861	.2
.000773	996.945	.2

System: methanol + 1-methylimidazole; phases: Liquid
Fixed: Pressure, kPa = 101
Fixed: Temperature, K = 298.15
Property: Excess molar enthalpy (molar enthalpy of mixing), kJ/mol (Liquid); method: Calvet calorimetry
Mole fraction of 1-methylimidazole	Excess molar enthalpy (molar enthalpy of mixing), kJ/mol	uncertainty
.015099	-.1042	-.0004168
.012614	-.08719	-.00034876
.010117	-.06996	-.00027984
.007607	-.05254	-.00021016
.005084	-.03506	-.00014024
.015095	-.1041	-.0004164
.012613	-.08709	-.00034836
.010117	-.06989	-.00027956
.007607	-.05262	-.00021048
.005084	-.03517	-.00014068

System: methanol + 1-methylimidazole; phases: Liquid
Fixed: Pressure, kPa = 101
Fixed: Temperature, K = 298.15
Property: Mass density, kg/m3 (Liquid); method: Vibrating tube method
Mole fraction of 1-methylimidazole	Mass density, kg/m3	uncertainty
.015099	794.617	.2
.012614	793.304	.2
.010117	791.972	.2
.007607	790.606	.2
.005084	789.231	.2
.015095	794.633	.2
.012613	793.323	.2
.010117	791.975	.2
.007607	790.615	.2
.005084	789.234	.2

System: methanol + N-methylpiperidine; phases: Liquid
Fixed: Pressure, kPa = 101
Fixed: Temperature, K = 298.15
Property: Excess molar enthalpy (molar enthalpy of mixing), kJ/mol (Liquid); method: Calvet calorimetry
Mole fraction of N-methylpiperidine	Excess molar enthalpy (molar enthalpy of mixing), kJ/mol	uncertainty
.009904	-.10002	-.00040008
.008266	-.08394	-.00033576
.006624	-.06752	-.00027008
.004976	-.05096	-.00020384
.003323	-.03404	-.00013616
.001664	-.01724	-.00006896
.0099	-.10049	-.00040196
.008264	-.08422	-.00033688
.006622	-.06778	-.00027112
.004975	-.05113	-.00020452
.003322	-.03425	-.000137
.001664	-.01718	-.00006872

System: methanol + N-methylpiperidine; phases: Liquid
Fixed: Pressure, kPa = 101
Fixed: Temperature, K = 298.15
Property: Mass density, kg/m3 (Liquid); method: Vibrating tube method
Mole fraction of N-methylpiperidine	Mass density, kg/m3	uncertainty
.009904	788.454	.2
.008266	788.139	.2
.006624	787.816	.2
.004976	787.486	.2
.003323	787.15	.2
.001664	786.815	.2
.0099	788.458	.2
.008264	788.141	.2
.006622	787.816	.2
.004975	787.488	.2
.003322	787.153	.2
.001664	786.815	.2

System: methanol + N-methylmorpholine; phases: Liquid
Fixed: Pressure, kPa = 101
Fixed: Temperature, K = 298.15
Property: Excess molar enthalpy (molar enthalpy of mixing), kJ/mol (Liquid); method: Calvet calorimetry
Mole fraction of N-methylmorpholine	Excess molar enthalpy (molar enthalpy of mixing), kJ/mol	uncertainty
.010911	-.06366	-.00025464
.009108	-.05361	-.00021444
.007299	-.04315	-.0001726
.005484	-.03251	-.00013004
.003663	-.02176	-.00008704
.010904	-.06363	-.00025452
.009104	-.05337	-.00021348
.007298	-.04301	-.00017204
.005484	-.03228	-.00012912
.003662	-.02172	-.00008688

System: methanol + N-methylmorpholine; phases: Liquid
Fixed: Pressure, kPa = 101
Fixed: Temperature, K = 298.15
Property: Mass density, kg/m3 (Liquid); method: Vibrating tube method
Mole fraction of N-methylmorpholine	Mass density, kg/m3	uncertainty
.010911	791.753	.2
.009108	790.908	.2
.007299	790.044	.2
.005484	789.159	.2
.003663	788.267	.2
.001834	787.377	.2
.010904	791.711	.2
.009104	790.862	.2
.007298	790.004	.2
.005484	789.119	.2
.003662	788.239	.2
.001834	787.359	.2

System: methanol + 3-methylpyridine; phases: Liquid
Fixed: Pressure, kPa = 101
Fixed: Temperature, K = 298.15
Property: Excess molar enthalpy (molar enthalpy of mixing), kJ/mol (Liquid); method: Calvet calorimetry
Mole fraction of 3-methylpyridine	Excess molar enthalpy (molar enthalpy of mixing), kJ/mol	uncertainty
.012325	-.0563	-.0002252
.010293	-.04732	-.00018928
.008251	-.03816	-.00015264
.006201	-.0286	-.0001144
.004143	-.01911	-.00007644
.012323	-.05628	-.00022512
.010293	-.04718	-.00018872
.008253	-.03787	-.00015148
.006203	-.02851	-.00011404
.004144	-.01905	-.0000762

System: methanol + 3-methylpyridine; phases: Liquid
Fixed: Pressure, kPa = 101
Fixed: Temperature, K = 298.15
Property: Mass density, kg/m3 (Liquid); method: Vibrating tube method
Mole fraction of 3-methylpyridine	Mass density, kg/m3	uncertainty
.010293	791.057	.2
.008251	790.158	.2
.006201	789.24	.2
.004143	788.32	.2
.002075	787.397	.2
.012323	791.892	.2
.010293	791.007	.2
.008253	790.117	.2
.006203	789.213	.2
.004144	788.293	.2

System: methanol + 4-methylpyridine; phases: Liquid
Fixed: Pressure, kPa = 101
Fixed: Temperature, K = 298.15
Property: Excess molar enthalpy (molar enthalpy of mixing), kJ/mol (Liquid); method: Calvet calorimetry
Mole fraction of 4-methylpyridine	Excess molar enthalpy (molar enthalpy of mixing), kJ/mol	uncertainty
.012316	-.06115	-.0002446
.010284	-.05159	-.00020636
.008244	-.04145	-.0001658
.006195	-.0312	-.0001248
.004139	-.02076	-.00008304
.012312	-.06125	-.000245
.010282	-.05133	-.00020532
.008243	-.04135	-.0001654
.006195	-.03127	-.00012508
.004138	-.02084	-.00008336

System: methanol + 4-methylpyridine; phases: Liquid
Fixed: Pressure, kPa = 101
Fixed: Temperature, K = 298.15
Property: Mass density, kg/m3 (Liquid); method: Vibrating tube method
Mole fraction of 4-methylpyridine	Mass density, kg/m3	uncertainty
.012316	791.924	.2
.010284	791.066	.2
.008244	790.152	.2
.006195	789.246	.2
.004139	788.319	.2
.012312	791.923	.2
.010282	791.039	.2
.008243	790.15	.2
.006195	789.247	.2
.004138	788.325	.2

System: methanol + 2,6-dimethylpyridine; phases: Liquid
Fixed: Pressure, kPa = 101
Fixed: Temperature, K = 298.15
Property: Excess molar enthalpy (molar enthalpy of mixing), kJ/mol (Liquid); method: Calvet calorimetry
Mole fraction of 2,6-dimethylpyridine	Excess molar enthalpy (molar enthalpy of mixing), kJ/mol	uncertainty
.010356	-.0796	-.0003184
.008647	-.06653	-.00026612
.006929	-.05325	-.000213
.005206	-.04005	-.0001602
.003476	-.02667	-.00010668
.001741	-.01344	-.00005376
.010353	-.07946	-.00031784
.008643	-.06659	-.00026636
.006928	-.05344	-.00021376
.005205	-.04017	-.00016068
.003476	-.0268	-.0001072
.001741	-.01335	-.0000534

System: methanol + 2,6-dimethylpyridine; phases: Liquid
Fixed: Pressure, kPa = 101
Fixed: Temperature, K = 298.15
Property: Mass density, kg/m3 (Liquid); method: Vibrating tube method
Mole fraction of 2,6-dimethylpyridine	Mass density, kg/m3	uncertainty
.010356	791.414	.2
.008647	790.625	.2
.006929	789.802	.2
.005206	788.971	.2
.003476	788.131	.2
.010353	791.405	.2
.008643	790.602	.2
.006928	789.788	.2
.005205	788.964	.2
.003476	788.126	.2
