Measured thermophysical data. High-Pressure Phase Behavior of Carbon Dioxide + Tetrahydrofurfuryl Acrylate and Carbon Dioxide + Tetrahydrofurfuryl Methacrylate Binary Mixture Systems
Source: J. Chem. Eng. Data, 2011, 10.1021/je2004879
Compound 1: carbon dioxide, CO2, purity 99.999%
Compound 2: tetrahydrofurfuryl acrylate, C8H12O3, purity 97%
Compound 3: tetrahydrofurfuryl methacrylate, C9H14O3, purity 97%

System: carbon dioxide + tetrahydrofurfuryl acrylate; phases: Liquid, Gas
Property: Vapor or sublimation pressure, kPa (Liquid); method: Closed cell (Static) method
Temperature, K	Mole fraction of carbon dioxide	Vapor or sublimation pressure, kPa	uncertainty
363.15	.57	10030	5
363.15	.604	10550	5
363.15	.646	11620	5
363.15	.689	13140	5
363.15	.741	13910	5
363.15	.788	15550	5
363.15	.846	16840	5
363.15	.889	17290	5
353.15	.57	8890	5
353.15	.604	9700	5
353.15	.646	10580	5
353.15	.689	11820	5
353.15	.741	12470	5
353.15	.788	13910	5
353.15	.846	15180	5
353.15	.889	15490	5
343.15	.57	7940	5
343.15	.604	8550	5
343.15	.646	9220	5
343.15	.689	10410	5
343.15	.741	10850	5
343.15	.788	12150	5
343.15	.846	13230	5
343.15	.889	13640	5
333.15	.57	6980	5
333.15	.604	7570	5
333.15	.646	8100	5
333.15	.689	9000	5
333.15	.741	9300	5
333.15	.788	10570	5
333.15	.846	11410	5
333.15	.889	11480	5
323.15	.57	6150	5
323.15	.604	6340	5
323.15	.646	6940	5
323.15	.689	7750	5
323.15	.741	8070	5
323.15	.788	8940	5
323.15	.846	9710	5
323.15	.889	9630	5
323.15	.908	9770	5
323.15	.934	9700	5
313.15	.57	5190	5
313.15	.604	5640	5
313.15	.646	5950	5
313.15	.689	6560	5
313.15	.741	6710	5
313.15	.788	7300	5
313.15	.846	8260	5
313.15	.889	8050	5
313.15	.908	7970	5
313.15	.934	7930	5

System: carbon dioxide + tetrahydrofurfuryl acrylate; phases: Gas, Liquid
Property: Vapor or sublimation pressure, kPa (Gas); method: Closed cell (Static) method
Temperature, K	Mole fraction of carbon dioxide	Vapor or sublimation pressure, kPa	uncertainty
363.15	.908	17170	5
363.15	.934	16850	5
353.15	.908	15550	5
353.15	.934	15200	5
343.15	.908	13740	5
343.15	.934	13410	5
333.15	.908	11750	5
333.15	.934	11520	5

System: carbon dioxide + tetrahydrofurfuryl methacrylate; phases: Liquid, Gas
Property: Vapor or sublimation pressure, kPa (Liquid); method: Closed cell (Static) method
Temperature, K	Mole fraction of carbon dioxide	Vapor or sublimation pressure, kPa	uncertainty
363.15	.565	10100	5
363.15	.609	10660	5
363.15	.651	11610	5
363.15	.684	12560	5
363.15	.725	13600	5
363.15	.766	14650	5
363.15	.785	15300	5
363.15	.828	16440	5
363.15	.85	16640	5
363.15	.887	17240	5
353.15	.565	9040	5
353.15	.609	9960	5
353.15	.651	10550	5
353.15	.684	11150	5
353.15	.725	12340	5
353.15	.766	13040	5
353.15	.785	13700	5
353.15	.828	14620	5
353.15	.85	15020	5
353.15	.887	15440	5
343.15	.565	8000	5
343.15	.609	8730	5
343.15	.651	9230	5
343.15	.684	9850	5
343.15	.725	10860	5
343.15	.766	11360	5
343.15	.785	12080	5
343.15	.828	12760	5
343.15	.85	13260	5
343.15	.887	13500	5
333.15	.565	6970	5
333.15	.609	7870	5
333.15	.651	8040	5
333.15	.684	8500	5
333.15	.725	9390	5
333.15	.766	9660	5
333.15	.785	10430	5
333.15	.828	10860	5
333.15	.85	11390	5
333.15	.887	11440	5
323.15	.565	6180	5
323.15	.609	6870	5
323.15	.651	7090	5
323.15	.684	7280	5
323.15	.725	8100	5
323.15	.766	8200	5
323.15	.785	8870	5
323.15	.828	9040	5
323.15	.85	9400	5
323.15	.887	9440	5
323.15	.9	9690	5
323.15	.921	9820	5
323.15	.938	10150	5
323.15	.946	9880	5
313.15	.565	5280	5
313.15	.609	6030	5
313.15	.651	6020	5
313.15	.684	6040	5
313.15	.725	6680	5
313.15	.766	6860	5
313.15	.785	7450	5
313.15	.828	7470	5
313.15	.85	7530	5
313.15	.887	7700	5
313.15	.9	7870	5
313.15	.921	8050	5
313.15	.938	8310	5
313.15	.946	8060	5

System: carbon dioxide + tetrahydrofurfuryl methacrylate; phases: Gas, Liquid
Property: Vapor or sublimation pressure, kPa (Gas); method: Closed cell (Static) method
Temperature, K	Mole fraction of carbon dioxide	Vapor or sublimation pressure, kPa	uncertainty
363.15	.9	17410	5
363.15	.921	17520	5
363.15	.938	17700	5
363.15	.946	17200	5
353.15	.9	15700	5
353.15	.921	15790	5
353.15	.938	16010	5
353.15	.946	15610	5
343.15	.9	13800	5
343.15	.921	13900	5
343.15	.938	14160	5
343.15	.946	13800	5
333.15	.9	11710	5
333.15	.921	11860	5
333.15	.938	12200	5
333.15	.946	11820	5
