Measured thermophysical data. Interfacial Tension between Methane and Octane at Elevated Pressure at Five Temperatures from (274.2 to 282.2) K
Source: J. Chem. Eng. Data, 2011, 10.1021/je200560w
Compound 1: carbane, CH4, purity 99.99%
Compound 2: n-octane, C8H18, purity 99.9%

System: carbane + n-octane; phases: Liquid, Gas
Property: Surface tension liquid-gas, N/m (Liquid); method: Pendant drop shape
Temperature, K	Pressure, kPa	Surface tension liquid-gas, N/m	uncertainty
274.2	100	.02434	.0004
274.2	600	.02298	.0004
274.2	1100	.02186	.0004
274.2	1600	.02076	.0004
274.2	2100	.01967	.0004
274.2	2600	.0186	.0004
274.2	3100	.01754	.0004
274.2	3600	.01651	.0004
274.2	4100	.01549	.0004
274.2	4600	.01448	.0004
274.2	5100	.01349	.0004
274.2	5600	.01252	.0004
274.2	6100	.01156	.0004
274.2	6300	.01119	.0004
274.2	6600	.01062	.0004
274.2	7600	.00879	.0004
274.2	8500	.0072	.0004
276.2	100	.0234	.0004
276.2	600	.02228	.0004
276.2	1100	.02118	.0004
276.2	1600	.0201	.0004
276.2	2100	.01903	.0004
276.2	2600	.01799	.0004
276.2	3100	.01697	.0004
276.2	3600	.01596	.0004
276.2	4100	.01497	.0004
276.2	4600	.014	.0004
276.2	5100	.01305	.0004
276.2	5600	.01212	.0004
276.2	6100	.01121	.0004
276.2	7500	.00876	.0004
276.2	7800	.00826	.0004
276.2	8300	.00743	.0004
278.2	100	.02227	.0004
278.2	600	.02118	.0004
278.2	1100	.02012	.0004
278.2	1600	.01907	.0004
278.2	2100	.01804	.0004
278.2	2600	.01704	.0004
278.2	3100	.01605	.0004
278.2	3600	.01508	.0004
278.2	4100	.01413	.0004
278.2	4600	.0132	.0004
278.2	5100	.0123	.0004
278.2	5600	.01141	.0004
278.2	5800	.01106	.0004
278.2	6100	.01054	.0004
278.2	6900	.00919	.0004
278.2	7300	.00854	.0004
278.2	8500	.00665	.0004
280.2	100	.02147	.0004
280.2	600	.02042	.0004
280.2	1100	.01938	.0004
280.2	1600	.01837	.0004
280.2	2100	.01738	.0004
280.2	2600	.01641	.0004
280.2	3100	.01546	.0004
280.2	3600	.01453	.0004
280.2	4100	.01362	.0004
280.2	4600	.01273	.0004
280.2	5100	.01187	.0004
280.2	5600	.01102	.0004
280.2	6100	.01019	.0004
280.2	6600	.00938	.0004
280.2	7100	.00859	.0004
280.2	7600	.00783	.0004
280.2	8100	.00708	.0004
280.2	8200	.00693	.0004
280.2	8500	.0065	.0004
282.2	100	.02031	.0004
282.2	400	.0197	.0004
282.2	700	.0191	.0004
282.2	1000	.0185	.0004
282.2	1300	.01791	.0004
282.2	1600	.01733	.0004
282.2	1900	.01675	.0004
282.2	2600	.01544	.0004
282.2	3100	.01453	.0004
282.2	3600	.01364	.0004
282.2	4100	.01276	.0004
282.2	4600	.01191	.0004
282.2	5100	.01108	.0004
282.2	5600	.01028	.0004
282.2	6100	.00949	.0004
282.2	6600	.00872	.0004
282.2	7200	.00783	.0004
282.2	7500	.00739	.0004
282.2	7900	.00682	.0004
282.2	8400	.00613	.0004
