Measured thermophysical data. Measurement and Correlation of Solubility of Clopidogrel Hydrogen Sulfate (Metastable Form) in Lower Alcohols
Source: J. Chem. Eng. Data, 2011, 10.1021/je200067e
Compound 1: clopidogrel hydrogen sulfate, C16H18ClNO6S2, purity 99%
Compound 2: ethanol, C2H6O, purity 99.5%
Compound 3: propan-1-ol, C3H8O, purity 99.5%
Compound 4: butan-1-ol, C4H10O, purity 99.5%
Compound 5: pentan-1-ol, C5H12O, purity 99.5%
Compound 6: 2-propanol, C3H8O, purity 99.5%

System: ethanol + clopidogrel hydrogen sulfate; phases: Liquid, Metastable crystal
Fixed: Pressure, kPa = 101
Property: Mole fraction of clopidogrel hydrogen sulfate (Liquid); method: synthetic method
Temperature, K	Mole fraction of clopidogrel hydrogen sulfate	uncertainty
273.27	.01124	.0001124
278.25	.01234	.0001234
283.35	.01342	.0001342
288.3	.01517	.0001517
293.1	.01713	.0001713
298.32	.01937	.0001937
303.35	.02179	.0002179
308.35	.02498	.0002498
313.35	.02866	.0002866
318.33	.03409	.0003409

System: propan-1-ol + clopidogrel hydrogen sulfate; phases: Liquid, Metastable crystal
Fixed: Pressure, kPa = 101
Property: Mole fraction of clopidogrel hydrogen sulfate (Liquid); method: synthetic method
Temperature, K	Mole fraction of clopidogrel hydrogen sulfate	uncertainty
273.15	.003476	.00003476
278.15	.003814	.00003814
283.15	.004292	.00004292
288.15	.004907	.00004907
293.15	.005585	.00005585
298.15	.006433	.00006433
303.15	.007323	.00007323
308.15	.008703	.00008703
313.15	.009889	.00009889
318.15	.01133	.0001133

System: butan-1-ol + clopidogrel hydrogen sulfate; phases: Liquid, Metastable crystal
Fixed: Pressure, kPa = 101
Property: Mole fraction of clopidogrel hydrogen sulfate (Liquid); method: synthetic method
Temperature, K	Mole fraction of clopidogrel hydrogen sulfate	uncertainty
273.15	.001812	.00001812
278.15	.001878	.00001878
283.15	.002199	.00002199
288.15	.002491	.00002491
292.85	.002877	.00002877
298.35	.003334	.00003334
303.35	.003873	.00003873
308.5	.004373	.00004373
313.25	.005223	.00005223
318.15	.006167	.00006167

System: pentan-1-ol + clopidogrel hydrogen sulfate; phases: Liquid, Metastable crystal
Fixed: Pressure, kPa = 101
Property: Mole fraction of clopidogrel hydrogen sulfate (Liquid); method: synthetic method
Temperature, K	Mole fraction of clopidogrel hydrogen sulfate	uncertainty
273.61	.001016	.00001016
278.53	.001146	.00001146
283.45	.001324	.00001324
288.25	.001577	.00001577
293.15	.00182	.0000182
298.02	.002127	.00002127
303.49	.002493	.00002493
308.2	.002837	.00002837
313.1	.003315	.00003315
318.15	.004005	.00004005

System: 2-propanol + clopidogrel hydrogen sulfate; phases: Liquid, Metastable crystal
Fixed: Pressure, kPa = 101
Property: Mole fraction of clopidogrel hydrogen sulfate (Liquid); method: synthetic method
Temperature, K	Mole fraction of clopidogrel hydrogen sulfate	uncertainty
273.15	.0005995	.000005995
278.15	.0006823	.000006823
282.75	.0008076	.000008076
288.05	.000962	.00000962
293.15	.001117	.00001117
298.85	.001392	.00001392
303.35	.001566	.00001566
308.05	.001951	.00001951
312.95	.002327	.00002327
318.05	.00295	.0000295
