Measured thermophysical data. Vapor Liquid Equilibrium, Densities, and Interfacial Tensions of the System Ethanol + Tetrahydro-2H-pyran
Source: J. Chem. Eng. Data, 2012, 10.1021/je201140q
Compound 1: ethanol, C2H6O, purity 99.9%
Compound 2: oxane, C5H10O, purity 99.8%

System: ethanol; phases: Liquid, Gas
Property: Normal boiling temperature, K (Liquid); method: Ebulliometric method (Recirculating still)
Normal boiling temperature, K	uncertainty
351.45	.02

System: ethanol; phases: Liquid
Fixed: Pressure, kPa = 101.325
Property: Refractive index (Na D-line) (Liquid); method: Standard Abbe refractometry
Temperature, K	Refractive index (Na D-line)	uncertainty
298.15	1.36068	.00001

System: ethanol; phases: Liquid, Gas
Property: Vapor or sublimation pressure, kPa (Liquid); method: Ebulliometric method (Recirculating still)
Temperature, K	Vapor or sublimation pressure, kPa	uncertainty
334.57	50	.03
344.02	75	.03
349.56	94	.03

System: ethanol; phases: Liquid
Property: Mass density, kg/m3 (Liquid); method: Vibrating tube method
Temperature, K	Pressure, kPa	Mass density, kg/m3	uncertainty
298.15	101.3	785.11	.005

System: ethanol; phases: Liquid, Air at 1 atmosphere
Property: Surface tension liquid-gas, N/m (Liquid); method: Maximal bubble pressure
Temperature, K	Surface tension liquid-gas, N/m	uncertainty
303.15	.0217	.0001

System: oxane; phases: Liquid, Gas
Property: Normal boiling temperature, K (Liquid); method: Ebulliometric method (Recirculating still)
Normal boiling temperature, K	uncertainty
361.36	.02

System: oxane; phases: Liquid
Fixed: Pressure, kPa = 101.325
Property: Refractive index (Na D-line) (Liquid); method: Standard Abbe refractometry
Temperature, K	Refractive index (Na D-line)	uncertainty
298.15	1.42	.00001

System: oxane; phases: Liquid, Gas
Property: Vapor or sublimation pressure, kPa (Liquid); method: Ebulliometric method (Recirculating still)
Temperature, K	Vapor or sublimation pressure, kPa	uncertainty
312.59	18.01	.03
319.62	24.01	.03
325.36	30.01	.03
331.7	38.01	.03
336.4	45.01	.03
339.98	51.01	.03
344.26	59.01	.03
347.64	66.01	.03
350.74	73.01	.03
353.61	80.01	.03
356.29	87.01	.03
358.81	94.01	.03
361.55	102.11	.03
339.33	50	.03
351.53	75	.03
358.85	94	.03

System: oxane; phases: Liquid
Property: Mass density, kg/m3 (Liquid); method: Vibrating tube method
Temperature, K	Pressure, kPa	Mass density, kg/m3	uncertainty
298.15	101.3	879.03	.005

System: oxane; phases: Liquid, Air at 1 atmosphere
Property: Surface tension liquid-gas, N/m (Liquid); method: Maximal bubble pressure
Temperature, K	Surface tension liquid-gas, N/m	uncertainty
303.15	.0271	.0001

System: ethanol + oxane; phases: Liquid, Gas
Property: Boiling temperature at pressure P, K (Liquid); method: Ebulliometric method (Recirculating still)
Mole fraction of ethanol	Pressure, kPa	Boiling temperature at pressure P, K	uncertainty
0	50	339.33	.02
.044	50	337.19	.02
.092	50	335.65	.02
.13	50	334.72	.02
.181	50	333.77	.02
.229	50	333.11	.02
.275	50	332.6	.02
.324	50	332.19	.02
.375	50	331.77	.02
.432	50	331.52	.02
.479	50	331.43	.02
.528	50	331.4	.02
.578	50	331.4	.02
.627	50	331.45	.02
.678	50	331.55	.02
.728	50	331.74	.02
.779	50	331.99	.02
.832	50	332.31	.02
.883	50	332.82	.02
.937	50	333.49	.02
1	50	334.57	.02
0	75	351.53	.02
.038	75	349.33	.02
.09	75	347.28	.02
.128	75	346.13	.02
.178	75	344.97	.02
.225	75	344.14	.02
.272	75	343.49	.02
.323	75	342.92	.02
.372	75	342.34	.02
.43	75	342.04	.02
.477	75	341.84	.02
.526	75	341.7	.02
.577	75	341.65	.02
.626	75	341.64	.02
.676	75	341.67	.02
.727	75	341.77	.02
.778	75	341.92	.02
.833	75	342.16	.02
.882	75	342.52	.02
.936	75	343.12	.02
1	75	344.02	.02
0	94	358.85	.02
.046	94	355.97	.02
.088	94	354.17	.02
.126	94	352.91	.02
.176	94	351.58	.02
.225	94	350.65	.02
.272	94	349.91	.02
.322	94	349.26	.02
.369	94	348.58	.02
.428	94	348.2	.02
.476	94	347.97	.02
.526	94	347.79	.02
.576	94	347.66	.02
.625	94	347.6	.02
.676	94	347.6	.02
.727	94	347.65	.02
.778	94	347.77	.02
.828	94	347.96	.02
.881	94	348.28	.02
.936	94	348.75	.02
1	94	349.56	.02

System: ethanol + oxane; phases: Gas, Liquid
Property: Mole fraction of ethanol (Gas); method: Chromatography
Mole fraction of ethanol	Pressure, kPa	Mole fraction of ethanol	uncertainty
0	50	0	.001
.044	50	.114	.001
.092	50	.2	.001
.13	50	.251	.001
.181	50	.306	.001
.229	50	.354	.001
.275	50	.391	.001
.324	50	.423	.001
.375	50	.452	.001
.432	50	.484	.001
.479	50	.512	.001
.528	50	.54	.001
.578	50	.571	.001
.627	50	.602	.001
.678	50	.636	.001
.728	50	.675	.001
.779	50	.717	.001
.832	50	.768	.001
.883	50	.824	.001
.937	50	.896	.001
1	50	1	.001
0	75	0	.001
.038	75	.102	.001
.09	75	.2	.001
.128	75	.259	.001
.178	75	.318	.001
.225	75	.365	.001
.272	75	.403	.001
.323	75	.441	.001
.372	75	.47	.001
.43	75	.506	.001
.477	75	.534	.001
.526	75	.563	.001
.577	75	.594	.001
.626	75	.625	.001
.676	75	.659	.001
.727	75	.696	.001
.778	75	.737	.001
.833	75	.786	.001
.882	75	.838	.001
.936	75	.904	.001
1	75	1	.001
0	94	0	.001
.046	94	.122	.001
.088	94	.203	.001
.126	94	.262	.001
.176	94	.326	.001
.225	94	.374	.001
.272	94	.414	.001
.322	94	.451	.001
.369	94	.479	.001
.428	94	.518	.001
.476	94	.546	.001
.526	94	.576	.001
.576	94	.607	.001
.625	94	.638	.001
.676	94	.67	.001
.727	94	.708	.001
.778	94	.748	.001
.828	94	.793	.001
.881	94	.846	.001
.936	94	.908	.001
1	94	1	.001

System: ethanol + oxane; phases: Liquid
Fixed: Temperature, K = 298.15
Fixed: Pressure, kPa = 101.3
Property: Mass density, kg/m3 (Liquid); method: Vibrating tube method
Mole fraction of ethanol	Mass density, kg/m3	uncertainty
0	879.03	.005
.03	877.14	.005
.115	871.86	.005
.193	866.85	.005
.299	859.54	.005
.426	849.89	.005
.496	844.01	.005
.599	834.65	.005
.716	822.74	.005
.799	813.13	.005
.91	798.6	.005
.959	791.41	.005
1	785.11	.005

System: ethanol + oxane; phases: Liquid, Air at 1 atmosphere
Fixed: Temperature, K = 303.15
Property: Surface tension liquid-gas, N/m (Liquid); method: Maximal bubble pressure
Mole fraction of ethanol	Surface tension liquid-gas, N/m	uncertainty
0	.0271	.0001
.068	.02691	.0001
.122	.02676	.0001
.223	.0265	.0001
.323	.02598	.0001
.42	.02534	.0001
.52	.0249	.0001
.604	.02435	.0001
.622	.02424	.0001
.657	.02407	.0001
.707	.02381	.0001
.722	.02364	.0001
.821	.02301	.0001
.918	.02242	.0001
.963	.022	.0001
1	.0217	.0001
