Measured thermophysical data. Activity Coefficients of NaClO4 in Aqueous Solution
Source: J. Chem. Eng. Data, 2011, 10.1021/je2005006
Compound 1: sodium perchlorate monohydrate, ClH2NaO5, purity 99%
Compound 2: water, H2O, purity 99%

System: water + sodium perchlorate monohydrate; phases: Liquid
Fixed: Pressure, kPa = 101
Property: (Relative) activity of sodium perchlorate monohydrate (Liquid); method: EMF
Temperature, K	Molality, mol/kg of sodium perchlorate monohydrate	(Relative) activity of sodium perchlorate monohydrate	uncertainty
288.15	.0469	.806	.003
288.15	.0873	.776	.003
288.15	.1616	.738	.003
288.15	.2526	.712	.003
288.15	.4103	.681	.003
288.15	.6057	.656	.003
288.15	.8878	.633	.003
288.15	1	.627	.003
288.15	1.1986	.618	.003
288.15	1.5855	.607	.003
288.15	2.021	.6	.003
288.15	2.6401	.598	.003
288.15	3.7032	.607	.003
288.15	4.976	.629	.003
288.15	6.8544	.666	.003
288.15	8.6445	.716	.003
288.15	10.199	.76	.003
288.15	10.889	.779	.003
298.15	.0283	.873	.003
298.15	.074	.794	.003
298.15	.1255	.758	.003
298.15	.2086	.72	.003
298.15	.3529	.684	.003
298.15	.4325	.673	.003
298.15	.6357	.65	.003
298.15	.8761	.634	.003
298.15	1	.629	.003
298.15	1.1272	.626	.003
298.15	1.443	.617	.003
298.15	1.7981	.613	.003
298.15	2.2518	.613	.003
298.15	2.8849	.62	.003
298.15	3.6706	.631	.003
298.15	4.8085	.655	.003
298.15	6.0261	.689	.003
298.15	9.7621	.801	.003
298.15	12.378	.881	.003
308.15	.0175	.9	.003
308.15	.0642	.8	.003
308.15	.1228	.756	.003
308.15	.1939	.729	.003
308.15	.2821	.709	.003
308.15	.444	.687	.003
308.15	.6367	.671	.003
308.15	.8679	.657	.003
308.15	1	.655	.003
308.15	1.0774	.652	.003
308.15	1.3615	.651	.003
308.15	1.7155	.653	.003
308.15	2.3486	.651	.003
308.15	3.0499	.66	.003
308.15	3.9694	.678	.003
308.15	5.272	.712	.003
308.15	7.4417	.777	.003
308.15	11.168	.884	.003
308.15	12.938	.931	.003
