Measured thermophysical data. Densities and Viscosities of the Binary Mixtures of Phenylmethanol with 2-Butanone
Source: J. Chem. Eng. Data, 2011, 10.1021/je200150r
Compound 1: .alpha.-toluenol, C7H8O, purity 99%
Compound 2: ethyl methyl ketone, C4H8O, purity 99%

System: .alpha.-toluenol; phases: Liquid
Property: Mass density, kg/m3 (Liquid); method: Pycnometric method
Temperature, K	Pressure, kPa	Mass density, kg/m3	uncertainty
303.15	101	1037.6	.4
308.15	101	1033.8	.4
313.15	101	1030.1	.4
318.15	101	1026.3	.4
323.15	101	1022.5	.4

System: .alpha.-toluenol; phases: Liquid
Property: Viscosity, Pa*s (Liquid); method: Capillary tube (Ostwald; Ubbelohde) method
Temperature, K	Pressure, kPa	Viscosity, Pa*s	uncertainty
303.15	101	.004689	.000023445
308.15	101	.004058	.00002029
313.15	101	.003531	.000017655
318.15	101	.003103	.000015515
323.15	101	.002747	.000013735

System: ethyl methyl ketone; phases: Liquid
Property: Mass density, kg/m3 (Liquid); method: Pycnometric method
Temperature, K	Pressure, kPa	Mass density, kg/m3	uncertainty
303.15	101	794	.4
308.15	101	788.8	.4
313.15	101	783.5	.4
318.15	101	778.3	.4
323.15	101	773	.4

System: ethyl methyl ketone; phases: Liquid
Property: Viscosity, Pa*s (Liquid); method: Capillary tube (Ostwald; Ubbelohde) method
Temperature, K	Pressure, kPa	Viscosity, Pa*s	uncertainty
303.15	101	.000362	.00000181
308.15	101	.000345	.000001725
313.15	101	.00033	.00000165
318.15	101	.000316	.00000158
323.15	101	.000303	.000001515

System: ethyl methyl ketone + .alpha.-toluenol; phases: Liquid
Fixed: Pressure, kPa = 101
Property: Mass density, kg/m3 (Liquid); method: Pycnometric method
Temperature, K	Mole fraction of .alpha.-toluenol	Mass density, kg/m3	uncertainty
303.15	0	794	.4
303.15	.1003	825.4	.4
303.15	.2	854.7	.4
303.15	.301	882.5	.4
303.15	.3991	907.5	.4
303.15	.5001	932.6	.4
303.15	.6	956.3	.4
303.15	.7008	978.2	.4
303.15	.8001	998.5	.4
303.15	.8997	1018.1	.4
303.15	1	1037.6	.4
308.15	0	788.8	.4
308.15	.1003	820.4	.4
308.15	.2	849.9	.4
308.15	.301	877.8	.4
308.15	.3991	903	.4
308.15	.5001	928.2	.4
308.15	.6	952	.4
308.15	.7008	974.1	.4
308.15	.8001	994.6	.4
308.15	.8997	1014.3	.4
308.15	1	1033.8	.4
313.15	0	783.5	.4
313.15	.1003	815.4	.4
313.15	.2	845.1	.4
313.15	.301	873	.4
313.15	.3991	898.4	.4
313.15	.5001	923.8	.4
313.15	.6	947.8	.4
313.15	.7008	969.9	.4
313.15	.8001	990.5	.4
313.15	.8997	1010.4	.4
313.15	1	1030.1	.4
318.15	0	778.3	.4
318.15	.1003	810.4	.4
318.15	.2	840.3	.4
318.15	.301	868.3	.4
318.15	.3991	893.9	.4
318.15	.5001	919.4	.4
318.15	.6	943.6	.4
318.15	.7008	965.8	.4
318.15	.8001	985.6	.4
318.15	.8997	1006.5	.4
318.15	1	1026.3	.4
323.15	0	773	.4
323.15	.1003	805.3	.4
323.15	.2	835.5	.4
323.15	.301	863.6	.4
323.15	.3991	889.3	.4
323.15	.5001	915	.4
323.15	.6	939.3	.4
323.15	.7008	961.7	.4
323.15	.8001	982.7	.4
323.15	.8997	1002.7	.4
323.15	1	1022.5	.4

System: ethyl methyl ketone + .alpha.-toluenol; phases: Liquid
Fixed: Pressure, kPa = 101
Property: Viscosity, Pa*s (Liquid); method: Capillary tube (Ostwald; Ubbelohde) method
Temperature, K	Mole fraction of .alpha.-toluenol	Viscosity, Pa*s	uncertainty
303.15	0	.000362	.00000181
303.15	.1003	.000446	.00000223
303.15	.2	.000554	.00000277
303.15	.301	.000697	.000003485
303.15	.3991	.000876	.00000438
303.15	.5001	.001131	.000005655
303.15	.6	.001476	.00000738
303.15	.7008	.001947	.000009735
303.15	.8001	.002586	.00001293
303.15	.8997	.003452	.00001726
303.15	1	.004689	.000023445
308.15	0	.000345	.000001725
308.15	.1003	.000424	.00000212
308.15	.2	.000524	.00000262
308.15	.301	.000655	.000003275
308.15	.3991	.000818	.00000409
308.15	.5001	.001046	.00000523
308.15	.6	.001351	.000006755
308.15	.7008	.001761	.000008805
308.15	.8001	.002307	.000011535
308.15	.8997	.003033	.000015165
308.15	1	.004058	.00002029
313.15	0	.00033	.00000165
313.15	.1003	.000403	.000002015
313.15	.2	.000497	.000002485
313.15	.301	.000616	.00000308
313.15	.3991	.000765	.000003825
313.15	.5001	.00097	.00000485
313.15	.6	.001242	.00000621
313.15	.7008	.001599	.000007995
313.15	.8001	.002063	.000010315
313.15	.8997	.002682	.00001341
313.15	1	.003531	.000017655
318.15	0	.000316	.00000158
318.15	.1003	.000385	.000001925
318.15	.2	.000472	.00000236
318.15	.301	.000582	.00000291
318.15	.3991	.000718	.00000359
318.15	.5001	.000904	.00000452
318.15	.6	.001146	.00000573
318.15	.7008	.001461	.000007305
318.15	.8001	.001866	.00000933
318.15	.8997	.002391	.000011955
318.15	1	.003103	.000015515
323.15	0	.000303	.000001515
323.15	.1003	.000368	.00000184
323.15	.2	.000451	.000002255
323.15	.301	.000551	.000002755
323.15	.3991	.000676	.00000338
323.15	.5001	.000845	.000004225
323.15	.6	.001063	.000005315
323.15	.7008	.001341	.000006705
323.15	.8001	.001694	.00000847
323.15	.8997	.002144	.00001072
323.15	1	.002747	.000013735
