Measured thermophysical data. Measurements of Surface Tension and Chemical Shift on Several Binary Mixtures of Water and Ionic Liquids and Their Comparison for Assessing Aggregation
Source: J. Chem. Eng. Data, 2011, 10.1021/je200659c
Compound 1: 1-butyl-3-methylimidazolium methanesulfonate, C9H18N2O3S, purity 99%
Compound 2: 1-hexyl-3-methylimidazolium chloride, C10H19ClN2, purity 99%
Compound 3: 1,3-dimethylimidazolium methylsulfate, C6H12N2O4S, purity 99%
Compound 4: 1-ethyl-3-methylimidazolium methanesulfonate, C7H14N2O3S, purity 99%
Compound 5: water, H2O

System: water; phases: Liquid, Air at 1 atmosphere
Property: Surface tension liquid-gas, N/m (Liquid); method: Maximal bubble pressure
Temperature, K	Surface tension liquid-gas, N/m	uncertainty
296.8	.0711	.0002
297.7	.0709	.0002
300	.0716	.0001
301.2	.0714	.0003
297	.0719	.0004
304.3	.0707	.0002
312.4	.0694	.0002
321.3	.0681	.0001

System: water + 1,3-dimethylimidazolium methylsulfate; phases: Liquid, Air at 1 atmosphere
Property: Surface tension liquid-gas, N/m (Liquid); method: Maximal bubble pressure
Temperature, K	Mole fraction of 1,3-dimethylimidazolium methylsulfate	Surface tension liquid-gas, N/m	uncertainty
296.8	0	.0711	.0002
297	.008	.0706	.0001
297.1	.025	.0695	.0002
297.3	.055	.0682	.0002
297.6	.093	.0673	.0003
297.6	.141	.0664	.0002
297.7	.183	.0657	.0002
298	.222	.0653	.0002
298.1	.261	.0647	.0006
298.1	.292	.0647	.0002

System: water + 1-hexyl-3-methylimidazolium chloride; phases: Liquid, Air at 1 atmosphere
Property: Surface tension liquid-gas, N/m (Liquid); method: Maximal bubble pressure
Temperature, K	Mole fraction of 1-hexyl-3-methylimidazolium chloride	Surface tension liquid-gas, N/m	uncertainty
297.7	0	.0709	.0002
297.2	.003	.0618	.0001
297.4	.009	.0552	.0001
297.7	.013	.0528	.0005
297.4	.02	.0505	.0003
297.6	.045	.0476	.0004
297.8	.073	.046	.0001
298	.092	.045	.0001
297.9	.121	.0438	.0001
298.2	.143	.0432	.0001

System: water + 1-ethyl-3-methylimidazolium methanesulfonate; phases: Liquid, Air at 1 atmosphere
Property: Surface tension liquid-gas, N/m (Liquid); method: Maximal bubble pressure
Temperature, K	Mole fraction of 1-ethyl-3-methylimidazolium methanesulfonate	Surface tension liquid-gas, N/m	uncertainty
300	0	.0716	.0001
300	.002	.0721	.0002
300.2	.004	.0716	.0005
300.2	.006	.0714	.0002
300.3	.01	.0711	.0002
300.4	.015	.0707	.0003
300.4	.019	.0705	.0002
300.1	.025	.0704	.0003
300	.03	.0698	.0003
301	.065	.0679	.0003
301.7	.112	.0656	.0002
302.7	.181	.0629	.0007
301.2	.274	.0607	.0002
301.3	.376	.0592	.0002
301.7	.485	.0581	.0002
301.2	0	.0714	.0003
301.3	.002	.0714	.0002
301.3	.004	.0709	.0002
301.3	.007	.0704	.0003
301.4	.01	.0701	.0003
301.3	.013	.0698	.0003
301.3	.019	.0692	.0003
301.3	.026	.0688	.0003
301.3	.032	.0684	.0003
302.4	.08	.066	.0003
302.7	.133	.0635	.0003
302.9	.199	.0612	.0003
303.8	.284	.0587	.0007
303.3	.388	.0577	.0003
303.2	.474	.0573	.0002

System: water + 1-butyl-3-methylimidazolium methanesulfonate; phases: Liquid, Air at 1 atmosphere
Property: Surface tension liquid-gas, N/m (Liquid); method: Maximal bubble pressure
Temperature, K	Mole fraction of 1-butyl-3-methylimidazolium methanesulfonate	Surface tension liquid-gas, N/m	uncertainty
297	0	.0719	.0004
297.5	.004	.0651	.0003
297.7	.014	.0629	.0003
297.8	.026	.0596	.0003
297.8	.064	.0536	.0006
298	.115	.0503	.0003
298.2	.173	.0482	.0003
298.2	.24	.0467	.0003
298	.256	.0459	.0002
298.2	.291	.0451	.0001
304.3	0	.0707	.0002
304.7	.005	.0663	.0002
304.9	.011	.0635	.0002
305.2	.017	.0613	.0002
305.4	.027	.0592	.0002
305.3	.052	.0553	.0002
305.2	.08	.0524	.0008
305.1	.109	.0508	.0004
305.1	.141	.0495	.0001
305.1	.16	.0485	.0002
304.8	.177	.0479	.0003
312.4	0	.0694	.0002
312.6	.005	.0653	.0002
312.8	.01	.0629	.0002
312.6	.019	.0603	.0005
312.8	.041	.0563	.0009
312.4	.069	.0532	.0002
312.2	.092	.0514	.0002
312.3	.145	.0494	.0005
312.2	.184	.0478	.0005
321.3	0	.0681	.0001
321.8	.004	.0648	.0002
321.3	.013	.061	.0004
320.8	.023	.0582	.0003
320.1	.034	.0561	.0003
320.1	.083	.0514	.0001
318.7	.165	.0477	.0003
318.3	.259	.0455	.0005
318.1	.339	.0442	.0002
