Measured thermophysical data. Aqueous Solubility of Piperazine and 2-Amino-2-methyl-1-propanol plus Their Mixtures Using an Improved Freezing-Point Depression Method
Source: J. Chem. Eng. Data, 2011, 10.1021/je200959m
Compound 1: diethylenediamine, C4H10N2, purity 99%
Compound 2: 2-amino-2-methyl-1-propanol, C4H11NO, purity 99%
Compound 3: water, H2O, purity 99%

System: diethylenediamine + water; phases: Liquid, Crystal
Fixed: Pressure, kPa = 101
Property: Mass fraction of diethylenediamine (Liquid); method: Titration method
Temperature, K	Mass fraction of diethylenediamine	uncertainty
273.021	.00521	.02
272.889	.00953	.02
272.891	.01297	.02
272.683	.01738	.02
272.607	.021	.02
272.521	.0244	.02
272.524	.02468	.02
272.511	.02551	.02
272.305	.03315	.02
272.274	.0369	.02
272.219	.04017	.02
272.151	.04161	.02

System: diethylenediamine + water; phases: Liquid, Crystal of intercomponent compound 1
Fixed: Pressure, kPa = 101
Property: Mass fraction of diethylenediamine (Liquid); method: Titration method
Temperature, K	Mass fraction of diethylenediamine	uncertainty
276.43	.053	.02
278.4	.0667	.02
284.28	.0812	.02
287.75	.1015	.02
294.05	.1375	.02
298.15	.171	.02
300.13	.1884	.02
304.15	.208	.02
305.09	.2367	.02
307.03	.251	.02
310.15	.304	.02
312.6	.338	.02
314.9	.3745	.02
314.45	.409	.02
318.75	.4356	.02
316.895	.4437	.02
317.79	.4782	.02
314.94	.5093	.02
312.75	.5396	.02
311.65	.5699	.02
307.65	.5885	.02
308.34	.5903	.02
307.95	.595	.02
306.55	.609	.02
310.18	.6097	.02

System: diethylenediamine + water; phases: Liquid, Crystal of intercomponent compound 2
Fixed: Pressure, kPa = 101
Property: Mass fraction of diethylenediamine (Liquid); method: Titration method
Temperature, K	Mass fraction of diethylenediamine	uncertainty
310.7	.619	.02
308	.619	.02
312.75	.637	.02
317.65	.65	.02
325.62	.672	.02
327.25	.7	.02

System: diethylenediamine + water; phases: Liquid, Crystal
Fixed: Pressure, kPa = 101
Property: Mass fraction of diethylenediamine (Liquid); method: Titration method
Temperature, K	Mass fraction of diethylenediamine	uncertainty
331.67	.7153	.02
333.05	.7494	.02
337.05	.759	.02
354.22	.829	.02
363.85	.8977	.02

System: 2-amino-2-methyl-1-propanol + water; phases: Liquid, Crystal
Fixed: Pressure, kPa = 101
Property: Mass fraction of 2-amino-2-methyl-1-propanol (Liquid); method: Titration method
Temperature, K	Mass fraction of 2-amino-2-methyl-1-propanol	uncertainty
272.58	.0249	.02
271.29	.0745	.02
271.404	.0746	.02
269.416	.148	.02
269.383	.1491	.02
269.19	.1553	.02
269.23	.1555	.02
266.489	.2249	.02
266.45	.2257	.02
264.66	.2592	.02
262.64	.2953	.02
262.2	.2992	.02
254.62	.3801	.02
243.15	.4434	.02

System: diethylenediamine + 2-amino-2-methyl-1-propanol + water; phases: Liquid, Crystal
Fixed: Pressure, kPa = 101
Property: Mass fraction of diethylenediamine (Liquid); method: Titration method
Temperature, K	Mass fraction of 2-amino-2-methyl-1-propanol	Mass fraction of diethylenediamine	uncertainty
271.139	.0754	.00881	.02
270.904	.0784	.016	.02
270.35	.079	.034	.02
270.57	.0975	.0086	.02
270.27	.1009	.0156	.02
269.79	.1	.0332	.02
269.064	.1484	.00812	.02
268.839	.1537	.0107	.02
268.91	.1538	.0108	.02
268.857	.1477	.0148	.02
268.68	.1528	.0177	.02
268.48	.1521	.0208	.02
268.276	.1503	.0332	.02
268.04	.1501	.0337	.02
264.17	.2567	.00958	.02
263.7	.2543	.0185	.02
273.4	.2494	.0375	.02

System: diethylenediamine + 2-amino-2-methyl-1-propanol + water; phases: Liquid, Crystal of intercomponent compound 1
Fixed: Pressure, kPa = 101
Property: Mass fraction of diethylenediamine (Liquid); method: Titration method
Temperature, K	Mass fraction of 2-amino-2-methyl-1-propanol	Mass fraction of diethylenediamine	uncertainty
281.35	.1453	.0659	.02
288.45	.1403	.098	.02
294.85	.1333	.1425	.02
283.387	.241	.0702	.02
289.808	.2331	.1007	.02
296.8	.2203	.1501	.02
303.15	.2073	.2002	.02
