Measured thermophysical data. Liquid-Liquid Equilibria for the System Dimethyl Carbonate +  Methanol + Glycerol in the Temperature Range of (303.15 to 333.15) K
Source: J. Chem. Eng. Data, 2012, 10.1021/je201036h
Compound 1: dimethyl carbonate, C3H6O3, purity 99%
Compound 2: methanol, CH4O, purity 99%
Compound 3: glycerin, C3H8O3, purity 99%

System: glycerin + methanol + dimethyl carbonate; phases: Liquid mixture 2, Liquid mixture 1
Fixed: Pressure, kPa = 101.3
Property: Mole fraction of dimethyl carbonate (Liquid mixture 2); method: Chromatography
Property: Mole fraction of methanol (Liquid mixture 1); method: Chromatography
Property: Mole fraction of dimethyl carbonate (Liquid mixture 1); method: Chromatography
Temperature, K	Mole fraction of methanol	Mole fraction of dimethyl carbonate	uncertainty	Mole fraction of methanol	uncertainty	Mole fraction of dimethyl carbonate	uncertainty
303.15	.1422	.0417	.009	.0595	.009	.9326	.009
303.15	.2699	.0602	.009	.1381	.009	.8513	.009
303.15	.326	.0625	.009	.1773	.009	.8003	.009
303.15	.4494	.1176	.009	.313	.009	.6416	.009
303.15	.4692	.1372	.009	.345	.009	.602	.009
303.15	.488	.1584	.009	.394	.009	.5522	.009
303.15	.4848	.2719	.009	.4674	.009	.4033	.009
313.15	.1271	.0425	.009	.0591	.009	.9289	.009
313.15	.3548	.0781	.009	.203	.009	.7725	.009
313.15	.3875	.1057	.009	.2459	.009	.7126	.009
313.15	.4021	.0966	.009	.2629	.009	.6942	.009
313.15	.4507	.1383	.009	.3323	.009	.5951	.009
313.15	.4766	.1709	.009	.3861	.009	.5136	.009
313.15	.4826	.1688	.009	.3898	.009	.4954	.009
323.15	.1587	.0529	.009	.0932	.009	.8922	.009
323.15	.2164	.0543	.009	.1429	.009	.8422	.009
323.15	.2956	.0778	.009	.1898	.009	.7681	.009
323.15	.3358	.1077	.009	.2469	.009	.6913	.009
323.15	.4023	.1408	.009	.3218	.009	.5917	.009
323.15	.4378	.1689	.009	.3605	.009	.5419	.009
323.15	.433	.1645	.009	.3809	.009	.4756	.009
333.15	.1404	.0627	.009	.057	.009	.9263	.009
333.15	.2021	.0709	.009	.1365	.009	.8405	.009
333.15	.2955	.0847	.009	.1765	.009	.7869	.009
333.15	.3353	.1039	.009	.2254	.009	.7336	.009
333.15	.3669	.1249	.009	.2915	.009	.6306	.009
333.15	.4055	.1675	.009	.3377	.009	.5737	.009
333.15	.424	.2002	.009	.349	.009	.5443	.009

System: glycerin + dimethyl carbonate; phases: Liquid mixture 1, Liquid mixture 2
Fixed: Pressure, kPa = 101.3
Property: Mole fraction of dimethyl carbonate (Liquid mixture 1); method: Chromatography
Temperature, K	Mole fraction of dimethyl carbonate	uncertainty
303.15	1	.009
313.15	1	.009
323.15	.9898	.009
333.15	.9888	.009

System: glycerin + dimethyl carbonate; phases: Liquid mixture 2, Liquid mixture 1
Fixed: Pressure, kPa = 101.3
Property: Mole fraction of dimethyl carbonate (Liquid mixture 2); method: Chromatography
Temperature, K	Mole fraction of dimethyl carbonate	uncertainty
303.15	.0222	.009
313.15	.0246	.009
323.15	.0363	.009
333.15	.0395	.009

System: glycerin + dimethyl carbonate; phases: Liquid, Gas
Fixed: Pressure, kPa = 101.3
Property: Boiling temperature at pressure P, K (Liquid); method: Closed cell (Static) method
Mole fraction of dimethyl carbonate	Boiling temperature at pressure P, K	uncertainty
1	363.15	.01
.9932	363.36	.01
.9875	363.75	.01
.0313	363.79	.01
.0569	372.43	.01
.052	374.39	.01
.0528	381.03	.01
.0287	384.82	.01
.0455	385.66	.01
.0338	387.94	.01
.0308	392.26	.01
.0206	399.87	.01
.0295	410.81	.01
.0171	414.34	.01

System: glycerin + dimethyl carbonate; phases: Gas, Liquid
Fixed: Pressure, kPa = 101.3
Property: Mole fraction of dimethyl carbonate (Gas); method: Chromatography
Mole fraction of dimethyl carbonate	Mole fraction of dimethyl carbonate	uncertainty
1	1	.009
.9932	1	.009
.9875	1	.009
.0313	.9914	.009
.0569	.9859	.009
.052	.9939	.009
.0528	.9962	.009
.0287	.9941	.009
.0455	.9956	.009
.0338	.9932	.009
.0308	.9928	.009
.0206	.9926	.009
.0295	.9888	.009
.0171	.9963	.009
