Measured thermophysical data. Specific Heat Capacity at Constant Pressure of Ethanol by Flow Calorimetry
Source: J. Chem. Eng. Data, 2012, 10.1021/je2013473
Compound 1: ethanol, C2H6O, purity 99.95%

System: ethanol; phases: Liquid
Property: Molar heat capacity at constant pressure, J/K/mol (Liquid); method: Flow calorimetry
Pressure, kPa	Temperature, K	Molar heat capacity at constant pressure, J/K/mol	uncertainty
101.3	265.005	102.0415946	27.1803796
101.3	270.007	102.91689496	25.7983264
101.3	273.004	103.51578468	25.7983264
101.3	275.013	104.3450166	27.641064
101.3	280	105.35852228	28.1017484
101.3	285.007	106.51023328	27.641064
101.3	290.009	107.66194428	30.8658548
101.3	294.986	108.53724464	29.4838016
101.3	300.028	109.68895564	30.4051704
101.3	305.003	111.34741948	28.1017484
101.3	310.006	112.91374644	30.4051704
101.3	320.006	117.2441798	26.7196952
500.3	320.009	117.42845356	28.5624328
997.9	319.996	117.61272732	27.1803796
1494.1	320.01	116.92170072	29.0231172

System: ethanol; phases: Liquid
Property: Molar heat capacity at constant pressure, J/K/mol (Liquid); method: Flow calorimetry
Pressure, kPa	Temperature, K	Molar heat capacity at constant pressure, J/K/mol	uncertainty
500	344.998	130.6040274	29.944486
500	345.004	130.92650648	31.3265392
500	345.003	130.78830116	29.4838016
500	345	131.38719088	29.0231172
500	345	130.6040274	25.7983264
500	345.003	131.11078024	28.1017484
101.3	300.004	109.50468188	28.1017484
101.3	310.022	112.26878828	27.1803796
101.3	315.006	114.9407578	28.1017484
101.3	320.006	116.69135852	32.7085924
101.3	325.003	120.05435464	29.4838016
101.3	329.999	122.35777664	26.7196952
101.3	300.011	109.45861344	31.3265392
101.3	305.021	111.34741948	32.247908
101.3	310	112.54519892	31.3265392
101.3	315.008	114.2497312	35.0120144
101.3	320.003	117.10597448	35.0120144
101.3	325.003	119.87008088	34.0906456
101.3	330.004	121.52854472	27.1803796
101.3	333.008	122.91059792	41.461596
101.3	335.003	124.01624048	30.8658548
101.3	338.013	126.50393624	31.7872236
101.3	339.99	127.47137348	30.8658548
101.3	342.997	130.05120612	28.5624328
101.3	345.001	130.88043804	29.0231172
101.3	348.003	132.07821748	31.3265392
