Measured thermophysical data. Viscosity and density measurement for six binary  mixtures of water (methanol or ethanol) with an ionic  liquid [BMIM][DMP] or [EMIM][DMP] at atmospheric  pressure in the temperature range of (293.15 to 333.15) K
Source: J. Chem. Eng. Data, 2012, 10.1021/je200600p
Compound 1: methanol, CH4O, purity 99.7%
Compound 2: water, H2O, purity 99.99%
Compound 3: ethanol, C2H6O, purity 99.7%
Compound 4: 1-ethyl-3-methylimidazolium dimethylphosphate, C8H17N2O4P, purity 99%
Compound 5: 1-butyl-3-methylimidazolium dimethylphosphate, C10H21N2O4P, purity 99%

System: methanol; phases: Liquid
Fixed: Pressure, kPa = 101.325
Property: Viscosity, Pa*s (Liquid); method: Concentric cylinders viscometry
Temperature, K	Viscosity, Pa*s	uncertainty
293.15	.0005676	.000005
298.15	.0005318	.000005
303.15	.0005008	.000005
308.15	.0004729	.000005
313.15	.0004482	.000005
318.15	.0004259	.000005
323.15	.0004055	.000005
328.15	.0003872	.000005
333.15	.000371	.000005

System: methanol; phases: Liquid
Fixed: Pressure, kPa = 101.325
Property: Mass density, kg/m3 (Liquid); method: Vibrating tube method
Temperature, K	Mass density, kg/m3	uncertainty
293.15	791.26	.01
298.15	786.55	.01
303.15	781.82	.01
308.15	777.07	.01
313.15	772.29	.01
318.15	767.48	.01
323.15	762.63	.01
328.15	757.73	.01
333.15	752.79	.01

System: ethanol; phases: Liquid
Fixed: Pressure, kPa = 101.325
Property: Viscosity, Pa*s (Liquid); method: Concentric cylinders viscometry
Temperature, K	Viscosity, Pa*s	uncertainty
293.15	.0011407	.000005
298.15	.0010371	.000005
303.15	.0009462	.000005
308.15	.0008653	.000005
313.15	.0007933	.000005
318.15	.0007298	.000005
323.15	.0006727	.000005
328.15	.0006219	.000005
333.15	.0005762	.000005

System: ethanol; phases: Liquid
Fixed: Pressure, kPa = 101.325
Property: Mass density, kg/m3 (Liquid); method: Vibrating tube method
Temperature, K	Mass density, kg/m3	uncertainty
293.15	790.12	.01
298.15	785.83	.01
303.15	781.52	.01
308.15	777.16	.01
313.15	772.77	.01
318.15	768.34	.01
323.15	763.85	.01
328.15	759.3	.01
333.15	754.68	.01

System: 1-ethyl-3-methylimidazolium dimethylphosphate; phases: Liquid
Fixed: Pressure, kPa = 101.325
Property: Viscosity, Pa*s (Liquid); method: Concentric cylinders viscometry
Temperature, K	Viscosity, Pa*s	uncertainty
293.15	.3788182	.000005
298.15	.2698721	.000005
303.15	.1981285	.000005
308.15	.1492101	.000005
313.15	.1149403	.000005
318.15	.0902739	.000005
323.15	.0722289	.000005
328.15	.0587332	.000005
333.15	.0485033	.000005

System: 1-ethyl-3-methylimidazolium dimethylphosphate; phases: Liquid
Fixed: Pressure, kPa = 101.325
Property: Mass density, kg/m3 (Liquid); method: Vibrating tube method
Temperature, K	Mass density, kg/m3	uncertainty
293.15	1223.38	.01
298.15	1220	.01
303.15	1216.61	.01
308.15	1213.22	.01
313.15	1209.84	.01
318.15	1206.48	.01
323.15	1203.13	.01
328.15	1199.8	.01
333.15	1196.48	.01

System: 1-butyl-3-methylimidazolium dimethylphosphate; phases: Liquid
Fixed: Pressure, kPa = 101.325
Property: Viscosity, Pa*s (Liquid); method: Concentric cylinders viscometry
Temperature, K	Viscosity, Pa*s	uncertainty
293.15	.83	.000005
298.15	.5847403	.000005
303.15	.4098813	.000005
308.15	.2939759	.000005
313.15	.2162598	.000005
318.15	.1626099	.000005
323.15	.124607	.000005
328.15	.0973764	.000005
333.15	.0772524	.000005

System: 1-butyl-3-methylimidazolium dimethylphosphate; phases: Liquid
Fixed: Pressure, kPa = 101.325
Property: Mass density, kg/m3 (Liquid); method: Vibrating tube method
Temperature, K	Mass density, kg/m3	uncertainty
293.15	1165.26	.01
298.15	1161.94	.01
303.15	1158.58	.01
308.15	1155.29	.01
313.15	1152.02	.01
318.15	1148.75	.01
323.15	1145.48	.01
328.15	1142.22	.01
333.15	1138.97	.01

System: water + 1-ethyl-3-methylimidazolium dimethylphosphate; phases: Liquid
Fixed: Pressure, kPa = 101
Property: Viscosity, Pa*s (Liquid); method: Concentric cylinders viscometry
Temperature, K	Mole fraction of 1-ethyl-3-methylimidazolium dimethylphosphate	Viscosity, Pa*s	uncertainty
293.15	.201	.0323479	.000005
293.15	.4	.0986225	.000005
293.15	.601	.1949176	.000005
293.15	.802	.2923427	.000005
298.15	.201	.0254719	.000005
298.15	.4	.0745308	.000005
298.15	.601	.1433683	.000005
298.15	.802	.2118071	.000005
303.15	.201	.0204361	.000005
303.15	.4	.057701	.000005
303.15	.601	.1081076	.000005
303.15	.802	.1573917	.000005
308.15	.201	.0166769	.000005
308.15	.4	.0454453	.000005
308.15	.601	.0835337	.000005
308.15	.802	.119676	.000005
313.15	.201	.0138096	.000005
313.15	.4	.0364309	.000005
313.15	.601	.0657445	.000005
313.15	.802	.0930051	.000005
318.15	.201	.0115713	.000005
318.15	.4	.0296848	.000005
318.15	.601	.0527258	.000005
318.15	.802	.0737085	.000005
323.15	.201	.0098117	.000005
323.15	.4	.0245512	.000005
323.15	.601	.0429875	.000005
323.15	.802	.0593735	.000005
328.15	.201	.0084054	.000005
328.15	.4	.0205837	.000005
328.15	.601	.0355645	.000005
328.15	.802	.0486089	.000005
333.15	.201	.0072643	.000005
333.15	.4	.0174623	.000005
333.15	.601	.0298123	.000005
333.15	.802	.0403342	.000005

System: water + 1-ethyl-3-methylimidazolium dimethylphosphate; phases: Liquid
Fixed: Pressure, kPa = 101
Property: Mass density, kg/m3 (Liquid); method: Vibrating tube method
Temperature, K	Mole fraction of 1-ethyl-3-methylimidazolium dimethylphosphate	Mass density, kg/m3	uncertainty
293.15	.201	1194.99	.01
293.15	.4	1217.88	.01
293.15	.601	1222.6	.01
293.15	.802	1223.33	.01
298.15	.201	1191.36	.01
298.15	.4	1214.42	.01
298.15	.601	1219.24	.01
298.15	.802	1219.97	.01
303.15	.201	1187.69	.01
303.15	.4	1210.96	.01
303.15	.601	1215.85	.01
303.15	.802	1216.6	.01
308.15	.201	1183.98	.01
308.15	.4	1207.51	.01
308.15	.601	1212.47	.01
308.15	.802	1213.23	.01
313.15	.201	1180.22	.01
313.15	.4	1204.05	.01
313.15	.601	1209.09	.01
313.15	.802	1209.87	.01
318.15	.201	1176.48	.01
318.15	.4	1200.57	.01
318.15	.601	1205.72	.01
318.15	.802	1206.51	.01
323.15	.201	1172.67	.01
323.15	.4	1197.1	.01
323.15	.601	1202.35	.01
323.15	.802	1203.17	.01
328.15	.201	1168.81	.01
328.15	.4	1193.61	.01
328.15	.601	1198.98	.01
328.15	.802	1199.85	.01
333.15	.201	1164.95	.01
333.15	.4	1190.11	.01
333.15	.601	1195.62	.01
333.15	.802	1196.53	.01

System: water + 1-butyl-3-methylimidazolium dimethylphosphate; phases: Liquid
Fixed: Pressure, kPa = 101
Property: Viscosity, Pa*s (Liquid); method: Concentric cylinders viscometry
Temperature, K	Mole fraction of water	Viscosity, Pa*s	uncertainty
293.15	.201	.039936	.000005
293.15	.399	.1483362	.000005
293.15	.602	.3563657	.000005
293.15	.799	.5938112	.000005
298.15	.201	.0306762	.000005
298.15	.399	.108497	.000005
298.15	.602	.2508091	.000005
298.15	.799	.4096985	.000005
303.15	.201	.0241652	.000005
303.15	.399	.0815876	.000005
303.15	.602	.1815693	.000005
303.15	.799	.2907366	.000005
308.15	.201	.019421	.000005
308.15	.399	.0625441	.000005
308.15	.602	.1347069	.000005
308.15	.799	.2115964	.000005
313.15	.201	.0158143	.000005
313.15	.399	.0489343	.000005
313.15	.602	.101957	.000005
313.15	.799	.1575454	.000005
318.15	.201	.0131363	.000005
318.15	.399	.0390465	.000005
318.15	.602	.0788412	.000005
318.15	.799	.1197226	.000005
323.15	.201	.0110474	.000005
323.15	.399	.0316701	.000005
323.15	.602	.0620692	.000005
323.15	.799	.0926922	.000005
328.15	.201	.0093714	.000005
328.15	.399	.0260458	.000005
328.15	.602	.0496846	.000005
328.15	.799	.0731147	.000005
333.15	.201	.0080369	.000005
333.15	.399	.0216884	.000005
333.15	.602	.0404044	.000005
333.15	.799	.0585482	.000005

System: water + 1-butyl-3-methylimidazolium dimethylphosphate; phases: Liquid
Fixed: Pressure, kPa = 101
Property: Mass density, kg/m3 (Liquid); method: Vibrating tube method
Temperature, K	Mole fraction of water	Mass density, kg/m3	uncertainty
293.15	.201	1148.84	.01
293.15	.399	1162.85	.01
293.15	.602	1165.72	.01
293.15	.799	1165.69	.01
298.15	.201	1145.23	.01
298.15	.399	1159.41	.01
298.15	.602	1162.42	.01
298.15	.799	1162.4	.01
303.15	.201	1141.57	.01
303.15	.399	1155.95	.01
303.15	.602	1159.09	.01
303.15	.799	1159.12	.01
308.15	.201	1137.86	.01
308.15	.399	1152.48	.01
308.15	.602	1155.74	.01
308.15	.799	1155.85	.01
313.15	.201	1134.09	.01
313.15	.399	1149.01	.01
313.15	.602	1152.38	.01
313.15	.799	1152.5	.01
318.15	.201	1130.3	.01
318.15	.399	1145.53	.01
318.15	.602	1149.02	.01
318.15	.799	1149.2	.01
323.15	.201	1126.55	.01
323.15	.399	1142.04	.01
323.15	.602	1145.67	.01
323.15	.799	1145.9	.01
328.15	.201	1122.77	.01
328.15	.399	1138.54	.01
328.15	.602	1142.31	.01
328.15	.799	1142.61	.01
333.15	.201	1118.91	.01
333.15	.399	1135.05	.01
333.15	.602	1138.95	.01
333.15	.799	1139.32	.01

System: methanol + 1-ethyl-3-methylimidazolium dimethylphosphate; phases: Liquid
Fixed: Pressure, kPa = 101
Property: Viscosity, Pa*s (Liquid); method: Concentric cylinders viscometry
Temperature, K	Mole fraction of 1-ethyl-3-methylimidazolium dimethylphosphate	Viscosity, Pa*s	uncertainty
293.15	.201	.0053084	.000005
293.15	.402	.0243233	.000005
293.15	.601	.0779231	.000005
293.15	.802	.1975681	.000005
298.15	.201	.0047689	.000005
298.15	.402	.0206241	.000005
298.15	.601	.0617379	.000005
298.15	.802	.1477952	.000005
303.15	.201	.0043089	.000005
303.15	.402	.017641	.000005
303.15	.601	.0496859	.000005
303.15	.802	.1126709	.000005
308.15	.201	.0039113	.000005
308.15	.402	.0152557	.000005
308.15	.601	.0407186	.000005
308.15	.802	.0880087	.000005
313.15	.201	.0035659	.000005
313.15	.402	.0132805	.000005
313.15	.601	.0338429	.000005
313.15	.802	.0701576	.000005
318.15	.201	.0032652	.000005
318.15	.402	.0116683	.000005
318.15	.601	.028412	.000005
318.15	.802	.0568336	.000005
323.15	.201	.0029977	.000005
323.15	.402	.010298	.000005
323.15	.601	.0242408	.000005
323.15	.802	.0467282	.000005
328.15	.201	.0027634	.000005
328.15	.402	.0091317	.000005
328.15	.601	.0208151	.000005
328.15	.802	.0390229	.000005
333.15	.201	.0025549	.000005
333.15	.402	.0081884	.000005
333.15	.601	.018062	.000005
333.15	.802	.0329647	.000005

System: methanol + 1-ethyl-3-methylimidazolium dimethylphosphate; phases: Liquid
Fixed: Pressure, kPa = 101
Property: Mass density, kg/m3 (Liquid); method: Vibrating tube method
Temperature, K	Mole fraction of 1-ethyl-3-methylimidazolium dimethylphosphate	Mass density, kg/m3	uncertainty
293.15	.201	1049.11	.01
293.15	.402	1134.94	.01
293.15	.601	1179.14	.01
293.15	.802	1207.11	.01
298.15	.201	1045.28	.01
298.15	.402	1131.29	.01
298.15	.601	1175.62	.01
298.15	.802	1203.68	.01
303.15	.201	1041.44	.01
303.15	.402	1127.6	.01
303.15	.601	1172.11	.01
303.15	.802	1200.23	.01
308.15	.201	1037.6	.01
308.15	.402	1123.83	.01
308.15	.601	1168.63	.01
308.15	.802	1196.8	.01
313.15	.201	1033.76	.01
313.15	.402	1120.16	.01
313.15	.601	1165.16	.01
313.15	.802	1193.4	.01
318.15	.201	1029.93	.01
318.15	.402	1116.41	.01
318.15	.601	1161.71	.01
318.15	.802	1190.01	.01
323.15	.201	1026.11	.01
323.15	.402	1112.64	.01
323.15	.601	1158.27	.01
323.15	.802	1186.64	.01
328.15	.201	1022.28	.01
328.15	.402	1108.8	.01
328.15	.601	1154.85	.01
328.15	.802	1183.29	.01
333.15	.201	1018.46	.01
333.15	.402	1104.96	.01
333.15	.601	1151.44	.01
333.15	.802	1179.95	.01

System: methanol + 1-butyl-3-methylimidazolium dimethylphosphate; phases: Liquid
Fixed: Pressure, kPa = 101
Property: Viscosity, Pa*s (Liquid); method: Concentric cylinders viscometry
Temperature, K	Mole fraction of methanol	Viscosity, Pa*s	uncertainty
293.15	.2	.0071838	.000005
293.15	.4	.0385809	.000005
293.15	.596	.1501236	.000005
293.15	.797	.3947058	.000005
298.15	.2	.0062672	.000005
298.15	.4	.0315853	.000005
298.15	.596	.1132933	.000005
298.15	.797	.2816608	.000005
303.15	.2	.0055358	.000005
303.15	.4	.0261941	.000005
303.15	.596	.0875174	.000005
303.15	.797	.2062822	.000005
308.15	.2	.0049235	.000005
308.15	.4	.0219915	.000005
308.15	.596	.0686931	.000005
308.15	.797	.1544221	.000005
313.15	.2	.0044011	.000005
313.15	.4	.0185941	.000005
313.15	.596	.0548566	.000005
313.15	.797	.1179218	.000005
318.15	.2	.0039724	.000005
318.15	.4	.0159444	.000005
318.15	.596	.0443669	.000005
318.15	.797	.0915067	.000005
323.15	.2	.0036651	.000005
323.15	.4	.0137833	.000005
323.15	.596	.0364882	.000005
323.15	.797	.0724681	.000005
328.15	.2	.0033382	.000005
328.15	.4	.0119872	.000005
328.15	.596	.0303694	.000005
328.15	.797	.0583007	.000005
333.15	.2	.003051	.000005
333.15	.4	.010477	.000005
333.15	.596	.0255123	.000005
333.15	.797	.047598	.000005

System: methanol + 1-butyl-3-methylimidazolium dimethylphosphate; phases: Liquid
Fixed: Pressure, kPa = 101
Property: Mass density, kg/m3 (Liquid); method: Vibrating tube method
Temperature, K	Mole fraction of methanol	Mass density, kg/m3	uncertainty
293.15	.2	1026.82	.01
293.15	.4	1098.17	.01
293.15	.596	1132.47	.01
293.15	.797	1152.25	.01
298.15	.2	1022.93	.01
298.15	.4	1094.6	.01
298.15	.596	1129.08	.01
298.15	.797	1148.95	.01
303.15	.2	1018.99	.01
303.15	.4	1091.05	.01
303.15	.596	1125.66	.01
303.15	.797	1145.63	.01
308.15	.2	1015.51	.01
308.15	.4	1087.49	.01
308.15	.596	1122.25	.01
308.15	.797	1142.3	.01
313.15	.2	1011.77	.01
313.15	.4	1083.94	.01
313.15	.596	1118.85	.01
313.15	.797	1138.97	.01
318.15	.2	1008	.01
318.15	.4	1080.37	.01
318.15	.596	1115.46	.01
318.15	.797	1135.64	.01
323.15	.2	1004.23	.01
323.15	.4	1076.77	.01
323.15	.596	1112.09	.01
323.15	.797	1132.32	.01
328.15	.2	1000.46	.01
328.15	.4	1073.12	.01
328.15	.596	1108.72	.01
328.15	.797	1129	.01
333.15	.2	996.69	.01
333.15	.4	1069.33	.01
333.15	.596	1105.36	.01
333.15	.797	1125.7	.01

System: ethanol + 1-ethyl-3-methylimidazolium dimethylphosphate; phases: Liquid
Fixed: Pressure, kPa = 101
Property: Viscosity, Pa*s (Liquid); method: Concentric cylinders viscometry
Temperature, K	Mole fraction of 1-ethyl-3-methylimidazolium dimethylphosphate	Viscosity, Pa*s	uncertainty
293.15	.202	.0068983	.000005
293.15	.402	.0276284	.000005
293.15	.602	.0872716	.000005
293.15	.801	.1905915	.000005
298.15	.202	.0061272	.000005
298.15	.402	.0232949	.000005
298.15	.602	.0688276	.000005
298.15	.801	.1427355	.000005
303.15	.202	.0054709	.000005
303.15	.402	.0198337	.000005
303.15	.602	.0552367	.000005
303.15	.801	.109485	.000005
308.15	.202	.0049039	.000005
308.15	.402	.0170541	.000005
308.15	.602	.0449986	.000005
308.15	.801	.0857642	.000005
313.15	.202	.0044251	.000005
313.15	.402	.0147961	.000005
313.15	.602	.0373693	.000005
313.15	.801	.0684263	.000005
318.15	.202	.0040043	.000005
318.15	.402	.0129223	.000005
318.15	.602	.0312518	.000005
318.15	.801	.0555306	.000005
323.15	.202	.0036338	.000005
323.15	.402	.0113635	.000005
323.15	.602	.026444	.000005
323.15	.801	.0457471	.000005
328.15	.202	.0033181	.000005
328.15	.402	.0100439	.000005
328.15	.602	.0226427	.000005
328.15	.801	.0382129	.000005
333.15	.202	.0030365	.000005
333.15	.402	.0089509	.000005
333.15	.602	.0195642	.000005
333.15	.801	.032266	.000005

System: ethanol + 1-ethyl-3-methylimidazolium dimethylphosphate; phases: Liquid
Fixed: Pressure, kPa = 101
Property: Mass density, kg/m3 (Liquid); method: Vibrating tube method
Temperature, K	Mole fraction of 1-ethyl-3-methylimidazolium dimethylphosphate	Mass density, kg/m3	uncertainty
293.15	.202	998.79	.01
293.15	.402	1098.9	.01
293.15	.602	1158.2	.01
293.15	.801	1196.12	.01
298.15	.202	995.02	.01
298.15	.402	1095.3	.01
298.15	.602	1154.7	.01
298.15	.801	1192.68	.01
303.15	.202	991.24	.01
303.15	.402	1091.7	.01
303.15	.602	1151.2	.01
303.15	.801	1189.23	.01
308.15	.202	987.46	.01
308.15	.402	1088.11	.01
308.15	.602	1147.71	.01
308.15	.801	1185.8	.01
313.15	.202	983.69	.01
313.15	.402	1084.53	.01
313.15	.602	1144.23	.01
313.15	.801	1182.39	.01
318.15	.202	979.9	.01
318.15	.402	1080.96	.01
318.15	.602	1140.77	.01
318.15	.801	1179	.01
323.15	.202	976.12	.01
323.15	.402	1077.39	.01
323.15	.602	1137.32	.01
323.15	.801	1175.62	.01
328.15	.202	972.34	.01
328.15	.402	1073.83	.01
328.15	.602	1133.88	.01
328.15	.801	1172.26	.01
333.15	.202	968.55	.01
333.15	.402	1070.27	.01
333.15	.602	1130.46	.01
333.15	.801	1168.9	.01

System: ethanol + 1-butyl-3-methylimidazolium dimethylphosphate; phases: Liquid
Fixed: Pressure, kPa = 101
Property: Viscosity, Pa*s (Liquid); method: Concentric cylinders viscometry
Temperature, K	Mole fraction of ethanol	Viscosity, Pa*s	uncertainty
293.15	.2	.0088419	.000005
293.15	.4	.0420786	.000005
293.15	.601	.1509317	.000005
293.15	.799	.3960081	.000005
298.15	.2	.007704	.000005
298.15	.4	.0342958	.000005
298.15	.601	.1144414	.000005
298.15	.799	.2836341	.000005
303.15	.2	.0067184	.000005
303.15	.4	.0281756	.000005
303.15	.601	.0889263	.000005
303.15	.799	.2103247	.000005
308.15	.2	.005933	.000005
308.15	.4	.0235649	.000005
308.15	.601	.0698643	.000005
308.15	.799	.1557119	.000005
313.15	.2	.0052723	.000005
313.15	.4	.0198687	.000005
313.15	.601	.055652	.000005
313.15	.799	.1189911	.000005
318.15	.2	.0047106	.000005
318.15	.4	.0169734	.000005
318.15	.601	.045202	.000005
318.15	.799	.0926588	.000005
323.15	.2	.0042273	.000005
323.15	.4	.0145886	.000005
323.15	.601	.0370823	.000005
323.15	.799	.0733219	.000005
328.15	.2	.0038114	.000005
328.15	.4	.0126607	.000005
328.15	.601	.0308925	.000005
328.15	.799	.0590565	.000005
333.15	.2	.003454	.000005
333.15	.4	.011058	.000005
333.15	.601	.0259446	.000005
333.15	.799	.0481591	.000005

System: ethanol + 1-butyl-3-methylimidazolium dimethylphosphate; phases: Liquid
Fixed: Pressure, kPa = 101
Property: Mass density, kg/m3 (Liquid); method: Vibrating tube method
Temperature, K	Mole fraction of ethanol	Mass density, kg/m3	uncertainty
293.15	.2	986.25	.01
293.15	.4	1068.97	.01
293.15	.601	1114.91	.01
293.15	.799	1144.73	.01
298.15	.2	982.55	.01
298.15	.4	1065.45	.01
298.15	.601	1111.48	.01
298.15	.799	1141.41	.01
303.15	.2	978.83	.01
303.15	.4	1061.92	.01
303.15	.601	1108.04	.01
303.15	.799	1138.09	.01
308.15	.2	975.11	.01
308.15	.4	1058.39	.01
308.15	.601	1104.61	.01
308.15	.799	1134.75	.01
313.15	.2	971.4	.01
313.15	.4	1054.87	.01
313.15	.601	1101.2	.01
313.15	.799	1131.42	.01
318.15	.2	967.68	.01
318.15	.4	1051.36	.01
318.15	.601	1097.79	.01
318.15	.799	1128.09	.01
323.15	.2	963.95	.01
323.15	.4	1047.85	.01
323.15	.601	1094.39	.01
323.15	.799	1124.77	.01
328.15	.2	960.23	.01
328.15	.4	1044.32	.01
328.15	.601	1090.98	.01
328.15	.799	1121.45	.01
333.15	.2	956.5	.01
333.15	.4	1040.8	.01
333.15	.601	1087.58	.01
333.15	.799	1118.15	.01
