Measured thermophysical data. Experimental and Predicted Kinematic Viscosities for Alkane + Chloroalkane Mixtures
Source: J. Chem. Eng. Data, 2011, 10.1021/je200213h
Compound 1: 1-chlorobutane, C4H9Cl, purity 99%
Compound 2: 1-methylpropyl chloride, C4H9Cl, purity 99%
Compound 3: 2-methyl-2-chloropropane, C4H9Cl, purity 99%
Compound 4: n-hexane, C6H14, purity 99%
Compound 5: heptane, C7H16, purity 99%
Compound 6: 3-methylpentane, C6H14, purity 99%
Compound 7: neohexane, C6H14, purity 99%
Compound 8: propane, 1-chloro-2-methyl-, C4H9Cl, purity 99%

System: 1-chlorobutane; phases: Liquid
Fixed: Pressure, kPa = 101.325
Property: Kinematic viscosity, m2/s (Liquid); method: Capillary tube (Ostwald; Ubbelohde) method
Temperature, K	Kinematic viscosity, m2/s	uncertainty
283.15	.0000005564	.0000000001
298.15	.0000004785	.0000000001
313.15	.0000004216	.0000000001

System: 1-methylpropyl chloride; phases: Liquid
Fixed: Pressure, kPa = 101.325
Property: Kinematic viscosity, m2/s (Liquid); method: Capillary tube (Ostwald; Ubbelohde) method
Temperature, K	Kinematic viscosity, m2/s	uncertainty
283.15	.0000005237	.0000000001
298.15	.0000004603	.0000000001
313.15	.0000004049	.0000000001

System: 2-methyl-2-chloropropane; phases: Liquid
Fixed: Pressure, kPa = 101.325
Property: Kinematic viscosity, m2/s (Liquid); method: Capillary tube (Ostwald; Ubbelohde) method
Temperature, K	Kinematic viscosity, m2/s	uncertainty
283.15	.0000006992	.0000000001
298.15	.0000005696	.0000000001
313.15	.000000477	.0000000001

System: n-hexane; phases: Liquid
Fixed: Pressure, kPa = 101.325
Property: Kinematic viscosity, m2/s (Liquid); method: Capillary tube (Ostwald; Ubbelohde) method
Temperature, K	Kinematic viscosity, m2/s	uncertainty
283.15	.0000005125	.0000000001
298.15	.0000004493	.0000000001
313.15	.0000004039	.0000000001

System: heptane; phases: Liquid
Fixed: Pressure, kPa = 101.325
Property: Kinematic viscosity, m2/s (Liquid); method: Capillary tube (Ostwald; Ubbelohde) method
Temperature, K	Kinematic viscosity, m2/s	uncertainty
283.15	.0000006697	.0000000001
298.15	.0000005754	.0000000001
313.15	.0000004986	.0000000001

System: 3-methylpentane; phases: Liquid
Fixed: Pressure, kPa = 101.325
Property: Kinematic viscosity, m2/s (Liquid); method: Capillary tube (Ostwald; Ubbelohde) method
Temperature, K	Kinematic viscosity, m2/s	uncertainty
283.15	.0000004928	.0000000001
298.15	.0000004366	.0000000001
313.15	.0000003881	.0000000001

System: neohexane; phases: Liquid
Fixed: Pressure, kPa = 101.325
Property: Kinematic viscosity, m2/s (Liquid); method: Capillary tube (Ostwald; Ubbelohde) method
Temperature, K	Kinematic viscosity, m2/s	uncertainty
283.15	.0000006234	.0000000001
298.15	.0000005206	.0000000001
313.15	.0000004579	.0000000001

System: propane, 1-chloro-2-methyl-; phases: Liquid
Fixed: Pressure, kPa = 101.325
Property: Kinematic viscosity, m2/s (Liquid); method: Capillary tube (Ostwald; Ubbelohde) method
Temperature, K	Kinematic viscosity, m2/s	uncertainty
283.15	.00000058	.0000000001
298.15	.0000004929	.0000000001
313.15	.0000004363	.0000000001

System: 3-methylpentane + 1-chlorobutane; phases: Liquid
Fixed: Pressure, kPa = 101
Property: Kinematic viscosity, m2/s (Liquid); method: Capillary tube (Ostwald; Ubbelohde) method
Temperature, K	Mole fraction of 3-methylpentane	Kinematic viscosity, m2/s	uncertainty
283.15	.0518	.0000005496	.0000000001
283.15	.094	.0000005448	.0000000001
283.15	.2038	.0000005326	.0000000001
283.15	.304	.0000005228	.0000000001
283.15	.4059	.0000005143	.0000000001
283.15	.5021	.0000005075	.0000000001
283.15	.5999	.0000005017	.0000000001
283.15	.7043	.000000497	.0000000001
283.15	.8049	.0000004945	.0000000001
283.15	.9038	.0000004928	.0000000001
283.15	.9492	.0000004928	.0000000001
298.15	.0518	.0000004734	.0000000001
298.15	.094	.0000004704	.0000000001
298.15	.2038	.0000004622	.0000000001
298.15	.304	.0000004553	.0000000001
298.15	.4059	.00000045	.0000000001
298.15	.5021	.0000004453	.0000000001
298.15	.5999	.0000004411	.0000000001
298.15	.7043	.0000004382	.0000000001
298.15	.8049	.0000004365	.0000000001
298.15	.9038	.0000004351	.0000000001
298.15	.9492	.0000004355	.0000000001
313.15	.0518	.0000004175	.0000000001
313.15	.094	.0000004155	.0000000001
313.15	.2038	.0000004088	.0000000001
313.15	.304	.0000004036	.0000000001
313.15	.4059	.0000003988	.0000000001
313.15	.5021	.0000003952	.0000000001
313.15	.5999	.0000003921	.0000000001
313.15	.7043	.0000003896	.0000000001
313.15	.8049	.0000003884	.0000000001
313.15	.9038	.0000003879	.0000000001
313.15	.9492	.0000003877	.0000000001

System: 1-methylpropyl chloride + 3-methylpentane; phases: Liquid
Fixed: Pressure, kPa = 101
Property: Kinematic viscosity, m2/s (Liquid); method: Capillary tube (Ostwald; Ubbelohde) method
Temperature, K	Mole fraction of 3-methylpentane	Kinematic viscosity, m2/s	uncertainty
283.15	.0518	.0000005193	.0000000001
283.15	.101	.0000005142	.0000000001
283.15	.2014	.0000005066	.0000000001
283.15	.3025	.0000004995	.0000000001
283.15	.4027	.0000004943	.0000000001
283.15	.4998	.0000004906	.0000000001
283.15	.6043	.0000004881	.0000000001
283.15	.7008	.000000487	.0000000001
283.15	.8004	.0000004874	.0000000001
283.15	.8981	.0000004897	.0000000001
283.15	.9481	.0000004911	.0000000001
298.15	.0518	.0000004574	.0000000001
298.15	.101	.0000004542	.0000000001
298.15	.2014	.0000004483	.0000000001
298.15	.3025	.0000004431	.0000000001
298.15	.4027	.000000439	.0000000001
298.15	.4998	.0000004362	.0000000001
298.15	.6043	.0000004345	.0000000001
298.15	.7008	.000000434	.0000000001
298.15	.8004	.0000004337	.0000000001
298.15	.8981	.0000004344	.0000000001
298.15	.9481	.0000004356	.0000000001
313.15	.0518	.0000004031	.0000000001
313.15	.101	.0000004004	.0000000001
313.15	.2014	.0000003958	.0000000001
313.15	.3025	.0000003919	.0000000001
313.15	.4027	.0000003885	.0000000001
313.15	.4998	.0000003865	.0000000001
313.15	.6043	.0000003851	.0000000001
313.15	.7008	.0000003844	.0000000001
313.15	.8004	.0000003847	.0000000001
313.15	.8981	.0000003858	.0000000001
313.15	.9481	.0000003868	.0000000001

System: 3-methylpentane + propane, 1-chloro-2-methyl-; phases: Liquid
Fixed: Pressure, kPa = 101
Property: Kinematic viscosity, m2/s (Liquid); method: Capillary tube (Ostwald; Ubbelohde) method
Temperature, K	Mole fraction of 3-methylpentane	Kinematic viscosity, m2/s	uncertainty
283.15	.0522	.0000005703	.0000000001
283.15	.1013	.0000005618	.0000000001
283.15	.2024	.0000005464	.0000000001
283.15	.3032	.0000005324	.0000000001
283.15	.4028	.0000005212	.0000000001
283.15	.5056	.0000005115	.0000000001
283.15	.604	.0000005043	.0000000001
283.15	.7018	.0000004988	.0000000001
283.15	.8002	.0000004949	.0000000001
283.15	.898	.000000493	.0000000001
283.15	.9486	.0000004927	.0000000001
298.15	.0522	.000000487	.0000000001
298.15	.1013	.0000004823	.0000000001
298.15	.2024	.0000004717	.0000000001
298.15	.3032	.0000004631	.0000000001
298.15	.4028	.000000455	.0000000001
298.15	.5056	.0000004484	.0000000001
298.15	.604	.000000443	.0000000001
298.15	.7018	.0000004396	.0000000001
298.15	.8002	.000000437	.0000000001
298.15	.898	.0000004357	.0000000001
298.15	.9486	.0000004355	.0000000001
313.15	.0522	.0000004322	.0000000001
313.15	.1013	.0000004275	.0000000001
313.15	.2024	.0000004187	.0000000001
313.15	.3032	.0000004113	.0000000001
313.15	.4028	.0000004048	.0000000001
313.15	.5056	.0000003994	.0000000001
313.15	.604	.0000003951	.0000000001
313.15	.7018	.0000003918	.0000000001
313.15	.8002	.0000003896	.0000000001
313.15	.898	.0000003881	.0000000001
313.15	.9486	.0000003879	.0000000001

System: 3-methylpentane + 2-methyl-2-chloropropane; phases: Liquid
Fixed: Pressure, kPa = 101
Property: Kinematic viscosity, m2/s (Liquid); method: Capillary tube (Ostwald; Ubbelohde) method
Temperature, K	Mole fraction of 3-methylpentane	Kinematic viscosity, m2/s	uncertainty
283.15	.0496	.0000006755	.0000000001
283.15	.0995	.0000006538	.0000000001
283.15	.2046	.0000006148	.0000000001
283.15	.3023	.0000005848	.0000000001
283.15	.405	.0000005592	.0000000001
283.15	.5064	.0000005394	.0000000001
283.15	.6033	.0000005235	.0000000001
283.15	.7038	.0000005114	.0000000001
283.15	.8012	.0000005026	.0000000001
283.15	.9018	.0000004964	.0000000001
283.15	.9514	.0000004946	.0000000001
298.15	.0496	.0000005548	.0000000001
298.15	.0995	.00000054	.0000000001
298.15	.2046	.000000514	.0000000001
298.15	.3023	.0000004937	.0000000001
298.15	.405	.0000004767	.0000000001
298.15	.5064	.0000004637	.0000000001
298.15	.6033	.0000004536	.0000000001
298.15	.7038	.0000004462	.0000000001
298.15	.8012	.000000441	.0000000001
298.15	.9018	.0000004377	.0000000001
298.15	.9514	.0000004372	.0000000001
313.15	.0496	.0000004681	.0000000001
313.15	.0995	.0000004576	.0000000001
313.15	.2046	.00000044	.0000000001
313.15	.3023	.0000004256	.0000000001
313.15	.405	.000000414	.0000000001
313.15	.5064	.0000004051	.0000000001
313.15	.6033	.0000003984	.0000000001
313.15	.7038	.0000003933	.0000000001
313.15	.8012	.00000039	.0000000001
313.15	.9018	.0000003881	.0000000001
313.15	.9514	.000000388	.0000000001

System: neohexane + 1-chlorobutane; phases: Liquid
Fixed: Pressure, kPa = 101
Property: Kinematic viscosity, m2/s (Liquid); method: Capillary tube (Ostwald; Ubbelohde) method
Temperature, K	Mole fraction of neohexane	Kinematic viscosity, m2/s	uncertainty
283.15	.0524	.0000005594	.0000000001
283.15	.101	.0000005603	.0000000001
283.15	.1995	.0000005627	.0000000001
283.15	.3081	.0000005663	.0000000001
283.15	.3985	.0000005705	.0000000001
283.15	.499	.000000576	.0000000001
283.15	.5984	.0000005822	.0000000001
283.15	.7015	.0000005899	.0000000001
283.15	.7986	.0000005992	.0000000001
283.15	.9002	.0000006098	.0000000001
283.15	.9487	.000000616	.0000000001
298.15	.0524	.0000004802	.0000000001
298.15	.101	.0000004809	.0000000001
298.15	.1995	.0000004822	.0000000001
298.15	.3081	.0000004846	.0000000001
298.15	.3985	.0000004867	.0000000001
298.15	.499	.0000004898	.0000000001
298.15	.5984	.0000004943	.0000000001
298.15	.7015	.0000005	.0000000001
298.15	.7986	.0000005063	.0000000001
298.15	.9002	.0000005133	.0000000001
298.15	.9487	.000000517	.0000000001
313.15	.0524	.0000004231	.0000000001
313.15	.101	.0000004239	.0000000001
313.15	.1995	.0000004253	.0000000001
313.15	.3081	.0000004275	.0000000001
313.15	.3985	.0000004294	.0000000001
313.15	.499	.0000004322	.0000000001
313.15	.5984	.0000004362	.0000000001
313.15	.7015	.0000004409	.0000000001
313.15	.7986	.0000004463	.0000000001
313.15	.9002	.000000452	.0000000001
313.15	.9487	.000000455	.0000000001

System: neohexane + 1-methylpropyl chloride; phases: Liquid
Fixed: Pressure, kPa = 101
Property: Kinematic viscosity, m2/s (Liquid); method: Capillary tube (Ostwald; Ubbelohde) method
Temperature, K	Mole fraction of neohexane	Kinematic viscosity, m2/s	uncertainty
283.15	.0448	.0000005266	.0000000001
283.15	.0993	.00000053	.0000000001
283.15	.2003	.0000005356	.0000000001
283.15	.301	.0000005421	.0000000001
283.15	.3993	.0000005494	.0000000001
283.15	.4989	.0000005579	.0000000001
283.15	.6039	.0000005683	.0000000001
283.15	.7002	.0000005793	.0000000001
283.15	.8033	.0000005935	.0000000001
283.15	.9028	.000000607	.0000000001
283.15	.9518	.0000006147	.0000000001
298.15	.0448	.0000004621	.0000000001
298.15	.0993	.000000464	.0000000001
298.15	.2003	.0000004679	.0000000001
298.15	.301	.0000004719	.0000000001
298.15	.3993	.0000004761	.0000000001
298.15	.4989	.0000004815	.0000000001
298.15	.6039	.000000488	.0000000001
298.15	.7002	.0000004949	.0000000001
298.15	.8033	.0000005036	.0000000001
298.15	.9028	.0000005122	.0000000001
298.15	.9518	.0000005165	.0000000001
313.15	.0448	.000000407	.0000000001
313.15	.0993	.0000004086	.0000000001
313.15	.2003	.000000412	.0000000001
313.15	.301	.0000004157	.0000000001
313.15	.3993	.00000042	.0000000001
313.15	.4989	.0000004251	.0000000001
313.15	.6039	.0000004309	.0000000001
313.15	.7002	.0000004368	.0000000001
313.15	.8033	.0000004438	.0000000001
313.15	.9028	.0000004508	.0000000001
313.15	.9518	.0000004546	.0000000001

System: neohexane + propane, 1-chloro-2-methyl-; phases: Liquid
Fixed: Pressure, kPa = 101
Property: Kinematic viscosity, m2/s (Liquid); method: Capillary tube (Ostwald; Ubbelohde) method
Temperature, K	Mole fraction of neohexane	Kinematic viscosity, m2/s	uncertainty
283.15	.0487	.000000582	.0000000001
283.15	.0994	.0000005816	.0000000001
283.15	.1995	.0000005814	.0000000001
283.15	.2985	.0000005821	.0000000001
283.15	.3993	.0000005834	.0000000001
283.15	.5018	.0000005866	.0000000001
283.15	.6011	.0000005899	.0000000001
283.15	.6985	.0000005953	.0000000001
283.15	.7995	.0000006024	.0000000001
283.15	.8988	.0000006115	.0000000001
283.15	.9479	.0000006158	.0000000001
298.15	.0487	.000000494	.0000000001
298.15	.0994	.0000004941	.0000000001
298.15	.1995	.0000004939	.0000000001
298.15	.2985	.0000004939	.0000000001
298.15	.3993	.0000004942	.0000000001
298.15	.5018	.0000004958	.0000000001
298.15	.6011	.0000004986	.0000000001
298.15	.6985	.0000005025	.0000000001
298.15	.7995	.0000005071	.0000000001
298.15	.8988	.000000513	.0000000001
298.15	.9479	.0000005163	.0000000001
313.15	.0487	.0000004366	.0000000001
313.15	.0994	.0000004365	.0000000001
313.15	.1995	.0000004362	.0000000001
313.15	.2985	.0000004363	.0000000001
313.15	.3993	.0000004366	.0000000001
313.15	.5018	.000000438	.0000000001
313.15	.6011	.0000004402	.0000000001
313.15	.6985	.0000004439	.0000000001
313.15	.7995	.0000004476	.0000000001
313.15	.8988	.0000004524	.0000000001
313.15	.9479	.0000004542	.0000000001

System: neohexane + 2-methyl-2-chloropropane; phases: Liquid
Fixed: Pressure, kPa = 101
Property: Kinematic viscosity, m2/s (Liquid); method: Capillary tube (Ostwald; Ubbelohde) method
Temperature, K	Mole fraction of neohexane	Kinematic viscosity, m2/s	uncertainty
283.15	.0499	.0000006937	.0000000001
283.15	.1017	.0000006864	.0000000001
283.15	.1983	.0000006729	.0000000001
283.15	.3004	.00000066	.0000000001
283.15	.399	.0000006491	.0000000001
283.15	.4989	.0000006399	.0000000001
283.15	.6017	.000000632	.0000000001
283.15	.7034	.000000627	.0000000001
283.15	.8	.0000006228	.0000000001
283.15	.8967	.0000006221	.0000000001
283.15	.9504	.0000006224	.0000000001
298.15	.0499	.0000005657	.0000000001
298.15	.1017	.0000005592	.0000000001
298.15	.1983	.0000005493	.0000000001
298.15	.3004	.0000005405	.0000000001
298.15	.399	.0000005333	.0000000001
298.15	.4989	.0000005275	.0000000001
298.15	.6017	.0000005225	.0000000001
298.15	.7034	.00000052	.0000000001
298.15	.8	.000000518	.0000000001
298.15	.8967	.0000005184	.0000000001
298.15	.9504	.000000519	.0000000001
313.15	.0499	.0000004748	.0000000001
313.15	.1017	.0000004715	.0000000001
313.15	.1983	.0000004664	.0000000001
313.15	.3004	.0000004607	.0000000001
313.15	.399	.0000004568	.0000000001
313.15	.4989	.0000004538	.0000000001
313.15	.6017	.0000004522	.0000000001
313.15	.7034	.0000004518	.0000000001
313.15	.8	.0000004519	.0000000001
313.15	.8967	.0000004541	.0000000001
313.15	.9504	.0000004556	.0000000001

System: 1-chlorobutane + n-hexane; phases: Liquid
Fixed: Pressure, kPa = 101
Property: Kinematic viscosity, m2/s (Liquid); method: Capillary tube (Ostwald; Ubbelohde) method
Temperature, K	Mole fraction of 1-chlorobutane	Kinematic viscosity, m2/s	uncertainty
283.15	.0508	.0000005501	.0000000001
283.15	.0992	.0000005449	.0000000001
283.15	.1972	.0000005351	.0000000001
283.15	.2966	.0000005269	.0000000001
283.15	.3976	.0000005198	.0000000001
283.15	.5009	.0000005145	.0000000001
283.15	.6006	.0000005112	.0000000001
283.15	.6982	.0000005092	.0000000001
283.15	.7972	.0000005082	.0000000001
283.15	.8979	.0000005094	.0000000001
283.15	.9472	.0000005103	.0000000001
298.15	.0508	.000000474	.0000000001
298.15	.0992	.0000004701	.0000000001
298.15	.1972	.0000004634	.0000000001
298.15	.2966	.0000004577	.0000000001
298.15	.3976	.0000004531	.0000000001
298.15	.5009	.0000004495	.0000000001
298.15	.6006	.0000004467	.0000000001
298.15	.6982	.0000004451	.0000000001
298.15	.7972	.0000004455	.0000000001
298.15	.8979	.0000004464	.0000000001
298.15	.9472	.0000004474	.0000000001
313.15	.0508	.0000004182	.0000000001
313.15	.0992	.0000004169	.0000000001
313.15	.1972	.0000004118	.0000000001
313.15	.2966	.000000408	.0000000001
313.15	.3976	.0000004048	.0000000001
313.15	.5009	.0000004027	.0000000001
313.15	.6006	.0000004011	.0000000001
313.15	.6982	.0000004005	.0000000001
313.15	.7972	.000000401	.0000000001
313.15	.8979	.0000004023	.0000000001
313.15	.9472	.0000004027	.0000000001

System: 1-methylpropyl chloride + n-hexane; phases: Liquid
Fixed: Pressure, kPa = 101
Property: Kinematic viscosity, m2/s (Liquid); method: Capillary tube (Ostwald; Ubbelohde) method
Temperature, K	Mole fraction of 1-methylpropyl chloride	Kinematic viscosity, m2/s	uncertainty
283.15	.0509	.0000005186	.0000000001
283.15	.1002	.0000005147	.0000000001
283.15	.1802	.000000509	.0000000001
283.15	.3029	.0000005025	.0000000001
283.15	.4045	.0000004989	.0000000001
283.15	.4991	.0000004975	.0000000001
283.15	.5974	.0000004968	.0000000001
283.15	.6992	.0000004982	.0000000001
283.15	.7996	.0000005007	.0000000001
283.15	.8981	.0000005055	.0000000001
283.15	.9477	.0000005086	.0000000001
298.15	.0509	.0000004579	.0000000001
298.15	.1002	.0000004548	.0000000001
298.15	.1802	.0000004501	.0000000001
298.15	.3029	.0000004448	.0000000001
298.15	.4045	.000000442	.0000000001
298.15	.4991	.0000004408	.0000000001
298.15	.5974	.0000004401	.0000000001
298.15	.6992	.0000004406	.0000000001
298.15	.7996	.0000004419	.0000000001
298.15	.8981	.0000004447	.0000000001
298.15	.9477	.0000004465	.0000000001
313.15	.0509	.0000004034	.0000000001
313.15	.1002	.0000004012	.0000000001
313.15	.1802	.000000398	.0000000001
313.15	.3029	.0000003948	.0000000001
313.15	.4045	.0000003932	.0000000001
313.15	.4991	.0000003926	.0000000001
313.15	.5974	.0000003926	.0000000001
313.15	.6992	.0000003939	.0000000001
313.15	.7996	.0000003961	.0000000001
313.15	.8981	.0000003993	.0000000001
313.15	.9477	.0000004015	.0000000001

System: n-hexane + propane, 1-chloro-2-methyl-; phases: Liquid
Fixed: Pressure, kPa = 101
Property: Kinematic viscosity, m2/s (Liquid); method: Capillary tube (Ostwald; Ubbelohde) method
Temperature, K	Mole fraction of n-hexane	Kinematic viscosity, m2/s	uncertainty
283.15	.0512	.0000005712	.0000000001
283.15	.0999	.0000005631	.0000000001
283.15	.2003	.0000005468	.0000000001
283.15	.2993	.0000005339	.0000000001
283.15	.4005	.0000005239	.0000000001
283.15	.4977	.0000005171	.0000000001
283.15	.598	.000000512	.0000000001
283.15	.6993	.0000005089	.0000000001
283.15	.799	.0000005077	.0000000001
283.15	.8967	.0000005092	.0000000001
283.15	.9472	.0000005103	.0000000001
298.15	.0512	.0000004863	.0000000001
298.15	.0999	.0000004817	.0000000001
298.15	.2003	.0000004711	.0000000001
298.15	.2993	.0000004633	.0000000001
298.15	.4005	.0000004566	.0000000001
298.15	.4977	.0000004517	.0000000001
298.15	.598	.0000004478	.0000000001
298.15	.6993	.0000004462	.0000000001
298.15	.799	.0000004455	.0000000001
298.15	.8967	.0000004457	.0000000001
298.15	.9472	.0000004474	.0000000001
313.15	.0512	.000000432	.0000000001
313.15	.0999	.0000004282	.0000000001
313.15	.2003	.0000004196	.0000000001
313.15	.2993	.0000004128	.0000000001
313.15	.4005	.0000004077	.0000000001
313.15	.4977	.0000004041	.0000000001
313.15	.598	.0000004017	.0000000001
313.15	.6993	.000000401	.0000000001
313.15	.799	.0000004002	.0000000001
313.15	.8967	.0000004006	.0000000001
313.15	.9472	.0000004023	.0000000001

System: n-hexane + 2-methyl-2-chloropropane; phases: Liquid
Fixed: Pressure, kPa = 101
Property: Kinematic viscosity, m2/s (Liquid); method: Capillary tube (Ostwald; Ubbelohde) method
Temperature, K	Mole fraction of n-hexane	Kinematic viscosity, m2/s	uncertainty
283.15	.0495	.0000006722	.0000000001
283.15	.0989	.0000006489	.0000000001
283.15	.2019	.0000006091	.0000000001
283.15	.2987	.000000581	.0000000001
283.15	.4043	.0000005575	.0000000001
283.15	.4985	.0000005415	.0000000001
283.15	.6024	.0000005287	.0000000001
283.15	.7017	.0000005203	.0000000001
283.15	.7996	.0000005151	.0000000001
283.15	.9025	.0000005123	.0000000001
283.15	.9498	.0000005119	.0000000001
298.15	.0495	.0000005527	.0000000001
298.15	.0989	.0000005369	.0000000001
298.15	.2019	.0000005105	.0000000001
298.15	.2987	.0000004916	.0000000001
298.15	.4043	.0000004756	.0000000001
298.15	.4985	.0000004651	.0000000001
298.15	.6024	.0000004571	.0000000001
298.15	.7017	.0000004516	.0000000001
298.15	.7996	.0000004489	.0000000001
298.15	.9025	.0000004478	.0000000001
298.15	.9498	.0000004483	.0000000001
313.15	.0495	.0000004671	.0000000001
313.15	.0989	.0000004565	.0000000001
313.15	.2019	.0000004391	.0000000001
313.15	.2987	.0000004266	.0000000001
313.15	.4043	.0000004162	.0000000001
313.15	.4985	.0000004095	.0000000001
313.15	.6024	.0000004048	.0000000001
313.15	.7017	.0000004019	.0000000001
313.15	.7996	.0000004009	.0000000001
313.15	.9025	.0000004016	.0000000001
313.15	.9498	.0000004023	.0000000001

System: 1-chlorobutane + heptane; phases: Liquid
Fixed: Pressure, kPa = 101
Property: Kinematic viscosity, m2/s (Liquid); method: Capillary tube (Ostwald; Ubbelohde) method
Temperature, K	Mole fraction of 1-chlorobutane	Kinematic viscosity, m2/s	uncertainty
283.15	.0508	.0000005595	.0000000001
283.15	.1017	.0000005632	.0000000001
283.15	.1981	.0000005703	.0000000001
283.15	.2989	.0000005788	.0000000001
283.15	.4022	.0000005882	.0000000001
283.15	.4998	.0000005984	.0000000001
283.15	.6008	.0000006102	.0000000001
283.15	.6989	.0000006229	.0000000001
283.15	.7985	.0000006367	.0000000001
283.15	.898	.000000652	.0000000001
283.15	.9498	.0000006608	.0000000001
298.15	.0508	.0000004824	.0000000001
298.15	.1017	.0000004857	.0000000001
298.15	.1981	.0000004927	.0000000001
298.15	.2989	.0000005	.0000000001
298.15	.4022	.0000005088	.0000000001
298.15	.4998	.0000005177	.0000000001
298.15	.6008	.0000005278	.0000000001
298.15	.6989	.0000005386	.0000000001
298.15	.7985	.0000005501	.0000000001
298.15	.898	.0000005626	.0000000001
298.15	.9498	.0000005692	.0000000001
313.15	.0508	.0000004248	.0000000001
313.15	.1017	.0000004278	.0000000001
313.15	.1981	.0000004335	.0000000001
313.15	.2989	.0000004396	.0000000001
313.15	.4022	.0000004471	.0000000001
313.15	.4998	.0000004545	.0000000001
313.15	.6008	.0000004624	.0000000001
313.15	.6989	.0000004705	.0000000001
313.15	.7985	.0000004792	.0000000001
313.15	.898	.0000004882	.0000000001
313.15	.9498	.0000004935	.0000000001

System: 1-methylpropyl chloride + heptane; phases: Liquid
Fixed: Pressure, kPa = 101
Property: Kinematic viscosity, m2/s (Liquid); method: Capillary tube (Ostwald; Ubbelohde) method
Temperature, K	Mole fraction of 1-methylpropyl chloride	Kinematic viscosity, m2/s	uncertainty
283.15	.0506	.0000005287	.0000000001
283.15	.0989	.0000005334	.0000000001
283.15	.2012	.000000544	.0000000001
283.15	.3016	.0000005558	.0000000001
283.15	.3997	.0000005677	.0000000001
283.15	.4984	.0000005812	.0000000001
283.15	.5994	.0000005966	.0000000001
283.15	.6994	.0000006128	.0000000001
283.15	.7996	.0000006304	.0000000001
283.15	.9006	.0000006496	.0000000001
283.15	.9503	.00000066	.0000000001
298.15	.0506	.0000004649	.0000000001
298.15	.0989	.0000004686	.0000000001
298.15	.2012	.000000478	.0000000001
298.15	.3016	.0000004876	.0000000001
298.15	.3997	.0000004978	.0000000001
298.15	.4984	.0000005087	.0000000001
298.15	.5994	.0000005206	.0000000001
298.15	.6994	.0000005331	.0000000001
298.15	.7996	.0000005467	.0000000001
298.15	.9006	.0000005609	.0000000001
298.15	.9503	.0000005684	.0000000001
313.15	.0506	.0000004086	.0000000001
313.15	.0989	.0000004121	.0000000001
313.15	.2012	.0000004202	.0000000001
313.15	.3016	.0000004283	.0000000001
313.15	.3997	.000000437	.0000000001
313.15	.4984	.0000004461	.0000000001
313.15	.5994	.0000004558	.0000000001
313.15	.6994	.0000004652	.0000000001
313.15	.7996	.0000004757	.0000000001
313.15	.9006	.0000004866	.0000000001
313.15	.9503	.0000004927	.0000000001

System: heptane + propane, 1-chloro-2-methyl-; phases: Liquid
Fixed: Pressure, kPa = 101
Property: Kinematic viscosity, m2/s (Liquid); method: Capillary tube (Ostwald; Ubbelohde) method
Temperature, K	Mole fraction of heptane	Kinematic viscosity, m2/s	uncertainty
283.15	.0507	.0000005818	.0000000001
283.15	.0979	.0000005817	.0000000001
283.15	.2004	.0000005851	.0000000001
283.15	.3008	.0000005905	.0000000001
283.15	.3993	.000000597	.0000000001
283.15	.4999	.0000006054	.0000000001
283.15	.5973	.0000006156	.0000000001
283.15	.6994	.0000006268	.0000000001
283.15	.8006	.0000006397	.0000000001
283.15	.9002	.0000006538	.0000000001
283.15	.9491	.0000006615	.0000000001
298.15	.0507	.000000495	.0000000001
298.15	.0979	.000000497	.0000000001
298.15	.2004	.0000005015	.0000000001
298.15	.3008	.0000005064	.0000000001
298.15	.3993	.0000005134	.0000000001
298.15	.4999	.0000005215	.0000000001
298.15	.5973	.0000005306	.0000000001
298.15	.6994	.0000005403	.0000000001
298.15	.8006	.0000005516	.0000000001
298.15	.9002	.0000005633	.0000000001
298.15	.9491	.0000005692	.0000000001
313.15	.0507	.0000004381	.0000000001
313.15	.0979	.0000004396	.0000000001
313.15	.2004	.0000004438	.0000000001
313.15	.3008	.0000004483	.0000000001
313.15	.3993	.0000004536	.0000000001
313.15	.4999	.0000004599	.0000000001
313.15	.5973	.0000004663	.0000000001
313.15	.6994	.0000004733	.0000000001
313.15	.8006	.0000004809	.0000000001
313.15	.9002	.0000004894	.0000000001
313.15	.9491	.000000494	.0000000001

System: heptane + 2-methyl-2-chloropropane; phases: Liquid
Fixed: Pressure, kPa = 101
Property: Kinematic viscosity, m2/s (Liquid); method: Capillary tube (Ostwald; Ubbelohde) method
Temperature, K	Mole fraction of heptane	Kinematic viscosity, m2/s	uncertainty
283.15	.0519	.000000684	.0000000001
283.15	.1021	.0000006722	.0000000001
283.15	.2015	.0000006546	.0000000001
283.15	.3006	.000000644	.0000000001
283.15	.3997	.0000006391	.0000000001
283.15	.5027	.0000006376	.0000000001
283.15	.6011	.0000006397	.0000000001
283.15	.7014	.0000006441	.0000000001
283.15	.8007	.0000006504	.0000000001
283.15	.8966	.0000006591	.0000000001
283.15	.9518	.0000006651	.0000000001
298.15	.0519	.0000005603	.0000000001
298.15	.1021	.0000005532	.0000000001
298.15	.2015	.0000005438	.0000000001
298.15	.3006	.0000005389	.0000000001
298.15	.3997	.000000538	.0000000001
298.15	.5027	.0000005391	.0000000001
298.15	.6011	.0000005434	.0000000001
298.15	.7014	.0000005489	.0000000001
298.15	.8007	.0000005572	.0000000001
298.15	.8966	.0000005652	.0000000001
298.15	.9518	.0000005706	.0000000001
313.15	.0519	.0000004741	.0000000001
313.15	.1021	.0000004711	.0000000001
313.15	.2015	.0000004675	.0000000001
313.15	.3006	.0000004666	.0000000001
313.15	.3997	.0000004679	.0000000001
313.15	.5027	.0000004699	.0000000001
313.15	.6011	.0000004735	.0000000001
313.15	.7014	.000000478	.0000000001
313.15	.8007	.0000004832	.0000000001
313.15	.8966	.0000004894	.0000000001
313.15	.9518	.0000004944	.0000000001
