Measured thermophysical data. Solubility of Terephthalic Acid in Subcritical Water
Source: J. Chem. Eng. Data, 2012, 10.1021/je300263z
Compound 1: terephthalic acid, C8H6O4, purity 99%
Compound 2: water, H2O, purity 99.99%

System: terephthalic acid + water; phases: Liquid, Crystal
Fixed: Pressure, kPa = 10000
Property: Mole fraction of terephthalic acid (Liquid); method: Chromatography
Temperature, K	Mole fraction of terephthalic acid	uncertainty
348.8	.0000125	
373.4	.0000309	
398.8	.0000897	
422.8	.000238	
447.1	.00061	
473.2	.00177	
497.9	.0047	
523.7	.0125	
547.4	.0299	
423.8	.000252	
472.9	.00172	
523.2	.012	
