Measured thermophysical data. Isothermal Vapor Liquid Equilibria of n-Tetradecane + Ethyl Hexanoate, Ethyl Decanoate, and Ethyl Tetradecanoate
Source: J. Chem. Eng. Data, 2013, 10.1021/je301294a
Compound 1: hexanoic acid, ethyl ester, C8H16O2, purity 98%
Compound 2: ethyl decanoate, C12H24O2, purity 99%
Compound 3: tetradecanoic acid, ethyl ester, C16H32O2, purity 99%
Compound 4: tetradecane, C14H30, purity 99%

System: hexanoic acid, ethyl ester; phases: Liquid, Gas
Property: Vapor or sublimation pressure, kPa (Liquid); method: Closed cell (Static) method
Temperature, K	Vapor or sublimation pressure, kPa	uncertainty
373.15	11.3494	.001
383.15	16.688	.0003
393.15	23.9417	.0003
403.15	33.5902	.0003
413.15	46.1796	.0003
423.15	62.3215	.0003
433.15	82.6913	.0003
443.15	108.0246	.0003
453.15	139.1138	.0003

System: ethyl decanoate; phases: Liquid, Gas
Property: Vapor or sublimation pressure, kPa (Liquid); method: Closed cell (Static) method
Temperature, K	Vapor or sublimation pressure, kPa	uncertainty
373.15	.5827	.003
383.15	.9771	.001
393.15	1.5857	.0003
403.15	2.4978	.0003
413.15	3.829	.0003
423.15	5.7261	.0003
433.15	8.371	.0003
443.15	11.9854	.0003
453.15	16.835	.0003

System: tetradecanoic acid, ethyl ester; phases: Liquid, Gas
Property: Vapor or sublimation pressure, kPa (Liquid); method: Closed cell (Static) method
Temperature, K	Vapor or sublimation pressure, kPa	uncertainty
373.15	.0326	.003
383.15	.0623	.003
393.15	.1143	.003
403.15	.2019	.003
413.15	.3448	.003
423.15	.5712	.003
433.15	.9198	.001
443.15	1.4433	.0003
453.15	2.2113	.0003

System: tetradecane; phases: Liquid, Gas
Property: Vapor or sublimation pressure, kPa (Liquid); method: Closed cell (Static) method
Temperature, K	Vapor or sublimation pressure, kPa	uncertainty
373.15	.444	.003
383.15	.7516	.001
393.15	1.2304	.001
403.15	1.9536	.001
413.15	3.0171	.001
423.15	4.543	.001
433.15	6.6839	.001
443.15	9.6269	.001
453.15	13.5972	.0003

System: hexanoic acid, ethyl ester + tetradecane; phases: Liquid, Gas
Property: Vapor or sublimation pressure, kPa (Liquid); method: Closed cell (Static) method
Temperature, K	Mole fraction of hexanoic acid, ethyl ester	Vapor or sublimation pressure, kPa	uncertainty
373.15	0	.444	.003
383.15	0	.7516	.001
393.15	0	1.2304	.001
403.15	0	1.9536	.001
373.15	.1262	2.1582	.001
413.15	0	3.0171	.001
383.15	.1262	3.1917	.001
373.15	.3053	4.4611	.001
423.15	0	4.543	.001
393.15	.1262	4.6318	.001
383.15	.3053	6.5305	.001
403.15	.1262	6.6048	.001
433.15	0	6.6839	.001
373.15	.4945	6.8174	.001
373.15	.6985	8.8914	.001
413.15	.1262	9.2654	.001
393.15	.3053	9.3307	.001
443.15	0	9.6269	.001
383.15	.4945	9.889	.001
373.15	.9003	10.4593	.001
373.15	1	11.3494	.001
423.15	.1262	12.801	.001
383.15	.6985	12.9035	.001
403.15	.3053	13.0413	.0003
453.15	0	13.5972	.0003
393.15	.4945	14.0194	.0003
383.15	.9003	15.337	.0003
383.15	1	16.688	.0003
433.15	.1262	17.4355	.0003
413.15	.3053	17.8666	.0003
393.15	.6985	18.3177	.0003
403.15	.4945	19.4639	.0003
393.15	.9003	21.9573	.0003
443.15	.1262	23.4331	.0003
393.15	1	23.9417	.0003
423.15	.3053	24.0348	.0003
403.15	.6985	25.4853	.0003
413.15	.4945	26.5117	.0003
403.15	.9003	30.7591	.0003
453.15	.1262	31.102	.0003
433.15	.3053	31.7982	.0003
403.15	1	33.5902	.0003
413.15	.6985	34.8102	.0003
423.15	.4945	35.4846	.0003
443.15	.3053	41.4319	.0003
413.15	.9003	42.2438	.0003
413.15	1	46.1796	.0003
433.15	.4945	46.7362	.0003
423.15	.6985	46.7497	.0003
453.15	.3053	53.2334	.0003
423.15	.9003	56.9766	.0003
443.15	.4945	60.6492	.0003
433.15	.6985	61.8154	.0003
423.15	1	62.3215	.0003
433.15	.9003	75.5849	.0003
453.15	.4945	77.6323	.0003
443.15	.6985	80.5723	.0003
433.15	1	82.6913	.0003
443.15	.9003	98.758	.0003
453.15	.6985	103.6381	.0003
443.15	1	108.0246	.0003
453.15	.9003	127.2443	.0003
453.15	1	139.1138	.0003

System: ethyl decanoate + tetradecane; phases: Liquid, Gas
Property: Vapor or sublimation pressure, kPa (Liquid); method: Closed cell (Static) method
Temperature, K	Mole fraction of ethyl decanoate	Vapor or sublimation pressure, kPa	uncertainty
373.15	0	.444	.003
373.15	.1211	.5741	.003
373.15	1	.5827	.003
373.15	.8931	.7051	.001
373.15	.3046	.7135	.001
383.15	0	.7516	.001
373.15	.6916	.7711	.001
373.15	.5027	.7725	.001
383.15	.1211	.9294	.001
383.15	1	.9771	.001
383.15	.3046	1.1132	.001
383.15	.8931	1.1198	.001
383.15	.5027	1.1728	.001
383.15	.6916	1.1846	.001
393.15	0	1.2304	.001
393.15	.1211	1.4661	.0003
393.15	1	1.5857	.0003
393.15	.3046	1.7051	.0003
393.15	.8931	1.7417	.0003
393.15	.5027	1.7598	.0003
393.15	.6916	1.7953	.0003
403.15	0	1.9536	.0003
403.15	.1211	2.2581	.0003
403.15	1	2.4978	.0003
403.15	.3046	2.5672	.0003
403.15	.5027	2.6116	.0003
403.15	.8931	2.6568	.0003
403.15	.6916	2.686	.0003
413.15	0	3.0171	.0003
413.15	.1211	3.402	.0003
413.15	.3046	3.8031	.0003
413.15	1	3.829	.0003
413.15	.5027	3.8345	.0003
413.15	.6916	3.9695	.0003
413.15	.8931	3.9796	.0003
423.15	0	4.543	.0003
423.15	.1211	5.0218	.0003
423.15	.3046	5.5488	.0003
423.15	.5027	5.5727	.0003
423.15	1	5.7261	.0003
423.15	.6916	5.7977	.0003
423.15	.8931	5.8603	.0003
433.15	0	6.6839	.0003
433.15	.1211	7.2738	.0003
433.15	.3046	7.9801	.0003
433.15	.5027	8.0196	.0003
433.15	1	8.371	.0003
433.15	.6916	8.3735	.0003
433.15	.8931	8.4929	.0003
443.15	0	9.6269	.0003
443.15	.1211	10.3524	.0003
443.15	.3046	11.3219	.0003
443.15	.5027	11.4323	.0003
443.15	.6916	11.9644	.0003
443.15	1	11.9854	.0003
443.15	.8931	12.1245	.0003
453.15	0	13.5972	.0003
453.15	.1211	14.4948	.0003
453.15	.3046	15.8585	.0003
453.15	.5027	16.15	.0003
453.15	1	16.835	.0003
453.15	.6916	16.9204	.0003
453.15	.8931	17.0662	.0003

System: tetradecanoic acid, ethyl ester + tetradecane; phases: Liquid, Gas
Property: Vapor or sublimation pressure, kPa (Liquid); method: Closed cell (Static) method
Temperature, K	Mole fraction of tetradecanoic acid, ethyl ester	Vapor or sublimation pressure, kPa	uncertainty
373.15	1	.0326	.003
383.15	1	.0623	.003
393.15	1	.1143	.003
373.15	.8908	.1373	.003
403.15	1	.2019	.003
383.15	.8908	.2162	.003
373.15	.7003	.2252	.003
373.15	.4978	.2811	.003
393.15	.8908	.3365	.003
373.15	.3006	.34	.003
413.15	1	.3448	.003
383.15	.7003	.374	.003
373.15	.1006	.4065	.003
373.15	0	.444	.003
383.15	.4978	.4821	.003
403.15	.8908	.5176	.003
423.15	1	.5712	.003
383.15	.3006	.5834	.003
393.15	.7003	.6024	.001
383.15	.1006	.6908	.001
383.15	0	.7516	.001
413.15	.8908	.7871	.001
393.15	.4978	.7958	.001
433.15	1	.9198	.001
403.15	.7003	.9436	.001
393.15	.3006	.9641	.001
393.15	.1006	1.1343	.001
423.15	.8908	1.1841	.001
393.15	0	1.2304	.001
403.15	.4978	1.2692	.001
413.15	.7003	1.441	.0003
443.15	1	1.4433	.0003
403.15	.3006	1.5403	.0003
433.15	.8908	1.7628	.0003
403.15	.1006	1.8051	.0003
403.15	0	1.9536	.0003
413.15	.4978	1.9625	.0003
423.15	.7003	2.1497	.0003
453.15	1	2.2113	.0003
413.15	.3006	2.387	.0003
443.15	.8908	2.598	.0003
413.15	.1006	2.7921	.0003
423.15	.4978	2.9507	.0003
413.15	0	3.0171	.0003
433.15	.7003	3.1389	.0003
423.15	.3006	3.5985	.0003
453.15	.8908	3.7921	.0003
423.15	.1006	4.2085	.0003
433.15	.4978	4.3254	.0003
443.15	.7003	4.4933	.0003
423.15	0	4.543	.0003
433.15	.3006	5.2905	.0003
433.15	.1006	6.1954	.0003
443.15	.4978	6.1959	.0003
453.15	.7003	6.3157	.0003
433.15	0	6.6839	.0003
443.15	.3006	7.6024	.0003
453.15	.4978	8.6905	.0003
443.15	.1006	8.9249	.0003
443.15	0	9.6269	.0003
453.15	.3006	10.699	.0003
453.15	.1006	12.604	.0003
453.15	0	13.5972	.0003
