Measured thermophysical data. Infinite Dilution Binary Diffusion Coefficients for Compounds Derived from Biomass in Water at 0.1 MPa and Temperatures from (298.2 to 353.2) K
Source: J. Chem. Eng. Data, 2013, 10.1021/je301060a
Compound 1: water, H2O, purity 95%
Compound 2: carbolic acid, C6H6O, purity 95%
Compound 3: 2-furancarbaldehyde, C5H4O2, purity 95%
Compound 4: 5-hydroxymethylfurfural, C6H6O3, purity 95%
Compound 5: o-methoxyphenol, C7H8O2, purity 95%
Compound 6: vanillaldehyde, C8H8O3, purity 95%

System: carbolic acid + water; phases: Liquid
Fixed: Pressure, kPa = 101
Fixed: Mole fraction of carbolic acid = 0
Property: Binary diffusion coefficient, m2/s (Liquid); method: Taylor dispersion method
Temperature, K	Binary diffusion coefficient, m2/s	uncertainty
298.2	0.000000001026	.00000000033
303.2	0.000000001175	.00000000023
313.2	0.000000001482	.00000000078
323.2	0.000000001831	.00000000015
333.2	0.000000002205	.00000000036
343.2	0.000000002592	.00000000038
353.2	0.000000003082	.0000000004

System: 2-furancarbaldehyde + water; phases: Liquid
Fixed: Pressure, kPa = 101
Fixed: Mole fraction of 2-furancarbaldehyde = 0
Property: Binary diffusion coefficient, m2/s (Liquid); method: Taylor dispersion method
Temperature, K	Binary diffusion coefficient, m2/s	uncertainty
298.2	0.00000000113	.00000000021
303.2	0.000000001336	.0000000002
313.2	0.000000001662	.00000000032
323.2	0.000000002025	.00000000117
333.2	0.000000002421	.00000000012
343.2	0.000000002902	.0000000012
353.2	0.000000003323	.00000000099

System: 5-hydroxymethylfurfural + water; phases: Liquid
Fixed: Pressure, kPa = 101
Fixed: Mole fraction of 5-hydroxymethylfurfural = 0
Property: Binary diffusion coefficient, m2/s (Liquid); method: Taylor dispersion method
Temperature, K	Binary diffusion coefficient, m2/s	uncertainty
298.2	0.0000000009169	.00000000008
303.2	0.000000001061	.00000000019
313.2	0.000000001336	.00000000033
323.2	0.00000000165	.00000000026
333.2	0.000000001989	.00000000038
343.2	0.000000002345	.00000000055
353.2	0.000000002756	.00000000101

System: o-methoxyphenol + water; phases: Liquid
Fixed: Pressure, kPa = 101
Fixed: Mole fraction of o-methoxyphenol = 0
Property: Binary diffusion coefficient, m2/s (Liquid); method: Taylor dispersion method
Temperature, K	Binary diffusion coefficient, m2/s	uncertainty
298.2	0.0000000009159	.00000000019
303.2	0.000000001038	.00000000027
313.2	0.000000001311	.00000000037
323.2	0.000000001619	.0000000006
333.2	0.000000001976	.00000000042
343.2	0.000000002348	.00000000084
353.2	0.000000002768	.00000000104

System: vanillaldehyde + water; phases: Liquid
Fixed: Pressure, kPa = 101
Fixed: Mole fraction of vanillaldehyde = 0
Property: Binary diffusion coefficient, m2/s (Liquid); method: Taylor dispersion method
Temperature, K	Binary diffusion coefficient, m2/s	uncertainty
298.2	0.0000000008168	.0000000001
303.2	0.0000000009298	.00000000027
313.2	0.000000001185	.00000000027
323.2	0.000000001456	.00000000028
333.2	0.000000001782	.00000000038
343.2	0.000000002129	.00000000042
353.2	0.000000002492	.00000000087
