Measured thermophysical data. Volumetric, Acoustic, and Refractometric Study of Cyclic Alanylalanine in Aqueous Cobalt Chloride Solutions at Temperatures T = (293.15 to 313.15) K
Source: J. Chem. Eng. Data, 2013, 10.1021/je3009123
Compound 1: 3,6-dimethyl-2,5-piperazinedione, C6H10N2O2, purity 99%
Compound 2: cobalt dichloride, Cl2Co, purity 98.5%
Compound 3: water, H2O, purity 99.9%

System: 3,6-dimethyl-2,5-piperazinedione + cobalt dichloride + water; phases: Liquid
Fixed: Pressure, kPa = 100
Fixed: Solvent: Molality, mol/kg of cobalt dichloride = .1
Property: Mass density, kg/m3 (Liquid); method: Pycnometric method
Molality, mol/kg of 3,6-dimethyl-2,5-piperazinedione	Temperature, K	Mass density, kg/m3	uncertainty
0	293.15	1014	.05
.005	293.15	1014.15	.05
.01	293.15	1014.29	.05
.0249	293.15	1014.74	.05
.035	293.15	1015.04	.05
.0527	293.15	1015.62	.05
.0752	293.15	1016.3	.05
.0991	293.15	1017.08	.05
.1266	293.15	1018	.05
.152	293.15	1018.89	.05
0	298.15	1013	.05
.005	298.15	1013.12	.05
.01	298.15	1013.25	.05
.0249	298.15	1013.63	.05
.035	298.15	1013.89	.05
.0527	298.15	1014.36	.05
.0752	298.15	1014.98	.05
.0991	298.15	1015.66	.05
.1266	298.15	1016.48	.05
.152	298.15	1017.25	.05
0	303.15	1011.84	.05
.005	303.15	1011.95	.05
.01	303.15	1012.07	.05
.0249	303.15	1012.44	.05
.035	303.15	1012.7	.05
.0527	303.15	1013.16	.05
.0752	303.15	1013.75	.05
.0991	303.15	1014.4	.05
.1266	303.15	1015.19	.05
.152	303.15	1015.92	.05
0	308.15	1010.16	.05
.005	308.15	1010.25	.05
.01	308.15	1010.36	.05
.0249	308.15	1010.68	.05
.035	308.15	1010.9	.05
.0527	308.15	1011.29	.05
.0752	308.15	1011.8	.05
.0991	308.15	1012.35	.05
.1266	308.15	1013	.05
.152	308.15	1013.62	.05
0	313.15	1007.89	.05
.005	313.15	1008	.05
.01	313.15	1008.1	.05
.0249	313.15	1008.39	.05
.035	313.15	1008.59	.05
.0527	313.15	1008.96	.05
.0752	313.15	1009.45	.05
.0991	313.15	1010.02	.05
.1266	313.15	1010.71	.05
.152	313.15	1011.38	.05

System: 3,6-dimethyl-2,5-piperazinedione + cobalt dichloride + water; phases: Liquid
Fixed: Pressure, kPa = 100
Fixed: Solvent: Molality, mol/kg of 3,6-dimethyl-2,5-piperazinedione = .1
Property: Mass density, kg/m3 (Liquid); method: Pycnometric method
Molality, mol/kg of cobalt dichloride	Temperature, K	Mass density, kg/m3	uncertainty
0	293.15	999.9	.05
.05	293.15	1008	.05
.0801	293.15	1012.82	.05
.1151	293.15	1018.5	.05
.1551	293.15	1024.9	.05
.2	293.15	1032.1	.05
.2503	293.15	1040.2	.05
.3052	293.15	1049	.05
.4397	293.15	1070.84	.05
.515	293.15	1083.11	.05
0	298.15	998.82	.05
.05	298.15	1006.92	.05
.0801	298.15	1011.8	.05
.1151	298.15	1017.4	.05
.1551	298.15	1023.8	.05
.2	298.15	1031	.05
.2503	298.15	1039.14	.05
.3052	298.15	1047.98	.05
.4397	298.15	1069.8	.05
.515	298.15	1082.1	.05
0	303.15	997.48	.05
.05	303.15	1005.5	.05
.0801	303.15	1010.33	.05
.1151	303.15	1015.94	.05
.1551	303.15	1022.36	.05
.2	303.15	1029.56	.05
.2503	303.15	1037.63	.05
.3052	303.15	1046.44	.05
.4397	303.15	1068.01	.05
.515	303.15	1080.09	.05
0	308.15	996.18	.05
.05	308.15	1004.14	.05
.0801	308.15	1008.93	.05
.1151	308.15	1014.51	.05
.1551	308.15	1020.88	.05
.2	308.15	1028.03	.05
.2503	308.15	1036.04	.05
.3052	308.15	1044.79	.05
.4397	308.15	1066.21	.05
.515	308.15	1078.2	.05
0	313.15	994.84	.05
.05	313.15	1002.75	.05
.0801	313.15	1007.51	.05
.1151	313.15	1013.05	.05
.1551	313.15	1019.38	.05
.2	313.15	1026.48	.05
.2503	313.15	1034.44	.05
.3052	313.15	1043.13	.05
.4397	313.15	1064.41	.05
.515	313.15	1076.32	.05

System: 3,6-dimethyl-2,5-piperazinedione + cobalt dichloride + water; phases: Liquid
Fixed: Pressure, kPa = 100
Fixed: Solvent: Molality, mol/kg of cobalt dichloride = .1
Property: Speed of sound, m/s (Liquid); method: Linear variable-path acoustic interferometer
Molality, mol/kg of 3,6-dimethyl-2,5-piperazinedione	Temperature, K	Speed of sound, m/s	uncertainty
0	293.15	1502.45	.2
.005	293.15	1502.97	.2
.01	293.15	1503.49	.2
.0249	293.15	1505.04	.2
.035	293.15	1506.09	.2
.0527	293.15	1507.88	.2
.0752	293.15	1510.26	.2
.0991	293.15	1512.75	.2
.1266	293.15	1515.62	.2
.152	293.15	1518.24	.2
0	298.15	1512.03	.2
.005	298.15	1512.57	.2
.01	298.15	1513.11	.2
.0249	298.15	1514.72	.2
.035	298.15	1515.81	.2
.0527	298.15	1517.72	.2
.0752	298.15	1520.15	.2
.0991	298.15	1522.73	.2
.1266	298.15	1525.71	.2
.152	298.15	1528.45	.2
0	303.15	1524.02	.2
.005	303.15	1524.57	.2
.01	303.15	1525.13	.2
.0249	303.15	1526.78	.2
.035	303.15	1527.9	.2
.0527	303.15	1529.86	.2
.0752	303.15	1532.37	.2
.0991	303.15	1535.03	.2
.1266	303.15	1538.09	.2
.152	303.15	1540.94	.2
0	308.15	1533.91	.2
.005	308.15	1534.47	.2
.01	308.15	1535.02	.2
.0249	308.15	1536.68	.2
.035	308.15	1537.8	.2
.0527	308.15	1539.76	.2
.0752	308.15	1542.26	.2
.0991	308.15	1544.92	.2
.1266	308.15	1547.97	.2
.152	308.15	1550.79	.2
0	313.15	1541.74	.2
.005	313.15	1542.29	.2
.01	313.15	1542.83	.2
.0249	313.15	1544.45	.2
.035	313.15	1545.55	.2
.0527	313.15	1547.47	.2
.0752	313.15	1549.92	.2
.0991	313.15	1552.51	.2
.1266	313.15	1555.5	.2
.152	313.15	1558.26	.2

System: 3,6-dimethyl-2,5-piperazinedione + cobalt dichloride + water; phases: Liquid
Fixed: Pressure, kPa = 100
Fixed: Solvent: Molality, mol/kg of 3,6-dimethyl-2,5-piperazinedione = .1
Property: Speed of sound, m/s (Liquid); method: Linear variable-path acoustic interferometer
Molality, mol/kg of cobalt dichloride	Temperature, K	Speed of sound, m/s	uncertainty
0	293.15	1499.65	.2
.05	293.15	1504.39	.2
.0801	293.15	1507.25	.2
.1151	293.15	1510.56	.2
.1551	293.15	1514.36	.2
.2	293.15	1518.61	.2
.2503	293.15	1523.38	.2
.3052	293.15	1528.58	.2
.4397	293.15	1541.33	.2
.515	293.15	1548.47	.2
0	298.15	1509.5	.2
.05	298.15	1514.08	.2
.0801	298.15	1516.84	.2
.1151	298.15	1520.05	.2
.1551	298.15	1523.72	.2
.2	298.15	1527.84	.2
.2503	298.15	1532.45	.2
.3052	298.15	1537.49	.2
.4397	298.15	1549.82	.2
.515	298.15	1556.73	.2
0	303.15	1521.06	.2
.05	303.15	1525.39	.2
.0801	303.15	1528	.2
.1151	303.15	1531.03	.2
.1551	303.15	1534.49	.2
.2	303.15	1538.38	.2
.2503	303.15	1542.73	.2
.3052	303.15	1547.48	.2
.4397	303.15	1559.13	.2
.515	303.15	1565.65	.2
0	308.15	1527.86	.2
.05	308.15	1532.03	.2
.0801	308.15	1534.63	.2
.1151	308.15	1537.63	.2
.1551	308.15	1541.2	.2
.2	308.15	1545.21	.2
.2503	308.15	1549.84	.2
.3052	308.15	1554.83	.2
.4397	308.15	1567.01	.2
.515	308.15	1574.17	.2
0	313.15	1535.86	.2
.05	313.15	1540.12	.2
.0801	313.15	1542.81	.2
.1151	313.15	1545.95	.2
.1551	313.15	1548.99	.2
.2	313.15	1552.99	.2
.2503	313.15	1557.8	.2
.3052	313.15	1563.82	.2
.4397	313.15	1576.52	.2
.515	313.15	1584.02	.2

System: 3,6-dimethyl-2,5-piperazinedione + cobalt dichloride + water; phases: Liquid
Fixed: Pressure, kPa = 1000
Fixed: Solvent: Molality, mol/kg of cobalt dichloride = .1
Property: Refractive index (Na D-line) (Liquid); method: Standard Abbe refractometry
Temperature, K	Molality, mol/kg of 3,6-dimethyl-2,5-piperazinedione	Refractive index (Na D-line)	uncertainty
293.15	0	1.3373	.0002
293.15	.005	1.3374	.0002
293.15	.01	1.3375	.0002
293.15	.0249	1.3379	.0002
293.15	.035	1.3381	.0002
293.15	.0527	1.3385	.0002
293.15	.0752	1.3391	.0002
293.15	.0991	1.3397	.0002
293.15	.1266	1.3403	.0002
293.15	.152	1.3409	.0002
298.15	0	1.3368	.0002
298.15	.005	1.337	.0002
298.15	.01	1.3371	.0002
298.15	.0249	1.3374	.0002
298.15	.035	1.3376	.0002
298.15	.0527	1.338	.0002
298.15	.0752	1.3385	.0002
298.15	.0991	1.3391	.0002
298.15	.1266	1.3397	.0002
298.15	.152	1.3403	.0002
303.15	0	1.3361	.0002
303.15	.005	1.3362	.0002
303.15	.01	1.3364	.0002
303.15	.0249	1.3367	.0002
303.15	.035	1.3369	.0002
303.15	.0527	1.3373	.0002
303.15	.0752	1.3378	.0002
303.15	.0991	1.3384	.0002
303.15	.1266	1.339	.0002
303.15	.152	1.3396	.0002
308.15	0	1.3356	.0002
308.15	.005	1.3357	.0002
308.15	.01	1.3358	.0002
308.15	.0249	1.3361	.0002
308.15	.035	1.3363	.0002
308.15	.0527	1.3366	.0002
308.15	.0752	1.3371	.0002
308.15	.0991	1.3376	.0002
308.15	.1266	1.3381	.0002
308.15	.152	1.3386	.0002
313.15	0	1.335	.0002
313.15	.005	1.3351	.0002
313.15	.01	1.3352	.0002
313.15	.0249	1.3355	.0002
313.15	.035	1.3357	.0002
313.15	.0527	1.3361	.0002
313.15	.0752	1.3365	.0002
313.15	.0991	1.3369	.0002
313.15	.1266	1.3375	.0002
313.15	.152	1.3379	.0002

System: 3,6-dimethyl-2,5-piperazinedione + cobalt dichloride + water; phases: Liquid
Fixed: Pressure, kPa = 1000
Fixed: Solvent: Molality, mol/kg of 3,6-dimethyl-2,5-piperazinedione = .1
Property: Refractive index (Na D-line) (Liquid); method: Standard Abbe refractometry
Temperature, K	Molality, mol/kg of cobalt dichloride	Refractive index (Na D-line)	uncertainty
293.15	0	1.3351	.0002
293.15	.05	1.3363	.0002
293.15	.0801	1.3375	.0002
293.15	.1151	1.3391	.0002
293.15	.1551	1.3406	.0002
293.15	.2	1.342	.0002
293.15	.2503	1.3439	.0002
293.15	.3052	1.3453	.0002
293.15	.4397	1.3492	.0002
293.15	.515	1.3508	.0002
298.15	0	1.3344	.0002
298.15	.05	1.3358	.0002
298.15	.0801	1.3369	.0002
298.15	.1151	1.3385	.0002
298.15	.1551	1.34	.0002
298.15	.2	1.3414	.0002
298.15	.2503	1.3433	.0002
298.15	.3052	1.3448	.0002
298.15	.4397	1.3486	.0002
298.15	.515	1.3502	.0002
303.15	0	1.3337	.0002
303.15	.05	1.3352	.0002
303.15	.0801	1.3362	.0002
303.15	.1151	1.3378	.0002
303.15	.1551	1.3394	.0002
303.15	.2	1.3407	.0002
303.15	.2503	1.3427	.0002
303.15	.3052	1.3442	.0002
303.15	.4397	1.348	.0002
303.15	.515	1.3495	.0002
308.15	0	1.3331	.0002
308.15	.05	1.3345	.0002
308.15	.0801	1.3355	.0002
308.15	.1151	1.3371	.0002
308.15	.1551	1.3387	.0002
308.15	.2	1.34	.0002
308.15	.2503	1.342	.0002
308.15	.3052	1.3433	.0002
308.15	.4397	1.3473	.0002
308.15	.515	1.3487	.0002
313.15	0	1.3324	.0002
313.15	.05	1.3337	.0002
313.15	.0801	1.3348	.0002
313.15	.1151	1.3363	.0002
313.15	.1551	1.3379	.0002
313.15	.2	1.3392	.0002
313.15	.2503	1.3413	.0002
313.15	.3052	1.3421	.0002
313.15	.4397	1.3465	.0002
313.15	.515	1.3479	.0002

System: cobalt dichloride + water; phases: Liquid
Property: Speed of sound, m/s (Liquid); method: Linear variable-path acoustic interferometer
Temperature, K	Pressure, kPa	Molality, mol/kg of cobalt dichloride	Speed of sound, m/s	uncertainty
293.15	100	.1	1502.45	.2
298.15	100	.1	1512.03	.2
303.15	100	.1	1524.02	.2
308.15	100	.1	1533.91	.2
313.15	100	.1	1541.74	.2

System: cobalt dichloride + water; phases: Liquid
Property: Refractive index (Na D-line) (Liquid); method: Standard Abbe refractometry
Temperature, K	Pressure, kPa	Molality, mol/kg of cobalt dichloride	Refractive index (Na D-line)	uncertainty
293.15	1000	.1	1.3373	.0002
298.15	1000	.1	1.3368	.0002
303.15	1000	.1	1.3361	.0002
308.15	1000	.1	1.3356	.0002
313.15	1000	.1	1.335	.0002

System: cobalt dichloride + water; phases: Liquid
Property: Mass density, kg/m3 (Liquid); method: Pycnometric method
Temperature, K	Pressure, kPa	Molality, mol/kg of cobalt dichloride	Mass density, kg/m3	uncertainty
293.15	100	.1	1014	.05
298.15	100	.1	1013	.05
303.15	100	.1	1011.84	.05
308.15	100	.1	1010.16	.05
313.15	100	.1	1007.89	.05

System: 3,6-dimethyl-2,5-piperazinedione + water; phases: Liquid
Property: Speed of sound, m/s (Liquid); method: Linear variable-path acoustic interferometer
Temperature, K	Pressure, kPa	Molality, mol/kg of 3,6-dimethyl-2,5-piperazinedione	Speed of sound, m/s	uncertainty
293.15	100	.1	1499.65	.2
298.15	100	.1	1509.5	.2
303.15	100	.1	1521.06	.2
308.15	100	.1	1527.86	.2
313.15	100	.1	1535.86	.2

System: 3,6-dimethyl-2,5-piperazinedione + water; phases: Liquid
Property: Refractive index (Na D-line) (Liquid); method: Standard Abbe refractometry
Temperature, K	Pressure, kPa	Molality, mol/kg of 3,6-dimethyl-2,5-piperazinedione	Refractive index (Na D-line)	uncertainty
293.15	1000	.1	1.3351	.0002
298.15	1000	.1	1.3344	.0002
303.15	1000	.1	1.3337	.0002
308.15	1000	.1	1.3331	.0002
313.15	1000	.1	1.3324	.0002

System: 3,6-dimethyl-2,5-piperazinedione + water; phases: Liquid
Property: Mass density, kg/m3 (Liquid); method: Pycnometric method
Temperature, K	Pressure, kPa	Molality, mol/kg of 3,6-dimethyl-2,5-piperazinedione	Mass density, kg/m3	uncertainty
293.15	100	.1	999.9	.05
298.15	100	.1	998.82	.05
303.15	100	.1	997.48	.05
308.15	100	.1	996.18	.05
313.15	100	.1	994.84	.05
