Measured thermophysical data. Solubilities, Vapor Pressures, Densities, Viscosities, and Specific Heat Capacities of the LiNO3/H2O Binary System
Source: J. Chem. Eng. Data, 2013, 10.1021/je301084m
Compound 1: lithium nitrate, LiNO3, purity 99.5%
Compound 2: water, H2O, purity 99.99%

System: water + lithium nitrate; phases: Liquid, Crystal
Fixed: Pressure, kPa = 101
Property: Mass fraction of lithium nitrate (Liquid); method: atomic absorption spectrophotometer
Temperature, K	Mass fraction of lithium nitrate	uncertainty
303.15	.614	.004
313.15	.6233	.004
325.15	.6372	.004
335.15	.648	.004
343.15	.6567	.004
358.15	.6788	.004
377.15	.6945	.004
391.15	.7179	.004
411.15	.7499	.004
431.15	.7807	.004

System: water + lithium nitrate; phases: Liquid, Gas
Property: Vapor or sublimation pressure, kPa (Liquid); method: Closed cell (Static) method
Temperature, K	Mass fraction of lithium nitrate	Vapor or sublimation pressure, kPa	uncertainty
297.6	.5	1.172	1.2
303.2	.5	1.699	1.2
307.6	.5	2.324	1.2
312.6	.5	3.196	1.2
323	.5	5.35	1.2
333.2	.5	8.775	1.2
342.9	.5	13.823	1.2
353.1	.5	22.148	1.2
363.6	.5	34.282	1.2
372.1	.5	46.446	1.2
383.1	.5	65.873	1.2
388.4	.5	77.492	1.2
393	.5	90.801	1.2
396.4	.5	98.012	1.2
402.4	.5	111.8	3
409	.5	137	3
415.1	.5	165	3
420.5	.5	191	3
426.5	.5	228	3
428	.5	238	3
435.6	.5	290	3
441.2	.5	332.5	3
446.8	.5	387.5	3
452.5	.5	445	3
458.4	.5	520	3
463.4	.5	580	3
467.6	.5	640	3
471.8	.5	700	3
297.9	.55	.93	1.2
302.1	.55	1.107	1.2
308.5	.55	1.792	1.2
312.7	.55	2.475	1.2
318.2	.55	3.444	1.2
323.5	.55	4.547	1.2
328.2	.55	5.909	1.2
333.1	.55	7.502	1.2
343	.55	11.933	1.2
353.2	.55	18.144	1.2
362.4	.55	26.074	1.2
374	.55	39.407	1.2
383.1	.55	55.389	1.2
391.9	.55	70.976	1.2
398.7	.55	87.59	1.2
402.7	.55	97.504	1.2
410.1	.55	122.7	3
416.8	.55	144.2	3
426.2	.55	185.5	3
431.3	.55	213.5	3
435.7	.55	240.8	3
440.7	.55	280	3
445.5	.55	321	3
450.6	.55	365	3
455.2	.55	408	3
461.4	.55	480	3
466.4	.55	537.5	3
472.4	.55	620	3
303	.6	1.077	1.2
308	.6	1.516	1.2
313.1	.6	1.85	1.2
323	.6	3.42	1.2
333	.6	5.842	1.2
343	.6	9.497	1.2
352.8	.6	14.639	1.2
363.6	.6	22.8	1.2
373.4	.6	31.631	1.2
383.5	.6	44.24	1.2
394	.6	62.22	1.2
401.7	.6	79.414	1.2
407.8	.6	95.628	1.2
414.1	.6	110	3
419.3	.6	131	3
423.9	.6	147	3
429.5	.6	171.5	3
434.9	.6	200.5	3
439.2	.6	224.5	3
441.8	.6	241.2	3
447.8	.6	277.1	3
452.3	.6	307	3
457.3	.6	352.5	3
462.7	.6	402	3
467.7	.6	455	3
472.7	.6	508	3
333	.65	4.544	1.2
342.8	.65	6.995	1.2
352.5	.65	11.18	1.2
363.3	.65	17.975	1.2
374.1	.65	25.332	1.2
383.1	.65	34.484	1.2
393.6	.65	48.816	1.2
403.7	.65	66.787	1.2
412.7	.65	89.297	1.2
418.1	.65	104.53	3
425.2	.65	128.2	3
434.1	.65	165	3
443.7	.65	207.5	3
448.6	.65	232.5	3
453.7	.65	267.5	3
458.7	.65	305	3
463.8	.65	345	3
468.7	.65	385	3
473.1	.65	428	3
383.1	.7	28.035	1.2
393.5	.7	39.958	1.2
403.1	.7	54.169	1.2
413	.7	72.807	1.2
422.7	.7	96.133	1.2
428.9	.7	107	3
433.8	.7	122.5	3
439.2	.7	142.5	3
443.8	.7	160	3
449.7	.7	182	3
454.1	.7	204.5	3
458.6	.7	230	3
462.7	.7	250	3
467.1	.7	280	3
473.8	.7	325	3

System: water + lithium nitrate; phases: Liquid
Fixed: Pressure, kPa = 101
Property: Mass density, kg/m3 (Liquid); method: Pycnometric method
Temperature, K	Mass fraction of lithium nitrate	Mass density, kg/m3	uncertainty
283.15	.3	1203	1
293.15	.3	1199	1
303.15	.3	1193	1
313.15	.3	1188	1
323.15	.3	1179	1
333.15	.3	1173	1
343.15	.3	1166	1
353.15	.3	1159	1
363.15	.3	1152	1
373.15	.3	1144	1
293.15	.35	1236	1
303.15	.35	1231	1
313.15	.35	1225	1
323.15	.35	1216	1
333.15	.35	1210	1
343.15	.35	1203	1
353.15	.35	1196	1
363.15	.35	1189	1
373.15	.35	1181	1
293.15	.4	1274	1
303.15	.4	1269	1
313.15	.4	1263	1
323.15	.4	1257	1
333.15	.4	1250	1
343.15	.4	1243	1
353.15	.4	1236	1
363.15	.4	1230	1
373.15	.4	1222	1
383.15	.4	1213	1
303.15	.45	1314	1
313.15	.45	1307	1
323.15	.45	1300	1
333.15	.45	1293	1
343.15	.45	1286	1
353.15	.45	1279	1
363.15	.45	1272	1
373.15	.45	1265	1
383.15	.45	1258	1
303.15	.55	1405	1
313.15	.55	1398	1
323.15	.55	1391	1
333.15	.55	1384	1
343.15	.55	1376	1
353.15	.55	1369	1
363.15	.55	1361	1
373.15	.55	1353	1
383.15	.55	1346	1
393.15	.55	1338	1
313.15	.6	1449	1
323.15	.6	1440	1
333.15	.6	1432	1
343.15	.6	1424	1
353.15	.6	1416	1
363.15	.6	1408	1
373.15	.6	1400	1
383.15	.6	1393	1
393.15	.6	1385	1
403.15	.6	1377	1
333.15	.65	1494	1
343.15	.65	1486	1
353.15	.65	1479	1
363.15	.65	1472	1
373.15	.65	1464	1
383.15	.65	1456	1
393.15	.65	1448	1
403.15	.65	1440	1
413.15	.65	1430	1
303.15	.5	1358	1
313.15	.5	1352	1
323.15	.5	1346	1
333.15	.5	1339	1
343.15	.5	1331	1
353.15	.5	1324	1
363.15	.5	1317	1
373.15	.5	1309	1
383.15	.5	1301	1
393.15	.5	1294	1

System: water + lithium nitrate; phases: Liquid
Fixed: Pressure, kPa = 101
Property: Viscosity, Pa*s (Liquid); method: Capillary tube (Ostwald; Ubbelohde) method
Mass fraction of lithium nitrate	Temperature, K	Viscosity, Pa*s	uncertainty
.3	283.15	.00241	.00002
.3	293.15	.001902	.00002
.3	303.15	.001535	.00002
.3	313.15	.0013	.00002
.3	323.15	.001112	.00002
.3	333.15	.00095	.00002
.3	343.15	.000826	.00002
.3	353.15	.000731	.00002
.3	363.15	.00065	.00002
.3	373.15	.000586	.00002
.35	293.15	.002241	.00002
.35	303.15	.00185	.00002
.35	313.15	.001552	.00002
.35	323.15	.001306	.00002
.35	333.15	.001134	.00002
.35	343.15	.000985	.00002
.35	353.15	.000864	.00002
.35	363.15	.000773	.00002
.35	373.15	.0007	.00002
.4	293.15	.002791	.00002
.4	303.15	.00224	.00002
.4	313.15	.001888	.00002
.4	323.15	.00158	.00002
.4	333.15	.001356	.00002
.4	343.15	.001182	.00002
.4	353.15	.001041	.00002
.4	363.15	.000927	.00002
.4	373.15	.000837	.00002
.4	383.15	.000763	.00002
.45	303.15	.00287	.00002
.45	313.15	.002363	.00002
.45	323.15	.001994	.00002
.45	333.15	.0017	.00002
.45	343.15	.001479	.00002
.45	353.15	.001302	.00002
.45	363.15	.001149	.00002
.45	373.15	.001034	.00002
.45	383.15	.000938	.00002
.5	303.15	.003839	.00002
.5	313.15	.003114	.00002
.5	323.15	.002543	.00002
.5	333.15	.002143	.00002
.5	343.15	.001854	.00002
.5	353.15	.001616	.00002
.5	363.15	.001466	.00002
.5	373.15	.001306	.00002
.5	383.15	.001175	.00002
.55	303.15	.005357	.00002
.55	313.15	.004299	.00002
.55	323.15	.003515	.00002
.55	333.15	.002926	.00002
.55	343.15	.002493	.00002
.55	353.15	.002158	.00002
.55	363.15	.001882	.00002
.55	373.15	.001693	.00002
.55	383.15	.001505	.00002
.55	393.15	.001371	.00002
.6	313.15	.006274	.00002
.6	323.15	.004961	.00002
.6	333.15	.004153	.00002
.6	343.15	.003472	.00002
.6	353.15	.002955	.00002
.6	363.15	.002564	.00002
.6	373.15	.002248	.00002
.6	383.15	.001993	.00002
.6	393.15	.001785	.00002
.6	403.15	.001625	.00002
.65	333.15	.005721	.00002
.65	343.15	.004764	.00002
.65	353.15	.00402	.00002
.65	363.15	.003394	.00002
.65	373.15	.002953	.00002
.65	383.15	.002615	.00002
.65	393.15	.002307	.00002
.65	403.15	.002095	.00002
.65	413.15	.001923	.00002

System: water + lithium nitrate; phases: Liquid
Fixed: Pressure, kPa = 101
Property: Molar heat capacity at constant pressure, J/K/mol (Liquid); method: Small sample (50 mg) DSC
Mass fraction of lithium nitrate	Temperature, K	Molar heat capacity at constant pressure, J/K/mol	uncertainty
.3	303.15	79.4776053584477	.06
.3	313.15	80.0099247886295	.06
.3	323.15	80.6116771879654	.06
.3	333.15	81.2597182334041	.06
.3	343.15	81.5837387561235	.06
.3	353.15	82.278068447665	.06
.3	363.15	82.6946662625898	.06
.35	303.15	78.7959764108683	.06
.35	313.15	79.5491911098313	.06
.35	323.15	80.4967837956234	.06
.35	333.15	81.1771067495254	.06
.35	343.15	81.7602407100129	.06
.35	353.15	82.2704829254394	.06
.35	363.15	82.9265086309878	.06
.4	303.15	78.8611509794422	.06
.4	313.15	79.6538538589373	.06
.4	323.15	80.4209856778034	.06
.4	333.15	81.3671149210717	.06
.4	343.15	81.8273940123914	.06
.4	353.15	82.6200968918864	.06
.4	363.15	83.2849444682371	.06
.4	373.15	84.1543605296188	.06
.45	303.15	80.9035025498253	.06
.45	313.15	81.4971906939534	.06
.45	323.15	81.7940347660175	.06
.45	333.15	82.2258079617471	.06
.45	343.15	82.7115528069428	.06
.45	353.15	83.7100283220674	.06
.45	363.15	84.978362084523	.06
.45	373.15	86.1117667233131	.06
.5	303.15	82.0138647661187	.06
.5	313.15	82.6708898060423	.06
.5	323.15	83.5278789885514	.06
.5	333.15	83.7278431311368	.06
.5	343.15	84.0706388041405	.06
.5	353.15	84.5562660075623	.06
.5	363.15	85.8417497813259	.06
.5	373.15	86.6416063516677	.06
.55	303.15	83.6568441813539	.06
.55	313.15	84.4761168664814	.06
.55	323.15	84.7188643287414	.06
.55	333.15	84.6581774631764	.06
.55	343.15	85.1740158204789	.06
.55	353.15	86.1753491023014	.06
.55	363.15	87.298056115254	.06
.55	373.15	88.086985367599	.06
.6	313.15	86.0355072657982	.06
.6	323.15	86.2943579834087	.06
.6	333.15	86.8767720980324	.06
.6	343.15	87.0709101362403	.06
.6	353.15	87.7503932699679	.06
.6	363.15	88.4298764036956	.06
.6	373.15	89.6270609726442	.06

System: water + lithium nitrate; phases: Liquid, Crystal of intercomponent compound 1
Fixed: Pressure, kPa = 101
Property: Mass fraction of lithium nitrate (Liquid); method: atomic absorption spectrophotometer
Temperature, K	Mass fraction of lithium nitrate	uncertainty
277.15	.3445	.004
283.15	.37	.004
293.15	.4264	.004
298.15	.4647	.004
