Measured thermophysical data. Measurements of the Speed of Sound in the Refrigerants HFC227ea and HFC365mfc in the Liquid Region
Source: J. Chem. Eng. Data, 2013, 10.1021/je301164d
Compound 1: 2-hydroheptafluoropropane, C3HF7, purity 99.5%
Compound 2: HFC-365mfc, C4H5F5, purity 99.5%

System: 2-hydroheptafluoropropane; phases: Fluid (supercritical or subcritical phases)
Property: Speed of sound, m/s (Fluid (supercritical or subcritical phases)); method: Pulse-echo method
Temperature, K	Pressure, kPa	Speed of sound, m/s	uncertainty
280.0035	603.72	494.1	.158
280.0038	1104.41	498.919	.16
280.0035	1604.74	503.638	.161
280.0037	2105	508.265	.163
280.0043	3105.75	517.265	.166
280.0044	4106.23	525.95	.169
280.0042	5107.05	534.351	.172
280.0038	6107.93	542.491	.174
280.0042	7109.3	550.398	.177
280.0043	8110.03	558.074	.18
280.0047	9110.73	565.55	.182
280.004	10111.4	572.834	.185
280.0048	12613.1	590.292	.191
280.0043	15114.8	606.803	.196
280.004	17616.5	622.498	.202
280.0044	20118.2	637.478	.207
280.0056	25121.7	665.604	.217
280.0053	30125.3	691.693	.227
280.0046	35128.9	716.105	.235
280.0047	40132.4	739.098	.244
280.0048	45135.9	760.882	.252
280.0048	50139.4	781.612	.26
299.9941	1103.05	417.61	.134
299.9946	1603.41	423.61	.136
299.9941	2103.83	429.454	.138
299.9971	3106.45	440.664	.141
299.9974	4107.19	451.301	.145
299.9974	5107.93	461.451	.148
299.9973	6108.65	471.174	.151
299.9976	7109.36	480.509	.155
299.9978	8110.09	489.502	.158
299.9985	9110.14	498.181	.161
299.9988	10110.8	506.582	.163
299.9986	12612.5	526.497	.17
299.9989	15114.1	545.087	.176
299.9992	17615.8	562.568	.182
299.9996	20117.5	579.107	.188
299.999	25122.1	609.848	.199
299.9991	30125.5	638.038	.209
299.9991	35128.9	664.188	.218
299.9993	40132.3	688.658	.227
299.9994	45135.7	711.71	.236
299.9992	50139.1	733.553	.244
320.0031	1104.17	332.956	.107
320.0043	12611.6	466.658	.151
320.0033	2104.89	349.109	.112
320.0025	3105.47	363.819	.117
320.003	4105.65	377.386	.121
320.0039	5106.35	390.039	.125
320.0039	6107.05	401.935	.129
320.0041	7107.73	413.178	.133
320.0043	8108.37	423.866	.136
320.0046	9108.99	434.063	.14
320.0042	10109.8	443.834	.143
320.0046	15113.3	487.61	.158
320.0044	17615	507.059	.164
320.0044	20116.8	525.273	.171
320.0044	25120.3	558.715	.182
320.0041	30124.1	589.028	.193
320.0041	35127.6	616.897	.203
320.004	40131.3	642.796	.212
320.0047	45134.9	667.061	.221
320.0051	50138.4	689.948	.229
339.9964	1603.11	249.976	.08
339.9966	2103.44	262.383	.084
339.9974	3104.08	283.962	.091
339.9975	4104.77	302.59	.097
339.9977	5105.41	319.168	.103
339.9974	6106	334.231	.107
339.9976	7106.68	348.103	.112
339.9975	8108.11	361.031	.116
339.9972	9108.94	373.151	.12
339.9974	10109.7	384.599	.124
339.9974	12611.5	410.84	.133
339.9972	15113.3	434.431	.141
339.9978	17614.8	455.998	.148
339.998	20116.6	475.96	.155
339.998	25120.1	512.152	.167
339.998	30123.6	544.541	.178
339.998	35127	574.057	.189
339.9982	40130.5	601.301	.198
339.9979	45134.2	626.696	.208
339.998	50137.7	650.546	.216
360.0035	3604.31	209.764	.067
360.0038	4104.77	223.691	.072
360.0041	5105.64	247.372	.079
360.0043	6106.52	267.427	.086
360.0041	7107.35	285.071	.092
360.0063	8109.16	300.979	.097
360.0063	9109.96	315.53	.102
360.0068	15114.3	385.622	.125
360.0068	17616.11	409.395	.133
360.007	20118.12	431.124	.14
360.0071	25121.83	470.004	.153
360.0076	30125.23	504.362	.165
360.0076	35128.56	535.406	.176
360.0079	40132	563.882	.186
360.0063	10110.7	329.013	.106
360.0066	12612.5	359.172	.116
360.008	45135.34	590.291	.196
360.0079	50138.83	615.002	.205
379.9993	7107.26	224.902	.072
379.9991	8108.08	244.614	.079
380	9108.88	262.077	.084
380	10109.6	277.876	.09
380	11110.3	292.378	.094
380.0006	12111	305.841	.099
380.0002	13111.8	318.447	.103
380.0006	14112.5	330.324	.107
380.0001	15113.2	341.583	.111
380.0009	17615	367.5	.119
380.001	20116.7	390.902	.127
380.0007	22618.5	412.36	.134
380.0013	25119.8	432.252	.141
380.0012	30123.2	468.391	.153
380.0015	35126.6	500.79	.165
380.0017	40130.1	530.341	.175
380.0019	45133.5	557.638	.185
380.0021	50137.1	583.091	.194
400.0023	10107.8	232.805	.075
400.0022	11108.6	249.036	.08
400.0027	12109.3	263.931	.085
400.0027	13110.1	277.747	.09
400.0027	14110.8	290.668	.094
400.0027	15111.5	302.834	.098
400.0028	16112.2	314.355	.102
400.0032	17113	325.312	.105
400.003	18113.9	335.776	.109
400.003	19114.8	345.801	.112
400.0032	20115.6	355.433	.116
400.0029	22617.6	378.038	.123
400.003	25119.3	398.877	.13
400.0031	27621.1	418.285	.137
400.0031	30122.7	436.495	.143
400.0029	35126.4	470.021	.155
400.0032	40129.9	500.463	.165
400.0038	45133.4	528.484	.175
400.0037	50137	554.55	.184
420.004	13109.2	243.754	.079
420.0039	14109.9	257.314	.083
420.0042	15110.6	270.06	.087
420.0039	16111.4	282.108	.091
420.0042	27620.3	389.816	.127
420.0043	30122.1	408.537	.134
420.0042	35125.3	442.895	.146
420.0041	40128.9	474.011	.156
420.004	17112.2	293.546	.095
420.004	18113	304.449	.099
420.0041	19113.7	314.877	.102
420.0038	12108.4	229.233	.074
420.0039	20114.7	324.882	.106
420.0042	22616.6	348.298	.113
420.0039	25118.4	369.823	.121
420.0044	45132.6	502.591	.166
420.0043	50136.1	529.122	.176
420.0044	55139.7	553.961	.185
420.0045	60143.2	577.36	.193
420.0048	70150.4	620.636	.209
420.0048	80157.5	660.116	.224
420.0047	90165.3	696.591	.239

System: HFC-365mfc; phases: Fluid (supercritical or subcritical phases)
Property: Speed of sound, m/s (Fluid (supercritical or subcritical phases)); method: Pulse-echo method
Temperature, K	Pressure, kPa	Speed of sound, m/s	uncertainty
249.9964	1105.24	921.654	.332
249.9964	2105.81	926.727	.334
249.9963	3106.29	931.741	.336
249.9961	4106.88	936.695	.338
249.9961	5107.39	941.591	.34
249.996	6108.31	946.435	.342
249.9957	7108.89	951.224	.344
249.9958	8108.14	955.954	.346
249.9961	9108.81	960.643	.348
249.9962	10109.5	965.279	.35
249.9962	12611.2	976.667	.355
249.9963	15112.8	987.778	.359
249.9963	17614.5	998.623	.364
249.9965	20116.2	1009.23	.368
249.9965	25119.7	1029.77	.377
249.9964	30123.2	1049.47	.386
249.9963	35126.7	1068.44	.394
249.9953	40129.8	1086.73	.402
249.9955	45133.2	1104.43	.41
249.9955	50136.7	1121.55	.418
259.998	1104.31	881.567	.318
259.998	2104.81	886.957	.32
259.9974	3105.32	892.275	.322
259.9976	4105.93	897.525	.324
259.9984	5106.33	902.702	.326
259.998	6107.9	907.823	.328
259.9971	7109.17	912.886	.33
259.997	8109.95	917.883	.332
259.9972	9110.74	922.822	.334
259.9966	10111.6	927.709	.336
259.9971	12613.3	939.678	.341
259.9965	15114.8	951.341	.346
259.9964	17616.6	962.702	.351
259.9958	20118.3	973.79	.355
259.9963	25121.8	995.21	.365
259.9969	30125.8	1015.72	.373
259.9971	35129.2	1035.4	.382
259.9972	40132.6	1054.35	.39
259.9971	45136	1072.64	.398
259.9974	50139.5	1090.32	.406
259.9966	60146.3	1124.06	.422
259.9963	70153.3	1155.9	.436
259.9975	80160.3	1186.11	.451
259.9974	90167.3	1214.88	.465
259.9967	100174	1242.39	.478
279.9955	1104.39	803.308	.289
279.996	20117.6	905.714	.331
279.9955	2104.89	809.414	.292
279.9953	3105.41	815.422	.294
279.9958	4106.02	821.335	.297
279.9956	5106.56	827.157	.299
279.9958	6107.8	832.893	.301
279.9961	7108.52	838.546	.303
279.9963	8109.28	844.119	.306
279.9954	9110.25	849.619	.308
279.9958	10110.9	855.044	.31
279.9956	12612.6	868.295	.315
279.9959	15114.2	881.135	.321
279.9959	17615.9	893.599	.326
279.9959	25121	929.005	.34
279.9958	30124.5	951.169	.35
279.9963	35128	972.336	.359
279.9967	40131.3	992.623	.367
279.9973	45134.9	1012.14	.376
279.997	50138.3	1030.93	.384
279.9973	60145.2	1066.64	.4
279.9975	70152.2	1100.18	.415
279.9974	80159.2	1131.86	.43
279.9971	90166.2	1161.95	.444
279.9973	100172	1190.62	.458
299.9969	1104.5	727.097	.262
299.9971	2105.02	734.062	.265
299.997	3105.5	740.902	.267
299.9968	4106	747.608	.27
299.997	5107	754.188	.272
299.997	6107.62	760.648	.275
299.9979	7107.15	766.961	.277
299.9981	8107.81	773.205	.28
299.9981	9108.42	779.34	.282
299.9974	10110.2	785.368	.285
299.9976	12612	800.064	.291
299.9973	15113.8	814.225	.296
299.9974	17615.7	827.906	.302
299.9975	20117.4	841.146	.307
299.9975	25121	866.442	.317
299.9982	30125.1	890.344	.327
299.9982	35128.6	913.064	.337
299.9982	40132	934.735	.346
299.9983	45135.5	955.482	.355
299.9983	50139	975.384	.363
299.9985	60145.9	1013.06	.38
299.9984	70152.9	1048.27	.396
299.9983	80159.8	1081.4	.411
299.9983	90166.8	1112.74	.426
299.9985	100174	1142.54	.44
320.0053	1103.13	652.277	.235
320.0006	20119	779.984	.285
319.9934	2104.92	660.367	.238
319.9931	3105.53	668.239	.241
319.9924	4106.3	675.918	.244
319.9903	5107.7	683.411	.247
319.9904	6108.64	690.741	.25
319.9905	7109.32	697.912	.252
319.9904	8110.03	704.932	.255
320.0004	9111.17	711.767	.258
320.0005	10111.9	718.523	.26
320.0006	12613.7	734.862	.267
320.0005	15115.4	750.505	.273
320.0005	17617.2	765.527	.279
320.0003	25122.6	807.438	.296
320.0001	30126.1	833.194	.306
320.0001	35129.7	857.515	.316
319.9993	40133.6	880.586	.326
319.9992	45137.2	902.594	.335
319.9994	50140.6	923.632	.344
319.9991	60147.6	963.245	.361
319.9992	70154.7	1000.07	.378
319.9996	80161.7	1034.59	.393
319.9995	90168.8	1067.14	.408
319.9998	100176	1098	.423
339.9992	1105.82	578.155	.208
339.999	2106.43	587.648	.212
339.9989	3106.96	596.831	.215
339.9987	4107.49	605.733	.219
339.9986	5108.05	614.361	.222
339.9989	6109.06	622.752	.225
339.9989	7109.73	630.92	.228
339.9989	8108.87	638.859	.231
339.9986	9109.42	646.622	.234
339.9986	10109.9	654.203	.237
339.9987	12611.4	672.434	.244
339.9989	15112.9	689.742	.251
339.9989	17614.4	706.243	.257
339.999	20116	722.034	.264
339.9987	25119.2	751.783	.275
339.9989	30122.5	779.466	.286
339.9985	35124.2	805.417	.297
339.9985	40127.7	829.931	.307
339.9982	45131.1	853.186	.317
339.9982	50134.6	875.341	.326
339.9982	60141.6	916.858	.344
339.9973	70150	955.265	.361
339.9973	80157.1	991.116	.377
339.9975	90164.3	1024.81	.392
339.9974	100171	1056.68	.407
360.0022	1102.09	503.74	.181
360.0004	20116.6	667.308	.244
360.0016	2102.72	515.201	.186
360.0014	3103.33	526.145	.19
360.001	4103.97	536.638	.194
360.0009	5104.79	546.727	.198
360.001	6106.19	556.452	.201
360.0011	7106.94	565.844	.205
360.0013	8107.67	574.937	.208
360.0011	9108.39	583.754	.211
360.0011	10109.1	592.319	.215
360.0014	12610.9	612.735	.223
360.0012	15112.7	631.924	.23
360.0006	17614.9	650.069	.237
360.0006	25120.1	699.501	.256
360.0007	30123.5	729.186	.268
360.001	35126.9	756.831	.279
360.0004	40130.4	782.776	.29
360.0003	45133.9	807.276	.3
359.9996	50136.9	830.523	.309
359.9994	60143.9	873.891	.328
359.9997	70150.9	913.8	.345
359.9997	80157.9	950.908	.361
359.9997	90164.9	985.685	.377
359.9995	100172	1018.48	.392
379.9935	1100.78	427.276	.154
379.9931	2101.66	441.66	.159
379.9931	3102.07	455.118	.164
379.9931	4102.71	467.802	.169
379.993	5103.45	479.824	.173
379.9931	6104.71	491.269	.178
379.9932	7105.49	502.214	.182
379.993	8106.27	512.709	.186
379.9935	9107.51	522.809	.189
379.9935	10108.3	532.542	.193
379.9934	12610.1	555.505	.202
379.9935	15111.9	576.814	.21
379.9933	17613.7	596.763	.217
379.9938	20115.5	615.559	.225
379.9934	25119	650.335	.238
379.9935	30122.6	682.079	.251
379.9936	35126.2	711.417	.262
379.993	40130.2	738.79	.273
379.9929	45133.8	764.514	.284
379.9933	50137.3	788.832	.294
379.9931	60144.3	833.968	.313
379.993	70151.4	875.312	.33
379.993	80158.5	913.604	.347
379.993	90165.6	949.388	.363
379.9931	100173	983.052	.379
400.0017	1605.2	355.522	.128
400.0024	20118	566.858	.207
400.0013	2105.65	364.944	.132
400.0011	3106.43	382.376	.138
400.0015	4107.25	398.307	.144
400.0009	5108.09	413.052	.149
400.003	6107.81	426.803	.154
400.0031	7108.64	439.765	.159
400.0033	8109.38	452.032	.164
400.0029	9110.16	463.702	.168
400.0029	10110.9	474.847	.172
400.0026	12612.7	500.78	.182
400.0025	15114.5	524.475	.191
400.0023	17616.2	546.393	.199
400.0024	25121.5	604.312	.221
400.0028	30124.9	638.139	.235
400.0029	35128.3	669.157	.247
400.0028	40131.8	697.922	.258
400.0031	45135.3	724.825	.269
400.0026	50138	750.161	.279
400.0026	60145.2	796.979	.299
400.0026	70152.3	839.661	.317
400.0024	80159.3	879.055	.334
400.0025	90166.4	915.765	.35
400.0026	100174	950.225	.366
419.994	2103.32	280.019	.101
419.9938	3102.8	305.082	.11
419.9936	4103.55	326.491	.118
419.9935	5104.27	345.407	.125
419.9934	6104.97	362.506	.131
419.9933	7105.63	378.198	.137
419.9934	8106.35	392.762	.142
419.9935	9107.1	406.402	.147
419.9933	10107.8	419.256	.152
