Measured thermophysical data. Density and Viscosity Measurements of Binary Alkanol Mixtures from (293.15 to 333.15) K at Atmospheric Pressure
Source: J. Chem. Eng. Data, 2013, 10.1021/je3011634
Compound 1: isobutyl alcohol, C4H10O, purity 99%
Compound 2: 3-amino-1-propanol, C3H9NO, purity 99%
Compound 3: n-propyl alcohol, C3H8O, purity 99.8%
Compound 4: isopropanol, C3H8O, purity 99.5%

System: isobutyl alcohol; phases: Liquid
Fixed: Pressure, kPa = 101.325
Property: Mass density, kg/m3 (Liquid); method: Vibrating tube method
Temperature, K	Mass density, kg/m3	uncertainty
293.15	801.82	.051
303.15	794.06	.051
313.15	786.12	.051
323.15	777.94	.051
333.15	769.46	.051

System: isobutyl alcohol; phases: Liquid
Fixed: Pressure, kPa = 101.325
Property: Viscosity, Pa*s (Liquid); method: Capillary tube (Ostwald; Ubbelohde) method
Temperature, K	Viscosity, Pa*s	uncertainty
293.15	.004087	.00005
303.15	.002877	.00005
313.15	.002091	.00005
323.15	.001576	.00005
333.15	.001125	.00005

System: 3-amino-1-propanol; phases: Liquid
Fixed: Pressure, kPa = 101.325
Property: Mass density, kg/m3 (Liquid); method: Vibrating tube method
Temperature, K	Mass density, kg/m3	uncertainty
293.15	987.65	.051
303.15	979.65	.051
313.15	971.61	.051
323.15	963.52	.051
333.15	955.38	.051

System: 3-amino-1-propanol; phases: Liquid
Fixed: Pressure, kPa = 101.325
Property: Viscosity, Pa*s (Liquid); method: Capillary tube (Ostwald; Ubbelohde) method
Temperature, K	Viscosity, Pa*s	uncertainty
293.15	.040456	.00005
303.15	.023981	.00005
313.15	.015312	.00005
323.15	.010221	.00005
333.15	.006962	.00005

System: n-propyl alcohol; phases: Liquid
Fixed: Pressure, kPa = 101.325
Property: Mass density, kg/m3 (Liquid); method: Vibrating tube method
Temperature, K	Mass density, kg/m3	uncertainty
293.15	803.57	.051
303.15	795.53	.051
313.15	787.35	.051
323.15	778.98	.051
333.15	770.38	.051

System: n-propyl alcohol; phases: Liquid
Fixed: Pressure, kPa = 101.325
Property: Viscosity, Pa*s (Liquid); method: Capillary tube (Ostwald; Ubbelohde) method
Temperature, K	Viscosity, Pa*s	uncertainty
293.15	.002204	.00005
303.15	.001513	.00005
313.15	.001018	.00005
323.15	.00079	.00005
333.15	.00047	.00005

System: isopropanol; phases: Liquid
Fixed: Pressure, kPa = 101.325
Property: Mass density, kg/m3 (Liquid); method: Vibrating tube method
Temperature, K	Mass density, kg/m3	uncertainty
293.15	785.35	.051
303.15	776.86	.051
313.15	768.07	.051
323.15	758.89	.051
333.15	749.25	.051

System: isopropanol; phases: Liquid
Fixed: Pressure, kPa = 101.325
Property: Viscosity, Pa*s (Liquid); method: Capillary tube (Ostwald; Ubbelohde) method
Temperature, K	Viscosity, Pa*s	uncertainty
293.15	.002362	.00005
303.15	.001762	.00005
313.15	.0012	.00005
323.15	.000938	.00005
333.15	.000604	.00005

System: n-propyl alcohol + isobutyl alcohol; phases: Liquid
Fixed: Pressure, kPa = 101
Property: Mass density, kg/m3 (Liquid); method: Vibrating tube method
Temperature, K	Mole fraction of isobutyl alcohol	Mass density, kg/m3	uncertainty
293.15	.1038	803.39	.051
293.15	.1962	803.24	.051
293.15	.2944	803.09	.051
293.15	.4058	802.91	.051
293.15	.504	802.75	.051
293.15	.6041	802.58	.051
293.15	.7019	802.41	.051
293.15	.8072	802.21	.051
303.15	.1038	795.39	.051
303.15	.1962	795.27	.051
303.15	.2944	795.15	.051
303.15	.4058	795.01	.051
303.15	.504	794.88	.051
303.15	.6041	794.74	.051
303.15	.7019	794.59	.051
303.15	.8072	794.41	.051
303.15	.8996	794.24	.051
313.15	.1038	787.25	.051
313.15	.1962	787.16	.051
313.15	.2944	787.07	.051
313.15	.4058	786.96	.051
313.15	.504	786.86	.051
313.15	.6041	786.74	.051
313.15	.7019	786.61	.051
313.15	.8072	786.45	.051
313.15	.8996	786.29	.051
323.15	.1038	778.91	.051
323.15	.1962	778.85	.051
323.15	.2944	778.79	.051
323.15	.4058	778.71	.051
323.15	.504	778.62	.051
323.15	.6041	778.52	.051
323.15	.7019	778.41	.051
323.15	.8072	778.26	.051
323.15	.8996	778.11	.051
333.15	.1038	770.34	.051
333.15	.1962	770.31	.051
333.15	.2944	770.27	.051
333.15	.4058	770.2	.051
333.15	.504	770.13	.051
333.15	.6041	770.04	.051
333.15	.7019	769.94	.051
333.15	.8072	769.8	.051
333.15	.8996	769.64	.051

System: n-propyl alcohol + isobutyl alcohol; phases: Liquid
Fixed: Pressure, kPa = 101
Property: Viscosity, Pa*s (Liquid); method: Capillary tube (Ostwald; Ubbelohde) method
Temperature, K	Mole fraction of isobutyl alcohol	Viscosity, Pa*s	uncertainty
293.15	.1038	.002147	.00005
293.15	.1962	.002269	.00005
293.15	.2944	.002413	.00005
293.15	.4058	.002594	.00005
293.15	.504	.002768	.00005
293.15	.6041	.002961	.00005
293.15	.7019	.003172	.00005
293.15	.8072	.003452	.00005
303.15	.1038	.001586	.00005
303.15	.1962	.001657	.00005
303.15	.2944	.001744	.00005
303.15	.4058	.001855	.00005
303.15	.504	.001967	.00005
303.15	.6041	.002099	.00005
303.15	.7019	.002253	.00005
303.15	.8072	.002448	.00005
303.15	.8996	.002643	.00005
313.15	.1038	.001079	.00005
313.15	.1962	.00114	.00005
313.15	.2944	.00121	.00005
313.15	.4058	.001297	.00005
313.15	.504	.001382	.00005
313.15	.6041	.001487	.00005
313.15	.7019	.001611	.00005
313.15	.8072	.001767	.00005
313.15	.8996	.001914	.00005
323.15	.1038	.000835	.00005
323.15	.1962	.00088	.00005
323.15	.2944	.00093	.00005
323.15	.4058	.000991	.00005
323.15	.504	.001052	.00005
323.15	.6041	.001126	.00005
323.15	.7019	.001217	.00005
323.15	.8072	.001335	.00005
323.15	.8996	.001446	.00005
333.15	.1038	.000508	.00005
333.15	.1962	.000545	.00005
333.15	.2944	.000588	.00005
333.15	.4058	.000641	.00005
333.15	.504	.000693	.00005
333.15	.6041	.000753	.00005
333.15	.7019	.00083	.00005
333.15	.8072	.000928	.00005
333.15	.8996	.001018	.00005

System: isopropanol + isobutyl alcohol; phases: Liquid
Fixed: Pressure, kPa = 101
Property: Mass density, kg/m3 (Liquid); method: Vibrating tube method
Temperature, K	Mole fraction of isobutyl alcohol	Mass density, kg/m3	uncertainty
293.15	.1495	788.29	.051
293.15	.2001	789.25	.051
293.15	.3	791.09	.051
293.15	.4249	793.26	.051
293.15	.5189	794.8	.051
293.15	.6202	796.38	.051
293.15	.7166	797.83	.051
293.15	.8005	799.06	.051
293.15	.9001	800.47	.051
303.15	.1495	779.93	.051
303.15	.2001	780.93	.051
303.15	.3	782.85	.051
303.15	.4249	785.12	.051
303.15	.5189	786.73	.051
303.15	.6202	788.38	.051
303.15	.7166	789.9	.051
303.15	.8005	791.18	.051
303.15	.9001	792.65	.051
313.15	.1495	771.29	.051
313.15	.2001	772.34	.051
313.15	.3	774.35	.051
313.15	.4249	776.74	.051
313.15	.5189	778.43	.051
313.15	.6202	780.17	.051
313.15	.7166	781.76	.051
313.15	.8005	783.1	.051
313.15	.9001	784.64	.051
323.15	.1495	762.29	.051
323.15	.2001	763.4	.051
323.15	.3	765.53	.051
323.15	.4249	768.04	.051
323.15	.5189	769.83	.051
323.15	.6202	771.67	.051
323.15	.7166	773.35	.051
323.15	.8005	774.76	.051
323.15	.9001	776.38	.051
333.15	.1495	752.87	.051
333.15	.2001	754.05	.051
333.15	.3	756.31	.051
333.15	.4249	758.97	.051
333.15	.5189	760.87	.051
333.15	.6202	762.82	.051
333.15	.7166	764.6	.051
333.15	.8005	766.09	.051
333.15	.9001	767.81	.051

System: isopropanol + isobutyl alcohol; phases: Liquid
Fixed: Pressure, kPa = 101
Property: Viscosity, Pa*s (Liquid); method: Capillary tube (Ostwald; Ubbelohde) method
Temperature, K	Mole fraction of isobutyl alcohol	Viscosity, Pa*s	uncertainty
293.15	.1495	.00245	.00005
293.15	.2001	.002498	.00005
293.15	.3	.002621	.00005
293.15	.4249	.00281	.00005
293.15	.5189	.002976	.00005
293.15	.6202	.003184	.00005
293.15	.7166	.003395	.00005
293.15	.8005	.003594	.00005
293.15	.9001	.003838	.00005
303.15	.1495	.001817	.00005
303.15	.2001	.001839	.00005
303.15	.3	.001907	.00005
303.15	.4249	.002021	.00005
303.15	.5189	.002131	.00005
303.15	.6202	.002271	.00005
303.15	.7166	.002417	.00005
303.15	.8005	.002547	.00005
303.15	.9001	.002709	.00005
313.15	.1495	.001259	.00005
313.15	.2001	.00128	.00005
313.15	.3	.001331	.00005
313.15	.4249	.001418	.00005
313.15	.5189	.001505	.00005
313.15	.6202	.001617	.00005
313.15	.7166	.001732	.00005
313.15	.8005	.001837	.00005
313.15	.9001	.001963	.00005
323.15	.1495	.000983	.00005
323.15	.2001	.000999	.00005
323.15	.3	.001035	.00005
323.15	.4249	.001095	.00005
323.15	.5189	.001158	.00005
323.15	.6202	.001237	.00005
323.15	.7166	.00132	.00005
323.15	.8005	.001394	.00005
323.15	.9001	.001483	.00005
333.15	.1495	.000648	.00005
333.15	.2001	.000663	.00005
333.15	.3	.000696	.00005
333.15	.4249	.000745	.00005
333.15	.5189	.000794	.00005
333.15	.6202	.000857	.00005
333.15	.7166	.000921	.00005
333.15	.8005	.000979	.00005
333.15	.9001	.001051	.00005

System: n-propyl alcohol + 3-amino-1-propanol; phases: Liquid
Fixed: Pressure, kPa = 101
Property: Mass density, kg/m3 (Liquid); method: Vibrating tube method
Temperature, K	Mole fraction of 3-amino-1-propanol	Mass density, kg/m3	uncertainty
293.15	.1088	826.73	.051
293.15	.2019	845.91	.051
293.15	.2993	865.53	.051
293.15	.4099	886.82	.051
293.15	.5002	903.78	.051
293.15	.6014	922.34	.051
293.15	.6995	939.59	.051
293.15	.8091	958.11	.051
293.15	.9003	972.64	.051
303.15	.1088	818.68	.051
303.15	.2019	837.85	.051
303.15	.2993	857.43	.051
303.15	.4099	878.7	.051
303.15	.5002	895.67	.051
303.15	.6014	914.25	.051
303.15	.6995	931.51	.051
303.15	.8091	950.09	.051
303.15	.9003	964.64	.051
313.15	.1088	810.49	.051
313.15	.2019	829.65	.051
313.15	.2993	849.23	.051
313.15	.4099	870.51	.051
313.15	.5002	887.49	.051
313.15	.6014	906.08	.051
313.15	.6995	923.4	.051
313.15	.8091	942.03	.051
313.15	.9003	956.59	.051
323.15	.1088	802.16	.051
323.15	.2019	821.33	.051
323.15	.2993	840.93	.051
323.15	.4099	862.22	.051
323.15	.5002	879.21	.051
323.15	.6014	897.8	.051
323.15	.6995	915.21	.051
323.15	.8091	933.93	.051
323.15	.9003	948.49	.051
333.15	.1088	793.63	.051
333.15	.2019	812.86	.051
333.15	.2993	832.49	.051
333.15	.4099	853.84	.051
333.15	.5002	870.85	.051
333.15	.6014	889.48	.051
333.15	.6995	907.01	.051
333.15	.8091	925.77	.051
333.15	.9003	940.36	.051

System: n-propyl alcohol + 3-amino-1-propanol; phases: Liquid
Fixed: Pressure, kPa = 101
Property: Viscosity, Pa*s (Liquid); method: Capillary tube (Ostwald; Ubbelohde) method
Temperature, K	Mole fraction of 3-amino-1-propanol	Viscosity, Pa*s	uncertainty
293.15	.1088	.002978	.00005
293.15	.2019	.004164	.00005
293.15	.2993	.005873	.00005
293.15	.4099	.008435	.00005
293.15	.5002	.011256	.00005
293.15	.6014	.015347	.00005
293.15	.6995	.020076	.00005
293.15	.8091	.026442	.00005
293.15	.9003	.032707	.00005
303.15	.1088	.002081	.00005
303.15	.2019	.002839	.00005
303.15	.2993	.00389	.00005
303.15	.4099	.005443	.00005
303.15	.5002	.00704	.00005
303.15	.6014	.009477	.00005
303.15	.6995	.012288	.00005
303.15	.8091	.01593	.00005
303.15	.9003	.019523	.00005
313.15	.1088	.001401	.00005
313.15	.2019	.002061	.00005
313.15	.2993	.002864	.00005
313.15	.4099	.00397	.00005
313.15	.5002	.00505	.00005
313.15	.6014	.00659	.00005
313.15	.6995	.008276	.00005
313.15	.8091	.010504	.00005
313.15	.9003	.012627	.00005
323.15	.1088	.000999	.00005
323.15	.2019	.001474	.00005
323.15	.2993	.00211	.00005
323.15	.4099	.00295	.00005
323.15	.5002	.003657	.00005
323.15	.6014	.004685	.00005
323.15	.6995	.005816	.00005
323.15	.8091	.007232	.00005
323.15	.9003	.00857	.00005
333.15	.1088	.000579	.00005
333.15	.2019	.000846	.00005
333.15	.2993	.001266	.00005
333.15	.4099	.001828	.00005
333.15	.5002	.002352	.00005
333.15	.6014	.003105	.00005
333.15	.6995	.003907	.00005
333.15	.8091	.004917	.00005
333.15	.9003	.005829	.00005
