Measured thermophysical data. Effect of Inorganic Salts on the Isobaric Vapor Liquid Equilibrium of the Ethyl Acetate Ethanol System
Source: J. Chem. Eng. Data, 2013, 10.1021/je300886k
Compound 1: ethyl ethanoate, C4H8O2, purity 99.99%
Compound 2: ethanol, C2H6O, purity 99.99%
Compound 3: magnesium nitrate, MgN2O6, purity 98%
Compound 4: calcium nitrate, CaN2O6, purity 98%
Compound 5: magnogene, Cl2Mg, purity 98%
Compound 6: zinc nitrate, N2O6Zn, purity 99%

System: ethyl ethanoate; phases: Liquid
Fixed: Pressure, kPa = 101.325
Property: Mass density, kg/m3 (Liquid); method: Vibrating tube method
Temperature, K	Mass density, kg/m3	uncertainty
298.15	897.72	.01

System: ethyl ethanoate; phases: Liquid
Fixed: Pressure, kPa = 101.325
Property: Refractive index (Na D-line) (Liquid); method: Standard Abbe refractometry
Temperature, K	Refractive index (Na D-line)	uncertainty
298.15	1.3698	

System: ethyl ethanoate; phases: Liquid, Gas
Property: Vapor or sublimation pressure, kPa (Liquid); method: Ebulliometric method (Recirculating still)
Temperature, K	Vapor or sublimation pressure, kPa	uncertainty
350.45	101	

System: ethanol; phases: Liquid
Fixed: Pressure, kPa = 101.325
Property: Mass density, kg/m3 (Liquid); method: Vibrating tube method
Temperature, K	Mass density, kg/m3	uncertainty
298.15	785.22	.01

System: ethanol; phases: Liquid
Fixed: Pressure, kPa = 101.325
Property: Refractive index (Na D-line) (Liquid); method: Standard Abbe refractometry
Temperature, K	Refractive index (Na D-line)	uncertainty
298.15	1.3599	

System: ethanol; phases: Liquid, Gas
Property: Vapor or sublimation pressure, kPa (Liquid); method: Ebulliometric method (Recirculating still)
Temperature, K	Vapor or sublimation pressure, kPa	uncertainty
352.75	101	

System: ethanol + zinc nitrate; phases: Liquid
Fixed: Pressure, kPa = 101
Fixed: Temperature, K = 298.15
Property: Mass density, kg/m3 (Liquid); method: Vibrating tube method
Molality, mol/kg of zinc nitrate	Mass density, kg/m3	uncertainty
.0053	785.9	.01
.0106	786.55	.01
.0159	787.2	.01
.0212	787.84	.01
.0265	788.49	.01
.0292	788.78	.01
.0319	789.09	.01
.0346	789.38	.01
.0372	789.7	.01
.0399	789.99	.01
.0426	790.29	.01
.0453	790.6	.01
.048	790.89	.01
.0507	791.19	.01
.0533	791.49	.01
.0804	794.55	.01

System: ethanol + magnesium nitrate; phases: Liquid
Fixed: Pressure, kPa = 101
Fixed: Temperature, K = 298.15
Property: Mass density, kg/m3 (Liquid); method: Vibrating tube method
Molality, mol/kg of magnesium nitrate	Mass density, kg/m3	uncertainty
.0067	782.9	.01
.0135	783.59	.01
.0203	784.17	.01
.0271	784.79	.01
.0339	785.43	.01
.0373	785.75	.01
.0407	786.06	.01
.0441	786.43	.01
.0475	786.74	.01
.051	787.05	.01
.0544	787.34	.01
.0578	787.64	.01
.0612	787.92	.01
.0647	788.22	.01
.0681	788.49	.01

System: ethanol + magnogene; phases: Liquid
Fixed: Pressure, kPa = 101
Fixed: Temperature, K = 298.15
Property: Mass density, kg/m3 (Liquid); method: Vibrating tube method
Molality, mol/kg of magnogene	Mass density, kg/m3	uncertainty
.0105	782.98	.01
.0211	783.73	.01
.0317	784.5	.01
.0423	785.26	.01
.053	786.01	.01
.0583	786.38	.01
.0636	786.75	.01
.0689	787.12	.01
.0743	787.49	.01
.0796	787.86	.01
.085	788.23	.01
.0903	788.57	.01
.0957	788.93	.01

System: ethanol + ethyl ethanoate; phases: Liquid, Gas
Fixed: Pressure, kPa = 101
Property: Boiling temperature at pressure P, K (Liquid); method: Ebulliometric method (Recirculating still)
Mole fraction of ethyl ethanoate	Boiling temperature at pressure P, K	uncertainty
0	352.75	.1
.0502	350.25	.1
.0968	349.35	.1
.199	347.45	.1
.2923	347.25	.1
.3913	346.65	.1
.4962	346.35	.1
.6	346.45	.1
.7038	346.75	.1
.8192	348.05	.1
1	350.45	.1

System: ethanol + ethyl ethanoate; phases: Gas, Liquid
Fixed: Pressure, kPa = 101
Property: Mole fraction of ethyl ethanoate (Gas); method: Index of refraction calibration data
Mole fraction of ethyl ethanoate	Mole fraction of ethyl ethanoate	uncertainty
0	0	.0384
.0502	.1173	.0384
.0968	.2071	.0384
.199	.3313	.0384
.2923	.4288	.0384
.3913	.475	.0384
.4962	.5317	.0384
.6	.5817	.0384
.7038	.6096	.0384
.8192	.7154	.0384
1	1	.0384

System: ethanol + ethyl ethanoate + zinc nitrate; phases: Liquid, Gas
Fixed: Pressure, kPa = 101
Property: Boiling temperature at pressure P, K (Liquid); method: Ebulliometric method (Recirculating still)
Mass fraction of zinc nitrate	Solvent: Mole fraction of ethyl ethanoate	Boiling temperature at pressure P, K	uncertainty
.02	.0502	350.25	.1
.02	.0968	349.35	.1
.02	.199	347.55	.1
.02	.2923	347.55	.1
.02	.3913	346.95	.1
.02	.4962	346.45	.1
.02	.6	346.65	.1
.02	.7038	346.75	.1
.02	.8192	348.65	.1
.05	.0502	350.45	.1
.05	.0968	349.75	.1
.05	.199	348.15	.1
.05	.2923	347.75	.1
.05	.3913	347.05	.1
.05	.4962	346.65	.1
.05	.6	346.65	.1
.05	.7038	347.25	.1
.05	.8192	349.05	.1
.07	.0502	350.45	.1
.07	.0968	350.05	.1
.07	.199	348.65	.1
.07	.2923	348.45	.1
.07	.3913	347.65	.1
.07	.4962	347.35	.1
.07	.6	347.15	.1
.07	.7038	347.35	.1
.07	.8192	349.25	.1
.1	.0502	351.05	.1
.1	.0968	350.65	.1
.1	.199	349.15	.1
.1	.2923	348.85	.1
.1	.3913	348.25	.1
.1	.4962	348.35	.1
.1	.6	348.45	.1
.1	.7038	349.15	.1
.1	.8192	349.65	.1

System: ethanol + ethyl ethanoate + zinc nitrate; phases: Liquid, Gas
Fixed: Pressure, kPa = 101
Property: Mole fraction of ethyl ethanoate (Liquid); method: Index of refraction calibration data
Solvent: Mole fraction of ethyl ethanoate	Mass fraction of zinc nitrate	Mole fraction of ethyl ethanoate	uncertainty
.0502	.02	.1535	.0384
.0968	.02	.2625	.0384
.199	.02	.3698	.0384
.2923	.02	.4648	.0384
.3913	.02	.5296	.0384
.4962	.02	.5688	.0384
.6	.02	.6029	.0384
.7038	.02	.6827	.0384
.8192	.02	.7933	.0384
.0502	.05	.1962	.0384
.0968	.05	.3024	.0384
.199	.05	.4171	.0384
.2923	.05	.4697	.0384
.3913	.05	.536	.0384
.4962	.05	.6095	.0384
.6	.05	.6433	.0384
.7038	.05	.7123	.0384
.8192	.05	.8008	.0384
.0502	.07	.2265	.0384
.0968	.07	.3144	.0384
.199	.07	.4123	.0384
.2923	.07	.4831	.0384
.3913	.07	.555	.0384
.4962	.07	.625	.0384
.6	.07	.6854	.0384
.7038	.07	.7452	.0384
.8192	.07	.8396	.0384
.0502	.1	.2587	.0384
.0968	.1	.3865	.0384
.199	.1	.4721	.0384
.2923	.1	.5365	.0384
.3913	.1	.6183	.0384
.4962	.1	.6606	.0384
.6	.1	.7283	.0384
.7038	.1	.7798	.0384
.8192	.1	.8587	.0384

System: ethanol + ethyl ethanoate + calcium nitrate; phases: Liquid, Gas
Fixed: Pressure, kPa = 101
Property: Boiling temperature at pressure P, K (Liquid); method: Closed cell (Static) method
Mass fraction of calcium nitrate	Solvent: Mole fraction of ethyl ethanoate	Boiling temperature at pressure P, K	uncertainty
.02	.0502	350.25	.1
.02	.0968	349.35	.1
.02	.199	347.65	.1
.02	.2923	347.55	.1
.02	.3913	346.85	.1
.02	.4962	346.65	.1
.02	.6	346.55	.1
.02	.7038	347.15	.1
.02	.8192	348.35	.1
.05	.0502	350.55	.1
.05	.0968	349.95	.1
.05	.199	348.25	.1
.05	.2923	347.65	.1
.05	.3913	346.85	.1
.05	.4962	346.75	.1
.05	.6	346.75	.1
.05	.7038	347.65	.1
.05	.8192	349.15	.1
.07	.0502	350.65	.1
.07	.0968	350.15	.1
.07	.199	349.25	.1
.07	.2923	348.95	.1
.07	.3913	348.15	.1
.07	.4962	347.55	.1
.07	.6	347.25	.1
.07	.7038	348.15	.1
.07	.8192	349.55	.1
.1	.0502	351.05	.1
.1	.0968	350.55	.1
.1	.199	350.05	.1
.1	.2923	349.35	.1
.1	.3913	348.85	.1
.1	.4962	348.15	.1
.1	.6	347.95	.1
.1	.7038	349.15	.1
.1	.8192	349.95	.1

System: ethanol + ethyl ethanoate + calcium nitrate; phases: Liquid, Gas
Fixed: Pressure, kPa = 101
Property: Mole fraction of ethyl ethanoate (Liquid); method: Index of refraction calibration data
Solvent: Mole fraction of ethyl ethanoate	Mass fraction of calcium nitrate	Mole fraction of ethyl ethanoate	uncertainty
.0502	.02	.1462	.0384
.0968	.02	.2577	.0384
.199	.02	.3606	.0384
.2923	.02	.4413	.0384
.3913	.02	.5019	.0384
.4962	.02	.5471	.0384
.6	.02	.5971	.0384
.7038	.02	.6481	.0384
.8192	.02	.7394	.0384
.0502	.05	.1794	.0384
.0968	.05	.2915	.0384
.199	.05	.409	.0384
.2923	.05	.4645	.0384
.3913	.05	.5301	.0384
.4962	.05	.5999	.0384
.6	.05	.6419	.0384
.7038	.05	.712	.0384
.8192	.05	.769	.0384
.0502	.07	.1942	.0384
.0968	.07	.31	.0384
.199	.07	.4209	.0384
.2923	.07	.4844	.0384
.3913	.07	.5502	.0384
.4962	.07	.6001	.0384
.6	.07	.6613	.0384
.7038	.07	.7418	.0384
.8192	.07	.7998	.0384
.0502	.1	.2048	.0384
.0968	.1	.376	.0384
.199	.1	.4529	.0384
.2923	.1	.5029	.0384
.3913	.1	.5702	.0384
.4962	.1	.6394	.0384
.6	.1	.7194	.0384
.7038	.1	.7763	.0384
.8192	.1	.835	.0384

System: ethanol + ethyl ethanoate + magnesium nitrate; phases: Liquid, Gas
Fixed: Pressure, kPa = 101
Property: Boiling temperature at pressure P, K (Liquid); method: Closed cell (Static) method
Mass fraction of magnesium nitrate	Solvent: Mole fraction of ethyl ethanoate	Boiling temperature at pressure P, K	uncertainty
.02	.0502	350.25	.1
.02	.0968	349.65	.1
.02	.199	348.15	.1
.02	.2923	347.95	.1
.02	.3913	347.15	.1
.02	.4962	346.95	.1
.02	.6	346.65	.1
.02	.7038	347.15	.1
.02	.8192	348.15	.1
.05	.0502	350.65	.1
.05	.0968	350.05	.1
.05	.199	348.55	.1
.05	.2923	348.15	.1
.05	.3913	347.65	.1
.05	.4962	347.35	.1
.05	.6	347.15	.1
.05	.7038	347.65	.1
.05	.8192	348.85	.1
.07	.0502	350.65	.1
.07	.0968	350.15	.1
.07	.199	349.15	.1
.07	.2923	348.65	.1
.07	.3913	347.95	.1
.07	.4962	347.75	.1
.07	.6	347.25	.1
.07	.7038	347.95	.1
.07	.8192	348.95	.1
.1	.0502	351.15	.1
.1	.0968	350.55	.1
.1	.199	349.65	.1
.1	.2923	349.15	.1
.1	.3913	348.55	.1
.1	.4962	348.35	.1
.1	.6	348.05	.1
.1	.7038	348.65	.1
.1	.8192	349.35	.1
.12	.0502	351.25	.1
.12	.0968	350.75	.1
.12	.199	349.95	.1
.12	.2923	349.35	.1
.12	.3913	349.05	.1
.12	.4962	348.55	.1
.12	.6	348.15	.1
.12	.7038	348.75	.1
.12	.8192	349.55	.1

System: ethanol + ethyl ethanoate + magnesium nitrate; phases: Liquid, Gas
Fixed: Pressure, kPa = 101
Property: Mole fraction of ethyl ethanoate (Liquid); method: Index of refraction calibration data
Solvent: Mole fraction of ethyl ethanoate	Mass fraction of magnesium nitrate	Mole fraction of ethyl ethanoate	uncertainty
.0502	.02	.1234	.01
.0968	.02	.2507	.01
.199	.02	.3543	.01
.2923	.02	.436	.01
.3913	.02	.4914	.01
.4962	.02	.5338	.01
.6	.02	.5913	.01
.7038	.02	.6383	.01
.8192	.02	.729	.01
.0502	.05	.1601	.01
.0968	.05	.283	.01
.199	.05	.3925	.01
.2923	.05	.4585	.01
.3913	.05	.5277	.01
.4962	.05	.5809	.01
.6	.05	.637	.01
.7038	.05	.7024	.01
.8192	.05	.76	.01
.0502	.07	.1822	.01
.0968	.07	.3016	.01
.199	.07	.4132	.01
.2923	.07	.479	.01
.3913	.07	.5461	.01
.4962	.07	.5962	.01
.6	.07	.6582	.01
.7038	.07	.734	.01
.8192	.07	.7804	.01
.0502	.1	.1977	.01
.0968	.1	.33	.01
.199	.1	.4421	.01
.2923	.1	.4919	.01
.3913	.1	.5685	.01
.4962	.1	.6284	.01
.6	.1	.6973	.01
.7038	.1	.7759	.01
.8192	.1	.8189	.01
.0502	.12	.2245	.01
.0968	.12	.3341	.01
.199	.12	.4674	.01
.2923	.12	.5137	.01
.3913	.12	.5899	.01
.4962	.12	.6367	.01
.6	.12	.7231	.01
.7038	.12	.7979	.01
.8192	.12	.8294	.01

System: ethanol + ethyl ethanoate + magnogene; phases: Liquid, Gas
Fixed: Pressure, kPa = 101
Property: Boiling temperature at pressure P, K (Liquid); method: Closed cell (Static) method
Mass fraction of magnogene	Solvent: Mole fraction of ethyl ethanoate	Boiling temperature at pressure P, K	uncertainty
.02	.0502	350.25	.1
.02	.0968	349.45	.1
.02	.199	347.65	.1
.02	.2923	347.35	.1
.02	.3913	346.65	.1
.02	.4962	346.65	.1
.02	.6	346.75	.1
.02	.7038	347.15	.1
.02	.8192	348.15	.1
.05	.0502	350.55	.1
.05	.0968	349.85	.1
.05	.199	348.15	.1
.05	.2923	348.05	.1
.05	.3913	347.65	.1
.05	.4962	347.15	.1
.05	.6	346.95	.1
.05	.7038	347.55	.1
.05	.8192	348.55	.1
.07	.0502	350.95	.1
.07	.0968	350.15	.1
.07	.199	348.25	.1
.07	.2923	348.15	.1
.07	.3913	347.95	.1
.07	.4962	347.75	.1
.07	.6	347.45	.1
.07	.7038	347.65	.1
.07	.8192	349.05	.1
.1	.0502	351.15	.1
.1	.0968	350.55	.1
.1	.199	348.75	.1
.1	.2923	348.45	.1
.1	.3913	348.15	.1
.1	.4962	347.95	.1
.1	.6	347.65	.1
.1	.7038	348.15	.1
.1	.8192	349.65	.1

System: ethanol + ethyl ethanoate + magnogene; phases: Liquid, Gas
Fixed: Pressure, kPa = 101
Property: Mole fraction of ethyl ethanoate (Liquid); method: Index of refraction calibration data
Solvent: Mole fraction of ethyl ethanoate	Mass fraction of magnogene	Mole fraction of ethyl ethanoate	uncertainty
.0502	.02	.1205	.0384
.0968	.02	.2499	.0384
.199	.02	.3469	.0384
.2923	.02	.4247	.0384
.3913	.02	.4851	.0384
.4962	.02	.5248	.0384
.6	.02	.5868	.0384
.7038	.02	.6247	.0384
.8192	.02	.7134	.0384
.0502	.05	.1579	.0384
.0968	.05	.2799	.0384
.199	.05	.3808	.0384
.2923	.05	.4474	.0384
.3913	.05	.5131	.0384
.4962	.05	.576	.0384
.6	.05	.6266	.0384
.7038	.05	.699	.0384
.8192	.05	.7564	.0384
.0502	.07	.1791	.0384
.0968	.07	.2907	.0384
.199	.07	.4004	.0384
.2923	.07	.4676	.0384
.3913	.07	.5352	.0384
.4962	.07	.5862	.0384
.6	.07	.648	.0384
.7038	.07	.7091	.0384
.8192	.07	.7791	.0384
.0502	.1	.1992	.0384
.0968	.1	.3198	.0384
.199	.1	.4387	.0384
.2923	.1	.5438	.0384
.3913	.1	.5582	.0384
.4962	.1	.6132	.0384
.6	.1	.6873	.0384
.7038	.1	.7681	.0384
.8192	.1	.8081	.0384
