Measured thermophysical data. Activity of Water and Osmotic Coefficients for Two- and Three-Basic Amino Acid Ternary Solutions
Source: J. Chem. Eng. Data, 2012, 10.1021/je300701m
Compound 1: aminoethanoic acid, C2H5NO2
Compound 2: sodium nitrate, NNaO3
Compound 3: anhydrous sodium acetate, C2H3NaO2
Compound 4: sodium thiocyanate, CNNaS
Compound 5: sodium chloride, ClNa
Compound 6: potassium chloride, ClK
Compound 7: sodium L-glutamate, C5H8NNaO4, purity 99%
Compound 8: L-aspartic acid sodium salt monohydrate, C4H9NO5Na, purity 99%
Compound 9: water, H2O, purity 99.9%

System: aminoethanoic acid + sodium nitrate + water; phases: Liquid, Gas
Fixed: Molality, mol/kg of aminoethanoic acid = .242
Fixed: Temperature, K = 310.15
Property: Osmotic coefficient (Liquid); method: Vapor Pressure Osmometry
Molality, mol/kg of sodium nitrate	Osmotic coefficient	uncertainty
.108	.946	.003
.369	.882	.003
.527	.858	.003
.96	.846	.003
.989	.844	.003
1.743	.82	.003

System: aminoethanoic acid + anhydrous sodium acetate + water; phases: Liquid, Gas
Fixed: Molality, mol/kg of aminoethanoic acid = .242
Fixed: Temperature, K = 310.15
Property: Osmotic coefficient (Liquid); method: Vapor Pressure Osmometry
Molality, mol/kg of anhydrous sodium acetate	Osmotic coefficient	uncertainty
.106	.981	.003
.264	.968	.003
.286	.974	.003
.375	.974	.003
.569	.982	.003
.786	.987	.003

System: aminoethanoic acid + sodium thiocyanate + water; phases: Liquid, Gas
Fixed: Molality, mol/kg of aminoethanoic acid = .242
Fixed: Temperature, K = 310.15
Property: Osmotic coefficient (Liquid); method: Vapor Pressure Osmometry
Molality, mol/kg of sodium thiocyanate	Osmotic coefficient	uncertainty
.116	.964	.003
.381	.913	.003
.448	.913	.003
.716	.916	.003
.972	.921	.003
1.023	.935	.003
1.718	.95	.003

System: sodium chloride + water + sodium L-glutamate; phases: Liquid, Gas
Fixed: Molality, mol/kg of sodium L-glutamate = .2499
Fixed: Temperature, K = 310.15
Property: Osmotic coefficient (Liquid); method: Vapor Pressure Osmometry
Molality, mol/kg of sodium chloride	Osmotic coefficient	uncertainty
.011	.95	.004
.112	.955	.004
.197	.941	.004
.391	.927	.004
.695	.922	.004
.893	.925	.004
1.358	.924	.004
1.656	.931	.004

System: potassium chloride + water + sodium L-glutamate; phases: Liquid, Gas
Fixed: Molality, mol/kg of sodium L-glutamate = .2499
Fixed: Temperature, K = 310.15
Property: Osmotic coefficient (Liquid); method: Vapor Pressure Osmometry
Molality, mol/kg of potassium chloride	Osmotic coefficient	uncertainty
.01	.97	.004
.113	.941	.004
.486	.893	.004
1.152	.889	.004
1.414	.893	.004
1.72	.893	.004

System: sodium chloride + water + L-aspartic acid sodium salt monohydrate; phases: Liquid, Gas
Fixed: Molality, mol/kg of L-aspartic acid sodium salt monohydrate = .2545
Fixed: Temperature, K = 310.15
Property: Osmotic coefficient (Liquid); method: Vapor Pressure Osmometry
Molality, mol/kg of sodium chloride	Osmotic coefficient	uncertainty
.595	.949	.0015
.889	.945	.0015
1.173	.942	.0015
1.547	.934	.0015

System: potassium chloride + water + L-aspartic acid sodium salt monohydrate; phases: Liquid, Gas
Fixed: Molality, mol/kg of L-aspartic acid sodium salt monohydrate = .2545
Fixed: Temperature, K = 310.15
Property: Osmotic coefficient (Liquid); method: Vapor Pressure Osmometry
Molality, mol/kg of potassium chloride	Osmotic coefficient	uncertainty
.645	.936	.0015
1.01	.912	.0015
1.267	.913	.0015
1.606	.903	.0015
