Measured thermophysical data. Solubility of Benzoic Acid in Mixtures of CO2 + Hexane
Source: J. Chem. Eng. Data, 2012, 10.1021/je300488y
Compound 1: carbon dioxide, CO2, purity 99.99%
Compound 2: methanol, CH4O, purity 99.99%
Compound 3: n-hexane, C6H14, purity 99%
Compound 4: phenylformic acid, C7H6O2, purity 99.5%
Compound 5: 1,2-benzenedicarboxylic acid, C8H6O4, purity 99.5%

System: phenylformic acid + carbon dioxide; phases: Gas, Crystal
Property: Mole fraction of phenylformic acid (Gas); method: Chromatography
Temperature, K	Pressure, kPa	Mole fraction of phenylformic acid	uncertainty
308.15	10120	.001003	.00005015
308.15	15170	.001658	.0000829
308.15	20220	.002214	.0001107
308.15	25270	.00268	.000134
308.15	30320	.00286	.000143
308.15	35370	.002735	.00013675

System: phenylformic acid + methanol + carbon dioxide; phases: Gas, Crystal
Property: Mole fraction of phenylformic acid (Gas); method: Chromatography
Temperature, K	Pressure, kPa	Solvent: Mole fraction of methanol	Mole fraction of phenylformic acid	uncertainty
318.15	10120	.035	.005926	.0002963
318.15	15190	.035	.01084	.000542
318.15	20250	.035	.01005	.0005025
318.15	25310	.035	.01032	.000516
318.15	30390	.035	.01038	.000519
308.15	10120	.03	.006706	.0003353
308.15	15180	.03	.007264	.0003632
308.15	20260	.03	.007773	.00038865
308.15	25320	.03	.007698	.0003849
308.15	30380	.03	.007752	.0003876

System: phenylformic acid + n-hexane + carbon dioxide; phases: Gas, Crystal
Property: Mole fraction of phenylformic acid (Gas); method: Chromatography
Temperature, K	Pressure, kPa	Solvent: Mole fraction of n-hexane	Mole fraction of phenylformic acid	uncertainty
308.15	20290	.022	.003292	.0001646
308.15	25310	.022	.003115	.00015575
308.15	30390	.022	.003415	.00017075
308.15	35490	.022	.003894	.0001947
318.15	20300	.022	.004012	.0002006
318.15	25300	.022	.0042	.00021
318.15	30370	.022	.005183	.00025915
318.15	35460	.022	.005676	.0002838
328.15	30390	.022	.006192	.0003096
328.15	35410	.022	.007962	.0003981
308.15	20250	.028	.003515	.00017575
308.15	25310	.028	.003948	.0001974
308.15	30370	.028	.004294	.0002147
308.15	35570	.028	.004149	.00020745
318.15	20260	.028	.004528	.0002264
318.15	25340	.028	.005465	.00027325
318.15	30320	.028	.006052	.0003026
318.15	35490	.028	.006586	.0003293
328.15	20220	.028	.005816	.0002908
328.15	25310	.028	.007334	.0003667
328.15	30340	.028	.007898	.0003949
328.15	35440	.028	.008844	.0004422
308.15	15210	.031	.003298	.0001649
308.15	20260	.031	.003727	.00018635
308.15	25300	.031	.00409	.0002045
308.15	30460	.031	.004568	.0002284
308.15	35460	.031	.004414	.0002207
318.15	15150	.031	.004288	.0002144
318.15	25310	.031	.005926	.0002963
318.15	30350	.031	.006385	.00031925
318.15	35440	.031	.006425	.00032125
328.18	20250	.031	.00655	.0003275
328.15	25340	.031	.007743	.00038715
328.15	30370	.031	.008334	.0004167
328.15	35530	.031	.010115	.00050575
308.15	15210	.05	.003687	.00018435
308.15	20260	.05	.004315	.00021575
308.15	25260	.05	.004732	.0002366
308.15	30410	.05	.005117	.00025585
308.15	35500	.05	.005002	.0002501
318.15	15150	.05	.004453	.00022265
318.15	20280	.05	.005927	.00029635
318.15	25290	.05	.006705	.00033525
318.15	30390	.05	.007857	.00039285
318.15	35540	.05	.008183	.00040915
328.15	15160	.05	.005309	.00026545
328.15	20250	.05	.007424	.0003712
328.15	25380	.05	.009471	.00047355
328.15	30390	.05	.011235	.00056175
328.15	35510	.05	.011979	.00059895
318.15	15170	.07	.005912	.0002956
318.15	20240	.07	.007256	.0003628
318.15	25320	.07	.007876	.0003938
318.15	30370	.07	.008602	.0004301
318.15	35540	.07	.009758	.0004879
328.15	15150	.07	.007253	.00036265
328.15	20290	.07	.009886	.0004943
328.15	25300	.07	.012553	.00062765
328.15	30380	.07	.013956	.0006978
328.15	35460	.07	.01496	.000748
338.15	15180	.07	.008339	.00041695
338.15	20230	.07	.012073	.00060365
338.15	25260	.07	.017101	.00085505
338.15	30370	.07	.020254	.0010127
338.15	35440	.07	.022615	.00113075

System: phenylformic acid + n-hexane + carbon dioxide; phases: Gas, Crystal
Property: Amount density, mol/m3 (Gas); method: Vibrating tube method
Solvent: Mole fraction of n-hexane	Temperature, K	Pressure, kPa	Amount density, mol/m3	uncertainty
.022	308.15	20290	19140	2
.022	308.15	25310	19780	2
.022	308.15	30390	20370	2
.022	308.15	35490	20940	2
.022	318.15	20300	18110	2
.022	318.15	25300	18910	2
.022	318.15	30370	19570	2
.022	318.15	35460	20100	2
.022	328.15	30390	18720	2
.022	328.15	35410	19360	2
.028	308.15	20250	18980	2
.028	308.15	25310	19730	2
.028	308.15	30370	20300	2
.028	308.15	35570	20810	2
.028	318.15	20260	18030	2
.028	318.15	25340	18760	2
.028	318.15	30320	19450	2
.028	318.15	35490	20040	2
.028	328.15	20220	16890	2
.028	328.15	25310	17880	2
.028	328.15	30340	18680	2
.028	328.15	35440	19240	2
.031	308.15	15210	18010	2
.031	308.15	20260	18820	2
.031	308.15	25300	19500	2
.031	308.15	30460	20070	2
.031	308.15	35460	20580	2
.031	318.15	15150	16760	2
.031	318.15	25310	18640	2
.031	318.15	30350	19230	2
.031	318.15	35440	19800	2
.031	328.18	20250	16800	2
.031	328.15	25340	17750	2
.031	328.15	30370	18490	2
.031	328.15	35530	19060	2
.05	308.15	15210	17570	2
.05	308.15	20260	18360	2
.05	308.15	25260	18980	2
.05	308.15	30410	19530	2
.05	308.15	35500	20070	2
.05	318.15	15150	16460	2
.05	318.15	20280	17460	2
.05	318.15	25290	18230	2
.05	318.15	30390	18790	2
.05	318.15	35540	19260	2
.05	328.15	15160	15210	2
.05	328.15	20250	16560	2
.05	328.15	25380	17420	2
.05	328.15	30390	18050	2
.05	328.15	35510	18590	2
.07	318.15	15170	16210	2
.07	318.15	20240	17060	2
.07	318.15	25320	17710	2
.07	318.15	30370	18240	2
.07	318.15	35540	18690	2
.07	328.15	15150	15140	2
.07	328.15	20290	16210	2
.07	328.15	25300	16980	2
.07	328.15	30380	17540	2
.07	328.15	35460	18040	2
.07	338.15	15180	13800	2
.07	338.15	20230	15280	2
.07	338.15	25260	16190	2
.07	338.15	30370	16840	2
.07	338.15	35440	17410	2
