Measured thermophysical data. Volumetric Properties of Glycine in Aqueous Solutions of Some Sulfa Drugs at (288.15, 298.15, and 308.15) K
Source: J. Chem. Eng. Data, 2013, 10.1021/je300455e
Compound 1: glycine, C2H5NO2, purity 99%
Compound 2: sulfanilamide, C6H8N2O2S, purity 99%
Compound 3: 4-aminobenzenesulfonic acid, C6H7NO3S, purity 99%
Compound 4: benzoic acid, 2-hydroxy-5-sulfo-, dihydrate, C7H10O8S, purity 99%
Compound 5: water, H2O

System: glycine + sulfanilamide + water; phases: Liquid
Fixed: Pressure, kPa = 101
Property: Mass density, kg/m3 (Liquid); method: Vibrating tube method
Temperature, K	Solvent: Molality, mol/kg of sulfanilamide	Molality, mol/kg of glycine	Mass density, kg/m3	uncertainty
288.15	.01	.05053	1001.29	.02
288.15	.01	.1032	1003.004	.02
288.15	.01	.15438	1004.638	.02
288.15	.01	.19429	1005.893	.02
288.15	.01	.25521	1007.779	.02
288.15	.01	.30503	1009.295	.02
298.15	.01	.05053	999.172	.02
298.15	.01	.1032	1000.849	.02
298.15	.01	.15438	1002.439	.02
298.15	.01	.19429	1003.658	.02
298.15	.01	.25521	1005.478	.02
298.15	.01	.30503	1006.929	.02
308.15	.01	.05053	996.112	.02
308.15	.01	.1032	997.759	.02
308.15	.01	.15438	999.322	.02
308.15	.01	.19429	1000.515	.02
308.15	.01	.25521	1002.293	.02
308.15	.01	.30503	1003.711	.02
288.15	.02	.05231	1001.782	.02
288.15	.02	.10249	1003.402	.02
288.15	.02	.15392	1005.037	.02
288.15	.02	.20328	1006.582	.02
288.15	.02	.24949	1008.005	.02
288.15	.02	.30745	1009.758	.02
298.15	.02	.05231	999.623	.02
298.15	.02	.10249	1001.216	.02
298.15	.02	.15392	1002.818	.02
298.15	.02	.20328	1004.329	.02
298.15	.02	.24949	1005.718	.02
298.15	.02	.30745	1007.429	.02
308.15	.02	.05231	996.489	.02
308.15	.02	.10249	998.076	.02
308.15	.02	.15392	999.681	.02
308.15	.02	.20328	1001.201	.02
308.15	.02	.24949	1002.604	.02
308.15	.02	.30745	1004.338	.02
288.15	.03	.04933	1002.254	.02
288.15	.03	.0992	1003.851	.02
288.15	.03	.14586	1005.327	.02
288.15	.03	.20297	1007.104	.02
288.15	.03	.24783	1008.481	.02
288.15	.03	.30043	1010.069	.02
298.15	.03	.04933	1000.19	.02
298.15	.03	.0992	1001.746	.02
298.15	.03	.14586	1003.166	.02
298.15	.03	.20297	1004.855	.02
298.15	.03	.24783	1006.153	.02
298.15	.03	.30043	1007.634	.02
308.15	.03	.04933	997.09	.02
308.15	.03	.0992	998.613	.02
308.15	.03	.14586	999.996	.02
308.15	.03	.20297	1001.625	.02
308.15	.03	.24783	1002.863	.02
308.15	.03	.30043	1004.257	.02
288.15	.04	.05227	1002.821	.02
288.15	.04	.1031	1004.416	.02
288.15	.04	.15046	1005.875	.02
288.15	.04	.20104	1007.403	.02
288.15	.04	.2559	1009.031	.02
288.15	.04	.29426	1010.142	.02
298.15	.04	.05227	1000.599	.02
298.15	.04	.1031	1002.161	.02
298.15	.04	.15046	1003.58	.02
298.15	.04	.20104	1005.048	.02
298.15	.04	.2559	1006.596	.02
298.15	.04	.29426	1007.638	.02
308.15	.04	.05227	997.506	.02
308.15	.04	.1031	999.028	.02
308.15	.04	.15046	1000.384	.02
308.15	.04	.20104	1001.771	.02
308.15	.04	.2559	1003.195	.02
308.15	.04	.29426	1004.145	.02

System: glycine + 4-aminobenzenesulfonic acid + water; phases: Liquid
Fixed: Pressure, kPa = 101
Property: Mass density, kg/m3 (Liquid); method: Vibrating tube method
Temperature, K	Solvent: Molality, mol/kg of 4-aminobenzenesulfonic acid	Molality, mol/kg of glycine	Mass density, kg/m3	uncertainty
288.15	.01	.05	1000.97	.02
288.15	.01	.10402	1002.447	.02
288.15	.01	.14972	1003.813	.02
288.15	.01	.19937	1005.388	.02
288.15	.01	.25903	1007.444	.02
288.15	.01	.30427	1009.145	.02
298.15	.01	.05	998.779	.02
298.15	.01	.10402	1000.181	.02
298.15	.01	.14972	1001.497	.02
298.15	.01	.19937	1003.044	.02
298.15	.01	.25903	1005.126	.02
298.15	.01	.30427	1006.842	.02
308.15	.01	.05	995.674	.02
308.15	.01	.10402	996.988	.02
308.15	.01	.14972	998.262	.02
308.15	.01	.19937	999.811	.02
308.15	.01	.25903	1001.876	.02
308.15	.01	.30427	1003.706	.02
288.15	.02	.05216	1002.005	.02
288.15	.02	.10738	1003.727	.02
288.15	.02	.14976	1005.068	.02
288.15	.02	.20575	1006.871	.02
288.15	.02	.26076	1008.667	.02
288.15	.02	.29259	1009.721	.02
298.15	.02	.05216	999.743	.02
298.15	.02	.10738	1001.348	.02
298.15	.02	.14976	1002.648	.02
298.15	.02	.20575	1004.447	.02
298.15	.02	.26076	1006.305	.02
298.15	.02	.29259	1007.421	.02
308.15	.02	.05216	996.606	.02
308.15	.02	.10738	998.132	.02
308.15	.02	.14976	999.369	.02
308.15	.02	.20575	1001.097	.02
308.15	.02	.26076	1002.911	.02
308.15	.02	.29259	1003.982	.02
288.15	.03	.05121	1002.507	.02
288.15	.03	.09708	1003.939	.02
288.15	.03	.15219	1005.687	.02
288.15	.03	.19349	1007.014	.02
288.15	.03	.25337	1008.968	.02
288.15	.03	.3049	1010.672	.02
298.15	.03	.05121	1000.405	.02
298.15	.03	.09708	1001.603	.02
298.15	.03	.15219	1003.333	.02
298.15	.03	.19349	1004.668	.02
298.15	.03	.25337	1006.669	.02
298.15	.03	.3049	1008.429	.02
308.15	.03	.05121	997.173	.02
308.15	.03	.09708	998.499	.02
308.15	.03	.15219	1000.185	.02
308.15	.03	.19349	1001.509	.02
308.15	.03	.25337	1003.528	.02
308.15	.03	.3049	1005.332	.02
288.15	.04	.04969	1003.189	.02
288.15	.04	.09914	1004.742	.02
288.15	.04	.14469	1006.195	.02
288.15	.04	.20766	1008.233	.02
288.15	.04	.26147	1009.999	.02
288.15	.04	.29833	1011.229	.02
298.15	.04	.04969	1001.039	.02
298.15	.04	.09914	1002.575	.02
298.15	.04	.14469	1004.017	.02
298.15	.04	.20766	1006.058	.02
298.15	.04	.26147	1007.851	.02
298.15	.04	.29833	1009.109	.02
308.15	.04	.04969	997.885	.02
308.15	.04	.09914	999.357	.02
308.15	.04	.14469	1000.763	.02
308.15	.04	.20766	1002.794	.02
308.15	.04	.26147	1004.619	.02
308.15	.04	.29833	1005.909	.02

System: glycine + benzoic acid, 2-hydroxy-5-sulfo-, dihydrate + water; phases: Liquid
Fixed: Pressure, kPa = 101
Property: Mass density, kg/m3 (Liquid); method: Vibrating tube method
Temperature, K	Solvent: Molality, mol/kg of benzoic acid, 2-hydroxy-5-sulfo-, dihydrate	Molality, mol/kg of glycine	Mass density, kg/m3	uncertainty
288.15	.01	.05292	1001.534	.02
288.15	.01	.10368	1003.307	.02
288.15	.01	.15628	1005.076	.02
288.15	.01	.20387	1006.601	.02
288.15	.01	.25965	1008.322	.02
288.15	.01	.30179	1009.493	.02
298.15	.01	.05292	999.371	.02
298.15	.01	.10368	1001.111	.02
298.15	.01	.15628	1002.834	.02
298.15	.01	.20387	1004.333	.02
298.15	.01	.25965	1005.981	.02
298.15	.01	.30179	1007.155	.02
308.15	.01	.05292	996.246	.02
308.15	.01	.10368	997.955	.02
308.15	.01	.15628	999.625	.02
308.15	.01	.20387	1001.055	.02
308.15	.01	.25965	1002.649	.02
308.15	.01	.30179	1003.756	.02
288.15	.02	.04847	1002.791	.02
288.15	.02	.1022	1004.636	.02
288.15	.02	.15688	1006.408	.02
288.15	.02	.19997	1007.742	.02
288.15	.02	.25796	1009.424	.02
288.15	.02	.31171	1010.881	.02
298.15	.02	.04847	1000.345	.02
298.15	.02	.1022	1002.146	.02
298.15	.02	.15688	1003.878	.02
298.15	.02	.19997	1005.162	.02
298.15	.02	.25796	1006.804	.02
298.15	.02	.31171	1008.225	.02
308.15	.02	.04847	996.594	.02
308.15	.02	.1022	998.386	.02
308.15	.02	.15688	1000.108	.02
308.15	.02	.19997	1001.399	.02
308.15	.02	.25796	1003.059	.02
308.15	.02	.31171	1004.454	.02
288.15	.03	.04941	1003.117	.02
288.15	.03	.10294	1004.914	.02
288.15	.03	.14885	1006.365	.02
288.15	.03	.20133	1007.955	.02
288.15	.03	.2535	1009.444	.02
288.15	.03	.3067	1010.695	.02
298.15	.03	.04941	1001.472	.02
298.15	.03	.10294	1003.255	.02
298.15	.03	.14885	1004.699	.02
298.15	.03	.20133	1006.269	.02
298.15	.03	.2535	1007.719	.02
298.15	.03	.3067	1009.069	.02
308.15	.03	.04941	998.334	.02
308.15	.03	.10294	1000.109	.02
308.15	.03	.14885	1001.552	.02
308.15	.03	.20133	1003.104	.02
308.15	.03	.2535	1004.549	.02
308.15	.03	.3067	1005.942	.02
288.15	.04	.05095	1004.351	.02
288.15	.04	.10755	1006.235	.02
288.15	.04	.15358	1007.689	.02
288.15	.04	.20465	1009.214	.02
288.15	.04	.25585	1010.655	.02
288.15	.04	.31116	1012.101	.02
298.15	.04	.05095	1001.909	.02
298.15	.04	.10755	1003.771	.02
298.15	.04	.15358	1005.208	.02
298.15	.04	.20465	1006.707	.02
298.15	.04	.25585	1008.114	.02
298.15	.04	.31116	1009.547	.02
308.15	.04	.05095	998.71	.02
308.15	.04	.10755	1000.571	.02
308.15	.04	.15358	1002.007	.02
308.15	.04	.20465	1003.497	.02
308.15	.04	.25585	1004.878	.02
308.15	.04	.31116	1006.235	.02
