Measured thermophysical data. Vapor Liquid Equilibrium, Excess Molar Enthalpies, and Excess Molar Volumes of Binary Mixtures Containing 2-Ethoxy-2-methylpropane or 2-Ethoxy-2-methylbutane and Acetonitrile or Propanenitrile
Source: J. Chem. Eng. Data, 2013, 10.1021/je301238f
Compound 1: 2-ethoxy-2-methylpropane, C6H14O, purity 99.6%
Compound 2: 1,1-dimethylpropyl ethyl ether, C7H16O, purity 99.86%
Compound 3: acetonitrile, C2H3N, purity 99.8%
Compound 4: ethyl cyanide, C3H5N, purity 99.9%

System: 2-ethoxy-2-methylpropane; phases: Liquid, Gas
Property: Vapor or sublimation pressure, kPa (Liquid); method: Ebulliometric method (Recirculating still)
Temperature, K	Vapor or sublimation pressure, kPa	uncertainty
345.99	101.42	.17
342.76	91.51	.17
340.37	84.63	.17
338.6	79.89	.17
336.69	74.94	.17
334.21	68.91	.17
332.17	64.24	.17
330.26	60.07	.17
328.05	55.57	.17
324.77	49.34	.17
322.38	45.18	.17
319.61	40.71	.17
311.54	29.66	.17
332.26	64.28	

System: 2-ethoxy-2-methylpropane; phases: Liquid
Property: Mass density, kg/m3 (Liquid); method: Vibrating tube method
Temperature, K	Pressure, kPa	Mass density, kg/m3	uncertainty
298.15	101	735	.16

System: 1,1-dimethylpropyl ethyl ether; phases: Liquid, Gas
Property: Vapor or sublimation pressure, kPa (Liquid); method: Ebulliometric method (Recirculating still)
Temperature, K	Vapor or sublimation pressure, kPa	uncertainty
373.71	98.94	.17
368.16	83.8	.17
367.36	81.79	.17
366.44	79.62	.17
364.42	74.9	.17
362.13	69.66	.17
359.96	65.08	.17
357.39	59.91	.17
355.12	55.54	.17
351.71	49.52	.17
349.21	45.43	.17
345.82	40.29	.17
343.83	37.59	.17
331.83	23.98	.17
324.31	17.73	.17
343.12	36.56	
363.1	71.73	

System: 1,1-dimethylpropyl ethyl ether; phases: Liquid
Property: Mass density, kg/m3 (Liquid); method: Vibrating tube method
Temperature, K	Pressure, kPa	Mass density, kg/m3	uncertainty
298.15	101	761	.16

System: acetonitrile; phases: Liquid, Gas
Property: Vapor or sublimation pressure, kPa (Liquid); method: Ebulliometric method (Recirculating still)
Temperature, K	Vapor or sublimation pressure, kPa	uncertainty
354.12	99.4	.17
351.76	92.16	.17
349.69	86.34	.17
347.55	80.49	.17
345.58	75.4	.17
343.86	71.24	.17
341.07	64.81	.17
339.2	60.76	.17
336.56	55.46	.17
333.51	49.76	.17
329.94	43.71	.17
326.03	37.8	.17
317.53	27.19	.17
308.32	18.59	.17
333.57	49.76	
343.94	71.24	

System: acetonitrile; phases: Liquid
Property: Mass density, kg/m3 (Liquid); method: Vibrating tube method
Temperature, K	Pressure, kPa	Mass density, kg/m3	uncertainty
298.15	101	776	.16

System: ethyl cyanide; phases: Liquid, Gas
Property: Vapor or sublimation pressure, kPa (Liquid); method: Ebulliometric method (Recirculating still)
Temperature, K	Vapor or sublimation pressure, kPa	uncertainty
371.23	103.78	.17
368.88	96.66	.17
367.21	91.88	.17
364.69	84.93	.17
363.02	80.76	.17
360.86	75.34	.17
358.53	69.91	.17
356.17	64.72	.17
353.63	59.51	.17
351.26	54.93	.17
349.02	50.91	.17
346.17	46.11	.17
340.7	37.95	.17
332.31	27.73	.17
325.79	21.46	.17
322.25	18.58	.17
363.1	80.66	

System: ethyl cyanide; phases: Liquid
Property: Mass density, kg/m3 (Liquid); method: Vibrating tube method
Temperature, K	Pressure, kPa	Mass density, kg/m3	uncertainty
298.15	101	776	.16

System: acetonitrile + 2-ethoxy-2-methylpropane; phases: Liquid
Fixed: Pressure, kPa = 101
Property: Excess molar enthalpy (molar enthalpy of mixing), kJ/mol (Liquid); method: Flow calorimetry
Mole fraction of 2-ethoxy-2-methylpropane	Temperature, K	Excess molar enthalpy (molar enthalpy of mixing), kJ/mol	uncertainty
.0996	298.41	.2813	.0036
.1989	298.41	.4852	.0063
.2993	298.41	.6176	.008
.3982	298.41	.6892	.0089
.4984	298.42	.7098	.0092
.5994	298.42	.6773	.0087
.6994	298.42	.5881	.0076
.801	298.42	.4418	.0057
.9009	298.42	.2434	.0031

System: acetonitrile + 2-ethoxy-2-methylpropane; phases: Liquid
Fixed: Pressure, kPa = 101
Property: Mass density, kg/m3 (Liquid); method: Vibrating tube method
Temperature, K	Mole fraction of 2-ethoxy-2-methylpropane	Mass density, kg/m3	uncertainty
298.41	.0996	770.1	.2
298.41	.1989	764.5	.2
298.41	.2993	759.5	.2
298.41	.3982	755.1	.2
298.42	.4984	751	.2
298.42	.5994	747.3	.1
298.42	.6994	744.1	.1
298.42	.801	740.8	.1
298.42	.9009	737.8	.1
298.15	1	735	.16
298.15	0	776	.16

System: acetonitrile + 2-ethoxy-2-methylpropane; phases: Gas, Liquid
Property: Mole fraction of 2-ethoxy-2-methylpropane (Gas); method: Chromatography
Mole fraction of 2-ethoxy-2-methylpropane	Temperature, K	Mole fraction of 2-ethoxy-2-methylpropane	uncertainty
1	332.26	1	
.927	333.12	.8188	.001
.8693	333.14	.7457	.001
.7883	333.04	.6781	.001
.7355	333.05	.6425	.001
.6466	333.03	.6057	.001
.5742	333.08	.5775	.001
.5118	333.07	.5572	.001
.464	333.09	.543	.001
.4106	333.07	.5247	.001
.2959	333.08	.4795	.001
.2891	333.06	.4788	.001
.2788	333.09	.4729	.001
.2719	333.04	.4674	.001
.2712	333.06	.4677	.001
.2437	333.14	.4575	.001
.2307	333.12	.45	.001
.1745	333.07	.4147	.001
.1229	333.01	.3625	.001
.0808	333.05	.2977	.001
.056	333.07	.2279	.001
.0025	333.08	.0164	.001
0	333.57	0	

System: acetonitrile + 2-ethoxy-2-methylpropane; phases: Liquid, Gas
Property: Vapor or sublimation pressure, kPa (Liquid); method: Ebulliometric method (Recirculating still)
Mole fraction of 2-ethoxy-2-methylpropane	Temperature, K	Vapor or sublimation pressure, kPa	uncertainty
1	332.26	64.28	.17
.927	333.12	75.33	.17
.8693	333.14	79.26	.17
.7883	333.04	82.15	.17
.7355	333.05	83.45	.17
.6466	333.03	84.32	.17
.5742	333.08	84.76	.17
.5118	333.07	84.53	.17
.464	333.09	84.29	.17
.4106	333.07	83.65	.17
.2959	333.08	81.58	.17
.2891	333.06	81.29	.17
.2788	333.09	81.12	.17
.2719	333.04	80.74	.17
.2712	333.06	80.75	.17
.2437	333.14	79.94	.17
.2307	333.12	79.42	.17
.1745	333.07	76.44	.17
.1229	333.01	72.14	.17
.0808	333.05	67.2	.17
.056	333.07	63.11	.17
.0025	333.08	49.85	.17
0	333.57	49.76	.17

System: ethyl cyanide + 2-ethoxy-2-methylpropane; phases: Liquid
Fixed: Pressure, kPa = 101
Property: Excess molar enthalpy (molar enthalpy of mixing), kJ/mol (Liquid); method: Flow calorimetry
Mole fraction of 2-ethoxy-2-methylpropane	Temperature, K	Excess molar enthalpy (molar enthalpy of mixing), kJ/mol	uncertainty
.0991	298.43	.1665	.0021
.1986	298.44	.305	.0039
.2986	298.43	.4078	.0053
.3984	298.43	.474	.0061
.4986	298.43	.5053	.0065
.5986	298.43	.4988	.0064
.6982	298.43	.4557	.0059
.7978	298.44	.3667	.0047
.899	298.43	.215	.0028

System: ethyl cyanide + 2-ethoxy-2-methylpropane; phases: Liquid
Fixed: Pressure, kPa = 101
Property: Mass density, kg/m3 (Liquid); method: Vibrating tube method
Temperature, K	Mole fraction of 2-ethoxy-2-methylpropane	Mass density, kg/m3	uncertainty
298.43	.0991	771.2	.2
298.44	.1986	766.3	.2
298.43	.2986	761.7	.2
298.43	.3984	757.2	.2
298.43	.4986	753.2	.2
298.43	.5986	749.2	.1
298.43	.6982	745.5	.1
298.44	.7978	741.9	.1
298.43	.899	738.3	.1
298.15	1	735	.16
298.15	0	776	.16

System: acetonitrile + 1,1-dimethylpropyl ethyl ether; phases: Liquid
Fixed: Pressure, kPa = 101
Property: Excess molar enthalpy (molar enthalpy of mixing), kJ/mol (Liquid); method: Flow calorimetry
Mole fraction of 1,1-dimethylpropyl ethyl ether	Temperature, K	Excess molar enthalpy (molar enthalpy of mixing), kJ/mol	uncertainty
.099	298.4	.3976	.0051
.1996	298.4	.6705	.0086
.2996	298.4	.8397	.0108
.3985	298.41	.9286	.012
.4976	298.41	.9514	.0123
.598	298.41	.9119	.0118
.6974	298.41	.8095	.0104
.7984	298.4	.6411	.0083
.8971	298.4	.3867	.005

System: acetonitrile + 1,1-dimethylpropyl ethyl ether; phases: Liquid
Fixed: Pressure, kPa = 101
Property: Mass density, kg/m3 (Liquid); method: Vibrating tube method
Temperature, K	Mole fraction of 1,1-dimethylpropyl ethyl ether	Mass density, kg/m3	uncertainty
298.4	.099	774.5	.2
298.4	.1996	772.6	.2
298.4	.2996	770.7	.2
298.41	.3985	769	.2
298.41	.4976	767.5	.2
298.41	.598	766.1	.2
298.41	.6974	764.8	.2
298.4	.7984	763.5	.2
298.4	.8971	762.3	.2
298.15	1	761	.16
298.15	0	776	.16

System: acetonitrile + 1,1-dimethylpropyl ethyl ether; phases: Gas, Liquid
Property: Mole fraction of 1,1-dimethylpropyl ethyl ether (Gas); method: Chromatography
Mole fraction of 1,1-dimethylpropyl ethyl ether	Temperature, K	Mole fraction of 1,1-dimethylpropyl ethyl ether	uncertainty
0	343.94	0	.001
.0092	343.08	.0299	.001
.0154	343.08	.0477	.001
.0221	343.11	.0648	.001
.029	343.11	.0806	.001
.0364	343.04	.0952	.001
.051	343.1	.1219	.001
.0704	343.05	.1494	.001
.0891	343.06	.1705	.001
.1086	343.05	.1879	.001
.1288	343.11	.2026	.001
.1499	343.06	.215	.001
.179	343.06	.2293	.001
.2067	343.09	.241	.001
.2342	343.08	.251	.001
.2825	343.08	.2654	.001
.3192	343.09	.2755	.001
.3619	343.11	.2857	.001
.4028	343.06	.2932	.001
.5447	343.01	.3296	.001
.6016	343.05	.3436	.001
.7063	343.12	.3865	.001
.8216	343.11	.4556	.001
.868	343.03	.5092	.001
.9296	343.16	.6325	.001
1	343.12	1	.001

System: acetonitrile + 1,1-dimethylpropyl ethyl ether; phases: Liquid, Gas
Property: Vapor or sublimation pressure, kPa (Liquid); method: Ebulliometric method (Recirculating still)
Mole fraction of 1,1-dimethylpropyl ethyl ether	Temperature, K	Vapor or sublimation pressure, kPa	uncertainty
0	343.94	71.24	.17
.0092	343.08	71.13	.17
.0154	343.08	72.27	.17
.0221	343.11	73.32	.17
.029	343.11	74.34	.17
.0364	343.04	75.06	.17
.051	343.1	76.75	.17
.0704	343.05	78.18	.17
.0891	343.06	79.35	.17
.1086	343.05	80.19	.17
.1288	343.11	81.05	.17
.1499	343.06	81.41	.17
.179	343.06	81.85	.17
.2067	343.09	82.23	.17
.2342	343.08	82.27	.17
.2825	343.08	82.38	.17
.3192	343.09	82.27	.17
.3619	343.11	82.06	.17
.4028	343.06	81.54	.17
.5447	343.01	79.17	.17
.6016	343.05	77.93	.17
.7063	343.12	74.04	.17
.8216	343.11	66.37	.17
.868	343.03	62.18	.17
.9296	343.16	53.6	.17
1	343.12	36.56	.17

System: ethyl cyanide + 1,1-dimethylpropyl ethyl ether; phases: Liquid
Fixed: Pressure, kPa = 101
Property: Excess molar enthalpy (molar enthalpy of mixing), kJ/mol (Liquid); method: Flow calorimetry
Mole fraction of 1,1-dimethylpropyl ethyl ether	Temperature, K	Excess molar enthalpy (molar enthalpy of mixing), kJ/mol	uncertainty
.1	298.4	.2573	.0033
.1991	298.4	.451	.0058
.2988	298.39	.5863	.0076
.3991	298.4	.6684	.0086
.4975	298.39	.7023	.0091
.599	298.39	.6866	.0089
.6987	298.4	.6215	.008
.7991	298.4	.502	.0065
.8976	298.41	.3123	.004

System: ethyl cyanide + 1,1-dimethylpropyl ethyl ether; phases: Liquid
Fixed: Pressure, kPa = 101
Property: Mass density, kg/m3 (Liquid); method: Vibrating tube method
Temperature, K	Mole fraction of 1,1-dimethylpropyl ethyl ether	Mass density, kg/m3	uncertainty
298.4	.1	774.3	.2
298.4	.1991	773.1	.2
298.39	.2988	771.5	.2
298.4	.3991	769.9	.2
298.39	.4975	768.3	.2
298.39	.599	766.7	.2
298.4	.6987	765.3	.2
298.4	.7991	763.8	.2
298.41	.8976	762.4	.2
298.15	1	761	.16
298.15	0	776	.16

System: ethyl cyanide + 1,1-dimethylpropyl ethyl ether; phases: Gas, Liquid
Property: Mole fraction of 1,1-dimethylpropyl ethyl ether (Gas); method: Chromatography
Mole fraction of 1,1-dimethylpropyl ethyl ether	Temperature, K	Mole fraction of 1,1-dimethylpropyl ethyl ether	uncertainty
0	363.1	0	.001
.0218	363.09	.0582	.001
.0434	363.09	.1029	.001
.0675	363.09	.1453	.001
.0964	363.09	.1936	.001
.1294	363.09	.2342	.001
.1709	363.12	.2756	.001
.2094	363.13	.309	.001
.2511	363.13	.3385	.001
.2907	363.12	.3635	.001
.344	363.14	.3931	.001
.3798	363.1	.4108	.001
.4178	363.08	.4296	.001
.4478	363.09	.4444	.001
.4743	363.12	.4536	.001
.5007	363.1	.4682	.001
.5261	363.07	.4814	.001
.5568	363.03	.4953	.001
.5913	363.06	.5126	.001
.6235	363.08	.5286	.001
.6518	363.02	.5437	.001
.6909	363.04	.566	.001
.722	363.02	.5854	.001
.762	363.08	.6114	.001
.7979	363.01	.6383	.001
.837	363.05	.6739	.001
.8704	363.13	.7143	.001
.9007	363.11	.7519	.001
.9329	363.09	.8112	.001
.969	363.12	.8948	.001
.9858	363.04	.9471	.001
1	362.69	1	.001

System: ethyl cyanide + 1,1-dimethylpropyl ethyl ether; phases: Liquid, Gas
Property: Vapor or sublimation pressure, kPa (Liquid); method: Ebulliometric method (Recirculating still)
Mole fraction of 1,1-dimethylpropyl ethyl ether	Temperature, K	Vapor or sublimation pressure, kPa	uncertainty
0	363.1	80.66	.17
.0218	363.09	84.24	.17
.0434	363.09	87.02	.17
.0675	363.09	89.78	.17
.0964	363.09	92.62	.17
.1294	363.09	95.24	.17
.1709	363.12	97.77	.17
.2094	363.13	99.54	.17
.2511	363.13	100.95	.17
.2907	363.12	101.81	.17
.344	363.14	102.43	.17
.3798	363.1	102.61	.17
.4178	363.08	102.74	.17
.4478	363.09	102.78	.17
.4743	363.12	102.83	.17
.5007	363.1	102.72	.17
.5261	363.07	102.42	.17
.5568	363.03	102.01	.17
.5913	363.06	101.68	.17
.6235	363.08	101.11	.17
.6518	363.02	100.33	.17
.6909	363.04	99.23	.17
.722	363.02	98.16	.17
.762	363.08	96.65	.17
.7979	363.01	94.61	.17
.837	363.05	92.39	.17
.8704	363.13	90.33	.17
.9007	363.11	87.34	.17
.9329	363.09	83.52	.17
.969	363.12	77.82	.17
.9858	363.04	74.64	.17
1	363.1	71.73	.17
