Measured thermophysical data. Vaporization Enthalpy and Vapor Pressure of Valproic Acid by Correlation Gas Chromatography
Source: J. Chem. Eng. Data, 2012, 10.1021/je3003767
Compound 1: dipropylacetic acid, C8H16O2, purity 98%

System: dipropylacetic acid; phases: Liquid, Gas
Property: Vapor or sublimation pressure, kPa (Liquid); method: Gas chromatography
Temperature, K	Vapor or sublimation pressure, kPa	uncertainty
298.15	.002311573	.0002311573
308.15	.005936681	.0005936681
318.15	.014314571	.0014314571
328.15	.03254966	.003254966
338.15	.070096989	.0070096989
348.15	.143544221	.0143544221
358.15	.280570702	.0280570702
368.15	.525280932	.0525280932
378.15	.945025031	.0945025031
388.15	1.638695874	.1638695874
398.15	2.746343393	.2746343393
408.15	4.459789082	.4459789082
418.15	7.033778363	.7033778363
428.15	10.79709428	1.079709428
438.15	16.16298773	1.616298773
448.15	23.6382656	2.36382656
458.15	33.83041938	3.383041938
468.15	47.45226815	4.745226815
478.15	65.32371998	6.532371998
488.15	88.37041155	8.837041155
298.15	.002189982	.0002189982
308.15	.005746548	.0005746548
318.15	.014059237	.0014059237
328.15	.03227221	.003227221
338.15	.069897658	.0069897658
348.15	.143573386	.0143573386
358.15	.280965403	.0280965403
368.15	.526007269	.0526007269
378.15	.945596628	.0945596628
388.15	1.637767432	.1637767432
398.15	2.741233636	.2741233636
408.15	4.446070377	.4446070377
418.15	7.005176779	.7005176779
428.15	10.74606456	1.074606456
438.15	16.08244916	1.608244916
448.15	23.52509154	2.352509154
458.15	33.69135048	3.369135048
468.15	47.31295458	4.731295458
478.15	65.24158324	6.524158324
488.15	88.4519493	8.84519493

System: dipropylacetic acid; phases: Liquid, Gas
Property: Molar enthalpy of vaporization or sublimation, kJ/mol (Liquid); method: Correlation gas chromatography
Temperature, K	Molar enthalpy of vaporization or sublimation, kJ/mol	uncertainty
298.15	74.8	4
