Measured thermophysical data. Thermodynamic Properties of Propane. IV. Speed of Sound in the Liquid and Supercritical Regions
Source: J. Chem. Eng. Data, 2012, 10.1021/je300466a
Compound 1: n-propane, C3H8

System: n-propane; phases: Fluid (supercritical or subcritical phases)
Property: Speed of sound, m/s (Fluid (supercritical or subcritical phases)); method: Pulse-echo method
Temperature, K	Pressure, kPa	Speed of sound, m/s	uncertainty
239.9981	1304.27	1113.771	.21
239.9977	2104.77	1121.558	.21
239.9974	3105.35	1131.113	.22
239.9977	4106.04	1140.474	.22
239.9948	4106.02	1140.489	.22
239.9977	5106.62	1149.654	.22
239.9978	6107.73	1158.658	.22
239.9971	7108.53	1167.505	.22
239.9967	8109.64	1176.198	.23
239.9967	9110.3	1184.734	.23
239.9967	10111	1193.131	.23
239.996	12612.8	1213.533	.23
239.9952	15114.4	1233.171	.24
239.9951	17616.2	1252.102	.24
239.9948	20117.9	1270.399	.25
239.9947	25121.4	1305.293	.26
239.9939	30125	1338.192	.26
239.9941	35128.5	1369.388	.27
239.9939	40131.9	1399.073	.28
239.9937	45135.3	1427.438	.29
239.9937	50138.7	1454.624	.29
239.9935	60145.6	1505.9	.31
239.9931	70152.6	1553.684	.32
239.9927	80159.8	1598.498	.34
239.9923	90166.8	1640.817	.35
239.9923	100174	1680.922	.36
259.9956	1302.58	983.5408	.19
259.9958	2102.21	992.9799	.19
259.9957	3103.75	1004.491	.19
259.9961	4104.35	1015.694	.19
259.996	5105.07	1026.613	.2
259.9963	6105.93	1037.263	.2
259.9962	7106.63	1047.67	.2
259.9966	8107.02	1057.835	.2
259.9964	9107.76	1067.784	.21
259.9967	10108.5	1077.521	.21
259.9966	12610.2	1101.017	.21
259.9965	15112	1123.433	.22
259.9968	17614.1	1144.892	.22
259.9971	20115.8	1165.483	.23
259.997	25119.3	1204.425	.24
259.9974	35126.2	1275.003	.25
259.9975	40129.7	1307.344	.26
259.9976	45133.2	1338.078	.27
259.9973	50136.8	1367.385	.28
259.9973	60144.4	1422.346	.29
259.9972	70151.4	1473.216	.31
259.9973	80158.4	1520.707	.32
259.9974	90165.5	1565.332	.33
259.9964	100173	1607.488	.35
260.0024	1303.62	983.5115	.19
260.0022	4105.33	1015.671	.19
260.002	10109.8	1077.491	.21
260.0017	20116.7	1165.453	.23
260.0012	30123.5	1240.759	.25
260.0019	40130.5	1307.318	.26
280.0026	1303.37	851.1624	.16
280.0013	1301.77	851.1421	.16
280.0015	2101.78	862.9532	.16
280.0014	3102.56	877.1981	.17
280.0013	4103.27	890.9079	.17
280.0013	5104.02	904.1486	.17
280.0013	6104.83	916.9569	.18
280.0012	7105.57	929.3663	.18
280.0016	8107.69	941.4215	.18
280.0018	9108.52	953.1252	.18
280.0018	10109.2	964.5195	.19
280.0016	12611.1	991.7594	.19
280.0016	15112.9	1017.445	.2
280.0014	17614.8	1041.793	.2
280.0016	17614.8	1041.793	.2
280.0015	20117	1064.973	.21
280.0019	25120.5	1108.345	.22
280.0014	30123.9	1148.414	.23
280.0013	35127.4	1185.77	.24
280.0014	40131	1220.836	.24
280.0011	45134.5	1253.96	.25
280.0009	50138.1	1285.387	.26
280.0011	60145.1	1343.97	.28
280.0009	70152.1	1397.839	.29
280.0008	80159	1447.866	.3
280.0009	90166	1494.682	.32
280.0013	100173	1538.771	.33
280.0029	1302	851.1568	.16
280.0028	2102.52	862.9646	.16
280.0033	3103.04	877.1961	.17
280.0036	4103.71	890.9119	.17
280.0032	5104.27	904.1507	.17
280.0034	6105.02	916.9548	.18
280.0009	1303.58	851.1862	.16
280.0019	4105.52	890.9461	.17
280.002	10109.7	964.529	.19
280.0019	20116.5	1064.973	.21
280.0014	30123.5	1148.404	.23
300.0003	1303.44	713.1682	.14
300.0003	2104.01	728.7458	.14
300.0002	3104.51	747.1675	.14
300.0001	4105.12	764.5885	.15
300.0001	5105.62	781.1336	.15
300.0005	6106.13	796.919	.15
300.0003	7106.68	812.03	.16
300.0004	8107.32	826.541	.16
300.0004	9107.93	840.5098	.16
300.0011	10108.8	853.9894	.16
300.0017	12610.7	885.8175	.17
300.002	15112.4	915.3736	.18
300.002	17614.2	943.0459	.18
300.0016	20115.9	969.1239	.19
300.0016	25119.4	1017.346	.2
300.0016	30123	1061.33	.21
300.0013	35126.5	1101.932	.22
300.0015	40130.1	1139.761	.23
300.0016	45133.5	1175.263	.24
300.0016	50137	1208.787	.24
300.0014	60144	1270.887	.26
300.0013	70150.9	1327.616	.28
300.0015	80157.8	1380.039	.29
300.0013	90164.9	1428.907	.3
300.001	100172	1474.781	.32
300.0038	1303.69	713.1424	.14
299.9961	4105.71	764.6092	.15
300.0039	4105.65	764.5708	.15
299.9963	5106.43	781.1521	.15
300.0035	10109.8	853.9783	.16
300.0033	20116.8	969.1168	.19
320.0044	2102.94	583.6663	.11
320.0046	3103.7	609.7187	.12
320.0044	4104.9	633.377	.12
320.0041	5105.03	655.1587	.13
320.0045	6105.69	675.4154	.13
320.0048	7106.34	694.4143	.13
320.0048	8107	712.3441	.14
320.005	9107.75	729.3543	.14
320.0051	10108.4	745.5583	.14
320.005	12610.2	783.1411	.15
320.0045	15112.4	817.3419	.16
320.0048	17614.3	848.8529	.17
320.0051	20116.2	878.1866	.17
320.005	25119.6	931.6534	.18
320.005	30123.2	979.7363	.19
320.0049	35126.7	1023.657	.2
320.0049	40130.2	1064.246	.21
320.0051	45133.8	1102.098	.22
320.0049	50137.4	1137.653	.23
320.0038	60143.2	1203.103	.25
320.0039	70150.2	1262.54	.26
320.0038	80157.2	1317.197	.28
320.004	90164.2	1367.953	.29
320.0041	100171	1415.461	.3
320.0481	2103.95	583.3338	.11
319.9973	2103.55	583.7172	.11
319.9975	3104.22	609.7601	.12
319.9976	4104.78	633.4124	.12
319.9977	5105.45	655.1847	.13
319.9974	6106.06	675.4465	.13
319.9974	7106.72	694.4484	.13
319.9988	8107.88	712.38	.14
319.9993	9108.59	729.3853	.14
319.9993	10109.3	745.5906	.14
319.9994	12611.1	783.169	.15
319.9996	15112.9	817.3588	.16
339.9981	3604.91	472.3201	.09
339.9983	4105.32	490.155	.09
339.998	5106.1	521.8842	.1
339.9982	6106.82	549.7914	.11
339.9984	7108.49	574.9388	.11
339.9983	8109.21	597.9286	.11
339.9983	9109.81	619.2078	.12
339.9984	10110.5	639.0854	.12
339.9989	12611.6	683.9784	.13
339.999	15113.2	723.7083	.14
339.9987	17614.8	759.6101	.15
339.9991	20116.5	792.5299	.15
339.9993	25119.9	851.5837	.17
339.9991	30123.5	903.8544	.18
339.9992	35126.8	951.0835	.19
339.9994	40129.9	994.3745	.2
340	45133.2	1034.493	.21
340.0013	50136.7	1071.972	.22
340.0014	60143.7	1140.589	.23
340.0012	70150.6	1202.518	.25
340.0014	80157.5	1259.232	.26
340.0014	90164.4	1311.718	.28
340.0015	100171	1360.704	.29
340.0027	2602.67	430.6004	.08
340.0022	3103.03	452.6192	.09
340.0022	3603.4	472.2484	.09
340.0027	4103.7	490.0808	.09
359.9973	3602.91	257.6812	.05
360.0044	3604.4	257.7434	.05
359.9986	3604.27	257.8326	.05
359.9987	3854.08	285.6235	.05
360.0004	3854.64	285.6711	.05
359.9994	3954.13	294.9448	.06
359.9973	3954.62	295.0016	.06
359.9971	4103.37	307.5344	.06
359.9974	4603.61	342.1055	.07
359.9972	5103.9	369.8779	.07
359.9967	6104.88	414.5491	.08
359.9981	7105.23	450.8164	.09
359.9985	7105.18	450.8112	.09
359.9986	8105.96	481.9514	.09
359.9987	9106.67	509.5406	.1
359.9987	10107.3	534.4944	.1
359.9967	12610.5	588.7956	.11
359.9967	15112.3	635.0499	.12
359.9968	17614.1	675.8427	.13
359.9967	20115.8	712.6116	.14
359.9977	25120	777.4163	.15
359.9974	30123.5	833.8591	.16
359.9976	35127	884.2953	.18
359.9977	40130.4	930.1585	.19
359.9978	45133.8	972.4	.2
359.9974	50137.1	1011.687	.2
359.9977	60144.1	1083.208	.22
359.9986	70151.3	1147.408	.24
359.9988	80158.4	1205.952	.25
359.9987	90165.4	1259.986	.27
359.9985	100172	1310.302	.28
380.0005	6105.22	260.5618	.05
379.9985	6105.31	260.5574	.05
379.9994	6605.55	293.1752	.06
379.9978	6605.68	293.1749	.06
379.9991	7105.92	320.3959	.06
379.9976	7106.1	320.3863	.06
379.9994	7606.31	344.0509	.07
379.9974	7606.54	344.0347	.07
379.9973	8106.95	365.1279	.07
379.9976	9108.12	401.9067	.08
379.9972	10108.9	433.6062	.08
379.9974	11109.7	461.751	.09
379.9971	12110.4	487.2269	.09
379.997	13111.2	510.6122	.1
379.9969	14112	532.306	.1
379.9969	15112.7	552.6036	.11
379.9976	17614.9	598.5104	.12
379.9977	20116.6	639.153	.12
379.998	22618.3	675.8875	.13
379.9983	25120	709.5618	.14
379.998	30123.4	769.9397	.15
379.9982	35126.8	823.3524	.16
379.998	40130.2	871.5647	.17
379.9985	45133.7	915.7351	.18
379.9987	50137.1	956.634	.19
379.9989	60144.1	1030.755	.21
379.9993	70151	1096.962	.23
379.9996	80157.9	1157.136	.24
380	90164.9	1212.527	.26
379.9996	100172	1263.993	.27
400.0014	9107.26	305.1695	.06
400.0012	9607.68	324.6564	.06
400.0009	10108.1	342.7723	.07
400.0006	10608.5	359.7235	.07
400.0009	11109	375.6713	.07
400.0003	12109.9	404.9956	.08
399.9994	13111.1	431.5813	.08
399.9996	14111.8	455.9735	.09
400.0001	15112.5	478.5871	.09
399.9997	16113.2	499.7133	.1
399.9995	17113.9	519.5737	.1
399.9997	18114.6	538.3533	.1
399.9996	19115.3	556.1864	.11
399.9999	20116	573.1901	.11
400.0005	22617.9	612.6439	.12
400.0004	25119.7	648.5369	.13
400.001	27621.5	681.6052	.13
400.0011	30123.2	712.3563	.14
400.0013	35126.7	768.3421	.15
400.0012	40130.2	818.5907	.16
400.0012	45133.7	864.4181	.17
400.0018	50137.3	906.7114	.18
400.002	60144.2	983.0545	.2
400.002	70151.1	1050.995	.22
400.0021	80157.9	1112.57	.23
400.0017	80158.5	1112.567	.23
420.0024	11108.7	309.8133	.06
420.0029	11609	324.8867	.06
420.0024	12110.1	339.4714	.07
420.0016	12610.4	353.4876	.07
420.0015	13110.7	366.9736	.07
420.0031	14110.8	392.4725	.08
420.0032	15111.5	416.2585	.08
420.0036	16112.2	438.5192	.09
420.0039	17113	459.4635	.09
420.0042	18113.7	479.2532	.09
420.0049	19114.3	498.0285	.1
420.005	20115	515.91	.1
420.0051	21115.7	532.993	.1
420.0051	22616.7	557.3021	.11
420.005	25118.3	594.8312	.12
420.005	27619.9	629.2942	.12
420.0055	30121.4	661.2581	.13
420.0053	35126	719.2618	.14
420.0051	40129.5	771.1221	.15
420.0051	45133.1	818.2814	.16
420.0047	50136.7	861.6993	.17
420.0048	60143.8	939.8528	.19
420.0048	70150.8	1009.204	.21
