Measured thermophysical data. Partial Molar Isentropic Compressions of Selected Cyclic Ethers at Infinite Dilution in Water at Temperatures T = (278 to 318) K and Atmospheric Pressure
Source: J. Chem. Eng. Data, 2013, 10.1021/je301352v
Compound 1: oxacyclopentane, C4H8O, purity 99%
Compound 2: dioxolane, C3H6O2, purity 99%
Compound 3: oxane, C5H10O, purity 99%
Compound 4: p-dioxane, C4H8O2, purity 99.5%
Compound 5: 1,3,5-trioxane, C3H6O3, purity 99%
Compound 6: water, H2O

System: oxacyclopentane + water; phases: Liquid
Fixed: Pressure, kPa = 101
Property: Speed of sound, m/s (Liquid); method: Pulse-echo method
Temperature, K	Molality, mol/kg of oxacyclopentane	Speed of sound, m/s	uncertainty
278.15	.098044	7.44	.2
278.15	.166969	12.61	.2
278.15	.21123	15.91	.2
278.15	.279105	20.94	.2
278.15	.333696	24.91	.2
283.15	.098044	6.78	.2
283.15	.166969	11.45	.2
283.15	.21123	14.48	.2
283.15	.279105	18.99	.2
283.15	.333696	22.61	.2
288.15	.098044	6.06	.2
288.15	.166969	10.29	.2
288.15	.21123	12.91	.2
288.15	.279105	16.98	.2
288.15	.333696	20.16	.2
293.15	.098044	5.49	.2
293.15	.166969	9.27	.2
293.15	.21123	11.64	.2
293.15	.279105	15.22	.2
293.15	.333696	18.08	.2
298.15	.098044	4.88	.2
298.15	.166969	8.24	.2
298.15	.21123	10.4	.2
298.15	.279105	13.6	.2
298.15	.333696	16.15	.2
318.15	.101272	2.97	.4
318.15	.150387	4.4	.4
318.15	.198708	5.79	.4
318.15	.243885	7.08	.4
318.15	.304335	8.79	.4

System: dioxolane + water; phases: Liquid
Fixed: Pressure, kPa = 101
Property: Speed of sound, m/s (Liquid); method: Pulse-echo method
Temperature, K	Molality, mol/kg of dioxolane	Speed of sound, m/s	uncertainty
278.15	.059817	3.35	.2
278.15	.112042	6.21	.2
278.15	.214998	11.73	.2
278.15	.316063	17	.2
278.15	.404999	21.5	.2
283.15	.059817	2.93	.2
283.15	.112042	5.42	.2
283.15	.214998	10.24	.2
283.15	.316063	14.88	.2
283.15	.404999	18.87	.2
288.15	.059817	2.6	.2
288.15	.112042	4.81	.2
288.15	.214998	9.01	.2
288.15	.316063	13.02	.2
288.15	.404999	16.43	.2
293.15	.059817	2.33	.2
293.15	.112042	4.24	.2
293.15	.214998	7.89	.2
293.15	.316063	11.13	.2
293.15	.404999	14.15	.2
298.15	.059817	1.99	.2
298.15	.112042	3.66	.2
298.15	.214998	6.84	.2
298.15	.316063	9.77	.2
298.15	.404999	12.12	.2
318.15	.059817	.92	.4
318.15	.112042	1.61	.4
318.15	.214998	3.08	.4
318.15	.316063	4.27	.4
318.15	.404999	5.34	.4

System: oxane + water; phases: Liquid
Fixed: Pressure, kPa = 101
Property: Speed of sound, m/s (Liquid); method: Pulse-echo method
Temperature, K	Molality, mol/kg of oxane	Speed of sound, m/s	uncertainty
278.15	.051464	5.05	.2
278.15	.096776	9.46	.2
278.15	.145553	14.18	.2
278.15	.193657	18.68	.2
278.15	.24157	23.16	.2
283.15	.051464	4.61	.2
283.15	.096776	8.58	.2
283.15	.193657	16.87	.2
283.15	.24157	20.9	.2
288.15	.051464	4.16	.2
288.15	.096776	7.78	.2
288.15	.145553	11.57	.2
288.15	.193657	15.28	.2
288.15	.24157	18.87	.2
293.15	.051464	3.78	.2
293.15	.096776	7.06	.2
293.15	.145553	10.42	.2
293.15	.193657	13.77	.2
293.15	.24157	17.11	.2
298.15	.051464	3.39	.2
298.15	.096776	6.31	.2
298.15	.145553	9.44	.2
298.15	.193657	12.38	.2
298.15	.24157	15.37	.2
318.15	.051464	2.08	.4
318.15	.096776	3.86	.4
318.15	.145553	5.74	.4
318.15	.24157	9.46	.4

System: p-dioxane + water; phases: Liquid
Fixed: Pressure, kPa = 101
Property: Speed of sound, m/s (Liquid); method: Pulse-echo method
Temperature, K	Molality, mol/kg of p-dioxane	Speed of sound, m/s	uncertainty
278.15	.080683	5.21	.2
278.15	.171566	10.92	.2
278.15	.171566	10.94	.2
278.15	.242335	15.3	.2
278.15	.242335	15.3	.2
278.15	.321746	20.08	.2
278.15	.321746	20.06	.2
278.15	.399113	24.64	.2
278.15	.399113	24.58	.2
283.15	.080683	4.55	.2
283.15	.080683	4.61	.2
283.15	.171566	9.63	.2
283.15	.171566	9.6	.2
283.15	.242335	13.56	.2
283.15	.242335	13.45	.2
283.15	.321746	17.85	.2
283.15	.321746	17.67	.2
283.15	.399113	21.9	.2
283.15	.399113	21.75	.2
288.15	.080683	4.1	.2
288.15	.171566	8.55	.2
288.15	.242335	12	.2
288.15	.321746	15.64	.2
288.15	.399113	19.26	.2
293.15	.080683	3.6	.2
293.15	.171566	7.48	.2
293.15	.242335	10.45	.2
293.15	.321746	13.71	.2
293.15	.399113	16.88	.2
298.15	.080683	3.15	.2
298.15	.171566	6.6	.2
298.15	.171566	6.59	.2
298.15	.242335	9.2	.2
298.15	.242335	9.19	.2
298.15	.321746	12.08	.2
298.15	.321746	12.06	.2
298.15	.399113	14.78	.2
298.15	.399113	14.77	.2
308.15	.171566	4.85	.2
308.15	.242335	6.82	.2
308.15	.321746	8.96	.2
308.15	.399113	10.98	.2
318.15	.080683	1.72	.4
318.15	.171566	3.53	.4
318.15	.242335	4.94	.4
318.15	.399113	7.88	.4

System: 1,3,5-trioxane + water; phases: Liquid
Fixed: Pressure, kPa = 101
Property: Speed of sound, m/s (Liquid); method: Pulse-echo method
Temperature, K	Molality, mol/kg of 1,3,5-trioxane	Speed of sound, m/s	uncertainty
278.15	.049773	3.13	.2
278.15	.049773	3	.2
278.15	.109562	6.61	.2
278.15	.109562	6.45	.2
278.15	.207301	12.16	.2
278.15	.207301	11.96	.2
278.15	.303121	17.25	.2
278.15	.303121	16.97	.2
278.15	.401402	22.38	.2
278.15	.401402	22.35	.2
283.15	.049773	2.67	.2
283.15	.049773	2.69	.2
283.15	.109562	5.7	.2
283.15	.109562	5.71	.2
283.15	.207301	10.53	.2
283.15	.207301	10.53	.2
283.15	.303121	15.07	.2
283.15	.303121	15.09	.2
283.15	.401402	19.56	.2
283.15	.401402	19.47	.2
283.15	.401402	19.65	.2
283.15	.401402	19.65	.2
288.15	.049773	2.5	.2
288.15	.049773	2.48	.2
288.15	.109562	5.24	.2
288.15	.109562	5.16	.2
288.15	.207301	9.45	.2
288.15	.207301	9.4	.2
288.15	.303121	13.45	.2
288.15	.303121	13.4	.2
288.15	.401402	17.41	.2
288.15	.401402	17.35	.2
293.15	.049773	2.03	.2
293.15	.049773	2.04	.2
293.15	.109562	4.34	.2
293.15	.109562	4.36	.2
293.15	.207301	8.03	.2
293.15	.303121	11.51	.2
293.15	.401402	14.98	.2
293.15	.401402	14.85	.2
298.15	.049773	1.75	.2
298.15	.049773	1.76	.2
298.15	.109562	3.77	.2
298.15	.109562	3.9	.2
298.15	.207301	7.26	.2
298.15	.303121	9.85	.2
298.15	.303121	10.06	.2
298.15	.401402	12.96	.2
298.15	.401402	12.99	.2
318.15	.109562	1.83	.4
318.15	.207301	3.32	.4
318.15	.303121	4.72	.4
318.15	.401402	6.07	.4
