Measured thermophysical data. Liquid Liquid Equilibrium for the Ternary System 2-Methyl-1-propanol + 3-Methyl-1-butanol + Water at (298.15, 323.15, and 348.15) K
Source: J. Chem. Eng. Data, 2012, 10.1021/je300683r
Compound 1: 2-methyl-1-propanol, C4H10O, purity 99%
Compound 2: 1-butanol, 3-methyl-, C5H12O, purity 98.5%
Compound 3: water, H2O, purity 99.9%
Compound 4: ethyl alcohol, C2H6O, purity 99.7%

System: 2-methyl-1-propanol; phases: Liquid
Fixed: Pressure, kPa = 101.325
Property: Mass density, kg/m3 (Liquid); method: Vibrating tube method
Temperature, K	Mass density, kg/m3	uncertainty
293.15	802	.5

System: 2-methyl-1-propanol; phases: Liquid
Fixed: Pressure, kPa = 101.325
Property: Refractive index (Na D-line) (Liquid); method: Standard Abbe refractometry
Temperature, K	Refractive index (Na D-line)	uncertainty
293.15	1.3955	.0002

System: 1-butanol, 3-methyl-; phases: Liquid
Fixed: Pressure, kPa = 101.325
Property: Mass density, kg/m3 (Liquid); method: Vibrating tube method
Temperature, K	Mass density, kg/m3	uncertainty
293.15	810.2	.5

System: 1-butanol, 3-methyl-; phases: Liquid
Fixed: Pressure, kPa = 101.325
Property: Refractive index (Na D-line) (Liquid); method: Standard Abbe refractometry
Temperature, K	Refractive index (Na D-line)	uncertainty
293.15	1.413	.0002

System: water; phases: Liquid
Fixed: Pressure, kPa = 101.325
Property: Mass density, kg/m3 (Liquid); method: Vibrating tube method
Temperature, K	Mass density, kg/m3	uncertainty
293.15	998.4	.5

System: water; phases: Liquid
Fixed: Pressure, kPa = 101.325
Property: Refractive index (Na D-line) (Liquid); method: Standard Abbe refractometry
Temperature, K	Refractive index (Na D-line)	uncertainty
293.15	1.3328	

System: ethyl alcohol; phases: Liquid
Fixed: Pressure, kPa = 101.325
Property: Mass density, kg/m3 (Liquid); method: Vibrating tube method
Temperature, K	Mass density, kg/m3	uncertainty
293.15	790	.5

System: ethyl alcohol; phases: Liquid
Fixed: Pressure, kPa = 101.325
Property: Refractive index (Na D-line) (Liquid); method: Standard Abbe refractometry
Temperature, K	Refractive index (Na D-line)	uncertainty
293.15	1.3616	.0005

System: 2-methyl-1-propanol + 1-butanol, 3-methyl- + water; phases: Liquid mixture 2, Liquid mixture 1
Fixed: Pressure, kPa = 101.3
Property: Mole fraction of 1-butanol, 3-methyl- (Liquid mixture 2); method: Chromatography
Property: Mole fraction of 2-methyl-1-propanol (Liquid mixture 1); method: Chromatography
Property: Mole fraction of 1-butanol, 3-methyl- (Liquid mixture 1); method: Chromatography
Temperature, K	Mole fraction of 2-methyl-1-propanol	Mole fraction of 1-butanol, 3-methyl-	uncertainty	Mole fraction of 2-methyl-1-propanol	uncertainty	Mole fraction of 1-butanol, 3-methyl-	uncertainty
298.15	.01259	.028026	.001	.066074	.001	.896951	.001
298.15	.025502	.025653	.001	.1342	.001	.828704	.001
298.15	.038554	.02326	.001	.20449	.001	.758138	.001
298.15	.051656	.020858	.001	.277058	.001	.685127	.001
298.15	.064648	.018457	.001	.352018	.001	.609543	.001
298.15	.07741	.016063	.001	.429477	.001	.531271	.001
298.15	.089829	.013668	.001	.509525	.001	.450187	.001
298.15	.101865	.011258	.001	.592242	.001	.366202	.001
298.15	.11356	.008793	.001	.677683	.001	.279238	.001
298.15	.125084	.0062	.001	.765895	.001	.189242	.001
298.15	.136739	.003347	.001	.856898	.001	.096172	.001
323.15	.018293	.047885	.001	.065406	.001	.899531	.001
323.15	.036851	.044	.001	.132907	.001	.831681	.001
323.15	.05552	.040079	.001	.202635	.001	.761448	.001
323.15	.074153	.036139	.001	.274728	.001	.688687	.001
323.15	.092586	.03217	.001	.349318	.001	.613235	.001
323.15	.110696	.028174	.001	.426533	.001	.534949	.001
323.15	.128401	.024132	.001	.506483	.001	.453696	.001
323.15	.145692	.020005	.001	.589254	.001	.369363	.001
323.15	.162708	.015719	.001	.674911	.001	.281873	.001
323.15	.17966	.011133	.001	.763482	.001	.19116	.001
323.15	.197013	.006021	.001	.854979	.001	.097203	.001
348.15	.024768	.075322	.001	.064549	.001	.901467	.001
348.15	.049699	.069436	.001	.131243	.001	.834225	.001
348.15	.074631	.063485	.001	.200238	.001	.764516	.001
348.15	.099412	.057482	.001	.271693	.001	.692165	.001
348.15	.10792	.055393	.001	.297	.001	.666503	.001
348.15	.148022	.045265	.001	.422614	.001	.538814	.001
348.15	.171755	.038996	.001	.502364	.001	.457486	.001
348.15	.195103	.032504	.001	.585118	.001	.37285	.001
348.15	.218281	.025663	.001	.670942	.001	.284813	.001
348.15	.241685	.01825	.001	.759858	.001	.193323	.001
348.15	.265929	.009893	.001	.851851	.001	.098371	.001
