Measured thermophysical data. Physical Properties of HCFO-1233zd(E)
Source: J. Chem. Eng. Data, 2012, 10.1021/je300776s
Compound 1: trans-1-chloro-3,3,3-trifluoropropene, C3H2ClF3, purity 99%

System: trans-1-chloro-3,3,3-trifluoropropene; phases: Liquid, Gas
Property: Critical temperature, K (Liquid); method: Visual observation in an unstirred cell
Critical temperature, K	uncertainty
438.75	.05

System: trans-1-chloro-3,3,3-trifluoropropene; phases: Liquid, Gas
Property: Mass density, kg/m3 (Liquid); method: Vibrating tube method
Temperature, K	Mass density, kg/m3	uncertainty
243.34	1384.7	1.3847
243.7	1383.98	1.38398
248.07	1371.38	1.37138
251.12	1367.4	1.3674
253.56	1362.51	1.36251
255.66	1360.3	1.3603
263.36	1341.34	1.34134
271.16	1323.65	1.32365
273.17	1319.65	1.31965
283.26	1296.48	1.29648
290.16	1280.22	1.28022
291.98	1276.01	1.27601
293.21	1273.37	1.27337

System: trans-1-chloro-3,3,3-trifluoropropene; phases: Liquid
Property: Viscosity, Pa*s (Liquid); method: Capillary tube (Ostwald; Ubbelohde) method
Temperature, K	Pressure, kPa	Viscosity, Pa*s	uncertainty
270.24	100	.000705	.00000846
292.03	150	.000506	.000006072
314.25	300	.0003851	.0000046212
336.37	500	.000294	.000003528
353.52	800	.0002369	.0000028428
379.56	1350	.0001763	.0000021156

System: trans-1-chloro-3,3,3-trifluoropropene; phases: Liquid, Gas
Property: Surface tension liquid-gas, N/m (Liquid); method: Capillary rise
Temperature, K	Surface tension liquid-gas, N/m	uncertainty
273.15	.01648	.0001648
298.15	.01268	.0001268
323.15	.00901	.0000901

System: trans-1-chloro-3,3,3-trifluoropropene; phases: Liquid, Gas
Property: Vapor or sublimation pressure, kPa (Liquid); method: Closed cell (Static) method
Temperature, K	Vapor or sublimation pressure, kPa	uncertainty
263.09	29.85	.2985
272.95	44.51	.4451
273.1	47.57	.4757
282.95	71.41	.7141
283.08	72.74	.7274
293.05	107.99	1.0799
293.08	106.52	1.0652
302.85	148.21	1.4821
303.01	152.1	1.521
312.25	203.33	2.0333
312.93	210.08	2.1008
321.85	279.37	2.7937
323	282.13	2.8213
332.93	382.66	3.8266
342.92	502.28	5.0228
352.84	641.35	6.4135
