Measured thermophysical data. Isobaric Vapor Liquid Equilibrium Data for the System of 1-Methyl-2-Ethylbenzene + 1,2,4-Trimethylbenzene at 10 kPa
Source: J. Chem. Eng. Data, 2013, 10.1021/je301122r
Compound 1: 1-ethyl-2-methylbenzene, C9H12, purity 99.9%
Compound 2: 1,2,4-trimethylbenzene, C9H12, purity 99.9%

System: 1-ethyl-2-methylbenzene; phases: Liquid
Fixed: Pressure, kPa = 101.325
Property: Refractive index (Na D-line) (Liquid); method: Standard Abbe refractometry
Temperature, K	Refractive index (Na D-line)	uncertainty
293.15	1.5045	.0001

System: 1-ethyl-2-methylbenzene; phases: Liquid
Fixed: Pressure, kPa = 101.325
Property: Mass density, kg/m3 (Liquid); method: Vibrating tube method
Temperature, K	Mass density, kg/m3	uncertainty
293.15	880.66	.05

System: 1,2,4-trimethylbenzene; phases: Liquid
Fixed: Pressure, kPa = 101.325
Property: Refractive index (Na D-line) (Liquid); method: Standard Abbe refractometry
Temperature, K	Refractive index (Na D-line)	uncertainty
293.15	1.5047	.0001

System: 1,2,4-trimethylbenzene; phases: Liquid
Fixed: Pressure, kPa = 101.325
Property: Mass density, kg/m3 (Liquid); method: Vibrating tube method
Temperature, K	Mass density, kg/m3	uncertainty
293.15	875.78	.05

System: 1,2,4-trimethylbenzene + 1-ethyl-2-methylbenzene; phases: Liquid, Gas
Property: Boiling temperature at pressure P, K (Liquid); method: Ebulliometric method (Recirculating still)
Mole fraction of 1-ethyl-2-methylbenzene	Pressure, kPa	Boiling temperature at pressure P, K	uncertainty
0	10	368.96	.02
.047	10	368.82	.02
.119	10	368.6	.02
.184	10	368.41	.02
.261	10	368.15	.02
.337	10	367.9	.02
.406	10	367.65	.02
.474	10	367.42	.02
.538	10	367.17	.02
.603	10	366.91	.02
.679	10	366.62	.02
.742	10	366.37	.02
.818	10	366.06	.02
.885	10	365.77	.02
.956	10	365.47	.02
1	10	365.28	.02

System: 1,2,4-trimethylbenzene + 1-ethyl-2-methylbenzene; phases: Gas, Liquid
Property: Mole fraction of 1-ethyl-2-methylbenzene (Gas); method: Chromatography
Mole fraction of 1-ethyl-2-methylbenzene	Pressure, kPa	Mole fraction of 1-ethyl-2-methylbenzene	uncertainty
0	10	0	.001
.047	10	.052	.001
.119	10	.132	.001
.184	10	.203	.001
.261	10	.287	.001
.337	10	.367	.001
.406	10	.439	.001
.474	10	.51	.001
.538	10	.575	.001
.603	10	.638	.001
.679	10	.712	.001
.742	10	.771	.001
.818	10	.841	.001
.885	10	.902	.001
.956	10	.963	.001
1	10	1	.001
