Measured thermophysical data. Determination and Correlation of Solubility of Tris(3-hydroxypropyl)phosphine Oxide in Selected Solvents
Source: J. Chem. Eng. Data, 2013, 10.1021/je301029j
Compound 1: tris(3-hydroxypropyl)phosphine oxide, C9H21O4P
Compound 2: methanol, CH4O, purity 99.5%
Compound 3: ethanol, C2H6O, purity 99.5%
Compound 4: n-propyl alcohol, C3H8O, purity 99.5%
Compound 5: isopropanol, C3H8O, purity 99.5%
Compound 6: n-butanol, C4H10O, purity 99.4%
Compound 7: isobutanol, C4H10O, purity 99.5%
Compound 8: pyroacetic ether, C3H6O, purity 99.5%

System: tris(3-hydroxypropyl)phosphine oxide; phases: Crystal, Liquid, Air at 1 atmosphere
Property: Normal melting temperature, K (Crystal); method: DSC/DTA
Normal melting temperature, K	uncertainty
387.76	.26

System: tris(3-hydroxypropyl)phosphine oxide; phases: Crystal, Liquid, Air at 1 atmosphere
Property: Molar enthalpy of transition or fusion, kJ/mol (Crystal); method: DSC/DTA
Molar enthalpy of transition or fusion, kJ/mol	uncertainty
34.21	.085525

System: methanol + tris(3-hydroxypropyl)phosphine oxide; phases: Liquid, Crystal
Fixed: Pressure, kPa = 100
Property: Mole fraction of tris(3-hydroxypropyl)phosphine oxide (Liquid); method: Gravimetric Analysis
Temperature, K	Mole fraction of tris(3-hydroxypropyl)phosphine oxide	uncertainty
298.11	.05267	.0010534
303.15	.07018	.0014036
308.18	.09102	.0018204
313.1	.11501	.0023002
318.22	.14427	.0028854
323.14	.17565	.003513
328.11	.20979	.0041958

System: ethanol + tris(3-hydroxypropyl)phosphine oxide; phases: Liquid, Crystal
Fixed: Pressure, kPa = 100
Property: Mole fraction of tris(3-hydroxypropyl)phosphine oxide (Liquid); method: Gravimetric Analysis
Temperature, K	Mole fraction of tris(3-hydroxypropyl)phosphine oxide	uncertainty
298.12	.02262	.0004524
303.22	.02858	.0005716
308.17	.03605	.000721
313.1	.04556	.0009112
318.08	.05687	.0011374
323.11	.07185	.001437
328.16	.09188	.0018376

System: n-propyl alcohol + tris(3-hydroxypropyl)phosphine oxide; phases: Liquid, Crystal
Fixed: Pressure, kPa = 100
Property: Mole fraction of tris(3-hydroxypropyl)phosphine oxide (Liquid); method: Gravimetric Analysis
Temperature, K	Mole fraction of tris(3-hydroxypropyl)phosphine oxide	uncertainty
298.16	.0369	.000738
303.11	.04383	.0008766
308.13	.05171	.0010342
313.12	.06198	.0012396
318.16	.07312	.0014624
323.21	.08659	.0017318
328.18	.10249	.0020498

System: isopropanol + tris(3-hydroxypropyl)phosphine oxide; phases: Liquid, Crystal
Fixed: Pressure, kPa = 100
Property: Mole fraction of tris(3-hydroxypropyl)phosphine oxide (Liquid); method: Gravimetric Analysis
Temperature, K	Mole fraction of tris(3-hydroxypropyl)phosphine oxide	uncertainty
298.13	.01552	.0003104
303.21	.0187	.000374
308.15	.02243	.0004486
313.17	.02704	.0005408
318.19	.0321	.000642
323.11	.03865	.000773
328.18	.04653	.0009306

System: n-butanol + tris(3-hydroxypropyl)phosphine oxide; phases: Liquid, Crystal
Fixed: Pressure, kPa = 100
Property: Mole fraction of tris(3-hydroxypropyl)phosphine oxide (Liquid); method: Gravimetric Analysis
Temperature, K	Mole fraction of tris(3-hydroxypropyl)phosphine oxide	uncertainty
298.13	.01099	.0002198
303.21	.01377	.0002754
308.11	.01632	.0003264
313.17	.02003	.0004006
318.15	.02524	.0005048
323.1	.03025	.000605
328.23	.03695	.000739

System: isobutanol + tris(3-hydroxypropyl)phosphine oxide; phases: Liquid, Crystal
Fixed: Pressure, kPa = 100
Property: Mole fraction of tris(3-hydroxypropyl)phosphine oxide (Liquid); method: Gravimetric Analysis
Temperature, K	Mole fraction of tris(3-hydroxypropyl)phosphine oxide	uncertainty
293.11	.01224	.0002448
298.21	.01535	.000307
303.13	.01895	.000379
308.15	.02337	.0004674
313.17	.02908	.0005816
318.14	.03571	.0007142
323.23	.04364	.0008728

System: pyroacetic ether + tris(3-hydroxypropyl)phosphine oxide; phases: Liquid, Crystal
Fixed: Pressure, kPa = 100
Property: Mole fraction of tris(3-hydroxypropyl)phosphine oxide (Liquid); method: Gravimetric Analysis
Temperature, K	Mole fraction of tris(3-hydroxypropyl)phosphine oxide	uncertainty
293.15	.0007	.000014
298.14	.00101	.0000202
303.16	.00151	.0000302
308.21	.00217	.0000434
313.17	.00303	.0000606
318.12	.00425	.000085
323.15	.00593	.0001186

System: ethanol + pyroacetic ether + tris(3-hydroxypropyl)phosphine oxide; phases: Liquid, Crystal
Fixed: Pressure, kPa = 100
Property: Mole fraction of tris(3-hydroxypropyl)phosphine oxide (Liquid); method: Gravimetric Analysis
Solvent: Mole fraction of ethanol	Temperature, K	Mole fraction of tris(3-hydroxypropyl)phosphine oxide	uncertainty
.7998	298.15	.01518	.0003036
.7998	303.15	.01888	.0003776
.7998	308.15	.02565	.000513
.7998	313.15	.03407	.0006814
.7998	318.15	.04289	.0008578
.7998	323.15	.05465	.001093
.5979	298.15	.0112	.000224
.5979	303.15	.01388	.0002776
.5979	308.15	.01655	.000331
.5979	313.15	.02073	.0004146
.5979	318.15	.02642	.0005284
.5979	323.15	.03476	.0006952
.3986	298.15	.004	.00008
.3986	303.15	.00475	.000095
.3986	308.15	.0064	.000128
.3986	313.15	.00914	.0001828
.3986	318.15	.01202	.0002404
.3986	323.15	.01508	.0003016
.2075	298.15	.00212	.0000424
.2075	303.15	.00254	.0000508
.2075	308.15	.00312	.0000624
.2075	313.15	.00402	.0000804
.2075	318.15	.00517	.0001034
.2075	323.15	.00692	.0001384
