Measured thermophysical data. Physical Characterization of an Aromatic Extraction Solvent Formed by [bpy][BF4] and [4bmpy][Tf2N] Mixed Ionic Liquids
Source: J. Chem. Eng. Data, 2013, 10.1021/je300972a
Compound 1: 1-butylpyridinium tetrafluoroborate, C9H14BF4N, purity 99%
Compound 2: 1-butyl-4-methylpyridinium bis(trifluoromethylsulfonyl)imide, C12H16F6N2O4S2, purity 99%

System: 1-butylpyridinium tetrafluoroborate; phases: Liquid
Fixed: Pressure, kPa = 101.325
Property: Refractive index (Na D-line) (Liquid); method: Standard Abbe refractometry
Temperature, K	Refractive index (Na D-line)	uncertainty
293.15	1.447	.0003
303.15	1.4444	.0003
313.15	1.4418	.0003
323.15	1.4392	.0003
333.15	1.4366	.0003
343.15	1.4341	.0003
353.15	1.4315	.0003

System: 1-butylpyridinium tetrafluoroborate; phases: Liquid
Property: Mass density, kg/m3 (Liquid); method: Vibrating tube method
Temperature, K	Pressure, kPa	Mass density, kg/m3	uncertainty
293.15	101	1217.1	.8
303.15	101	1210.3	.8
313.15	101	1203.5	.8
323.15	101	1196.7	.8
333.15	101	1189.9	.8
343.15	101	1183.2	.8
353.15	101	1176.5	.8

System: 1-butylpyridinium tetrafluoroborate; phases: Liquid
Property: Viscosity, Pa*s (Liquid); method: Falling or rolling sphere viscometry
Temperature, K	Pressure, kPa	Viscosity, Pa*s	uncertainty
293.15	101	.2271	.0027252
303.15	101	.1236	.0014832
313.15	101	.0748	.0008976
323.15	101	.0481	.0005772
333.15	101	.033	.000396
343.15	101	.0238	.0002856
353.15	101	.0177	.0002124

System: 1-butyl-4-methylpyridinium bis(trifluoromethylsulfonyl)imide; phases: Liquid
Fixed: Pressure, kPa = 101.325
Property: Refractive index (Na D-line) (Liquid); method: Standard Abbe refractometry
Temperature, K	Refractive index (Na D-line)	uncertainty
293.15	1.448	.0003
303.15	1.4449	.0003
313.15	1.4419	.0003
323.15	1.4388	.0003
333.15	1.4358	.0003
343.15	1.4328	.0003
353.15	1.4298	.0003

System: 1-butyl-4-methylpyridinium bis(trifluoromethylsulfonyl)imide; phases: Liquid
Property: Mass density, kg/m3 (Liquid); method: Vibrating tube method
Temperature, K	Pressure, kPa	Mass density, kg/m3	uncertainty
293.15	101	1416.6	.8
303.15	101	1407.3	.8
313.15	101	1398.1	.8
323.15	101	1388.8	.8
333.15	101	1379.7	.8
343.15	101	1370.5	.8
353.15	101	1361.5	.8

System: 1-butyl-4-methylpyridinium bis(trifluoromethylsulfonyl)imide; phases: Liquid
Property: Viscosity, Pa*s (Liquid); method: Falling or rolling sphere viscometry
Temperature, K	Pressure, kPa	Viscosity, Pa*s	uncertainty
293.15	101	.0706	.0008472
303.15	101	.0452	.0005424
313.15	101	.0306	.0003672
323.15	101	.0218	.0002616
333.15	101	.0161	.0001932
343.15	101	.0123	.0001476
353.15	101	.0098	.0001176

System: 1-butylpyridinium tetrafluoroborate + 1-butyl-4-methylpyridinium bis(trifluoromethylsulfonyl)imide; phases: Liquid
Fixed: Pressure, kPa = 101
Property: Refractive index (Na D-line) (Liquid); method: Standard Abbe refractometry
Temperature, K	Mole fraction of 1-butylpyridinium tetrafluoroborate	Refractive index (Na D-line)	uncertainty
293.15	0	1.448	.0003
293.15	.0575	1.4479	.0003
293.15	.1136	1.4477	.0003
293.15	.2311	1.4474	.0003
293.15	.3515	1.4472	.0003
293.15	.4566	1.4471	.0003
293.15	.5692	1.4469	.0003
293.15	.673	1.4468	.0003
293.15	.7836	1.4468	.0003
293.15	.889	1.4469	.0003
293.15	.9535	1.447	.0003
293.15	1	1.447	.0003
303.15	0	1.4449	.0003
303.15	.0575	1.4448	.0003
303.15	.1136	1.4446	.0003
303.15	.2311	1.4444	.0003
303.15	.3515	1.4443	.0003
303.15	.4566	1.4441	.0003
303.15	.5692	1.4441	.0003
303.15	.673	1.444	.0003
303.15	.7836	1.4441	.0003
303.15	.889	1.4442	.0003
303.15	.9535	1.4443	.0003
303.15	1	1.4444	.0003
313.15	0	1.4419	.0003
313.15	.0575	1.4418	.0003
313.15	.1136	1.4416	.0003
313.15	.2311	1.4414	.0003
313.15	.3515	1.4414	.0003
313.15	.4566	1.4413	.0003
313.15	.5692	1.4413	.0003
313.15	.673	1.4413	.0003
313.15	.7836	1.4413	.0003
313.15	.889	1.4416	.0003
313.15	.9535	1.4417	.0003
313.15	1	1.4418	.0003
323.15	0	1.4388	.0003
323.15	.0575	1.4388	.0003
323.15	.1136	1.4386	.0003
323.15	.2311	1.4385	.0003
323.15	.3515	1.4385	.0003
323.15	.4566	1.4384	.0003
323.15	.5692	1.4385	.0003
323.15	.673	1.4385	.0003
323.15	.7836	1.4386	.0003
323.15	.889	1.4389	.0003
323.15	.9535	1.439	.0003
323.15	1	1.4392	.0003
333.15	0	1.4358	.0003
333.15	.0575	1.4357	.0003
333.15	.1136	1.4356	.0003
333.15	.2311	1.4356	.0003
333.15	.3515	1.4356	.0003
333.15	.4566	1.4356	.0003
333.15	.5692	1.4357	.0003
333.15	.673	1.4358	.0003
333.15	.7836	1.4359	.0003
333.15	.889	1.4362	.0003
333.15	.9535	1.4364	.0003
333.15	1	1.4366	.0003
343.15	0	1.4328	.0003
343.15	.0575	1.4328	.0003
343.15	.1136	1.4327	.0003
343.15	.2311	1.4327	.0003
343.15	.3515	1.4327	.0003
343.15	.4566	1.4328	.0003
343.15	.5692	1.433	.0003
343.15	.673	1.4331	.0003
343.15	.7836	1.4333	.0003
343.15	.889	1.4336	.0003
343.15	.9535	1.4338	.0003
343.15	1	1.4341	.0003
353.15	0	1.4298	.0003
353.15	.0575	1.4298	.0003
353.15	.1136	1.4297	.0003
353.15	.2311	1.4298	.0003
353.15	.3515	1.4299	.0003
353.15	.4566	1.43	.0003
353.15	.5692	1.4302	.0003
353.15	.673	1.4304	.0003
353.15	.7836	1.4306	.0003
353.15	.889	1.431	.0003
353.15	.9535	1.4313	.0003
353.15	1	1.4315	.0003

System: 1-butylpyridinium tetrafluoroborate + 1-butyl-4-methylpyridinium bis(trifluoromethylsulfonyl)imide; phases: Liquid
Fixed: Pressure, kPa = 101
Property: Mass density, kg/m3 (Liquid); method: Vibrating tube method
Temperature, K	Mole fraction of 1-butylpyridinium tetrafluoroborate	Mass density, kg/m3	uncertainty
293.15	0	1416.6	.8
293.15	.0575	1409.3	.8
293.15	.1136	1401.9	.8
293.15	.2311	1385.1	.8
293.15	.3515	1366	.8
293.15	.4566	1347.8	.8
293.15	.5692	1326.2	.8
293.15	.673	1304	.8
293.15	.7836	1277.5	.8
293.15	.889	1249.1	.8
293.15	.9535	1230.2	.8
293.15	1	1217.1	.8
303.15	0	1407.3	.8
303.15	.0575	1400.1	.8
303.15	.1136	1392.8	.8
303.15	.2311	1376.2	.8
303.15	.3515	1357.4	.8
303.15	.4566	1339.4	.8
303.15	.5692	1318.1	.8
303.15	.673	1296.1	.8
303.15	.7836	1270	.8
303.15	.889	1241.9	.8
303.15	.9535	1223.2	.8
303.15	1	1210.3	.8
313.15	0	1398.1	.8
313.15	.0575	1391	.8
313.15	.1136	1383.8	.8
313.15	.2311	1367.4	.8
313.15	.3515	1348.8	.8
313.15	.4566	1331.1	.8
313.15	.5692	1310	.8
313.15	.673	1288.3	.8
313.15	.7836	1262.5	.8
313.15	.889	1234.7	.8
313.15	.9535	1216.2	.8
313.15	1	1203.5	.8
323.15	0	1388.8	.8
323.15	.0575	1381.9	.8
323.15	.1136	1374.7	.8
323.15	.2311	1358.6	.8
323.15	.3515	1340.3	.8
323.15	.4566	1322.8	.8
323.15	.5692	1302	.8
323.15	.673	1280.5	.8
323.15	.7836	1255	.8
323.15	.889	1227.6	.8
323.15	.9535	1209.3	.8
323.15	1	1196.7	.8
333.15	0	1379.7	.8
333.15	.0575	1372.8	.8
333.15	.1136	1365.8	.8
333.15	.2311	1349.8	.8
333.15	.3515	1331.8	.8
333.15	.4566	1314.5	.8
333.15	.5692	1294	.8
333.15	.673	1272.8	.8
333.15	.7836	1247.6	.8
333.15	.889	1220.5	.8
333.15	.9535	1202.4	.8
333.15	1	1189.9	.8
343.15	0	1370.5	.8
343.15	.0575	1363.8	.8
343.15	.1136	1356.9	.8
343.15	.2311	1341.1	.8
343.15	.3515	1323.3	.8
343.15	.4566	1306.3	.8
343.15	.5692	1286	.8
343.15	.673	1265.1	.8
343.15	.7836	1240.2	.8
343.15	.889	1213.4	.8
343.15	.9535	1195.6	.8
343.15	1	1183.2	.8
353.15	0	1361.5	.8
353.15	.0575	1354.9	.8
353.15	.1136	1348	.8
353.15	.2311	1332.5	.8
353.15	.3515	1314.9	.8
353.15	.4566	1298.1	.8
353.15	.5692	1278.1	.8
353.15	.673	1257.5	.8
353.15	.7836	1232.8	.8
353.15	.889	1206.3	.8
353.15	.9535	1188.8	.8
353.15	1	1176.5	.8

System: 1-butylpyridinium tetrafluoroborate + 1-butyl-4-methylpyridinium bis(trifluoromethylsulfonyl)imide; phases: Liquid
Fixed: Pressure, kPa = 101
Property: Viscosity, Pa*s (Liquid); method: Falling or rolling sphere viscometry
Temperature, K	Mole fraction of 1-butylpyridinium tetrafluoroborate	Viscosity, Pa*s	uncertainty
293.15	0	.0706	.0008472
293.15	.0575	.0753	.0009036
293.15	.1136	.0778	.0009336
293.15	.2311	.0887	.0010644
293.15	.3515	.1011	.0012132
293.15	.4566	.1151	.0013812
293.15	.5692	.1352	.0016224
293.15	.673	.1534	.0018408
293.15	.7836	.1719	.0020628
293.15	.889	.195	.00234
293.15	.9535	.2161	.0025932
293.15	1	.2271	.0027252
303.15	0	.0452	.0005424
303.15	.0575	.0473	.0005676
303.15	.1136	.0493	.0005916
303.15	.2311	.0555	.000666
303.15	.3515	.0633	.0007596
303.15	.4566	.0727	.0008724
303.15	.5692	.0817	.0009804
303.15	.673	.0906	.0010872
303.15	.7836	.0989	.0011868
303.15	.889	.1096	.0013152
303.15	.9535	.1188	.0014256
303.15	1	.1236	.0014832
313.15	0	.0306	.0003672
313.15	.0575	.0319	.0003828
313.15	.1136	.033	.000396
313.15	.2311	.037	.000444
313.15	.3515	.0423	.0005076
313.15	.4566	.0472	.0005664
313.15	.5692	.0521	.0006252
313.15	.673	.0566	.0006792
313.15	.7836	.0613	.0007356
313.15	.889	.0669	.0008028
313.15	.9535	.0725	.00087
313.15	1	.0748	.0008976
323.15	0	.0218	.0002616
323.15	.0575	.0226	.0002712
323.15	.1136	.0235	.000282
323.15	.2311	.0264	.0003168
323.15	.3515	.0296	.0003552
323.15	.4566	.0324	.0003888
323.15	.5692	.0354	.0004248
323.15	.673	.0382	.0004584
323.15	.7836	.041	.000492
323.15	.889	.0441	.0005292
323.15	.9535	.0465	.000558
323.15	1	.0481	.0005772
333.15	0	.0161	.0001932
333.15	.0575	.0168	.0002016
333.15	.1136	.0175	.00021
333.15	.2311	.0195	.000234
333.15	.3515	.0216	.0002592
333.15	.4566	.0233	.0002796
333.15	.5692	.0252	.0003024
333.15	.673	.027	.000324
333.15	.7836	.0289	.0003468
333.15	.889	.0308	.0003696
333.15	.9535	.0322	.0003864
333.15	1	.033	.000396
343.15	0	.0123	.0001476
343.15	.0575	.0128	.0001536
343.15	.1136	.0133	.0001596
343.15	.2311	.0146	.0001752
343.15	.3515	.016	.000192
343.15	.4566	.0172	.0002064
343.15	.5692	.0185	.000222
343.15	.673	.0197	.0002364
343.15	.7836	.0209	.0002508
343.15	.889	.0221	.0002652
343.15	.9535	.023	.000276
343.15	1	.0238	.0002856
353.15	0	.0098	.0001176
353.15	.0575	.0101	.0001212
353.15	.1136	.0105	.000126
353.15	.2311	.0114	.0001368
353.15	.3515	.0124	.0001488
353.15	.4566	.0133	.0001596
353.15	.5692	.0141	.0001692
353.15	.673	.0149	.0001788
353.15	.7836	.0158	.0001896
353.15	.889	.0166	.0001992
353.15	.9535	.0172	.0002064
353.15	1	.0177	.0002124
