Measured thermophysical data. Vapor Liquid Equilibrium for the Mixture Methane (CH4) + Ethane (C2H6) over the Temperature Range (126.01 to 140.01) K
Source: J. Chem. Eng. Data, 2012, 10.1021/je300843n
Compound 1: methane, CH4, purity 99.99%
Compound 2: ethane, C2H6, purity 99.9%

System: methane; phases: Liquid, Gas
Property: Vapor or sublimation pressure, kPa (Liquid); method: Ebulliometric method (Recirculating still)
Temperature, K	Vapor or sublimation pressure, kPa	uncertainty
126.01	286.85	.65
127.99	324.94	.65
130.02	367.76	.65
132.01	413.65	.65
133.98	463.11	.65
135.99	517.9	.65
137.97	576.38	.65
140.01	641.51	.65

System: methane + ethane; phases: Liquid, Gas
Property: Vapor or sublimation pressure, kPa (Liquid); method: Ebulliometric method (Recirculating still)
Mole fraction of methane	Temperature, K	Vapor or sublimation pressure, kPa	uncertainty
.5922	126.01	191.62	.65
.6722	126.01	212.34	.65
.7855	126.01	240.07	.65
.8724	126.01	260.94	.65
.9852	126.01	284.09	.65
1	126.01	286.85	.65
.4498	127.99	164.99	.65
.5578	127.99	198.31	.65
.6089	127.99	213.65	.65
.6986	127.99	238.52	.65
.7486	127.99	251.53	.65
.8057	127.99	272.2	.65
.8427	127.99	286.31	.65
1	127.99	324.94	.65
.3527	130.02	148.12	.65
.4021	130.02	166	.65
.4489	130.02	183	.65
.5488	130.02	217.19	.65
.6485	130.02	248.32	.65
.7152	130.02	268.52	.65
.8476	130.02	318.72	.65
.9801	130.02	366.31	.65
1	130.02	367.76	.65
.3248	132.01	159	.65
.4098	132.01	191.21	.65
.4901	132.01	222.02	.65
.6249	132.01	272	.65
.7059	132.01	302.05	.65
.7986	132.01	337.82	.65
.8814	132.01	368.04	.65
.9948	132.01	410.97	.65
1	132.01	413.65	.65
.3368	133.98	188.7	.65
.4268	133.98	225.67	.65
.5287	133.98	270.82	.65
.6059	133.98	300.14	.65
.6996	133.98	339.46	.65
.8019	133.98	384.86	.65
.9278	133.98	432.07	.65
1	133.98	463.11	.65
.2578	135.99	186.02	.65
.3308	135.99	217.36	.65
.4219	135.99	255.89	.65
.5253	135.99	299.01	.65
.6054	135.99	335.1	.65
.6437	135.99	354.61	.65
.7501	135.99	400.78	.65
.8097	135.99	430.66	.65
.9328	135.99	484.07	.65
1	135.99	517.9	.65
.3128	137.97	244	.65
.3974	137.97	278.03	.65
.4538	137.97	300.12	.65
.5098	137.97	324.03	.65
.6583	137.97	397.1	.65
.7428	137.97	444.1	.65
.8018	137.97	476.22	.65
.8807	137.97	511.15	.65
1	137.97	576.38	.65
.3388	140.01	287.88	.65
.4537	140.01	338.42	.65
.5345	140.01	370.99	.65
.6098	140.01	414.97	.65
.6853	140.01	445.9	.65
.7482	140.01	493.09	.65
.8907	140.01	570.83	.65
.9646	140.01	618.12	.65
1	140.01	641.51	.65

System: methane + ethane; phases: Gas, Liquid
Property: Mole fraction of methane (Gas); method: Chromatography
Mole fraction of methane	Temperature, K	Mole fraction of methane	uncertainty
.5922	126.01	.9968	.004
.6722	126.01	.9971	.004
.7855	126.01	.9983	.004
.8724	126.01	.999	.004
.9852	126.01	.9999	.004
1	126.01	1	.004
.4498	127.99	.996	.004
.5578	127.99	.9971	.004
.6089	127.99	.9974	.004
.6986	127.99	.9977	.004
.7486	127.99	.9979	.004
.8057	127.99	.9985	.004
.8427	127.99	.9988	.004
1	127.99	1	.004
.3527	130.02	.9933	.004
.4021	130.02	.9942	.004
.4489	130.02	.9951	.004
.5488	130.02	.9966	.004
.6485	130.02	.9972	.004
.7152	130.02	.9976	.004
.8476	130.02	.9987	.004
.9801	130.02	.9996	.004
1	130.02	1	.004
.3248	132.01	.9921	.004
.4098	132.01	.9938	.004
.4901	132.01	.9951	.004
.6249	132.01	.9966	.004
.7059	132.01	.9975	.004
.7986	132.01	.9981	.004
.8814	132.01	.9986	.004
.9948	132.01	.9999	.004
1	132.01	1	.004
.3368	133.98	.9911	.004
.4268	133.98	.9933	.004
.5287	133.98	.9949	.004
.6059	133.98	.9961	.004
.6996	133.98	.9969	.004
.8019	133.98	.9982	.004
.9278	133.98	.999	.004
1	133.98	1	.004
.2578	135.99	.9869	.004
.3308	135.99	.9901	.004
.4219	135.99	.9926	.004
.5253	135.99	.9946	.004
.6054	135.99	.9955	.004
.6437	135.99	.996	.004
.7501	135.99	.997	.004
.8097	135.99	.9976	.004
.9328	135.99	.9989	.004
1	135.99	1	.004
.3128	137.97	.9881	.004
.3974	137.97	.9909	.004
.4538	137.97	.9923	.004
.5098	137.97	.9936	.004
.6583	137.97	.9959	.004
.7428	137.97	.9967	.004
.8018	137.97	.9972	.004
.8807	137.97	.9983	.004
1	137.97	1	.004
.3388	140.01	.9877	.004
.4537	140.01	.9912	.004
.5345	140.01	.9934	.004
.6098	140.01	.9942	.004
.6853	140.01	.9954	.004
.7482	140.01	.9965	.004
.8907	140.01	.9983	.004
.9646	140.01	.9991	.004
1	140.01	1	.004
