Measured thermophysical data. Solubility of Vitamin D3 in Six Organic Solvents at Temperatures from (248.2 to 273.2) K
Source: J. Chem. Eng. Data, 2012, 10.1021/je300401c
Compound 1: vitamin D3, C27H44O, purity 98%
Compound 2: methanol, CH4O, purity 99.5%
Compound 3: ethanol, C2H6O, purity 99.5%
Compound 4: ethanonitrile, C2H3N, purity 99.5%
Compound 5: acetone, C3H6O, purity 99.5%
Compound 6: ethyl ethanoate, C4H8O2, purity 99.5%
Compound 7: propyl alcohol, C3H8O, purity 99.5%

System: methanol + vitamin D3; phases: Liquid, Crystal
Fixed: Pressure, kPa = 101
Property: Mass fraction of vitamin D3 (Liquid); method: Chromatography
Temperature, K	Mass fraction of vitamin D3	uncertainty
248.2	.002045	.000004
253.2	.002489	.000022
258.2	.003374	.000051
263.2	.004595	.000069
268.2	.006254	.00005
273.2	.00993	.000109

System: ethanol + vitamin D3; phases: Liquid, Crystal
Fixed: Pressure, kPa = 101
Property: Mass fraction of vitamin D3 (Liquid); method: Chromatography
Temperature, K	Mass fraction of vitamin D3	uncertainty
248.2	.05318	.00005
253.2	.06457	.00084
258.2	.0796	.00064
263.2	.0965	.00145
268.2	.1157	.0003
273.2	.1399	.0024

System: vitamin D3 + ethanonitrile; phases: Liquid, Crystal
Fixed: Pressure, kPa = 101
Property: Mass fraction of vitamin D3 (Liquid); method: Chromatography
Temperature, K	Mass fraction of vitamin D3	uncertainty
248.2	.00007613	.00000069
253.2	.00009253	.00000278
258.2	.0001335	.000002
263.2	.00016	.000001
268.2	.0002519	.0000023
273.2	.0003111	.0000028

System: acetone + vitamin D3; phases: Liquid, Crystal
Fixed: Pressure, kPa = 101
Property: Mass fraction of vitamin D3 (Liquid); method: Chromatography
Temperature, K	Mass fraction of vitamin D3	uncertainty
248.2	.00611	.000079
253.2	.008048	.000072
258.2	.01063	.00018
263.2	.01425	.00024
268.2	.01925	.00025
273.2	.02802	.00045

System: vitamin D3 + ethyl ethanoate; phases: Liquid, Crystal
Fixed: Pressure, kPa = 101
Property: Mass fraction of vitamin D3 (Liquid); method: Chromatography
Temperature, K	Mass fraction of vitamin D3	uncertainty
248.2	.0219	.0002
253.2	.02872	.0004
258.2	.0366	.00018
263.2	.04781	.00024
268.2	.06393	.00032
273.2	.08832	.00185

System: vitamin D3 + propyl alcohol; phases: Liquid, Crystal
Fixed: Pressure, kPa = 101
Property: Mass fraction of vitamin D3 (Liquid); method: Chromatography
Temperature, K	Mass fraction of vitamin D3	uncertainty
248.2	.06467	.00026
253.2	.0873	.00009
258.2	.1114	.0008
263.2	.1363	.0019
268.2	.1631	.0031
273.2	.1933	.0002
