Measured thermophysical data. Isobaric Vapor Liquid Equilibrium for the Acetonitrile + Water System Containing Different Ionic Liquids at Atmospheric Pressure
Source: J. Chem. Eng. Data, 2013, 10.1021/je3009792
Compound 1: acetonitrile, C2H3N, purity 99%
Compound 2: water, H2O, purity 99%
Compound 3: 1-butyl-3-methylimidazolium tetrafluoroborate, C8H15BF4N2, purity 99%
Compound 4: 1-butyl-3-methylimidazolium dibutylphosphate, C16H33N2O4P, purity 99%
Compound 5: 1-n-butyl-3-methylimidazolium chloride, C8H15ClN2, purity 99%

System: acetonitrile; phases: Liquid, Gas
Property: Vapor or sublimation pressure, kPa (Liquid); method: Other
Temperature, K	Vapor or sublimation pressure, kPa	uncertainty
354.75	101.3	

System: water; phases: Liquid, Gas
Property: Vapor or sublimation pressure, kPa (Liquid); method: Other
Temperature, K	Vapor or sublimation pressure, kPa	uncertainty
373.15	101.3	

System: acetonitrile + water + 1-butyl-3-methylimidazolium tetrafluoroborate; phases: Liquid, Gas
Fixed: Pressure, kPa = 101.3
Property: Mole fraction of water (Liquid); method: Chromatography
Property: Mole fraction of acetonitrile (Gas); method: Chromatography
Property: Mole fraction of water (Gas); method: Chromatography
Temperature, K	Mole fraction of acetonitrile	Mole fraction of water	uncertainty	Mole fraction of acetonitrile	uncertainty	Mole fraction of water	uncertainty
373.15	0	.9805	.0001	0	.0001	1	.0001
370.18	.051	.9282	.0001	.421	.0001	.579	.0001
366.4	.1251	.8523	.0001	.6263	.0001	.3737	.0001
368.62	.1878	.788	.0001	.6351	.0001	.3649	.0001
368.3	.24	.7345	.0001	.6402	.0001	.3598	.0001
366.37	.3541	.6176	.0001	.6574	.0001	.3426	.0001
365.9	.3831	.5878	.0001	.6599	.0001	.3401	.0001
362.17	.4582	.5109	.0001	.6645	.0001	.3355	.0001
360.36	.5139	.4537	.0001	.6693	.0001	.3307	.0001
357.98	.6125	.3527	.0001	.6746	.0001	.3254	.0001
357.7	.6836	.2799	.0001	.6956	.0001	.3044	.0001
357.04	.7349	.2273	.0001	.7192	.0001	.2808	.0001
356.52	.7966	.164	.0001	.7314	.0001	.2686	.0001
355.9	.857	.102	.0001	.7839	.0001	.2161	.0001
355.03	.9125	.0452	.0001	.8606	.0001	.1394	.0001
354.75	.9566	0	.0001	1	.0001	0	.0001
373.15	0	.967	.0001	0	.0001	1	.0001
370.97	.0447	.9204	.0001	.2146	.0001	.7854	.0001
369	.159	.8013	.0001	.5863	.0001	.4137	.0001
368.37	.2046	.7538	.0001	.6185	.0001	.3815	.0001
367.27	.3114	.6424	.0001	.6279	.0001	.3721	.0001
364.48	.4133	.5363	.0001	.6346	.0001	.3654	.0001
362.22	.4571	.4906	.0001	.6356	.0001	.3644	.0001
359.9	.5322	.4124	.0001	.6379	.0001	.3621	.0001
358.03	.5855	.3567	.0001	.6456	.0001	.3544	.0001
357.66	.6421	.2978	.0001	.6638	.0001	.3362	.0001
357.17	.6872	.2508	.0001	.6834	.0001	.3166	.0001
356.78	.7314	.2047	.0001	.7356	.0001	.2644	.0001
356.5	.781	.153	.0001	.7758	.0001	.2242	.0001
355.81	.8454	.0859	.0001	.8683	.0001	.1317	.0001
354.9	.9203	.0079	.0001	.9863	.0001	.0137	.0001
354.75	.9278	0	.0001	1	.0001	0	.0001
373.15	0	.9263	.0001	0	.0001	1	.0001
370.87	.0409	.8816	.0001	.2556	.0001	.7444	.0001
369.9	.0979	.8192	.0001	.4289	.0001	.5711	.0001
369.2	.1328	.781	.0001	.5442	.0001	.4558	.0001
368.37	.1964	.7113	.0001	.6263	.0001	.3737	.0001
367.8	.2561	.646	.0001	.6368	.0001	.3632	.0001
366.26	.317	.5794	.0001	.6425	.0001	.3575	.0001
363.69	.4043	.4838	.0001	.6553	.0001	.3447	.0001
358.92	.4538	.4297	.0001	.6669	.0001	.3331	.0001
358.87	.5171	.3604	.0001	.6837	.0001	.3163	.0001
357.83	.5828	.2885	.0001	.7068	.0001	.2932	.0001
357.18	.6373	.2288	.0001	.7293	.0001	.2707	.0001
356.6	.6916	.1694	.0001	.7523	.0001	.2477	.0001
356.19	.7547	.1004	.0001	.8739	.0001	.1261	.0001
355.52	.7781	.0748	.0001	.9028	.0001	.0972	.0001
354.75	.8464	0	.0001	1	.0001	0	.0001

System: acetonitrile + water + 1-butyl-3-methylimidazolium dibutylphosphate; phases: Liquid, Gas
Fixed: Pressure, kPa = 101.3
Property: Mole fraction of water (Liquid); method: Chromatography
Property: Mole fraction of acetonitrile (Gas); method: Chromatography
Property: Mole fraction of water (Gas); method: Chromatography
Temperature, K	Mole fraction of acetonitrile	Mole fraction of water	uncertainty	Mole fraction of acetonitrile	uncertainty	Mole fraction of water	uncertainty
373.15	0	.9872	.0001	0	.0001	1	.0001
370.48	.0525	.9339	.0001	.4841	.0001	.5159	.0001
369.93	.0922	.8936	.0001	.5687	.0001	.4313	.0001
369.38	.1318	.8533	.0001	.6041	.0001	.3959	.0001
368.92	.2637	.7192	.0001	.6158	.0001	.3842	.0001
367.6	.3076	.6746	.0001	.6311	.0001	.3689	.0001
365.81	.4019	.5788	.0001	.6626	.0001	.3374	.0001
362.58	.451	.5288	.0001	.6635	.0001	.3365	.0001
360.36	.5244	.4543	.0001	.6684	.0001	.3316	.0001
358.48	.5759	.402	.0001	.6703	.0001	.3297	.0001
357.83	.6427	.334	.0001	.6958	.0001	.3042	.0001
357.26	.706	.2697	.0001	.7469	.0001	.2531	.0001
356.71	.789	.1853	.0001	.8023	.0001	.1977	.0001
355.5	.8484	.125	.0001	.8556	.0001	.1444	.0001
355.03	.9283	.0438	.0001	.9331	.0001	.0669	.0001
354.75	.9714	0	.0001	1	.0001	0	.0001
373.15	0	.9783	.0001	0	.0001	1	.0001
370.6	.0489	.9281	.0001	.3482	.0001	.6518	.0001
369.53	.1002	.8754	.0001	.5367	.0001	.4633	.0001
369.2	.1162	.8589	.0001	.6044	.0001	.3956	.0001
369.93	.203	.7697	.0001	.6244	.0001	.3756	.0001
368.81	.2694	.7014	.0001	.6439	.0001	.3561	.0001
366.58	.3539	.6146	.0001	.6521	.0001	.3479	.0001
363.71	.4184	.5483	.0001	.6719	.0001	.3281	.0001
360.38	.5235	.4404	.0001	.7066	.0001	.2934	.0001
358.05	.5953	.3665	.0001	.7325	.0001	.2675	.0001
357.49	.6449	.3155	.0001	.7523	.0001	.2477	.0001
357.26	.6919	.2672	.0001	.7712	.0001	.2288	.0001
355.84	.7863	.1703	.0001	.8469	.0001	.1531	.0001
355.18	.873	.0811	.0001	.9283	.0001	.0717	.0001
354.85	.9317	.0208	.0001	.9811	.0001	.0189	.0001
354.75	.9519	0	.0001	1	.0001	0	.0001
373.15	0	.9509	.0001	0	.0001	1	.0001
370.7	.0474	.9005	.0001	.4173	.0001	.5827	.0001
370.07	.1413	.8007	.0001	.6255	.0001	.3745	.0001
369.93	.1942	.7444	.0001	.6328	.0001	.3672	.0001
368.73	.2494	.6858	.0001	.6551	.0001	.3449	.0001
367.41	.3142	.617	.0001	.6629	.0001	.3371	.0001
366.09	.3586	.5697	.0001	.6863	.0001	.3137	.0001
363.2	.4081	.5171	.0001	.7001	.0001	.2999	.0001
362	.4758	.4452	.0001	.7336	.0001	.2664	.0001
358.53	.5458	.3707	.0001	.752	.0001	.248	.0001
357.72	.5977	.3156	.0001	.7653	.0001	.2347	.0001
357.48	.6493	.2607	.0001	.8021	.0001	.1979	.0001
356.57	.702	.2047	.0001	.8647	.0001	.1353	.0001
355.68	.786	.1154	.0001	.9352	.0001	.0648	.0001
355.3	.8341	.0643	.0001	.9822	.0001	.0178	.0001
354.75	.8946	0	.0001	1	.0001	0	.0001

System: acetonitrile + water + 1-n-butyl-3-methylimidazolium chloride; phases: Liquid, Gas
Fixed: Pressure, kPa = 101.3
Property: Mole fraction of water (Liquid); method: Chromatography
Property: Mole fraction of acetonitrile (Gas); method: Chromatography
Property: Mole fraction of water (Gas); method: Chromatography
Temperature, K	Mole fraction of acetonitrile	Mole fraction of water	uncertainty	Mole fraction of acetonitrile	uncertainty	Mole fraction of water	uncertainty
373.15	0	.9749	.0001	0	.0001	1	.0001
369.3	.0503	.9229	.0001	.5134	.0001	.4866	.0001
368.08	.0899	.8821	.0001	.5451	.0001	.4549	.0001
366.75	.1359	.8346	.0001	.6384	.0001	.3616	.0001
364.23	.1937	.7749	.0001	.6727	.0001	.3273	.0001
362.51	.2463	.7207	.0001	.6911	.0001	.3089	.0001
360.28	.3123	.6525	.0001	.6937	.0001	.3063	.0001
358.35	.3931	.5692	.0001	.6985	.0001	.3015	.0001
358.16	.465	.4949	.0001	.7013	.0001	.2987	.0001
357.99	.5437	.4137	.0001	.7169	.0001	.2831	.0001
357.17	.6187	.3362	.0001	.7356	.0001	.2644	.0001
356.41	.6844	.2685	.0001	.7758	.0001	.2242	.0001
356.02	.7416	.2094	.0001	.815	.0001	.185	.0001
355.68	.8269	.1214	.0001	.9052	.0001	.0948	.0001
355.07	.9044	.0414	.0001	.9752	.0001	.0248	.0001
354.75	.9445	0	.0001	1	.0001	0	.0001
373.15	0	.9577	.0001	0	.0001	1	.0001
369.81	.0526	.9022	.0001	.5412	.0001	.4588	.0001
365.88	.1568	.7924	.0001	.6614	.0001	.3386	.0001
362.66	.2207	.725	.0001	.689	.0001	.311	.0001
359.57	.2953	.6464	.0001	.7008	.0001	.2992	.0001
359.26	.3528	.5858	.0001	.7193	.0001	.2807	.0001
358.97	.3986	.5375	.0001	.7215	.0001	.2785	.0001
358.38	.4428	.4909	.0001	.7219	.0001	.2781	.0001
357.69	.4886	.4426	.0001	.7415	.0001	.2585	.0001
357.42	.549	.379	.0001	.7652	.0001	.2348	.0001
357.18	.6024	.3227	.0001	.7812	.0001	.2188	.0001
357.03	.6777	.2433	.0001	.8256	.0001	.1744	.0001
356.7	.7343	.1836	.0001	.8802	.0001	.1198	.0001
355.72	.8095	.1044	.0001	.9243	.0001	.0757	.0001
355.41	.8241	.089	.0001	.9278	.0001	.0722	.0001
354.75	.9085	0	.0001	1	.0001	0	.0001
