Measured thermophysical data. Liquid Liquid Equilibria of Water + Acetic Acid + Cyclopentyl Methyl Ether (CPME) System at Different Temperatures
Source: J. Chem. Eng. Data, 2012, 10.1021/je300676w
Compound 1: cyclopentyl methyl ether, C6H12O, purity 99.9%
Compound 2: ethanoic acid, C2H4O2, purity 99.5%
Compound 3: water, H2O, purity 99.8%

System: ethanoic acid + cyclopentyl methyl ether + water; phases: Liquid mixture 1, Liquid mixture 2
Property: Mass fraction of water (Liquid mixture 1); method: Chromatography
Property: Mass fraction of ethanoic acid (Liquid mixture 2); method: Chromatography
Property: Mass fraction of water (Liquid mixture 2); method: Chromatography
Temperature, K	Pressure, kPa	Mass fraction of ethanoic acid	Mass fraction of water	uncertainty	Mass fraction of ethanoic acid	uncertainty	Mass fraction of water	uncertainty
293.15	101.3	0	.0045	.005	0	.005	.9815	.005
293.15	101.3	.0449	.0101	.005	.0643	.005	.9081	.005
293.15	101.3	.0976	.0197	.005	.1133	.005	.8482	.005
293.15	101.3	.1525	.0284	.005	.1696	.005	.7753	.005
293.15	101.3	.2157	.0456	.005	.2161	.005	.7122	.005
293.15	101.3	.2825	.0676	.005	.2733	.005	.6334	.005
293.15	101.3	.3256	.0892	.005	.3153	.005	.5758	.005
293.15	101.3	.3523	.1028	.005	.3402	.005	.5287	.005
293.15	101.3	.3802	.1205	.005	.3706	.005	.4793	.005
303.15	101.3	0	.0091	.005	0	.005	.9703	.005
303.15	101.3	.0347	.0159	.005	.0692	.005	.8832	.005
303.15	101.3	.0854	.0257	.005	.1353	.005	.7956	.005
303.15	101.3	.1425	.0392	.005	.1907	.005	.7196	.005
303.15	101.3	.1951	.0531	.005	.2266	.005	.6706	.005
303.15	101.3	.2375	.0683	.005	.2629	.005	.6194	.005
303.15	101.3	.2821	.0929	.005	.293	.005	.5747	.005
303.15	101.3	.3198	.1137	.005	.3255	.005	.5227	.005
303.15	101.3	.3564	.1513	.005	.3509	.005	.4698	.005
313.15	101.3	0	.0161	.005	0	.005	.9561	.005
313.15	101.3	.0354	.0228	.005	.0718	.005	.8581	.005
313.15	101.3	.0827	.0364	.005	.1251	.005	.7821	.005
313.15	101.3	.1382	.0537	.005	.1692	.005	.7169	.005
313.15	101.3	.187	.0728	.005	.2103	.005	.6559	.005
313.15	101.3	.2267	.0938	.005	.2492	.005	.5955	.005
313.15	101.3	.2696	.1153	.005	.2853	.005	.5383	.005
313.15	101.3	.3095	.1418	.005	.3071	.005	.5032	.005
313.15	101.3	.3293	.1652	.005	.3273	.005	.4716	.005

System: cyclopentyl methyl ether + water; phases: Liquid mixture 2, Liquid mixture 1
Property: Mass fraction of water (Liquid mixture 2); method: Chromatography
Temperature, K	Pressure, kPa	Mass fraction of water	uncertainty
293.15	101.3	.9815	.005
303.15	101.3	.9703	.005
313.15	101.3	.9561	.005

System: cyclopentyl methyl ether + water; phases: Liquid mixture 1, Liquid mixture 2
Property: Mass fraction of water (Liquid mixture 1); method: Chromatography
Temperature, K	Pressure, kPa	Mass fraction of water	uncertainty
293.15	101.3	.0045	.005
303.15	101.3	.0091	.005
313.15	101.3	.0161	.005
