Measured thermophysical data. Density, Speed of Sound, and Viscosity of N-Methyl-2-pyrrolidone + Ethanolamine + Water from T = (293.15 to 323.15) K
Source: J. Chem. Eng. Data, 2012, 10.1021/je300742t
Compound 1: N-methyl-2-pyrrolidone, C5H9NO, purity 99%
Compound 2: 2-aminoethanol, C2H7NO, purity 99%
Compound 3: water, H2O, purity 99.9%

System: N-methyl-2-pyrrolidone; phases: Liquid
Fixed: Pressure, kPa = 101.325
Property: Mass density, kg/m3 (Liquid); method: Vibrating tube method
Temperature, K	Mass density, kg/m3	uncertainty
298.15	1028.3	.2

System: N-methyl-2-pyrrolidone; phases: Liquid
Fixed: Pressure, kPa = 101.325
Property: Speed of sound, m/s (Liquid); method: Sing-around technique in a fixed-path interferometer
Temperature, K	Speed of sound, m/s	uncertainty
298.15	1545.2	1.2

System: N-methyl-2-pyrrolidone; phases: Liquid
Fixed: Pressure, kPa = 101.325
Property: Viscosity, Pa*s (Liquid); method: Capillary tube (Ostwald; Ubbelohde) method
Temperature, K	Viscosity, Pa*s	uncertainty
298.15	.001681	.0000026

System: 2-aminoethanol; phases: Liquid
Fixed: Pressure, kPa = 101.325
Property: Mass density, kg/m3 (Liquid); method: Vibrating tube method
Temperature, K	Mass density, kg/m3	uncertainty
298.15	1011.98	.2

System: 2-aminoethanol; phases: Liquid
Fixed: Pressure, kPa = 101.325
Property: Speed of sound, m/s (Liquid); method: Sing-around technique in a fixed-path interferometer
Temperature, K	Speed of sound, m/s	uncertainty
298.15	1719.2	1.2

System: 2-aminoethanol; phases: Liquid
Fixed: Pressure, kPa = 101.325
Property: Viscosity, Pa*s (Liquid); method: Capillary tube (Ostwald; Ubbelohde) method
Temperature, K	Viscosity, Pa*s	uncertainty
298.15	.01874	.0000026

System: 2-aminoethanol + N-methyl-2-pyrrolidone + water; phases: Liquid
Fixed: Pressure, kPa = 100
Property: Mass density, kg/m3 (Liquid); method: Vibrating tube method
Temperature, K	Mole fraction of N-methyl-2-pyrrolidone	Mole fraction of 2-aminoethanol	Mass density, kg/m3	uncertainty
293.15	.1	.1	1036.21	.2
293.15	.1	.2	1037.85	.2
293.15	.1	.3	1036.87	.2
293.15	.1	.4	1034.15	.2
293.15	.1	.5	1031.21	.2
293.15	.1	.6	1027.71	.2
293.15	.1	.7	1024.43	.2
293.15	.1	.8	1021.15	.2
303.15	.1	.1	1028.95	.2
303.15	.1	.2	1030.24	.2
303.15	.1	.3	1029.07	.2
303.15	.1	.4	1026.25	.2
303.15	.1	.5	1023.24	.2
303.15	.1	.6	1019.66	.2
303.15	.1	.7	1016.33	.2
303.15	.1	.8	1013	.2
313.15	.1	.1	1021.45	.2
313.15	.1	.2	1022.43	.2
313.15	.1	.3	1021.11	.2
313.15	.1	.4	1018.22	.2
313.15	.1	.5	1015.16	.2
313.15	.1	.6	1011.53	.2
313.15	.1	.7	1008.16	.2
313.15	.1	.8	1004.78	.2
323.15	.1	.1	1013.71	.2
323.15	.1	.2	1014.43	.2
323.15	.1	.3	1012.99	.2
323.15	.1	.4	1010.05	.2
323.15	.1	.5	1006.96	.2
323.15	.1	.6	1003.31	.2
323.15	.1	.7	999.91	.2
323.15	.1	.8	996.51	.2
293.15	.2	.1	1045.93	.2
293.15	.2	.2	1042.74	.2
293.15	.2	.3	1038.78	.2
293.15	.2	.4	1034.55	.2
293.15	.2	.5	1030.25	.2
293.15	.2	.6	1026.5	.2
293.15	.2	.7	1023	.2
303.15	.2	.1	1037.41	.2
303.15	.2	.2	1034.26	.2
303.15	.2	.3	1030.38	.2
303.15	.2	.4	1026.17	.2
303.15	.2	.5	1021.87	.2
303.15	.2	.6	1018.11	.2
303.15	.2	.7	1014.59	.2
313.15	.2	.1	1028.73	.2
313.15	.2	.2	1025.65	.2
313.15	.2	.3	1021.85	.2
313.15	.2	.4	1017.69	.2
313.15	.2	.5	1013.41	.2
313.15	.2	.6	1009.65	.2
313.15	.2	.7	1006.13	.2
323.15	.2	.1	1019.88	.2
323.15	.2	.2	1016.88	.2
323.15	.2	.3	1013.19	.2
323.15	.2	.4	1009.11	.2
323.15	.2	.5	1004.86	.2
323.15	.2	.6	1001.12	.2
323.15	.2	.7	997.61	.2
293.15	.3	.2	1042.59	.2
293.15	.3	.3	1037.54	.2
293.15	.3	.4	1032.82	.2
293.15	.3	.5	1028	.2
293.15	.3	.6	1024.78	.2
293.15	.3	.1	1047.8	.2
303.15	.3	.1	1038.82	.2
303.15	.3	.2	1033.8	.2
313.15	.3	.1	1029.71	.2
313.15	.3	.2	1024.89	.2
313.15	.3	.3	1020.07	.2
313.15	.3	.4	1015.48	.2
313.15	.3	.5	1010.71	.2
313.15	.3	.6	1007.54	.2
303.15	.3	.3	1028.86	.2
303.15	.3	.4	1024.19	.2
303.15	.3	.5	1019.39	.2
303.15	.3	.6	1016.19	.2
323.15	.3	.1	1020.47	.2
323.15	.3	.2	1015.85	.2
323.15	.3	.3	1011.18	.2
323.15	.3	.4	1006.69	.2
323.15	.3	.5	1001.95	.2
323.15	.3	.6	998.84	.2
303.15	.4	.4	1020.85	.2
303.15	.4	.5	1016.84	.2
313.15	.4	.1	1027.21	.2
313.15	.4	.2	1021.8	.2
313.15	.4	.3	1016.64	.2
313.15	.4	.4	1012	.2
313.15	.4	.5	1008.04	.2
293.15	.4	.4	1029.63	.2
293.15	.4	.5	1025.59	.2
293.15	.4	.1	1045.51	.2
303.15	.4	.1	1036.42	.2
303.15	.4	.2	1030.82	.2
303.15	.4	.3	1025.55	.2
293.15	.4	.2	1039.73	.2
293.15	.4	.3	1034.38	.2
323.15	.4	.1	1017.89	.2
323.15	.4	.2	1012.68	.2
323.15	.4	.3	1007.66	.2
323.15	.4	.4	1003.1	.2
323.15	.4	.5	999.21	.2
293.15	.5	.1	1042.11	.2
293.15	.5	.2	1036.5	.2
293.15	.5	.3	1031.5	.2
293.15	.5	.4	1027.14	.2
303.15	.5	.1	1033.02	.2
303.15	.5	.2	1027.54	.2
303.15	.5	.3	1022.61	.2
313.15	.5	.1	1023.84	.2
303.15	.5	.4	1018.28	.2
313.15	.5	.2	1018.51	.2
313.15	.5	.3	1013.66	.2
313.15	.5	.4	1009.38	.2
323.15	.5	.1	1014.57	.2
323.15	.5	.2	1009.4	.2
323.15	.5	.3	1004.65	.2
323.15	.5	.4	1000.44	.2
303.15	.6	.3	1020.01	.2
293.15	.6	.1	1038.69	.2
293.15	.6	.2	1033.52	.2
313.15	.6	.1	1020.53	.2
313.15	.6	.2	1015.54	.2
293.15	.6	.3	1028.93	.2
303.15	.6	.1	1029.64	.2
313.15	.6	.3	1011.05	.2
303.15	.6	.2	1024.55	.2
323.15	.6	.1	1011.34	.2
323.15	.6	.2	1006.47	.2
323.15	.6	.3	1002.06	.2
313.15	.7	.1	1017.54	.2
293.15	.7	.1	1035.6	.2
293.15	.7	.2	1030.67	.2
313.15	.7	.2	1012.73	.2
303.15	.7	.1	1026.59	.2
303.15	.7	.2	1021.71	.2
323.15	.7	.1	1008.44	.2
323.15	.7	.2	1003.71	.2
293.15	.8	.1	1032.72	.2
313.15	.8	.1	1014.77	.2
303.15	.8	.1	1023.76	.2
323.15	.8	.1	1005.76	.2

System: 2-aminoethanol + N-methyl-2-pyrrolidone + water; phases: Liquid
Fixed: Pressure, kPa = 100
Property: Speed of sound, m/s (Liquid); method: Sing-around technique in a fixed-path interferometer
Temperature, K	Mole fraction of N-methyl-2-pyrrolidone	Mole fraction of 2-aminoethanol	Speed of sound, m/s	uncertainty
293.15	.1	.1	1774.9	1.2
293.15	.1	.2	1790.5	1.2
293.15	.1	.3	1786.1	1.2
293.15	.1	.4	1772.6	1.2
293.15	.1	.5	1756.8	1.2
293.15	.1	.6	1740.5	1.2
293.15	.1	.7	1726.8	1.2
293.15	.1	.8	1713.1	1.2
293.15	.2	.1	1771.6	1.2
293.15	.2	.2	1759.3	1.2
293.15	.2	.3	1742.2	1.2
293.15	.2	.4	1726	1.2
293.15	.2	.5	1710.4	1.2
293.15	.2	.6	1696	1.2
293.15	.2	.7	1684.6	1.2
293.15	.3	.1	1737.4	1.2
293.15	.3	.2	1719.9	1.2
293.15	.3	.3	1702.4	1.2
293.15	.3	.4	1685.4	1.2
293.15	.3	.5	1671.3	1.2
293.15	.3	.6	1664.5	1.2
293.15	.4	.1	1699.5	1.2
293.15	.4	.2	1680.6	1.2
293.15	.4	.3	1664.1	1.2
293.15	.4	.4	1650.1	1.2
293.15	.4	.5	1640.3	1.2
293.15	.5	.1	1664.4	1.2
293.15	.5	.2	1648.9	1.2
293.15	.5	.3	1633.2	1.2
293.15	.5	.4	1622.1	1.2
293.15	.6	.1	1634	1.2
293.15	.6	.2	1620.5	1.2
293.15	.6	.3	1608.6	1.2
293.15	.7	.1	1609.5	1.2
293.15	.7	.2	1597.2	1.2
293.15	.8	.1	1588.3	1.2
303.15	.1	.1	1747.7	1.2
303.15	.1	.2	1760	1.2
303.15	.1	.3	1754.2	1.2
303.15	.1	.4	1740.7	1.2
303.15	.1	.5	1724.4	1.2
303.15	.1	.6	1707.7	1.2
303.15	.1	.7	1693.8	1.2
303.15	.1	.8	1680.2	1.2
303.15	.2	.1	1736.5	1.2
303.15	.2	.2	1724.3	1.2
303.15	.2	.3	1707.6	1.2
303.15	.2	.4	1691.8	1.2
303.15	.2	.5	1676.2	1.2
303.15	.2	.6	1661.2	1.2
303.15	.2	.7	1650	1.2
303.15	.3	.1	1700.1	1.2
303.15	.3	.2	1683.6	1.2
303.15	.3	.3	1666.4	1.2
303.15	.3	.4	1649.7	1.2
303.15	.3	.5	1635.5	1.2
303.15	.3	.6	1628.7	1.2
303.15	.4	.1	1661.6	1.2
303.15	.4	.2	1643.4	1.2
303.15	.4	.3	1626.9	1.2
303.15	.4	.4	1613.5	1.2
303.15	.4	.5	1603.7	1.2
303.15	.5	.1	1626.1	1.2
303.15	.5	.2	1611.2	1.2
303.15	.5	.3	1595.9	1.2
303.15	.5	.4	1584.8	1.2
303.15	.6	.1	1595.9	1.2
303.15	.6	.2	1582.8	1.2
303.15	.6	.3	1571.1	1.2
303.15	.7	.1	1571.5	1.2
303.15	.7	.2	1559.3	1.2
303.15	.8	.1	1550.1	1.2
313.15	.1	.1	1719.3	1.2
313.15	.1	.2	1729.1	1.2
313.15	.1	.3	1721.2	1.2
313.15	.1	.4	1707.9	1.2
313.15	.1	.5	1692	1.2
313.15	.1	.6	1675	1.2
313.15	.1	.7	1661	1.2
313.15	.1	.8	1647.4	1.2
313.15	.2	.1	1701.1	1.2
313.15	.2	.2	1689.1	1.2
313.15	.2	.3	1673	1.2
313.15	.2	.4	1658.1	1.2
313.15	.2	.5	1641.4	1.2
313.15	.2	.6	1626.5	1.2
313.15	.2	.7	1615.1	1.2
313.15	.3	.1	1662.6	1.2
313.15	.3	.2	1646.8	1.2
313.15	.3	.3	1630.3	1.2
313.15	.3	.4	1613.8	1.2
313.15	.3	.5	1599.7	1.2
313.15	.3	.6	1592.8	1.2
313.15	.4	.1	1623.3	1.2
313.15	.4	.2	1605.8	1.2
313.15	.4	.3	1590	1.2
313.15	.4	.4	1576.5	1.2
313.15	.4	.5	1566.7	1.2
313.15	.5	.1	1587.6	1.2
313.15	.5	.2	1572.9	1.2
313.15	.5	.3	1558.4	1.2
313.15	.5	.4	1547.8	1.2
313.15	.6	.1	1558	1.2
313.15	.6	.2	1544.7	1.2
313.15	.6	.3	1533.6	1.2
313.15	.7	.1	1532.8	1.2
313.15	.7	.2	1521.6	1.2
313.15	.8	.1	1511.7	1.2
323.15	.1	.1	1690.5	1.2
323.15	.1	.2	1697.7	1.2
323.15	.1	.3	1688.2	1.2
323.15	.1	.4	1675.1	1.2
323.15	.1	.5	1659.2	1.2
323.15	.1	.6	1641.7	1.2
323.15	.1	.7	1627.3	1.2
323.15	.1	.8	1614.7	1.2
323.15	.2	.1	1664.9	1.2
323.15	.2	.2	1653.8	1.2
323.15	.2	.3	1638.2	1.2
323.15	.2	.4	1623.6	1.2
323.15	.2	.5	1607.2	1.2
323.15	.2	.6	1591.7	1.2
323.15	.2	.7	1580.4	1.2
323.15	.3	.1	1624.8	1.2
323.15	.3	.2	1609.9	1.2
323.15	.3	.3	1593.9	1.2
323.15	.3	.4	1577.9	1.2
323.15	.3	.5	1564.1	1.2
323.15	.3	.6	1557.8	1.2
323.15	.4	.1	1585	1.2
323.15	.4	.2	1568.5	1.2
323.15	.4	.3	1553.3	1.2
323.15	.4	.4	1540.4	1.2
323.15	.4	.5	1530.3	1.2
323.15	.5	.1	1549.4	1.2
323.15	.5	.2	1535.8	1.2
323.15	.5	.3	1521.2	1.2
323.15	.5	.4	1511.2	1.2
323.15	.6	.1	1520.7	1.2
323.15	.6	.2	1507	1.2
323.15	.6	.3	1495.9	1.2
323.15	.7	.1	1494.9	1.2
323.15	.7	.2	1483.8	1.2
323.15	.8	.1	1473.7	1.2

System: 2-aminoethanol + N-methyl-2-pyrrolidone + water; phases: Liquid
Fixed: Pressure, kPa = 100
Property: Viscosity, Pa*s (Liquid); method: Capillary tube (Ostwald; Ubbelohde) method
Temperature, K	Mole fraction of N-methyl-2-pyrrolidone	Mole fraction of 2-aminoethanol	Viscosity, Pa*s	uncertainty
298.15	.1	.1	.006261	.0000026
298.15	.1	.2	.009727	.0000026
298.15	.1	.3	.01294	.0000026
298.15	.1	.4	.01555	.0000026
298.15	.1	.5	.017132	.0000026
298.15	.1	.6	.018414	.0000026
298.15	.1	.7	.017534	.0000026
298.15	.1	.8	.017532	.0000026
303.15	.1	.1	.004175	.0000026
303.15	.1	.2	.00624	.0000026
303.15	.1	.3	.00859	.0000026
303.15	.1	.4	.01	.0000026
303.15	.1	.5	.010927	.0000026
303.15	.1	.6	.011513	.0000026
303.15	.1	.7	.011288	.0000026
303.15	.1	.8	.011354	.0000026
313.15	.1	.1	.002982	.0000026
313.15	.1	.2	.004323	.0000026
313.15	.1	.3	.005693	.0000026
313.15	.1	.4	.00657	.0000026
313.15	.1	.5	.007115	.0000026
313.15	.1	.6	.007488	.0000026
313.15	.1	.7	.007583	.0000026
313.15	.1	.8	.007494	.0000026
323.15	.1	.1	.002227	.0000026
323.15	.1	.2	.003172	.0000026
323.15	.1	.3	.00411	.0000026
323.15	.1	.4	.004713	.0000026
323.15	.1	.5	.004989	.0000026
323.15	.1	.6	.005279	.0000026
323.15	.1	.7	.005413	.0000026
323.15	.1	.8	.005365	.0000026
298.15	.2	.1	.008193	.0000026
298.15	.2	.2	.010167	.0000026
298.15	.2	.3	.011502	.0000026
298.15	.2	.4	.012128	.0000026
298.15	.2	.5	.012542	.0000026
298.15	.2	.6	.01253	.0000026
298.15	.2	.7	.012349	.0000026
303.15	.2	.1	.005289	.0000026
303.15	.2	.2	.006682	.0000026
303.15	.2	.3	.007531	.0000026
303.15	.2	.4	.008073	.0000026
303.15	.2	.5	.00821	.0000026
303.15	.2	.6	.008222	.0000026
303.15	.2	.7	.008182	.0000026
313.15	.2	.1	.003641	.0000026
313.15	.2	.2	.004479	.0000026
313.15	.2	.3	.005052	.0000026
313.15	.2	.4	.005417	.0000026
313.15	.2	.5	.005771	.0000026
313.15	.2	.6	.005807	.0000026
313.15	.2	.7	.005758	.0000026
323.15	.2	.1	.002677	.0000026
323.15	.2	.2	.00327	.0000026
323.15	.2	.3	.003678	.0000026
323.15	.2	.4	.00395	.0000026
323.15	.2	.5	.004043	.0000026
323.15	.2	.6	.004145	.0000026
323.15	.2	.7	.004234	.0000026
298.15	.3	.2	.0084	.0000026
298.15	.3	.3	.008856	.0000026
298.15	.3	.4	.00902	.0000026
298.15	.3	.5	.008885	.0000026
298.15	.3	.6	.009095	.0000026
298.15	.3	.1	.007872	.0000026
303.15	.3	.1	.005215	.0000026
303.15	.3	.2	.005626	.0000026
313.15	.3	.1	.003584	.0000026
313.15	.3	.2	.003917	.0000026
313.15	.3	.3	.004276	.0000026
313.15	.3	.4	.00437	.0000026
313.15	.3	.5	.004287	.0000026
313.15	.3	.6	.004392	.0000026
303.15	.3	.3	.005934	.0000026
303.15	.3	.4	.006108	.0000026
303.15	.3	.5	.005954	.0000026
303.15	.3	.6	.006097	.0000026
323.15	.3	.1	.002712	.0000026
323.15	.3	.2	.002919	.0000026
323.15	.3	.3	.003118	.0000026
323.15	.3	.4	.003246	.0000026
323.15	.3	.5	.003201	.0000026
323.15	.3	.6	.003306	.0000026
303.15	.4	.4	.004567	.0000026
303.15	.4	.5	.004493	.0000026
313.15	.4	.1	.003173	.0000026
313.15	.4	.2	.003279	.0000026
313.15	.4	.3	.003342	.0000026
313.15	.4	.4	.003328	.0000026
313.15	.4	.5	.003368	.0000026
298.15	.4	.4	.006305	.0000026
298.15	.4	.5	.006298	.0000026
298.15	.4	.1	.006207	.0000026
303.15	.4	.1	.004319	.0000026
303.15	.4	.2	.004476	.0000026
303.15	.4	.3	.004501	.0000026
298.15	.4	.2	.006314	.0000026
298.15	.4	.3	.006345	.0000026
323.15	.4	.1	.00245	.0000026
323.15	.4	.2	.002559	.0000026
323.15	.4	.3	.002522	.0000026
323.15	.4	.4	.002557	.0000026
323.15	.4	.5	.002606	.0000026
298.15	.5	.1	.004654	.0000026
298.15	.5	.2	.004705	.0000026
298.15	.5	.3	.004719	.0000026
298.15	.5	.4	.004699	.0000026
303.15	.5	.1	.003421	.0000026
303.15	.5	.2	.003484	.0000026
303.15	.5	.3	.003486	.0000026
313.15	.5	.1	.002603	.0000026
303.15	.5	.4	.003512	.0000026
313.15	.5	.2	.00266	.0000026
313.15	.5	.3	.002673	.0000026
313.15	.5	.4	.002707	.0000026
323.15	.5	.1	.002042	.0000026
323.15	.5	.2	.002098	.0000026
323.15	.5	.3	.002125	.0000026
323.15	.5	.4	.002152	.0000026
303.15	.6	.3	.002784	.0000026
298.15	.6	.1	.003607	.0000026
298.15	.6	.2	.003661	.0000026
313.15	.6	.1	.002177	.0000026
313.15	.6	.2	.002212	.0000026
298.15	.6	.3	.003636	.0000026
303.15	.6	.1	.002766	.0000026
313.15	.6	.3	.002235	.0000026
303.15	.6	.2	.002794	.0000026
323.15	.6	.1	.001757	.0000026
323.15	.6	.2	.00179	.0000026
323.15	.6	.3	.001817	.0000026
313.15	.7	.1	.001879	.0000026
298.15	.7	.1	.002891	.0000026
298.15	.7	.2	.002901	.0000026
313.15	.7	.2	.001918	.0000026
303.15	.7	.1	.002311	.0000026
303.15	.7	.2	.002354	.0000026
323.15	.7	.1	.001554	.0000026
323.15	.7	.2	.001577	.0000026
298.15	.8	.1	.002427	.0000026
313.15	.8	.1	.001645	.0000026
303.15	.8	.1	.001972	.0000026
323.15	.8	.1	.001394	.0000026
