Measured thermophysical data. Density, Viscosity, and Conductivity of Lewis Acidic 1-Butyl- and 1-Hydrogen-3-methylimidazolium Chloroaluminate Ionic Liquids
Source: J. Chem. Eng. Data, 2013, 10.1021/je3004904
Compound 1: 1-butyl-3-methylimidazolium chloride, C8H15ClN2, purity 99%
Compound 2: 1-methylimidazolium chloride, C4H7ClN2, purity 99%
Compound 3: aluminum trichloride, AlCl3, purity 98%

System: aluminum trichloride + 1-butyl-3-methylimidazolium chloride; phases: Liquid
Fixed: Pressure, kPa = 101
Property: Mass density, kg/m3 (Liquid); method: Vibrating tube method
Mole fraction of 1-butyl-3-methylimidazolium chloride	Temperature, K	Mass density, kg/m3	uncertainty
.455	293.15	1265.918	.03
.455	298.15	1261.813	.03
.455	303.15	1257.73	.03
.455	308.15	1253.668	.03
.455	313.15	1249.623	.03
.455	318.15	1245.597	.03
.455	323.15	1241.593	.03
.455	328.15	1237.615	.03
.455	333.15	1233.646	.03
.455	338.15	1229.698	.03
.455	343.15	1225.755	.03
.417	293.15	1287.782	.03
.417	298.15	1283.583	.03
.417	303.15	1279.396	.03
.417	308.15	1275.23	.03
.417	313.15	1271.085	.03
.417	318.15	1266.955	.03
.417	323.15	1262.847	.03
.417	328.15	1258.749	.03
.417	333.15	1254.665	.03
.417	338.15	1250.587	.03
.417	343.15	1246.505	.03
.385	293.15	1307.946	.03
.385	298.15	1303.622	.03
.385	303.15	1299.32	.03
.385	308.15	1295.035	.03
.385	313.15	1290.767	.03
.385	318.15	1286.508	.03
.385	323.15	1282.267	.03
.385	328.15	1278.025	.03
.385	333.15	1273.776	.03
.385	338.15	1269.506	.03
.385	343.15	1265.203	.03
.357	293.15	1326.919	.03
.357	298.15	1322.476	.03
.357	303.15	1318.051	.03
.357	308.15	1313.645	.03
.357	313.15	1309.259	.03
.357	318.15	1304.89	.03
.357	323.15	1300.535	.03
.357	328.15	1296.192	.03
.357	333.15	1291.873	.03
.357	338.15	1287.556	.03
.357	343.15	1283.228	.03
.333	293.15	1340.883	.03
.333	298.15	1336.321	.03
.333	303.15	1331.806	.03
.333	308.15	1327.321	.03
.333	313.15	1322.868	.03
.333	318.15	1318.436	.03
.333	323.15	1314.007	.03
.333	328.15	1309.593	.03
.333	333.15	1305.206	.03
.333	338.15	1300.828	.03
.333	343.15	1296.477	.03
.5	293.15	1242.174	.03
.47617	293.15	1254.063	.03
.45459	293.15	1265.526	.03
.43473	293.15	1276.82	.03
.41663	293.15	1287.554	.03
.39986	293.15	1297.823	.03
.3846	293.15	1307.375	.03
.37037	293.15	1316.517	.03
.35708	293.15	1325.12	.03
.34488	293.15	1333.153	.03
.33333	293.15	1340.883	.03
.5	303.15	1234.347	.03
.47617	303.15	1246.052	.03
.45459	303.15	1257.369	.03
.43473	303.15	1268.519	.03
.41663	303.15	1279.124	.03
.39986	303.15	1289.264	.03
.3846	303.15	1298.721	.03
.37037	303.15	1307.735	.03
.35708	303.15	1316.24	.03
.34488	303.15	1324.173	.03
.33333	303.15	1331.806	.03
.5	313.15	1226.587	.03
.47617	313.15	1238.113	.03
.45459	313.15	1249.291	.03
.43473	313.15	1260.309	.03
.41663	313.15	1270.789	.03
.39986	313.15	1280.803	.03
.3846	313.15	1290.169	.03
.37037	313.15	1299.072	.03
.35708	313.15	1307.485	.03
.34488	313.15	1315.324	.03
.33333	313.15	1322.868	.03
.5	323.15	1218.892	.03
.47617	323.15	1230.234	.03
.45459	323.15	1241.268	.03
.43473	323.15	1252.167	.03
.41663	323.15	1262.516	.03
.39986	323.15	1272.41	.03
.3846	323.15	1281.687	.03
.37037	323.15	1290.474	.03
.35708	323.15	1298.805	.03
.34488	323.15	1306.549	.03
.33333	323.15	1314.007	.03
.5	333.15	1211.253	.03
.47617	333.15	1222.402	.03
.45459	333.15	1233.283	.03
.43473	333.15	1244.075	.03
.41663	333.15	1254.294	.03
.39986	333.15	1264.065	.03
.3846	333.15	1273.259	.03
.37037	333.15	1281.928	.03
.35708	333.15	1290.182	.03
.34488	333.15	1297.834	.03
.33333	333.15	1305.206	.03
.5	343.15	1203.681	.03
.47617	343.15	1214.624	.03
.45459	343.15	1225.342	.03
.43473	343.15	1236.018	.03
.41663	343.15	1246.129	.03
.39986	343.15	1255.781	.03
.3846	343.15	1264.889	.03
.37037	343.15	1273.437	.03
.35708	343.15	1281.623	.03
.34488	343.15	1289.19	.03
.33333	343.15	1296.477	.03

System: aluminum trichloride + 1-butyl-3-methylimidazolium chloride; phases: Liquid
Fixed: Pressure, kPa = 101
Property: Viscosity, Pa*s (Liquid); method: Concentric cylinders viscometry
Mole fraction of 1-butyl-3-methylimidazolium chloride	Temperature, K	Viscosity, Pa*s	uncertainty
.455	293.15	.03503	.00017515
.455	298.15	.02892	.0001446
.455	303.15	.02435	.00012175
.455	308.15	.02084	.0001042
.455	313.15	.0181	.0000905
.455	318.15	.01592	.0000796
.455	323.15	.01415	.00007075
.455	328.15	.0127	.0000635
.455	333.15	.01149	.00005745
.455	338.15	.01048	.0000524
.455	343.15	.009627	.000048135
.417	293.15	.03037	.00015185
.417	298.15	.02524	.0001262
.417	303.15	.02138	.0001069
.417	308.15	.01831	.00009155
.417	313.15	.01603	.00008015
.417	318.15	.01415	.00007075
.417	323.15	.01261	.00006305
.417	328.15	.01134	.0000567
.417	333.15	.01029	.00005145
.417	338.15	.009395	.000046975
.417	343.15	.008636	.00004318
.385	293.15	.02691	.00013455
.385	298.15	.02259	.00011295
.385	303.15	.01934	.0000967
.385	308.15	.01672	.0000836
.385	313.15	.01461	.00007305
.385	318.15	.01278	.0000639
.385	323.15	.01156	.0000578
.385	328.15	.01045	.00005225
.385	333.15	.009497	.000047485
.385	338.15	.008691	.000043455
.385	343.15	.008013	.000040065
.357	293.15	.02438	.0001219
.357	298.15	.02062	.0001031
.357	303.15	.0177	.0000885
.357	308.15	.01539	.00007695
.357	313.15	.01354	.0000677
.357	318.15	.01204	.0000602
.357	323.15	.0108	.000054
.357	328.15	.009758	.00004879
.357	333.15	.008884	.00004442
.357	338.15	.00814	.0000407
.357	343.15	.007501	.000037505
.333	293.15	.02254	.0001127
.333	298.15	.01942	.0000971
.333	303.15	.01673	.00008365
.333	308.15	.01459	.00007295
.333	313.15	.01287	.00006435
.333	318.15	.01135	.00005675
.333	323.15	.01017	.00005085
.333	328.15	.009046	.00004523
.333	333.15	.008231	.000041155
.333	338.15	.007433	.000037165
.333	343.15	.006824	.00003412
.5	293.15	.04163	.00020815
.47617	293.15	.03828	.0001914
.45459	293.15	.03499	.00017495
.43473	293.15	.03226	.0001613
.41663	293.15	.03034	.0001517
.39986	293.15	.02834	.0001417
.3846	293.15	.02689	.00013445
.37037	293.15	.02531	.00012655
.35708	293.15	.02435	.00012175
.34488	293.15	.02344	.0001172
.33333	293.15	.02254	.0001127
.5	303.15	.02833	.00014165
.47617	303.15	.02636	.0001318
.45459	303.15	.02432	.0001216
.43473	303.15	.02262	.0001131
.41663	303.15	.02136	.0001068
.39986	303.15	.0202	.000101
.3846	303.15	.01933	.00009665
.37037	303.15	.01829	.00009145
.35708	303.15	.01768	.0000884
.34488	303.15	.0171	.0000855
.33333	303.15	.01673	.00008365
.5	313.15	.02076	.0001038
.47617	313.15	.01948	.0000974
.45459	313.15	.01808	.0000904
.43473	313.15	.01692	.0000846
.41663	313.15	.01601	.00008005
.39986	313.15	.01528	.0000764
.3846	313.15	.01459	.00007295
.37037	313.15	.01396	.0000698
.35708	313.15	.01353	.00006765
.34488	313.15	.01312	.0000656
.33333	313.15	.01287	.00006435
.5	323.15	.01606	.0000803
.47617	323.15	.01516	.0000758
.45459	323.15	.01413	.00007065
.43473	323.15	.01329	.00006645
.41663	323.15	.0126	.000063
.39986	323.15	.01209	.00006045
.3846	323.15	.01155	.00005775
.37037	323.15	.01112	.0000556
.35708	323.15	.01078	.0000539
.34488	323.15	.01048	.0000524
.33333	323.15	.01017	.00005085
.5	333.15	.01295	.00006475
.47617	333.15	.01228	.0000614
.45459	333.15	.01147	.00005735
.43473	333.15	.01083	.00005415
.41663	333.15	.01028	.0000514
.39986	333.15	.009902	.00004951
.3846	333.15	.009492	.00004746
.37037	333.15	.009149	.000045745
.35708	333.15	.008881	.000044405
.34488	333.15	.008629	.000043145
.33333	333.15	.008231	.000041155
.5	343.15	.01078	.0000539
.47617	343.15	.01026	.0000513
.45459	343.15	.009626	.00004813
.43473	343.15	.009087	.000045435
.41663	343.15	.008633	.000043165
.39986	343.15	.008341	.000041705
.3846	343.15	.008011	.000040055
.37037	343.15	.007729	.000038645
.35708	343.15	.007499	.000037495
.34488	343.15	.007209	.000036045
.33333	343.15	.006824	.00003412

System: aluminum trichloride + 1-butyl-3-methylimidazolium chloride; phases: Liquid
Fixed: Pressure, kPa = 101
Property: Electrical conductivity, S/m (Liquid); method: Conductivity Meter (FE30, Mettler Toledo Int. Inc., Switzerland)
Mole fraction of 1-butyl-3-methylimidazolium chloride	Temperature, K	Electrical conductivity, S/m	uncertainty
.455	298.15	.98	.0049
.455	303.15	1.144	.00572
.455	308.15	1.321	.006605
.455	313.15	1.511	.007555
.455	318.15	1.713	.008565
.455	323.15	1.926	.00963
.455	328.15	2.151	.010755
.455	333.15	2.386	.01193
.455	338.15	2.631	.013155
.455	343.15	2.884	.01442
.417	298.15	.947	.004735
.417	303.15	1.096	.00548
.417	308.15	1.264	.00632
.417	313.15	1.439	.007195
.417	318.15	1.627	.008135
.417	323.15	1.831	.009155
.417	328.15	2.038	.01019
.417	333.15	2.262	.01131
.417	338.15	2.493	.012465
.417	343.15	2.729	.013645
.385	298.15	.931	.004655
.385	303.15	1.073	.005365
.385	308.15	1.228	.00614
.385	313.15	1.387	.006935
.385	318.15	1.575	.007875
.385	323.15	1.756	.00878
.385	328.15	1.948	.00974
.385	333.15	2.162	.01081
.385	338.15	2.379	.011895
.385	343.15	2.605	.013025
.357	298.15	.919	.004595
.357	303.15	1.06	.0053
.357	308.15	1.207	.006035
.357	313.15	1.361	.006805
.357	318.15	1.522	.00761
.357	323.15	1.693	.008465
.357	328.15	1.876	.00938
.357	333.15	2.072	.01036
.357	338.15	2.281	.011405
.357	343.15	2.497	.012485
.333	298.15	.912	.00456
.333	303.15	1.051	.005255
.333	308.15	1.195	.005975
.333	313.15	1.344	.00672
.333	318.15	1.499	.007495
.333	323.15	1.661	.008305
.333	328.15	1.83	.00915
.333	333.15	2.008	.01004
.333	338.15	2.196	.01098
.333	343.15	2.395	.011975

System: aluminum trichloride + 1-methylimidazolium chloride; phases: Liquid
Fixed: Pressure, kPa = 101
Property: Mass density, kg/m3 (Liquid); method: Vibrating tube method
Mole fraction of 1-methylimidazolium chloride	Temperature, K	Mass density, kg/m3	uncertainty
.357	293.15	1487.071	.03
.357	298.15	1482.258	.03
.357	303.15	1477.51	.03
.357	308.15	1472.778	.03
.357	313.15	1468.037	.03
.357	318.15	1463.342	.03
.357	323.15	1458.636	.03
.357	328.15	1453.944	.03
.357	333.15	1449.284	.03
.357	338.15	1444.646	.03
.357	343.15	1440.044	.03
.333	293.15	1495.185	.03
.333	298.15	1490.335	.03
.333	303.15	1485.655	.03
.333	308.15	1480.895	.03
.333	313.15	1476.2	.03
.333	318.15	1471.48	.03
.333	323.15	1466.775	.03
.333	328.15	1462.076	.03
.333	333.15	1457.383	.03
.333	338.15	1452.697	.03
.333	343.15	1448.145	.03

System: aluminum trichloride + 1-methylimidazolium chloride; phases: Liquid
Fixed: Pressure, kPa = 101
Property: Viscosity, Pa*s (Liquid); method: Concentric cylinders viscometry
Mole fraction of 1-methylimidazolium chloride	Temperature, K	Viscosity, Pa*s	uncertainty
.357	293.15	.07829	.00039145
.357	298.15	.05941	.00029705
.357	303.15	.04688	.0002344
.357	308.15	.03817	.00019085
.357	313.15	.03187	.00015935
.357	318.15	.02717	.00013585
.357	323.15	.02358	.0001179
.357	328.15	.02075	.00010375
.357	333.15	.0185	.0000925
.357	338.15	.01667	.00008335
.357	343.15	.01515	.00007575
.333	293.15	.0508	.000254
.333	298.15	.04023	.00020115
.333	303.15	.03279	.00016395
.333	308.15	.02736	.0001368
.333	313.15	.02328	.0001164
.333	318.15	.02013	.00010065
.333	323.15	.01766	.0000883
.333	328.15	.01567	.00007835
.333	333.15	.01406	.0000703
.333	338.15	.01272	.0000636
.333	343.15	.01161	.00005805

System: aluminum trichloride + 1-methylimidazolium chloride; phases: Liquid
Fixed: Pressure, kPa = 101
Property: Electrical conductivity, S/m (Liquid); method: Conductivity Meter (FE30, Mettler Toledo Int. Inc., Switzerland)
Mole fraction of 1-methylimidazolium chloride	Temperature, K	Electrical conductivity, S/m	uncertainty
.357	298.15	.456	.00228
.357	303.15	.553	.002765
.357	308.15	.661	.003305
.357	313.15	.782	.00391
.357	318.15	.909	.004545
.357	323.15	1.049	.005245
.357	328.15	1.198	.00599
.357	333.15	1.358	.00679
.357	338.15	1.526	.00763
.357	343.15	1.703	.008515
.333	298.15	.601	.003005
.333	303.15	.709	.003545
.333	308.15	.827	.004135
.333	313.15	.961	.004805
.333	318.15	1.098	.00549
.333	323.15	1.245	.006225
.333	328.15	1.402	.00701
.333	333.15	1.565	.007825
.333	338.15	1.738	.00869
.333	343.15	1.923	.009615
