Measured thermophysical data. Volumetric Study for the Binary Nitromethane with Chloroalkane Mixtures at Temperatures in the Range (298.15 to 318.15) K
Source: J. Chem. Eng. Data, 2013, 10.1021/je3013342
Compound 1: nitromethane, CH3NO2, purity 98.7%
Compound 2: acetylene tetrachloride, C2H2Cl4, purity 98%
Compound 3: methylchloroform, C2H3Cl3, purity 99%
Compound 4: freon 20, CHCl3, purity 99%
Compound 5: 1,2-dichloroethane, C2H4Cl2, purity 99.8%
Compound 6: R 270fa, C3H6Cl2, purity 99.6%
Compound 7: butane, 1,4-dichloro-, C4H8Cl2, purity 99.8%
Compound 8: butane, 1-chloro-, C4H9Cl, purity 99.6%
Compound 9: amyl chloride, C5H11Cl, purity 99.8%

System: nitromethane; phases: Liquid
Property: Mass density, kg/m3 (Liquid); method: Vibrating tube method
Temperature, K	Pressure, kPa	Mass density, kg/m3	uncertainty
298.15	101	1130.86	.4
308.15	101	1117.24	.4
318.15	101	1103.5	.4
298.15	101	1130.91	.4
308.15	101	1117.29	.4
318.15	101	1103.55	.4
298.15	101	1130.9	.4
308.15	101	1117.28	.4
318.15	101	1103.53	.4
298.15	101	1130.95	.4
308.15	101	1117.32	.4
318.15	101	1103.57	.4
298.15	101	1130.76	.4
308.15	101	1117.14	.4
318.15	101	1103.39	.4
308.15	101	1117.23	.4
318.15	101	1103.48	.4

System: acetylene tetrachloride; phases: Liquid
Property: Mass density, kg/m3 (Liquid); method: Vibrating tube method
Temperature, K	Pressure, kPa	Mass density, kg/m3	uncertainty
298.15	101	1588.23	.4
308.15	101	1572.66	.4
318.15	101	1557.04	.4

System: methylchloroform; phases: Liquid
Property: Mass density, kg/m3 (Liquid); method: Vibrating tube method
Temperature, K	Pressure, kPa	Mass density, kg/m3	uncertainty
298.15	101	1328.24	.4
308.15	101	1311.45	.4
318.15	101	1294.47	.4

System: freon 20; phases: Liquid
Property: Mass density, kg/m3 (Liquid); method: Vibrating tube method
Temperature, K	Pressure, kPa	Mass density, kg/m3	uncertainty
298.15	101	1473.42	.4
308.15	101	1454.33	.4
318.15	101	1434.98	.4

System: 1,2-dichloroethane; phases: Liquid
Property: Mass density, kg/m3 (Liquid); method: Vibrating tube method
Temperature, K	Pressure, kPa	Mass density, kg/m3	uncertainty
298.15	101	1245.59	.4
308.15	101	1230.96	.4
318.15	101	1216.16	.4

System: R 270fa; phases: Liquid
Property: Mass density, kg/m3 (Liquid); method: Vibrating tube method
Temperature, K	Pressure, kPa	Mass density, kg/m3	uncertainty
298.15	101	1180.1	.4
308.15	101	1167.7	.4
318.15	101	1155.21	.4

System: butane, 1,4-dichloro-; phases: Liquid
Property: Mass density, kg/m3 (Liquid); method: Vibrating tube method
Temperature, K	Pressure, kPa	Mass density, kg/m3	uncertainty
298.15	101	1133.94	.4
308.15	101	1123	.4
318.15	101	1112	.4

System: butane, 1-chloro-; phases: Liquid
Property: Mass density, kg/m3 (Liquid); method: Vibrating tube method
Temperature, K	Pressure, kPa	Mass density, kg/m3	uncertainty
298.15	101	881.17	.4
308.15	101	870	.4
318.15	101	858.67	.4

System: amyl chloride; phases: Liquid
Property: Mass density, kg/m3 (Liquid); method: Vibrating tube method
Temperature, K	Pressure, kPa	Mass density, kg/m3	uncertainty
298.15	101	877.09	.4
308.15	101	866.97	.4
318.15	101	856.73	.4

System: nitromethane + acetylene tetrachloride; phases: Liquid
Fixed: Pressure, kPa = 101
Property: Mass density, kg/m3 (Liquid); method: Vibrating tube method
Temperature, K	Mole fraction of acetylene tetrachloride	Mass density, kg/m3	uncertainty
298.15	0	1130.86	.4
298.15	.0711	1191.08	.4
298.15	.1888	1275.68	.4
298.15	.2563	1318	.4
298.15	.3464	1366.65	.4
298.15	.4341	1408.57	.4
298.15	.5431	1454.03	.4
298.15	.6654	1497.84	.4
298.15	.8211	1544.6	.4
298.15	.9285	1571.92	.4
298.15	1	1588.23	.4
308.15	0	1117.24	.4
308.15	.0711	1177.12	.4
308.15	.1888	1261.26	.4
308.15	.2563	1303.41	.4
308.15	.3464	1351.85	.4
308.15	.4341	1393.61	.4
308.15	.5431	1438.91	.4
308.15	.6654	1482.56	.4
308.15	.8211	1529.17	.4
308.15	.9285	1556.4	.4
308.15	1	1572.66	.4
318.15	0	1103.5	.4
318.15	.0711	1163.03	.4
318.15	.1888	1246.76	.4
318.15	.2563	1288.69	.4
318.15	.3464	1336.94	.4
318.15	.4341	1378.54	.4
318.15	.5431	1423.68	.4
318.15	.6654	1467.2	.4
318.15	.8211	1513.67	.4
318.15	.9285	1540.82	.4
318.15	1	1557.04	.4

System: methylchloroform + nitromethane; phases: Liquid
Fixed: Pressure, kPa = 101
Property: Mass density, kg/m3 (Liquid); method: Vibrating tube method
Temperature, K	Mole fraction of methylchloroform	Mass density, kg/m3	uncertainty
298.15	0	1130.91	.4
298.15	.0921	1161.87	.4
298.15	.1727	1185.48	.4
298.15	.2614	1208.35	.4
298.15	.3951	1238.06	.4
298.15	.4862	1255.6	.4
298.15	.5904	1273.47	.4
298.15	.7066	1291.18	.4
298.15	.8358	1308.67	.4
298.15	.9012	1316.72	.4
298.15	1	1328.24	.4
308.15	0	1117.29	.4
308.15	.0921	1147.77	.4
308.15	.1727	1170.98	.4
308.15	.2614	1193.5	.4
308.15	.3951	1222.71	.4
308.15	.4862	1239.96	.4
308.15	.5904	1257.52	.4
308.15	.7066	1274.93	.4
308.15	.8358	1292.14	.4
308.15	.9012	1300.08	.4
308.15	1	1311.45	.4
318.15	0	1103.55	.4
318.15	.0921	1133.54	.4
318.15	.1727	1156.35	.4
318.15	.2614	1178.49	.4
318.15	.3951	1207.19	.4
318.15	.4862	1224.13	.4
318.15	.5904	1241.39	.4
318.15	.7066	1258.49	.4
318.15	.8358	1275.42	.4
318.15	.9012	1283.24	.4
318.15	1	1294.47	.4

System: nitromethane + 1,2-dichloroethane; phases: Liquid
Fixed: Pressure, kPa = 101
Property: Mass density, kg/m3 (Liquid); method: Vibrating tube method
Temperature, K	Mole fraction of 1,2-dichloroethane	Mass density, kg/m3	uncertainty
298.15	0	1130.86	.4
298.15	.1132	1147.31	.4
298.15	.2235	1162.54	.4
298.15	.3249	1175.69	.4
298.15	.4672	1192.94	.4
298.15	.5586	1203.25	.4
298.15	.6264	1210.49	.4
298.15	.7349	1221.8	.4
298.15	.857	1233.37	.4
298.15	.923	1239.2	.4
298.15	1	1245.59	.4
308.15	0	1117.24	.4
308.15	.1132	1133.59	.4
308.15	.2235	1148.71	.4
308.15	.3249	1161.77	.4
308.15	.4672	1178.89	.4
308.15	.5586	1189.11	.4
308.15	.6264	1196.29	.4
308.15	.7349	1207.48	.4
308.15	.857	1218.91	.4
308.15	.923	1224.67	.4
308.15	1	1230.96	.4
318.15	0	1103.5	.4
318.15	.1132	1119.73	.4
318.15	.2235	1134.75	.4
318.15	.3249	1147.71	.4
318.15	.4672	1164.69	.4
318.15	.5586	1174.81	.4
318.15	.6264	1181.96	.4
318.15	.7349	1192.99	.4
318.15	.857	1204.28	.4
318.15	.923	1209.97	.4
318.15	1	1216.16	.4

System: nitromethane + R 270fa; phases: Liquid
Fixed: Pressure, kPa = 101
Property: Mass density, kg/m3 (Liquid); method: Vibrating tube method
Temperature, K	Mole fraction of R 270fa	Mass density, kg/m3	uncertainty
298.15	0	1130.9	.4
298.15	.0878	1135.58	.4
298.15	.1939	1141.34	.4
298.15	.2938	1146.79	.4
298.15	.3998	1152.41	.4
298.15	.5028	1157.65	.4
298.15	.6154	1163.15	.4
298.15	.7207	1168.07	.4
298.15	.8326	1173.04	.4
298.15	.9404	1177.55	.4
298.15	1	1180.1	.4
308.15	0	1117.28	.4
308.15	.0878	1122.12	.4
308.15	.1939	1128.05	.4
308.15	.2938	1133.64	.4
308.15	.3998	1139.39	.4
308.15	.5028	1144.76	.4
308.15	.6154	1150.38	.4
308.15	.7207	1155.41	.4
308.15	.8326	1160.49	.4
308.15	.9404	1165.1	.4
308.15	1	1167.7	.4
318.15	0	1103.53	.4
318.15	.0878	1108.53	.4
318.15	.1939	1114.63	.4
318.15	.2938	1120.37	.4
318.15	.3998	1126.26	.4
318.15	.5028	1131.76	.4
318.15	.6154	1137.51	.4
318.15	.7207	1142.65	.4
318.15	.8326	1147.84	.4
318.15	.9404	1152.56	.4
318.15	1	1155.21	.4

System: nitromethane + butane, 1,4-dichloro-; phases: Liquid
Fixed: Pressure, kPa = 101
Property: Mass density, kg/m3 (Liquid); method: Vibrating tube method
Temperature, K	Mole fraction of butane, 1,4-dichloro-	Mass density, kg/m3	uncertainty
298.15	0	1130.95	.4
298.15	.0825	1128.17	.4
298.15	.1759	1126.77	.4
298.15	.2825	1126.33	.4
298.15	.3815	1126.62	.4
298.15	.4815	1127.33	.4
298.15	.5911	1128.46	.4
298.15	.6898	1129.64	.4
298.15	.8208	1131.38	.4
298.15	.9262	1132.86	.4
298.15	1	1133.94	.4
308.15	0	1117.32	.4
308.15	.0825	1114.98	.4
308.15	.1759	1113.92	.4
308.15	.2825	1113.86	.4
308.15	.3815	1114.44	.4
308.15	.4815	1115.42	.4
308.15	.5911	1116.8	.4
308.15	.6898	1118.18	.4
308.15	.8208	1120.16	.4
308.15	.9262	1121.81	.4
308.15	1	1123	.4
318.15	0	1103.57	.4
318.15	.0825	1101.65	.4
318.15	.1759	1100.97	.4
318.15	.2825	1101.28	.4
318.15	.3815	1102.17	.4
318.15	.4815	1103.42	.4
318.15	.5911	1105.05	.4
318.15	.6898	1106.65	.4
318.15	.8208	1108.88	.4
318.15	.9262	1110.7	.4
318.15	1	1112	.4

System: nitromethane + butane, 1-chloro-; phases: Liquid
Fixed: Pressure, kPa = 101
Property: Mass density, kg/m3 (Liquid); method: Vibrating tube method
Temperature, K	Mole fraction of butane, 1-chloro-	Mass density, kg/m3	uncertainty
298.15	0	1130.76	.4
298.15	.1107	1080.18	.4
298.15	.2174	1040.11	.4
298.15	.3236	1007.02	.4
298.15	.3932	987.92	.4
298.15	.4856	965.38	.4
298.15	.5569	949.92	.4
298.15	.6626	929.96	.4
298.15	.7722	911.75	.4
298.15	.8646	898.07	.4
298.15	1	881.17	.4
308.15	0	1117.14	.4
308.15	.1107	1067	.4
308.15	.2174	1027.27	.4
308.15	.3236	994.47	.4
308.15	.3932	975.54	.4
308.15	.4856	953.21	.4
308.15	.5569	937.92	.4
308.15	.6626	918.09	.4
308.15	.7722	900.15	.4
308.15	.8646	886.65	.4
308.15	1	870	.4
318.15	0	1103.39	.4
318.15	.1107	1053.7	.4
318.15	.2174	1014.29	.4
318.15	.3236	982.09	.4
318.15	.3932	963.01	.4
318.15	.4856	940.87	.4
318.15	.5569	925.76	.4
318.15	.6626	906.2	.4
318.15	.7722	888.4	.4
318.15	.8646	875.07	.4
318.15	1	858.67	.4

System: nitromethane + amyl chloride; phases: Liquid
Fixed: Pressure, kPa = 101
Property: Mass density, kg/m3 (Liquid); method: Vibrating tube method
Temperature, K	Mole fraction of amyl chloride	Mass density, kg/m3	uncertainty
298.15	0	1130.86	.4
298.15	.1043	1075.06	.4
298.15	.1721	1045.39	.4
298.15	.2575	1014.58	.4
298.15	.3466	987.6	.4
298.15	.4525	960.73	.4
298.15	.5435	941.21	.4
298.15	.6864	916.34	.4
298.15	.8325	895.75	.4
298.15	.8859	889.18	.4
298.15	1	877.09	.4
308.15	0	1117.23	.4
308.15	.1043	1062.09	.4
308.15	.1721	1032.77	.4
308.15	.2575	1002.33	.4
308.15	.3466	975.7	.4
308.15	.4525	949.19	.4
308.15	.5435	929.96	.4
308.15	.6864	905.49	.4
308.15	.8325	885.27	.4
308.15	.8859	878.82	.4
308.15	1	866.97	.4
318.15	0	1103.48	.4
318.15	.1043	1048.99	.4
318.15	.1721	1020.02	.4
318.15	.2575	989.95	.4
318.15	.3466	963.67	.4
318.15	.4525	937.53	.4
318.15	.5435	918.59	.4
318.15	.6864	894.51	.4
318.15	.8325	874.65	.4
318.15	.8859	868.33	.4
318.15	1	856.73	.4

System: freon 20 + nitromethane; phases: Liquid
Fixed: Pressure, kPa = 101
Property: Mass density, kg/m3 (Liquid); method: Vibrating tube method
Temperature, K	Mole fraction of freon 20	Mass density, kg/m3	uncertainty
298.15	0	1130.86	.4
298.15	.1197	1189.05	.4
298.15	.1772	1214.82	.4
298.15	.3007	1265.96	.4
298.15	.4009	1303.55	.4
298.15	.5	1337.74	.4
298.15	.5978	1368.78	.4
298.15	.7194	1404.19	.4
298.15	.8607	1441.14	.4
298.15	.9562	1463.58	.4
298.15	1	1473.42	.4
308.15	0	1117.24	.4
308.15	.1197	1174.6	.4
308.15	.1772	1200	.4
308.15	.3007	1250.36	.4
308.15	.4009	1287.37	.4
308.15	.5	1321	.4
308.15	.5978	1351.55	.4
308.15	.7194	1386.34	.4
308.15	.8607	1422.65	.4
308.15	.9562	1444.71	.4
308.15	1	1454.33	.4
318.15	0	1103.5	.4
318.15	.1197	1160.01	.4
318.15	.1772	1185.02	.4
318.15	.3007	1234.59	.4
318.15	.4009	1271	.4
318.15	.5	1304.11	.4
318.15	.5978	1334.09	.4
318.15	.7194	1368.25	.4
318.15	.8607	1403.89	.4
318.15	.9562	1425.56	.4
318.15	1	1434.98	.4
