Measured thermophysical data. Ternary and Quaternary Liquid Liquid Equilibria for Systems of Water + Methanol + Methylanthranilate + Toluene at Different Temperatures
Source: J. Chem. Eng. Data, 2012, 10.1021/je300585v
Compound 1: methanol, CH4O, purity 99.8%
Compound 2: methyl anthranilate, C8H9NO2, purity 99.8%
Compound 3: phenylmethane, C7H8, purity 99.8%
Compound 4: water, H2O

System: phenylmethane + methyl anthranilate + water; phases: Liquid mixture 1, Liquid mixture 2
Fixed: Pressure, kPa = 101
Property: Mass fraction of water (Liquid mixture 1); method: Chromatography
Property: Mass fraction of water (Liquid mixture 2); method: Chromatography
Property: Mass fraction of phenylmethane (Liquid mixture 2); method: Chromatography
Temperature, K	Mass fraction of phenylmethane	Mass fraction of water	uncertainty	Mass fraction of water	uncertainty	Mass fraction of phenylmethane	uncertainty
298.15	0	.0097	.01	.9969	.01	0	.01
298.15	.442	.0036	.01	.9986	.01	.0002	.01
298.15	.6566	.0014	.01	.9987	.01	.0002	.01
298.15	.7942	.0013	.01	.9987	.01	.0003	.01
298.15	.8774	.0012	.01	.9988	.01	.0003	.01
298.15	.8882	.0011	.01	.9988	.01	.0004	.01
298.15	.892	.001	.01	.9988	.01	.0004	.01
298.15	.9125	.0008	.01	.9988	.01	.0005	.01
298.15	.9541	.0007	.01	.9992	.01	.0005	.01
298.15	.9995	.0005	.01	.9995	.01	.0005	.01
313.15	0	.0179	.01	.9942	.01	0	.01
313.15	.57	.0018	.01	.9982	.01	.0005	.01
313.15	.6579	.0007	.01	.9982	.01	.0006	.01
313.15	.7223	.0007	.01	.9984	.01	.0006	.01
313.15	.806	.0007	.01	.9984	.01	.0007	.01
313.15	.8511	.0009	.01	.9984	.01	.0007	.01
313.15	.8815	.0005	.01	.9985	.01	.0007	.01
313.15	.9058	.0008	.01	.9985	.01	.0008	.01
313.15	.9405	.0007	.01	.9988	.01	.0007	.01
313.15	.9613	.0008	.01	.999	.01	.0007	.01
313.15	.9992	.0008	.01	.9992	.01	.0008	.01
323.15	.99941	.00059	.01	.999	.01	.001	.01
323.15	.9771	.0015	.01	.9981	.01	.001	.01
323.15	.9611	.0016	.01	.9976	.01	.001	.01
323.15	.9437	.0017	.01	.9972	.01	.0009	.01
323.15	.9195	.0019	.01	.9966	.01	.0009	.01
323.15	.879	.0024	.01	.9959	.01	.0009	.01
323.15	.847	.0027	.01	.9955	.01	.0009	.01
323.15	.7598	.0039	.01	.9949	.01	.0009	.01
323.15	.6794	.0052	.01	.9946	.01	.0009	.01
323.15	.5735	.0072	.01	.9943	.01	.0009	.01
323.15	.5223	.0083	.01	.9941	.01	.0009	.01
323.15	.4966	.0089	.01	.994	.01	.0009	.01
323.15	0	.0246	.01	.9909	.01	0	.01

System: methanol + phenylmethane + water; phases: Liquid mixture 1, Liquid mixture 2
Fixed: Pressure, kPa = 101
Property: Mass fraction of water (Liquid mixture 1); method: Chromatography
Property: Mass fraction of methanol (Liquid mixture 2); method: Chromatography
Property: Mass fraction of water (Liquid mixture 2); method: Chromatography
Temperature, K	Mass fraction of methanol	Mass fraction of water	uncertainty	Mass fraction of methanol	uncertainty	Mass fraction of water	uncertainty
298.15	0	.0009	.01	.0246	.01	.9749	.01
298.15	.0006	.0008	.01	.0284	.01	.9701	.01
298.15	.0033	.0008	.01	.2022	.01	.7964	.01
298.15	.0053	.0006	.01	.3034	.01	.6949	.01
298.15	.011	.0014	.01	.4112	.01	.5776	.01
298.15	.0157	.0019	.01	.5882	.01	.3802	.01
298.15	.0222	.0014	.01	.6149	.01	.3257	.01
298.15	.0272	.0029	.01	.6536	.01	.2706	.01
298.15	.0393	.0028	.01	.67	.01	.2267	.01
298.15	.0492	.0027	.01	.651	.01	.1719	.01
298.15	.051	.0035	.01	.661	.01	.1747	.01
313.15	0	.0008	.01	0	.01	.9992	.01
313.15	.0078	.0012	.01	.0844	.01	.9142	.01
313.15	.0153	.0015	.01	.1556	.01	.8419	.01
313.15	.0225	.0019	.01	.2164	.01	.7795	.01
313.15	.0297	.0022	.01	.2686	.01	.7252	.01
313.15	.0368	.0026	.01	.3139	.01	.6773	.01
313.15	.051	.0034	.01	.3877	.01	.5967	.01
313.15	.0727	.0047	.01	.4677	.01	.5027	.01
313.15	.088	.0058	.01	.506	.01	.4525	.01
313.15	.1121	.0077	.01	.5473	.01	.39	.01
313.15	.1576	.0121	.01	.5849	.01	.309	.01
323.15	0	.0009	.01	0	.01	.999	.01
323.15	.0135	.0019	.01	.0794	.01	.9187	.01
323.15	.0271	.0026	.01	.1467	.01	.85	.01
323.15	.041	.0035	.01	.2042	.01	.7905	.01
323.15	.0551	.0045	.01	.2538	.01	.7385	.01
323.15	.0845	.0069	.01	.3341	.01	.6513	.01
323.15	.1315	.0118	.01	.4206	.01	.5501	.01
323.15	.1646	.0162	.01	.4623	.01	.4958	.01
323.15	.1988	.0214	.01	.4948	.01	.4485	.01
323.15	.2692	.0352	.01	.5387	.01	.3681	.01
323.15	.3236	.0492	.01	.557	.01	.3148	.01
