Measured thermophysical data. Solvent Effects on Vapor Liquid Equilibria of the Binary System 1-Hexene + n-Hexane
Source: J. Chem. Eng. Data, 2012, 10.1021/je3009599
Compound 1: n-hexane, C6H14, purity 99.5%
Compound 2: 1-hexene, C6H12, purity 99%
Compound 3: ethyl butyrate, C6H12O2, purity 99%
Compound 4: 2-pentanol, C5H12O, purity 99%

System: ethyl butyrate; phases: Liquid, Gas
Property: Vapor or sublimation pressure, kPa (Liquid); method: Ebulliometric method (Recirculating still)
Temperature, K	Vapor or sublimation pressure, kPa	uncertainty
348.97	22.5	.05
351.83	25	.05
354.39	27.5	.05
356.76	30.03	.05
359	32.51	.05
361.08	35.02	.05
363.04	37.52	.05
364.86	40.04	.05
366.66	42.51	.05
368.24	45.03	.05
369.87	47.51	.05
371.44	50.01	.05
372.86	52.51	.05
374.31	55.03	.05
375.67	57.52	.05
376.95	60	.05
379.48	65.03	.05
380.68	67.53	.05
381.82	70	.05
382.96	72.52	.05
384.07	75.01	.05
385.13	77.51	.05
386.19	79.99	.05
387.22	82.52	.05
388.21	85.02	.05
389.17	87.54	.05
390.12	89.98	.05
391.06	92.53	.05
391.95	94.92	.05
392.83	97.45	.05
393.71	100.01	.05
394.13	101.31	.05

System: 2-pentanol; phases: Liquid, Gas
Property: Vapor or sublimation pressure, kPa (Liquid); method: Ebulliometric method (Recirculating still)
Temperature, K	Vapor or sublimation pressure, kPa	uncertainty
354.47	22.55	.05
356.6	25.05	.05
358.86	27.47	.05
360.81	30.03	.05
362.76	32.55	.05
364.38	35.08	.05
366	37.56	.05
367.49	40.03	.05
369.03	42.51	.05
370.52	45.07	.05
371.77	47.54	.05
373.05	50.02	.05
374.33	52.58	.05
375.51	55.03	.05
376.68	57.48	.05
377.81	60.03	.05
378.95	62.45	.05
379.97	65.05	.05
381.01	67.58	.05
381.96	70.03	.05
382.9	72.56	.05
383.88	75.05	.05
384.79	77.59	.05
385.64	80.03	.05
386.56	82.58	.05
387.35	85.01	.05
388.19	87.55	.05
389	90.09	.05
389.76	92.52	.05
390.55	95.02	.05
391.31	97.55	.05
392.07	100.03	.05
392.26	101.38	.05

System: ethyl butyrate + 1-hexene; phases: Gas, Liquid
Property: Mole fraction of 1-hexene (Gas); method: Chromatography
Mole fraction of 1-hexene	Pressure, kPa	Mole fraction of 1-hexene	uncertainty
.027	100	.133	.001
.069	100	.3	.001
.112	100	.433	.001
.16	100	.535	.001
.198	100	.603	.001
.256	100	.686	.001
.318	100	.749	.001
.351	100	.779	.001
.426	100	.825	.001
.468	100	.85	.001
.525	100	.876	.001
.573	100	.896	.001
.63	100	.916	.001
.679	100	.931	.001
.735	100	.943	.001
.804	100	.96	.001
.851	100	.97	.001
.905	100	.984	.001

System: ethyl butyrate + 1-hexene; phases: Liquid, Gas
Property: Boiling temperature at pressure P, K (Liquid); method: Ebulliometric method (Recirculating still)
Mole fraction of 1-hexene	Pressure, kPa	Boiling temperature at pressure P, K	uncertainty
.027	100	389.91	.02
.069	100	384.16	.02
.112	100	378.87	.02
.16	100	374.16	.02
.198	100	370.93	.02
.256	100	366.17	.02
.318	100	362.24	.02
.351	100	359.78	.02
.426	100	356.05	.02
.468	100	353.79	.02
.525	100	351.38	.02
.573	100	349.22	.02
.63	100	347.45	.02
.679	100	345.55	.02
.735	100	343.8	.02
.804	100	342.17	.02
.851	100	340.51	.02
.905	100	339.04	.02

System: ethyl butyrate + n-hexane; phases: Gas, Liquid
Property: Mole fraction of n-hexane (Gas); method: Chromatography
Mole fraction of n-hexane	Pressure, kPa	Mole fraction of n-hexane	uncertainty
.015	100	.085	.001
.038	100	.192	.001
.098	100	.398	.001
.148	100	.517	.001
.195	100	.596	.001
.251	100	.671	.001
.294	100	.709	.001
.373	100	.778	.001
.418	100	.804	.001
.472	100	.832	.001
.52	100	.852	.001
.573	100	.873	.001
.633	100	.891	.001
.682	100	.905	.001
.73	100	.921	.001
.783	100	.935	.001
.833	100	.947	.001
.878	100	.963	.001
.925	100	.978	.001
.954	100	.987	.001

System: ethyl butyrate + n-hexane; phases: Liquid, Gas
Property: Boiling temperature at pressure P, K (Liquid); method: Ebulliometric method (Recirculating still)
Mole fraction of n-hexane	Pressure, kPa	Boiling temperature at pressure P, K	uncertainty
.015	100	391.29	.02
.038	100	388.09	.02
.098	100	380.32	.02
.148	100	375.04	.02
.195	100	371.15	.02
.251	100	366.84	.02
.294	100	364.07	.02
.373	100	359.85	.02
.418	100	357.9	.02
.472	100	355.64	.02
.52	100	353.83	.02
.573	100	352.05	.02
.633	100	350.37	.02
.682	100	349.07	.02
.73	100	347.72	.02
.783	100	346.41	.02
.833	100	345.27	.02
.878	100	344.13	.02
.925	100	343.07	.02
.954	100	342.44	.02

System: 1-hexene + 2-pentanol; phases: Gas, Liquid
Property: Mole fraction of 1-hexene (Gas); method: Chromatography
Mole fraction of 1-hexene	Pressure, kPa	Mole fraction of 1-hexene	uncertainty
.017	100	.14	.001
.032	100	.268	.001
.056	100	.395	.001
.1	100	.568	.001
.125	100	.626	.001
.15	100	.678	.001
.215	100	.778	.001
.282	100	.834	.001
.344	100	.873	.001
.395	100	.892	.001
.456	100	.91	.001
.515	100	.923	.001
.577	100	.933	.001
.628	100	.94	.001
.681	100	.947	.001
.734	100	.953	.001
.789	100	.958	.001
.841	100	.961	.001
.895	100	.971	.001
.949	100	.983	.001
.983	100	.994	.001

System: 1-hexene + 2-pentanol; phases: Liquid, Gas
Property: Boiling temperature at pressure P, K (Liquid); method: Ebulliometric method (Recirculating still)
Mole fraction of 1-hexene	Pressure, kPa	Boiling temperature at pressure P, K	uncertainty
.017	100	388.05	.02
.032	100	384.92	.02
.056	100	380.13	.02
.1	100	373.28	.02
.125	100	369.17	.02
.15	100	366.41	.02
.215	100	359.5	.02
.282	100	354.51	.02
.344	100	351.19	.02
.395	100	348.56	.02
.456	100	346.34	.02
.515	100	344.39	.02
.577	100	342.9	.02
.628	100	341.85	.02
.681	100	340.71	.02
.734	100	339.87	.02
.789	100	339.14	.02
.841	100	338.4	.02
.895	100	337.71	.02
.949	100	337	.02
.983	100	336.63	.02

System: n-hexane + 2-pentanol; phases: Gas, Liquid
Property: Mole fraction of n-hexane (Gas); method: Chromatography
Mole fraction of n-hexane	Pressure, kPa	Mole fraction of n-hexane	uncertainty
.013	100	.106	.001
.033	100	.248	.001
.08	100	.468	.001
.127	100	.605	.001
.165	100	.684	.001
.232	100	.776	.001
.294	100	.824	.001
.372	100	.863	.001
.414	100	.875	.001
.47	100	.887	.001
.531	100	.901	.001
.588	100	.91	.001
.646	100	.92	.001
.699	100	.926	.001
.753	100	.93	.001
.806	100	.937	.001
.862	100	.948	.001
.911	100	.959	.001
.952	100	.971	.001
.992	100	.994	.001

System: n-hexane + 2-pentanol; phases: Liquid, Gas
Property: Boiling temperature at pressure P, K (Liquid); method: Ebulliometric method (Recirculating still)
Mole fraction of n-hexane	Pressure, kPa	Boiling temperature at pressure P, K	uncertainty
.013	100	389.01	.02
.033	100	384.49	.02
.08	100	377.11	.02
.127	100	369.96	.02
.165	100	365.17	.02
.232	100	359.96	.02
.294	100	355.46	.02
.372	100	352.14	.02
.414	100	350.43	.02
.47	100	348.74	.02
.531	100	347.29	.02
.588	100	346.18	.02
.646	100	345.15	.02
.699	100	344.42	.02
.753	100	343.74	.02
.806	100	343.13	.02
.862	100	342.55	.02
.911	100	342.1	.02
.952	100	341.72	.02
.992	100	341.46	.02

System: ethyl butyrate + n-hexane + 1-hexene; phases: Liquid, Gas
Property: Mole fraction of n-hexane (Liquid); method: Chromatography
Property: Mole fraction of 1-hexene (Gas); method: Chromatography
Property: Mole fraction of n-hexane (Gas); method: Chromatography
Temperature, K	Pressure, kPa	Mole fraction of 1-hexene	Mole fraction of n-hexane	uncertainty	Mole fraction of 1-hexene	uncertainty	Mole fraction of n-hexane	uncertainty
382.56	100	.046	.045	.001	.175	.001	.174	.001
365.54	100	.224	.043	.001	.563	.001	.116	.001
353.97	100	.424	.05	.001	.762	.001	.091	.001
345.33	100	.643	.051	.001	.865	.001	.068	.001
337.54	100	.912	.051	.001	.945	.001	.047	.001
339.34	100	.807	.097	.001	.884	.001	.096	.001
342.39	100	.702	.096	.001	.851	.001	.107	.001
345.34	100	.6	.094	.001	.813	.001	.119	.001
349.26	100	.486	.097	.001	.755	.001	.143	.001
352.96	100	.392	.102	.001	.692	.001	.171	.001
357.8	100	.294	.097	.001	.611	.001	.197	.001
363.28	100	.199	.104	.001	.473	.001	.248	.001
373.8	100	.087	.09	.001	.261	.001	.279	.001
364.85	100	.104	.198	.001	.246	.001	.475	.001
357.52	100	.203	.208	.001	.407	.001	.409	.001
352.65	100	.305	.209	.001	.523	.001	.34	.001
349.17	100	.398	.206	.001	.613	.001	.292	.001
345.36	100	.506	.204	.001	.68	.001	.251	.001
340.59	100	.676	.199	.001	.767	.001	.203	.001
338.7	100	.739	.206	.001	.793	.001	.194	.001
340.72	100	.585	.305	.001	.664	.001	.309	.001
343.66	100	.49	.295	.001	.616	.001	.333	.001
346.23	100	.411	.301	.001	.556	.001	.378	.001
350.02	100	.301	.289	.001	.471	.001	.423	.001
353.71	100	.2	.296	.001	.349	.001	.506	.001
361.02	100	.056	.298	.001	.126	.001	.64	.001
353.67	100	.108	.397	.001	.184	.001	.662	.001
349.98	100	.21	.403	.001	.312	.001	.576	.001
346.66	100	.306	.396	.001	.415	.001	.505	.001
343.31	100	.42	.399	.001	.511	.001	.442	.001
339.31	100	.553	.401	.001	.604	.001	.383	.001
341.56	100	.395	.499	.001	.46	.001	.512	.001
344.66	100	.293	.49	.001	.377	.001	.567	.001
347.7	100	.213	.478	.001	.287	.001	.63	.001
352.46	100	.057	.495	.001	.098	.001	.77	.001
347.6	100	.105	.609	.001	.145	.001	.777	.001
344.86	100	.198	.601	.001	.252	.001	.694	.001
340.33	100	.357	.6	.001	.402	.001	.584	.001
342.67	100	.195	.701	.001	.237	.001	.732	.001
347.64	100	.05	.674	.001	.068	.001	.856	.001
342.52	100	.102	.821	.001	.123	.001	.854	.001
342.37	100	.051	.895	.001	.061	.001	.921	.001

System: n-hexane + 1-hexene + 2-pentanol; phases: Liquid, Gas
Property: Mole fraction of n-hexane (Liquid); method: Chromatography
Property: Mole fraction of 1-hexene (Gas); method: Chromatography
Property: Mole fraction of n-hexane (Gas); method: Chromatography
Temperature, K	Pressure, kPa	Mole fraction of 1-hexene	Mole fraction of n-hexane	uncertainty	Mole fraction of 1-hexene	uncertainty	Mole fraction of n-hexane	uncertainty
377.02	100	.044	.038	.001	.267	.001	.25	.001
353.23	100	.252	.052	.001	.691	.001	.16	.001
344.42	100	.454	.064	.001	.804	.001	.118	.001
340.56	100	.646	.059	.001	.868	.001	.079	.001
337.17	100	.9	.054	.001	.93	.001	.051	.001
338.06	100	.794	.106	.001	.866	.001	.104	.001
339.45	100	.696	.102	.001	.842	.001	.114	.001
340.99	100	.59	.1	.001	.812	.001	.131	.001
342.96	100	.487	.096	.001	.774	.001	.149	.001
345.32	100	.392	.099	.001	.73	.001	.183	.001
348.9	100	.305	.1	.001	.671	.001	.22	.001
352.35	100	.225	.095	.001	.591	.001	.258	.001
353.65	100	.209	.092	.001	.569	.001	.256	.001
358.48	100	.111	.127	.001	.368	.001	.433	.001
351.95	100	.127	.24	.001	.303	.001	.569	.001
346.86	100	.247	.226	.001	.474	.001	.42	.001
343.9	100	.364	.207	.001	.601	.001	.322	.001
341.54	100	.493	.205	.001	.677	.001	.264	.001
340.04	100	.58	.21	.001	.719	.001	.234	.001
338.36	100	.711	.2	.001	.775	.001	.193	.001
338.03	100	.727	.211	.001	.775	.001	.199	.001
339.63	100	.54	.316	.001	.627	.001	.33	.001
341.43	100	.434	.297	.001	.577	.001	.363	.001
343.7	100	.318	.289	.001	.496	.001	.424	.001
345.72	100	.235	.291	.001	.417	.001	.493	.001
349.55	100	.138	.281	.001	.289	.001	.584	.001
350.51	100	.098	.288	.001	.228	.001	.657	.001
345.42	100	.176	.383	.001	.301	.001	.615	.001
342.75	100	.295	.387	.001	.423	.001	.509	.001
341.03	100	.382	.411	.001	.483	.001	.466	.001
338.8	100	.546	.405	.001	.593	.001	.384	.001
339.96	100	.399	.498	.001	.46	.001	.503	.001
341.63	100	.293	.491	.001	.376	.001	.566	.001
343.07	100	.21	.491	.001	.299	.001	.634	.001
346.69	100	.051	.488	.001	.093	.001	.809	.001
343.53	100	.103	.613	.001	.146	.001	.787	.001
341.97	100	.203	.6	.001	.265	.001	.683	.001
339.86	100	.344	.599	.001	.385	.001	.585	.001
340.95	100	.208	.696	.001	.246	.001	.714	.001
343.4	100	.057	.698	.001	.079	.001	.854	.001
341.54	100	.104	.798	.001	.128	.001	.834	.001
341.4	100	.056	.895	.001	.066	.001	.906	.001
