Measured thermophysical data. Volumetric Properties of Urea in the Mixture of N,N-Dimethylformamide with Water
Source: J. Chem. Eng. Data, 2012, 10.1021/je300358u
Compound 1: urea, CH4N2O, purity 99.5%
Compound 2: N,N-dimethylformamide, C3H7NO, purity 99%
Compound 3: water, H2O

System: N,N-dimethylformamide; phases: Liquid
Property: Mass density, kg/m3 (Liquid); method: Vibrating tube method
Temperature, K	Pressure, kPa	Mass density, kg/m3	uncertainty
293.15	101	948.742	
298.15	101	943.976	
303.15	101	939.201	
308.15	101	934.425	

System: water; phases: Liquid
Property: Mass density, kg/m3 (Liquid); method: Vibrating tube method
Temperature, K	Pressure, kPa	Mass density, kg/m3	uncertainty
293.15	101	998.204	
298.15	101	997.046	
303.15	101	995.65	
308.15	101	994.037	

System: N,N-dimethylformamide + water; phases: Liquid
Fixed: Pressure, kPa = 101
Property: Mass density, kg/m3 (Liquid); method: Vibrating tube method
Temperature, K	Mole fraction of water	Mass density, kg/m3	uncertainty
293.15	0	948.742	
293.15	.1	953.736	
293.15	.2	959.305	
293.15	.3	965.7	
293.15	.4	972.992	
293.15	.5	980.854	
293.15	.6	988.587	
293.15	.7	995.526	
293.15	.8	999.822	
293.15	.9	999.742	
293.15	.92	999.208	
293.15	.94	998.608	
293.15	.96	998.059	
293.15	.98	997.768	
293.15	1	998.204	
298.15	0	943.976	
298.15	.1	948.984	
298.15	.2	954.568	
298.15	.3	960.987	
298.15	.4	968.301	
298.15	.5	976.205	
298.15	.6	984.021	
298.15	.7	991.172	
298.15	.8	995.944	
298.15	.9	996.891	
298.15	.92	996.65	
298.15	.94	996.378	
298.15	.96	996.181	
298.15	.98	996.264	
298.15	1	997.046	
303.15	0	939.201	
303.15	.1	944.221	
303.15	.2	949.818	
303.15	.3	956.248	
303.15	.4	963.582	
303.15	.5	971.522	
303.15	.6	979.424	
303.15	.7	986.773	
303.15	.8	992.004	
303.15	.9	993.926	
303.15	.92	993.962	
303.15	.94	993.992	
303.15	.96	994.123	
303.15	.98	994.548	
303.15	1	995.65	
308.15	0	934.425	
308.15	.1	939.444	
308.15	.2	945.04	
308.15	.3	951.488	
308.15	.4	958.821	
308.15	.5	966.807	
308.15	.6	974.79	
308.15	.7	982.324	
308.15	.8	988.003	
308.15	.9	990.852	
308.15	.92	991.147	
308.15	.94	991.46	
308.15	.96	991.894	
308.15	.98	992.639	
308.15	1	994.037	

System: urea + N,N-dimethylformamide + water; phases: Liquid
Fixed: Pressure, kPa = 101
Property: Mass density, kg/m3 (Liquid); method: Vibrating tube method
Temperature, K	Solvent: Mole fraction of water	Molality, mol/kg of urea	Mass density, kg/m3	uncertainty
293.15	0	.025237	949.268	
293.15	0	.059732	949.989	
293.15	0	.07556	950.317	
293.15	0	.115746	951.155	
293.15	0	.14789	951.829	
293.15	0	.174925	952.395	
293.15	0	.20033	952.924	
293.15	0	.230517	953.553	
298.15	0	.025237	944.504	
298.15	0	.059732	945.228	
298.15	0	.07556	945.556	
298.15	0	.115746	946.396	
298.15	0	.14789	947.074	
298.15	0	.174925	947.644	
298.15	0	.20033	948.173	
298.15	0	.230517	948.805	
303.15	0	.025237	939.731	
303.15	0	.059732	940.469	
303.15	0	.07556	940.781	
303.15	0	.115746	941.642	
303.15	0	.14789	942.307	
303.15	0	.174925	942.893	
303.15	0	.20033	943.423	
303.15	0	.230517	944.061	
308.15	0	.025237	934.955	
308.15	0	.059732	935.685	
308.15	0	.07556	936.015	
308.15	0	.115746	936.861	
308.15	0	.14789	937.543	
308.15	0	.174925	938.117	
308.15	0	.20033	938.649	
308.15	0	.230517	939.284	
293.15	.1	.024756	954.23	
293.15	.1	.064216	955.018	
293.15	.1	.0761	955.255	
293.15	.1	.124623	956.233	
293.15	.1	.15001	956.734	
293.15	.1	.175933	957.252	
293.15	.1	.200036	957.735	
293.15	.1	.250755	958.755	
298.15	.1	.024756	949.479	
298.15	.1	.064216	950.278	
298.15	.1	.0761	950.509	
298.15	.1	.124623	951.486	
298.15	.1	.15001	951.997	
298.15	.1	.175933	952.518	
298.15	.1	.200036	953.005	
298.15	.1	.250755	954.022	
303.15	.1	.024756	944.718	
303.15	.1	.064216	945.52	
303.15	.1	.0761	945.752	
303.15	.1	.124623	946.732	
303.15	.1	.15001	947.247	
303.15	.1	.175933	947.777	
303.15	.1	.200036	948.259	
303.15	.1	.250755	949.276	
308.15	.1	.024756	939.943	
308.15	.1	.064216	940.747	
308.15	.1	.0761	940.983	
308.15	.1	.124623	941.969	
308.15	.1	.15001	942.487	
308.15	.1	.175933	943.034	
308.15	.1	.200036	943.505	
308.15	.1	.250755	944.52	
293.15	.2	.025195	959.79	
293.15	.2	.050077	960.267	
293.15	.2	.0751	960.756	
293.15	.2	.098816	961.212	
293.15	.2	.125046	961.719	
293.15	.2	.14883	962.178	
293.15	.2	.1751	962.684	
293.15	.2	.206738	963.296	
298.15	.2	.025195	955.054	
298.15	.2	.050077	955.535	
298.15	.2	.0751	956.023	
298.15	.2	.098816	956.484	
298.15	.2	.125046	956.99	
298.15	.2	.14883	957.446	
298.15	.2	.1751	957.958	
298.15	.2	.206738	958.572	
303.15	.2	.025195	950.306	
303.15	.2	.050077	950.788	
303.15	.2	.0751	951.279	
303.15	.2	.098816	951.744	
303.15	.2	.125046	952.252	
303.15	.2	.14883	952.706	
303.15	.2	.1751	953.224	
303.15	.2	.206738	953.841	
308.15	.2	.025195	945.53	
308.15	.2	.050077	946.018	
308.15	.2	.0751	946.511	
308.15	.2	.098816	946.981	
308.15	.2	.125046	947.488	
308.15	.2	.14883	947.948	
308.15	.2	.1751	948.468	
308.15	.2	.206738	949.089	
293.15	.3	.024964	966.154	
293.15	.3	.055384	966.71	
293.15	.3	.074356	967.057	
293.15	.3	.111157	967.733	
293.15	.3	.126005	968.002	
293.15	.3	.152348	968.487	
293.15	.3	.175001	968.898	
293.15	.3	.217585	969.671	
298.15	.3	.024964	961.444	
298.15	.3	.055384	962.001	
298.15	.3	.074356	962.352	
298.15	.3	.111157	963.027	
298.15	.3	.126005	963.301	
298.15	.3	.152348	963.788	
298.15	.3	.175001	964.201	
298.15	.3	.217585	964.98	
303.15	.3	.024964	956.707	
303.15	.3	.055384	957.267	
303.15	.3	.074356	957.62	
303.15	.3	.111157	958.301	
303.15	.3	.126005	958.574	
303.15	.3	.152348	959.062	
303.15	.3	.175001	959.479	
303.15	.3	.217585	960.261	
308.15	.3	.024964	951.95	
308.15	.3	.055384	952.513	
308.15	.3	.074356	952.867	
308.15	.3	.111157	953.551	
308.15	.3	.126005	953.826	
308.15	.3	.152348	954.318	
308.15	.3	.175001	954.736	
308.15	.3	.217585	955.523	
293.15	.4	.025006	973.424	
293.15	.4	.052563	973.899	
293.15	.4	.075589	974.3	
293.15	.4	.116424	975.012	
293.15	.4	.140223	975.419	
293.15	.4	.171394	975.954	
293.15	.4	.2156	976.723	
293.15	.4	.23158	977.001	
298.15	.4	.025006	968.735	
298.15	.4	.052563	969.214	
298.15	.4	.075589	969.617	
298.15	.4	.116424	970.326	
298.15	.4	.140223	970.744	
298.15	.4	.171394	971.281	
298.15	.4	.2156	972.053	
298.15	.4	.23158	972.335	
303.15	.4	.025006	964.019	
303.15	.4	.052563	964.502	
303.15	.4	.075589	964.907	
303.15	.4	.116424	965.618	
303.15	.4	.140223	966.037	
303.15	.4	.171394	966.576	
303.15	.4	.2156	967.356	
303.15	.4	.23158	967.642	
308.15	.4	.025006	959.261	
308.15	.4	.052563	959.748	
308.15	.4	.075589	960.153	
308.15	.4	.116424	960.874	
308.15	.4	.140223	961.292	
308.15	.4	.171394	961.838	
308.15	.4	.2156	962.621	
308.15	.4	.23158	962.904	
293.15	.5	.02556	981.269	
293.15	.5	.04379	981.566	
293.15	.5	.07545	982.084	
293.15	.5	.10295	982.531	
293.15	.5	.14754	983.257	
293.15	.5	.175026	983.706	
293.15	.5	.21054	984.278	
293.15	.5	.2453	984.851	
298.15	.5	.02556	976.623	
298.15	.5	.04379	976.921	
298.15	.5	.07545	977.439	
298.15	.5	.10295	977.891	
298.15	.5	.14754	978.625	
298.15	.5	.175026	979.069	
298.15	.5	.21054	979.653	
298.15	.5	.2453	980.222	
303.15	.5	.02556	971.943	
303.15	.5	.04379	972.243	
303.15	.5	.07545	972.767	
303.15	.5	.10295	973.223	
303.15	.5	.14754	973.959	
303.15	.5	.175026	974.411	
303.15	.5	.21054	974.992	
303.15	.5	.2453	975.573	
308.15	.5	.02556	967.23	
308.15	.5	.04379	967.533	
308.15	.5	.07545	968.057	
308.15	.5	.10295	968.521	
308.15	.5	.14754	969.257	
308.15	.5	.175026	969.711	
308.15	.5	.21054	970.296	
308.15	.5	.2453	970.878	
293.15	.6	.025563	988.977	
293.15	.6	.052026	989.381	
293.15	.6	.075256	989.737	
293.15	.6	.093705	990.02	
293.15	.6	.125423	990.505	
293.15	.6	.1457	990.815	
293.15	.6	.17558	991.272	
293.15	.6	.2025	991.681	
298.15	.6	.025563	984.415	
298.15	.6	.052026	984.822	
298.15	.6	.075256	985.181	
298.15	.6	.093705	985.467	
298.15	.6	.125423	985.956	
298.15	.6	.1457	986.271	
298.15	.6	.17558	986.731	
298.15	.6	.2025	987.144	
303.15	.6	.025563	979.82	
303.15	.6	.052026	980.229	
303.15	.6	.075256	980.59	
303.15	.6	.093705	980.88	
303.15	.6	.125423	981.37	
303.15	.6	.1457	981.687	
303.15	.6	.17558	982.149	
303.15	.6	.2025	982.563	
308.15	.6	.025563	975.189	
308.15	.6	.052026	975.603	
308.15	.6	.075256	975.966	
308.15	.6	.093705	976.258	
308.15	.6	.125423	976.751	
308.15	.6	.1457	977.068	
308.15	.6	.17558	977.536	
308.15	.6	.2025	977.955	
293.15	.7	.024983	995.884	
293.15	.7	.056326	996.334	
293.15	.7	.075005	996.602	
293.15	.7	.10992	997.101	
293.15	.7	.125456	997.326	
293.15	.7	.149774	997.672	
293.15	.7	.175864	998.049	
293.15	.7	.217513	998.649	
298.15	.7	.024983	991.532	
298.15	.7	.056326	991.985	
298.15	.7	.075005	992.254	
298.15	.7	.10992	992.76	
298.15	.7	.125456	992.983	
298.15	.7	.149774	993.33	
298.15	.7	.175864	993.711	
298.15	.7	.217513	994.32	
303.15	.7	.024983	987.135	
303.15	.7	.056326	987.592	
303.15	.7	.075005	987.862	
303.15	.7	.10992	988.367	
303.15	.7	.125456	988.596	
303.15	.7	.149774	988.947	
303.15	.7	.175864	989.33	
303.15	.7	.217513	989.937	
308.15	.7	.024983	982.69	
308.15	.7	.056326	983.151	
308.15	.7	.075005	983.426	
308.15	.7	.10992	983.937	
308.15	.7	.125456	984.166	
308.15	.7	.149774	984.531	
308.15	.7	.175864	984.906	
308.15	.7	.217513	985.522	
293.15	.8	.025056	1000.184	
293.15	.8	.04411	1000.462	
293.15	.8	.075101	1000.912	
293.15	.8	.089279	1001.114	
293.15	.8	.125403	1001.644	
293.15	.8	.139576	1001.844	
293.15	.8	.175403	1002.371	
293.15	.8	.192651	1002.615	
298.15	.8	.025056	996.307	
298.15	.8	.04411	996.585	
298.15	.8	.075101	997.037	
298.15	.8	.089279	997.237	
298.15	.8	.125403	997.77	
298.15	.8	.139576	997.971	
298.15	.8	.175403	998.499	
298.15	.8	.192651	998.745	
303.15	.8	.025056	992.369	
303.15	.8	.04411	992.649	
303.15	.8	.075101	993.102	
303.15	.8	.089279	993.303	
303.15	.8	.125403	993.839	
303.15	.8	.139576	994.042	
303.15	.8	.175403	994.571	
303.15	.8	.192651	994.818	
308.15	.8	.025056	988.369	
308.15	.8	.04411	988.651	
308.15	.8	.075101	989.106	
308.15	.8	.089279	989.318	
308.15	.8	.125403	989.846	
308.15	.8	.139576	990.052	
308.15	.8	.175403	990.582	
308.15	.8	.192651	990.827	
293.15	.9	.02515	1000.129	
293.15	.9	.048794	1000.493	
293.15	.9	.075245	1000.898	
293.15	.9	.091735	1001.15	
293.15	.9	.125531	1001.67	
293.15	.9	.142294	1001.928	
293.15	.9	.175189	1002.432	
293.15	.9	.190023	1002.659	
298.15	.9	.02515	997.276	
298.15	.9	.048794	997.637	
298.15	.9	.075245	998.04	
298.15	.9	.091735	998.292	
298.15	.9	.125531	998.807	
298.15	.9	.142294	999.064	
298.15	.9	.175189	999.565	
298.15	.9	.190023	999.791	
303.15	.9	.02515	994.309	
303.15	.9	.048794	994.669	
303.15	.9	.075245	995.071	
303.15	.9	.091735	995.322	
303.15	.9	.125531	995.835	
303.15	.9	.142294	996.091	
303.15	.9	.175189	996.59	
303.15	.9	.190023	996.814	
308.15	.9	.02515	991.232	
308.15	.9	.048794	991.587	
308.15	.9	.075245	991.989	
308.15	.9	.091735	992.24	
308.15	.9	.125531	992.751	
308.15	.9	.142294	993.003	
308.15	.9	.175189	993.502	
308.15	.9	.190023	993.728	
293.15	.92	.025057	999.597	
293.15	.92	.049495	999.978	
293.15	.92	.075563	1000.383	
293.15	.92	.10139	1000.782	
293.15	.92	.125128	1001.153	
293.15	.92	.151257	1001.564	
293.15	.92	.175059	1001.929	
293.15	.92	.205851	1002.404	
298.15	.92	.025057	997.035	
298.15	.92	.049495	997.41	
298.15	.92	.075563	997.813	
298.15	.92	.10139	998.209	
298.15	.92	.125128	998.576	
298.15	.92	.151257	998.984	
298.15	.92	.175059	999.345	
298.15	.92	.205851	999.817	
303.15	.92	.025057	994.344	
303.15	.92	.049495	994.715	
303.15	.92	.075563	995.114	
303.15	.92	.10139	995.504	
303.15	.92	.125128	995.871	
303.15	.92	.151257	996.277	
303.15	.92	.175059	996.633	
303.15	.92	.205851	997.099	
308.15	.92	.025057	991.527	
308.15	.92	.049495	991.896	
308.15	.92	.075563	992.294	
308.15	.92	.10139	992.69	
308.15	.92	.125128	993.046	
308.15	.92	.151257	993.441	
308.15	.92	.175059	993.802	
308.15	.92	.205851	994.277	
293.15	.94	.024953	998.999	
293.15	.94	.050877	999.408	
293.15	.94	.075158	999.789	
293.15	.94	.094269	1000.092	
293.15	.94	.124925	1000.572	
293.15	.94	.140099	1000.811	
293.15	.94	.174891	1001.358	
293.15	.94	.190073	1001.596	
298.15	.94	.024953	996.765	
298.15	.94	.050877	997.17	
298.15	.94	.075158	997.547	
298.15	.94	.094269	997.846	
298.15	.94	.124925	998.321	
298.15	.94	.140099	998.558	
298.15	.94	.174891	999.096	
298.15	.94	.190073	999.334	
303.15	.94	.024953	994.375	
303.15	.94	.050877	994.775	
303.15	.94	.075158	995.148	
303.15	.94	.094269	995.445	
303.15	.94	.124925	995.915	
303.15	.94	.140099	996.149	
303.15	.94	.174891	996.684	
303.15	.94	.190073	996.916	
308.15	.94	.024953	991.839	
308.15	.94	.050877	992.235	
308.15	.94	.075158	992.605	
308.15	.94	.094269	992.9	
308.15	.94	.124925	993.364	
308.15	.94	.140099	993.595	
308.15	.94	.174891	994.126	
308.15	.94	.190073	994.356	
293.15	.96	.025619	998.469	
293.15	.96	.051924	998.89	
293.15	.96	.075563	999.267	
293.15	.96	.096865	999.608	
293.15	.96	.125421	1000.064	
293.15	.96	.14406	1000.361	
293.15	.96	.175189	1000.86	
293.15	.96	.195262	1001.18	
298.15	.96	.025619	996.585	
298.15	.96	.051924	996.999	
298.15	.96	.075563	997.372	
298.15	.96	.096865	997.71	
298.15	.96	.125421	998.157	
298.15	.96	.14406	998.451	
298.15	.96	.175189	998.941	
298.15	.96	.195262	999.255	
303.15	.96	.025619	994.521	
303.15	.96	.051924	994.931	
303.15	.96	.075563	995.298	
303.15	.96	.096865	995.63	
303.15	.96	.125421	996.072	
303.15	.96	.14406	996.364	
303.15	.96	.175189	996.845	
303.15	.96	.195262	997.155	
308.15	.96	.025619	992.287	
308.15	.96	.051924	992.692	
308.15	.96	.075563	993.054	
308.15	.96	.096865	993.383	
308.15	.96	.125421	993.819	
308.15	.96	.14406	994.106	
308.15	.96	.175189	994.583	
308.15	.96	.195262	994.89	
293.15	.98	.024894	998.172	
293.15	.98	.054563	998.656	
293.15	.98	.075001	998.986	
293.15	.98	.104433	999.468	
293.15	.98	.125423	999.806	
293.15	.98	.157494	1000.326	
293.15	.98	.175045	1000.612	
293.15	.98	.211134	1001.198	
298.15	.98	.024894	996.66	
298.15	.98	.054563	997.135	
298.15	.98	.075001	997.46	
298.15	.98	.104433	997.933	
298.15	.98	.125423	998.267	
298.15	.98	.157494	998.776	
298.15	.98	.175045	999.056	
298.15	.98	.211134	999.63	
303.15	.98	.024894	994.94	
303.15	.98	.054563	995.404	
303.15	.98	.075001	995.727	
303.15	.98	.104433	996.187	
303.15	.98	.125423	996.519	
303.15	.98	.157494	997.023	
303.15	.98	.175045	997.298	
303.15	.98	.211134	997.866	
308.15	.98	.024894	993.023	
308.15	.98	.054563	993.484	
308.15	.98	.075001	993.799	
308.15	.98	.104433	994.257	
308.15	.98	.125423	994.579	
308.15	.98	.157494	995.076	
308.15	.98	.175045	995.347	
308.15	.98	.211134	995.904	
293.15	1	.025568	998.624	
293.15	1	.053263	999.077	
293.15	1	.07468	999.427	
293.15	1	.093876	999.747	
293.15	1	.123589	1000.233	
293.15	1	.144235	1000.566	
293.15	1	.176245	1001.099	
293.15	1	.200515	1001.498	
298.15	1	.025568	997.458	
298.15	1	.053263	997.903	
298.15	1	.07468	998.251	
298.15	1	.093876	998.559	
298.15	1	.123589	999.04	
298.15	1	.144235	999.367	
298.15	1	.176245	999.891	
298.15	1	.200515	1000.281	
303.15	1	.025568	996.057	
303.15	1	.053263	996.499	
303.15	1	.07468	996.841	
303.15	1	.093876	997.145	
303.15	1	.123589	997.618	
303.15	1	.144235	997.949	
303.15	1	.176245	998.455	
303.15	1	.200515	998.84	
308.15	1	.025568	994.437	
308.15	1	.053263	994.868	
308.15	1	.07468	995.206	
308.15	1	.093876	995.501	
308.15	1	.123589	995.97	
308.15	1	.144235	996.288	
308.15	1	.176245	996.793	
308.15	1	.200515	997.172	

System: urea + N,N-dimethylformamide; phases: Liquid
Property: Mass density, kg/m3 (Liquid); method: Vibrating tube method
Temperature, K	Molality, mol/kg of urea	Pressure, kPa	Mass density, kg/m3	uncertainty
293.15	.025237	101	949.268	
293.15	.059732	101	949.989	
293.15	.07556	101	950.317	
293.15	.115746	101	951.155	
293.15	.14789	101	951.829	
293.15	.174925	101	952.395	
293.15	.20033	101	952.924	
293.15	.230517	101	953.553	
298.15	.025237	101	944.504	
298.15	.059732	101	945.228	
298.15	.07556	101	945.556	
298.15	.115746	101	946.396	
298.15	.14789	101	947.074	
298.15	.174925	101	947.644	
298.15	.20033	101	948.173	
298.15	.230517	101	948.805	
303.15	.025237	101	939.731	
303.15	.059732	101	940.469	
303.15	.07556	101	940.781	
303.15	.115746	101	941.642	
303.15	.14789	101	942.307	
303.15	.174925	101	942.893	
303.15	.20033	101	943.423	
303.15	.230517	101	944.061	
308.15	.025237	101	934.955	
308.15	.059732	101	935.685	
308.15	.07556	101	936.015	
308.15	.115746	101	936.861	
308.15	.14789	101	937.543	
308.15	.174925	101	938.117	
308.15	.20033	101	938.649	
308.15	.230517	101	939.284	

System: urea + water; phases: Liquid
Property: Mass density, kg/m3 (Liquid); method: Vibrating tube method
Temperature, K	Molality, mol/kg of urea	Pressure, kPa	Mass density, kg/m3	uncertainty
293.15	.025568	101	998.624	
293.15	.053263	101	999.077	
293.15	.07468	101	999.427	
293.15	.093876	101	999.747	
293.15	.123589	101	1000.233	
293.15	.144235	101	1000.566	
293.15	.176245	101	1001.099	
293.15	.200515	101	1001.498	
298.15	.025568	101	997.458	
298.15	.053263	101	997.903	
298.15	.07468	101	998.251	
298.15	.093876	101	998.559	
298.15	.123589	101	999.04	
298.15	.144235	101	999.367	
298.15	.176245	101	999.891	
298.15	.200515	101	1000.281	
303.15	.025568	101	996.057	
303.15	.053263	101	996.499	
303.15	.07468	101	996.841	
303.15	.093876	101	997.145	
303.15	.123589	101	997.618	
303.15	.144235	101	997.949	
303.15	.176245	101	998.455	
303.15	.200515	101	998.84	
308.15	.025568	101	994.437	
308.15	.053263	101	994.868	
308.15	.07468	101	995.206	
308.15	.093876	101	995.501	
308.15	.123589	101	995.97	
308.15	.144235	101	996.288	
308.15	.176245	101	996.793	
308.15	.200515	101	997.172	
