Measured thermophysical data. Vapor Liquid Liquid Equilibria Measurements for the Dehydration of Ethanol, Isopropanol, and n-Propanol via Azeotropic Distillation Using DIPE and Isooctane as Entrainers
Source: J. Chem. Eng. Data, 2013, 10.1021/je300847v
Compound 1: ethanol, C2H6O, purity 99.8%
Compound 2: n-propyl alcohol, C3H8O, purity 99.5%
Compound 3: 2,2,4-trimethylpentane, C8H18, purity 99%
Compound 4: isopropyl ether, C6H14O, purity 99%
Compound 5: water, H2O, purity 99.8%
Compound 6: n-butanol, C4H10O

System: ethanol + isopropyl ether + water; phases: Liquid, Gas
Property: Mole fraction of isopropyl ether (Liquid); method: Chromatography
Property: Mole fraction of isopropyl ether (Gas); method: Chromatography
Property: Mole fraction of water (Gas); method: Chromatography
Temperature, K	Pressure, kPa	Mole fraction of water	Mole fraction of isopropyl ether	uncertainty	Mole fraction of isopropyl ether	uncertainty	Mole fraction of water	uncertainty
339.99	101.3	.5542	.0586	.001172	.483	.00966	.2141	.004282
340.64	101.3	.5332	.0538	.001076	.5056	.010112	.2072	.004144
342.13	101.3	.5162	.0464	.000928	.4195	.00839	.2326	.004652
342.4	101.3	.4917	.0486	.000972	.4046	.008092	.2226	.004452
343.8	101.3	.4909	.038	.00076	.3384	.006768	.2515	.00503
344.26	101.3	.4552	.0388	.000776	.3342	.006684	.2257	.004514
345.23	101.3	.4636	.0341	.000682	.3003	.006006	.239	.00478
345.43	101.3	.4216	.0347	.000694	.2815	.00563	.2322	.004644
346.16	101.3	.4024	.0362	.000724	.2628	.005256	.2284	.004568
346.24	101.3	.4427	.0301	.000602	.2623	.005246	.2396	.004792
346.83	101.3	.3039	.0343	.000686	.1842	.003684	.3287	.006574
347.08	101.3	.3727	.0288	.000576	.2215	.00443	.2327	.004654
347.35	101.3	.2853	.0321	.000642	.1656	.003312	.3429	.006858
348.07	101.3	.2595	.0252	.000504	.1432	.002864	.2963	.005926
348.84	101.3	.2324	.0221	.000442	.1049	.002098	.4044	.008088
349.24	101.3	.2075	.0205	.00041	.1094	.002188	.2828	.005656
349.5	101.3	.0594	.0202	.000404	.0936	.001872	.2799	.005598

System: ethanol + isopropyl ether + water; phases: Liquid mixture 1, Liquid mixture 2, Gas
Property: Mole fraction of water (Liquid mixture 1); method: Chromatography
Property: Mole fraction of isopropyl ether (Liquid mixture 1); method: Chromatography
Property: Mole fraction of water (Liquid mixture 2); method: Chromatography
Property: Mole fraction of isopropyl ether (Liquid mixture 2); method: Chromatography
Property: Mole fraction of isopropyl ether (Gas); method: Chromatography
Property: Mole fraction of water (Gas); method: Chromatography
Temperature, K	Pressure, kPa	Mole fraction of water	uncertainty	Mole fraction of isopropyl ether	uncertainty	Mole fraction of water	uncertainty	Mole fraction of isopropyl ether	uncertainty	Mole fraction of isopropyl ether	uncertainty	Mole fraction of water	uncertainty
335.31	101.3	.0476	.000952	.9524	.019048	.9991	.019982	.0009	.000018	.7814	.015628	.2186	.004372
334.53	101.3	.0605	.00121	.8805	.01761	.9636	.019272	.0012	.000024	.7049	.014098	.21	.0042
334.4	101.3	.0644	.001288	.8498	.016996	.951	.01902	.0016	.000032	.6945	.01389	.201	.00402
334.16	101.3	.0877	.001754	.7844	.015688	.9231	.018462	.0015	.00003	.667	.01334	.1974	.003948
334.25	101.3	.0997	.001994	.7194	.014388	.9161	.018322	.0024	.000048	.6631	.013262	.1861	.003722
334.27	101.3	.1051	.002102	.7134	.014268	.9221	.018442	.0019	.000038	.6597	.013194	.1888	.003776
334.19	101.3	.1168	.002336	.6733	.013466	.9128	.018256	.0011	.000022	.6219	.012438	.1826	.003652
334.42	101.3	.1232	.002464	.6499	.012998	.9004	.018008	.0029	.000058	.6447	.012894	.1879	.003758
334.38	101.3	.1451	.002902	.6029	.012058	.8845	.01769	.0038	.000076	.6391	.012782	.1944	.003888
334.56	101.3	.152	.00304	.5959	.011918	.8852	.017704	.0036	.000072	.6299	.012598	.1927	.003854
334.47	101.3	.1635	.00327	.5899	.011798	.8852	.017704	.0042	.000084	.6188	.012376	.1731	.003462
334.55	101.3	.1738	.003476	.5667	.011334	.8798	.017596	.0044	.000088	.6306	.012612	.1881	.003762
334.77	101.3	.1951	.003902	.5081	.010162	.8644	.017288	.0043	.000086	.6196	.012392	.1891	.003782
334.84	101.3	.2599	.005198	.4197	.008394	.853	.01706	.0019	.000038	.6195	.01239	.1866	.003732
334.92	101.3	.2629	.005258	.4157	.008314	.8365	.01673	.0077	.000154	.6147	.012294	.1798	.003596
335.03	101.3	.3408	.006816	.3132	.006264	.8201	.016402	.0108	.000216	.6081	.012162	.1886	.003772
335.04	101.3	.3473	.006946	.2972	.005944	.7858	.015716	.0178	.000356	.5982	.011964	.1889	.003778
335.37	101.3	.3813	.007626	.2594	.005188	.7761	.015522	.0208	.000416	.6034	.012068	.1821	.003642
335.22	101.3	.3941	.007882	.2551	.005102	.759	.01518	.0211	.000422	.6081	.012162	.188	.00376
335.39	101.3	.7927	.015854	.0131	.000262	.7954	.015908	.0127	.000254	.584	.01168	.1945	.00389
336.29	101.3	.7644	.015288	.016	.00032	.7674	.015348	.0141	.000282	.577	.01154	.207	.00414

System: n-propyl alcohol + isopropyl ether + water; phases: Liquid, Gas
Property: Mole fraction of isopropyl ether (Liquid); method: Chromatography
Property: Mole fraction of isopropyl ether (Gas); method: Chromatography
Property: Mole fraction of water (Gas); method: Chromatography
Temperature, K	Pressure, kPa	Mole fraction of water	Mole fraction of isopropyl ether	uncertainty	Mole fraction of isopropyl ether	uncertainty	Mole fraction of water	uncertainty
349.36	101.3	.5189	.0472	.000944	.356	.00712	.3651	.007302
351.06	101.3	.4848	.0523	.001046	.3157	.006314	.3703	.007406
351.51	101.3	.4699	.0422	.000844	.3015	.00603	.3763	.007526
353.12	101.3	.4505	.0448	.000896	.265	.0053	.3952	.007904
353.3	101.3	.4311	.0389	.000778	.269	.00538	.378	.00756
354.22	101.3	.4224	.0287	.000574	.2209	.004418	.4018	.008036
354.36	101.3	.4037	.034	.00068	.2199	.004398	.402	.00804
355.17	101.3	.3889	.0272	.000544	.2003	.004006	.4206	.008412
355.58	101.3	.3724	.0317	.000634	.244	.00488	.4211	.008422
356.16	101.3	.348	.0252	.000504	.1685	.00337	.4122	.008244
357.43	101.3	.3235	.0256	.000512	.1555	.00311	.398	.00796
357.6	101.3	.2995	.0222	.000444	.1417	.002834	.3865	.00773
358.33	101.3	.2843	.0226	.000452	.1287	.002574	.3898	.007796
359.47	101.3	.253	.0165	.00033	.1036	.002072	.3844	.007688
360.78	101.3	.2335	.013	.00026	.0841	.001682	.3762	.007524
361.13	101.3	.2216	.0135	.00027	.0688	.001376	.3719	.007438
361.51	101.3	.2131	.0143	.000286	.0664	.001328	.3807	.007614

System: n-propyl alcohol + isopropyl ether + water; phases: Liquid mixture 1, Liquid mixture 2, Gas
Property: Mole fraction of water (Liquid mixture 1); method: Chromatography
Property: Mole fraction of isopropyl ether (Liquid mixture 1); method: Chromatography
Property: Mole fraction of water (Liquid mixture 2); method: Chromatography
Property: Mole fraction of isopropyl ether (Liquid mixture 2); method: Chromatography
Property: Mole fraction of isopropyl ether (Gas); method: Chromatography
Property: Mole fraction of water (Gas); method: Chromatography
Temperature, K	Pressure, kPa	Mole fraction of water	uncertainty	Mole fraction of isopropyl ether	uncertainty	Mole fraction of water	uncertainty	Mole fraction of isopropyl ether	uncertainty	Mole fraction of isopropyl ether	uncertainty	Mole fraction of water	uncertainty
335.31	101.3	.0476	.000952	.9524	.019048	.9991	.019982	.0009	.000018	.7814	.015628	.2186	.004372
335.71	101.3	.0665	.00133	.8649	.017298	.99	.0198	.0009	.000018	.7942	.015884	.2042	.004084
335.89	101.3	.0686	.001372	.838	.01676	.9861	.019722	.001	.00002	.7386	.014772	.2214	.004428
336.97	101.3	.1254	.002508	.6704	.013408	.9778	.019556	.0011	.000022	.6929	.013858	.2341	.004682
337.34	101.3	.1584	.003168	.6048	.012096	.9794	.019588	.0008	.000016	.6882	.013764	.2339	.004678
337.6	101.3	.1634	.003268	.5912	.011824	.9764	.019528	.0009	.000018	.6635	.01327	.2399	.004798
337.9	101.3	.1945	.00389	.5083	.010166	.9716	.019432	.0014	.000028	.6713	.013426	.2375	.00475
338.3	101.3	.2179	.004358	.4859	.009718	.9716	.019432	.0011	.000022	.6705	.01341	.2362	.004724
340.63	101.3	.3951	.007902	.2465	.00493	.9606	.019212	.0013	.000026	.6169	.012338	.2584	.005168
340.9	101.3	.3798	.007596	.2603	.005206	.9596	.019192	.0015	.00003	.6004	.012008	.2783	.005566
341.05	101.3	.3774	.007548	.2609	.005218	.9611	.019222	.0016	.000032	.605	.0121	.2583	.005166
341.65	101.3	.4242	.008484	.192	.00384	.956	.01912	.0015	.00003	.6027	.012054	.2629	.005258
342.42	101.3	.4721	.009442	.164	.00328	.9542	.019084	.0021	.000042	.598	.01196	.2731	.005462
342.62	101.3	.4802	.009604	.151	.00302	.95	.019	.0017	.000034	.5787	.011574	.286	.00572
343.03	101.3	.5192	.010384	.1163	.002326	.9386	.018772	.0022	.000044	.5753	.011506	.2925	.00585
343.82	101.3	.5537	.011074	.1009	.002018	.9355	.01871	.0026	.000052	.5861	.011722	.2722	.005444
344.25	101.3	.5746	.011492	.081	.00162	.9306	.018612	.0059	.000118	.5662	.011324	.2958	.005916
345.76	101.3	.6451	.012902	.0588	.001176	.8534	.017068	.0151	.000302	.4997	.009994	.3111	.006222

System: n-propyl alcohol + 2,2,4-trimethylpentane + water; phases: Liquid, Gas
Property: Mole fraction of 2,2,4-trimethylpentane (Liquid); method: Chromatography
Property: Mole fraction of 2,2,4-trimethylpentane (Gas); method: Chromatography
Property: Mole fraction of water (Gas); method: Chromatography
Temperature, K	Pressure, kPa	Mole fraction of water	Mole fraction of 2,2,4-trimethylpentane	uncertainty	Mole fraction of 2,2,4-trimethylpentane	uncertainty	Mole fraction of water	uncertainty
348.78	101.3	.4865	.0629	.001258	.3702	.007404	.406	.00812
349.7	101.3	.5127	.0471	.000942	.3366	.006732	.4075	.00815
349.76	101.3	.4778	.075	.0015	.3359	.006718	.4572	.009144
350.71	101.3	.4765	.0416	.000832	.3191	.006382	.4345	.00869
352.1	101.3	.4504	.0333	.000666	.2869	.005738	.4318	.008636
352.93	101.3	.4381	.0285	.00057	.2728	.005456	.4268	.008536
353.59	101.3	.4096	.033	.00066	.2653	.005306	.4138	.008276
354.23	101.3	.4006	.0355	.00071	.2429	.004858	.4354	.008708
354.31	101.3	.3898	.0298	.000596	.2551	.005102	.4253	.008506
354.99	101.3	.4142	.0215	.00043	.2145	.00429	.4434	.008868
355.66	101.3	.3971	.027	.00054	.2075	.00415	.4263	.008526
355.66	101.3	.3559	.0205	.00041	.2095	.00419	.4165	.00833
356.38	101.3	.3384	.0267	.000534	.1928	.003856	.4176	.008352
356.39	101.3	.3764	.0208	.000416	.174	.00348	.4475	.00895
357.57	101.3	.3101	.0185	.00037	.1624	.003248	.4081	.008162
359.31	101.3	.2803	.0168	.000336	.1277	.002554	.412	.00824
360.27	101.3	.2529	.0186	.000372	.1291	.002582	.3943	.007886

System: n-propyl alcohol + 2,2,4-trimethylpentane + water; phases: Liquid mixture 2, Liquid mixture 1, Gas
Property: Mole fraction of water (Liquid mixture 2); method: Chromatography
Property: Mole fraction of 2,2,4-trimethylpentane (Liquid mixture 2); method: Chromatography
Property: Mole fraction of 2,2,4-trimethylpentane (Liquid mixture 1); method: Chromatography
Property: Mole fraction of water (Liquid mixture 1); method: Chromatography
Property: Mole fraction of 2,2,4-trimethylpentane (Gas); method: Chromatography
Property: Mole fraction of water (Gas); method: Chromatography
Temperature, K	Pressure, kPa	Mole fraction of water	uncertainty	Mole fraction of 2,2,4-trimethylpentane	uncertainty	Mole fraction of 2,2,4-trimethylpentane	uncertainty	Mole fraction of water	uncertainty	Mole fraction of 2,2,4-trimethylpentane	uncertainty	Mole fraction of water	uncertainty
352.31	101.3	.9988	.019976	.0012	.000024	.9886	.019772	.0114	.000228	.529	.01058	.471	.00942
348.85	101.3	.977	.01954	0	0	.9266	.018532	.0245	.00049	.4484	.008968	.4015	.00803
348.71	101.3	.9742	.019484	.0001	.000002	.9217	.018434	.0162	.000324	.4464	.008928	.3867	.007734
348.32	101.3	.9704	.019408	0	0	.8998	.017996	.0304	.000608	.4315	.00863	.3941	.007882
348.52	101.3	.9645	.01929	0	0	.8669	.017338	.0357	.000714	.4425	.00885	.3912	.007824
348.03	101.3	.9568	.019136	0	0	.8433	.016866	.0402	.000804	.4331	.008662	.407	.00814
347.93	101.3	.9448	.018896	.0002	.000004	.8256	.016512	.0431	.000862	.4403	.008806	.3713	.007426
347.76	101.3	.9383	.018766	.0002	.000004	.7993	.015986	.044	.00088	.4225	.00845	.3975	.00795
347.74	101.3	.9282	.018564	.0003	.000006	.7361	.014722	.0601	.001202	.4195	.00839	.3865	.00773
347.75	101.3	.899	.01798	.0006	.000012	.6401	.012802	.1133	.002266	.3948	.007896	.3885	.00777
347.72	101.3	.8848	.017696	.0012	.000024	.6293	.012586	.1106	.002212	.412	.00824	.3826	.007652
347.76	101.3	.8554	.017108	.0033	.000066	.5736	.011472	.1345	.00269	.4083	.008166	.3838	.007676
347.63	101.3	.8452	.016904	.0049	.000098	.5617	.011234	.1446	.002892	.4246	.008492	.3899	.007798
347.63	101.3	.8415	.01683	.0057	.000114	.5441	.010882	.1417	.002834	.4056	.008112	.3793	.007586
347.78	101.3	.7988	.015976	.0093	.000186	.4988	.009976	.1661	.003322	.4338	.008676	.3654	.007308
347.91	101.3	.7426	.014852	.0161	.000322	.4271	.008542	.1951	.003902	.4183	.008366	.3725	.00745
347.94	101.3	.6647	.013294	.0357	.000714	.3316	.006632	.2771	.005542	.4031	.008062	.3868	.007736

System: ethanol + 2,2,4-trimethylpentane; phases: Liquid, Gas
Fixed: Pressure, kPa = 101.3
Property: Boiling temperature at pressure P, K (Liquid); method: Ebulliometric method (Recirculating still)
Mole fraction of ethanol	Boiling temperature at pressure P, K	uncertainty
0	372.35	.12
.1406	346.48	.12
.1456	346.48	.12
.1698	346.35	.12
.1914	345.65	.12
.2058	345.65	.12
.2203	345.65	.12
.2398	345.05	.12
.2451	345	.12
.2659	345	.12
.2922	344.95	.12
.293	344.94	.12
.2962	344.79	.12
.6299	344.57	.12
.6337	344.57	.12
.7999	344.62	.12
.8078	344.62	.12
.8161	344.6	.12
.9377	346.75	.12
.9412	346.8	.12
.9494	347.42	.12
.9544	347.55	.12
.9575	347.65	.12
1	351.47	.12

System: ethanol + 2,2,4-trimethylpentane; phases: Gas, Liquid
Fixed: Pressure, kPa = 101.3
Property: Mole fraction of ethanol (Gas); method: Chromatography
Mole fraction of ethanol	Mole fraction of ethanol	uncertainty
0	0	0
.1406	.5971	.011942
.1456	.5813	.011626
.1698	.592	.01184
.1914	.5986	.011972
.2058	.6056	.012112
.2203	.6007	.012014
.2398	.5988	.011976
.2451	.6087	.012174
.2659	.6103	.012206
.2922	.6112	.012224
.293	.61	.0122
.2962	.6113	.012226
.6299	.6454	.012908
.6337	.6422	.012844
.7999	.6566	.013132
.8078	.6706	.013412
.8161	.674	.01348
.9377	.7921	.015842
.9412	.7817	.015634
.9494	.8034	.016068
.9544	.8053	.016106
.9575	.8201	.016402
1	1	.02

System: ethanol + n-butanol + water; phases: Liquid mixture 1, Liquid mixture 2, Gas
Fixed: Pressure, kPa = 101.3
Property: Mole fraction of water (Liquid mixture 1); method: Chromatography
Property: Mole fraction of n-butanol (Liquid mixture 1); method: Chromatography
Property: Mole fraction of water (Liquid mixture 2); method: Chromatography
Property: Mole fraction of n-butanol (Liquid mixture 2); method: Chromatography
Property: Mole fraction of n-butanol (Gas); method: Chromatography
Property: Mole fraction of water (Gas); method: Chromatography
Temperature, K	Mole fraction of water	uncertainty	Mole fraction of n-butanol	uncertainty	Mole fraction of water	uncertainty	Mole fraction of n-butanol	uncertainty	Mole fraction of n-butanol	uncertainty	Mole fraction of water	uncertainty
365.85	.5812	.011624	.4188	.008376	.9808	.019616	.0192	.000384	.2429	.004858	.7571	.015142
364.15	.5953	.011906	.3332	.006664	.959	.01918	.0223	.000446	.192	.00384	.6868	.013736
364.26	.6586	.013172	.2887	.005774	.9476	.018952	.0238	.000476	.1449	.002898	.6803	.013606
365.83	.5814	.011628	.4186	.008372	.9778	.019556	.0222	.000444	.243	.00486	.757	.01514
364.56	.6397	.012794	.3114	.006228	.9688	.019376	.0178	.000356	.1835	.00367	.7027	.014054
363.31	.8469	.016938	.0806	.001612	.8634	.017268	.091	.00182	.1415	.00283	.6488	.012976
364.32	.6311	.012622	.3096	.006192	.9621	.019242	.0176	.000352	.1872	.003744	.6967	.013934
364.48	.6474	.012948	.2943	.005886	.9678	.019356	.0152	.000304	.1877	.003754	.7098	.014196
365.89	.611	.01222	.389	.00778	.9795	.01959	.0205	.00041	.333	.00666	.667	.01334
365.83	.6186	.012372	.3749	.007498	.9816	.019632	.017	.00034	.2248	.004496	.7548	.015096
365.31	.6518	.013036	.3248	.006496	.9771	.019542	.0171	.000342	.2119	.004238	.7296	.014592
364.78	.6542	.013084	.3086	.006172	.9697	.019394	.0179	.000358	.1805	.00361	.6993	.013986
365.85	.5812	.011624	.4188	.008376	.9808	.019616	.0192	.000384	.2429	.004858	.7571	.015142
