Measured thermophysical data. Thermal Conductivity of Liquid 2-Methoxyethyl Acetate, 2-Ethylhexyl Acetate, and Diethyl Succinate
Source: J. Chem. Eng. Data, 2012, 10.1021/je300778e
Compound 1: 2-methoxyethyl ethanoate, C5H10O3, purity 99%
Compound 2: acetic acid, 2-ethylhexyl ester, C10H20O2, purity 99%
Compound 3: butanedioic acid, diethyl ester, C8H14O4, purity 99%

System: 2-methoxyethyl ethanoate; phases: Liquid
Property: Thermal conductivity, W/m/K (Liquid); method: Hot wire method
Temperature, K	Pressure, kPa	Thermal conductivity, W/m/K	uncertainty
234.05	100	.1656	.003312
234.59	100	.1655	.00331
236.02	100	.166	.00332
233.65	5000	.1678	.003356
234.24	5000	.1681	.003362
235.02	5000	.1668	.003336
234.04	10000	.1686	.003372
234.44	10000	.1685	.00337
235.71	10000	.1686	.003372
233.82	15000	.1694	.003388
234.28	15000	.1692	.003384
234.64	15000	.1689	.003378
233.7	20000	.1702	.003404
234.3	20000	.1705	.00341
234.42	20000	.1703	.003406
256.15	100	.1628	.003256
256.84	100	.163	.00326
257.47	100	.1629	.003258
256.1	5000	.1648	.003296
256.33	5000	.1643	.003286
257.52	5000	.164	.00328
255.45	10000	.1664	.003328
256.78	10000	.1661	.003322
257.54	10000	.1659	.003318
256.31	15000	.1675	.00335
256.81	15000	.1674	.003348
257.25	15000	.1679	.003358
255.26	20000	.1686	.003372
255.63	20000	.1682	.003364
256.4	20000	.169	.00338
275.32	100	.1603	.003206
275.85	100	.1609	.003218
276.29	100	.1605	.00321
275.1	5000	.1624	.003248
275.94	5000	.1623	.003246
275.76	5000	.1621	.003242
275.85	10000	.1642	.003284
276.09	10000	.1636	.003272
276.84	10000	.1639	.003278
275.89	15000	.1655	.00331
275.88	15000	.1658	.003316
276.87	15000	.1651	.003302
275.95	20000	.1667	.003334
276.17	20000	.1667	.003334
276.74	20000	.1662	.003324
277.01	20000	.1661	.003322
295.22	100	.1571	.003142
295.37	100	.156	.00312
295.87	100	.1563	.003126
296.37	100	.1561	.003122
295.73	5000	.1591	.003182
296.17	5000	.1584	.003168
296.58	5000	.1581	.003162
297.1	5000	.158	.00316
295.1	10000	.1608	.003216
295.75	10000	.1603	.003206
296.74	10000	.1604	.003208
297.11	10000	.1601	.003202
295.49	15000	.1617	.003234
295.37	15000	.1619	.003238
296.84	15000	.1614	.003228
296.11	20000	.1632	.003264
297.03	20000	.1638	.003276
297.68	20000	.1639	.003278
314.9	100	.1519	.003038
315.4	100	.1521	.003042
315.91	100	.1526	.003052
315.91	5000	.1549	.003098
316.31	5000	.1555	.00311
316.36	5000	.1545	.00309
315.15	10000	.1571	.003142
315.78	10000	.1563	.003126
316.36	10000	.1567	.003134
315.78	15000	.159	.00318
315.83	15000	.158	.00316
316.68	15000	.1588	.003176
315.04	20000	.1603	.003206
315.86	20000	.1596	.003192
336.04	100	.1475	.00295
336.28	100	.1474	.002948
336.7	100	.1476	.002952
336.32	5000	.1498	.002996
336.79	5000	.1495	.00299
337.22	5000	.1496	.002992
336.3	10000	.1509	.003018
336.83	10000	.1514	.003028
337.18	10000	.151	.00302
337.12	15000	.1541	.003082
338.16	15000	.1542	.003084
338.7	15000	.1542	.003084
336.84	20000	.1561	.003122
337.68	20000	.1556	.003112
338.63	20000	.156	.00312
356.01	100	.1428	.002856
356.41	100	.1431	.002862
356.56	100	.1425	.00285
355.2	5000	.1458	.002916
355.68	5000	.1457	.002914
355.65	5000	.1448	.002896
355.26	10000	.1479	.002958
355.48	10000	.148	.00296
355.66	10000	.1477	.002954
356.85	10000	.1472	.002944
355.44	15000	.1494	.002988
355.92	15000	.1505	.00301
356.34	15000	.1499	.002998
355.72	20000	.1517	.003034
356.15	20000	.1519	.003038
356.56	20000	.1519	.003038
375.76	100	.1382	.002764
376.21	100	.1378	.002756
376.92	100	.1378	.002756
376.75	100	.1377	.002754
376.11	5000	.1409	.002818
376.89	5000	.1402	.002804
376.76	5000	.141	.00282
376.05	10000	.1436	.002872
376.87	10000	.1426	.002852
377.6	10000	.1427	.002854
375.87	15000	.146	.00292
375.82	15000	.1453	.002906
376.25	15000	.1452	.002904
376.71	15000	.1448	.002896
375.76	20000	.1482	.002964
376.23	20000	.1473	.002946
376.27	20000	.148	.00296
376.73	20000	.1473	.002946

System: acetic acid, 2-ethylhexyl ester; phases: Liquid
Property: Thermal conductivity, W/m/K (Liquid); method: Hot wire method
Temperature, K	Pressure, kPa	Thermal conductivity, W/m/K	uncertainty
236.98	100	.1389	.002778
237.87	100	.1391	.002782
238.15	100	.139	.00278
237.23	5000	.1405	.00281
238.6	5000	.1403	.002806
239.43	5000	.1404	.002808
237.14	10000	.1415	.00283
238.64	10000	.1417	.002834
239.5	10000	.1416	.002832
237.83	15000	.143	.00286
237.9	15000	.1431	.002862
238.65	15000	.1429	.002858
236.69	20000	.1443	.002886
237.89	20000	.1444	.002888
238.49	20000	.1438	.002876
255.44	100	.1363	.002726
258.36	100	.1363	.002726
258.31	100	.1361	.002722
255.58	5000	.1382	.002764
255.73	5000	.1377	.002754
257.53	5000	.1376	.002752
256.36	10000	.1399	.002798
257.05	10000	.1397	.002794
258.36	10000	.139	.00278
255.73	15000	.1409	.002818
256.27	15000	.1408	.002816
256.94	15000	.1407	.002814
255.67	20000	.142	.00284
256.24	20000	.1423	.002846
256.74	20000	.142	.00284
275.57	100	.1331	.002662
277.69	100	.1331	.002662
278.39	100	.133	.00266
275.68	5000	.1354	.002708
276.56	5000	.1343	.002686
278.48	5000	.1344	.002688
276.34	10000	.1366	.002732
276.82	10000	.1361	.002722
278.65	10000	.1366	.002732
276.08	15000	.1377	.002754
276.61	15000	.1372	.002744
277.62	15000	.1374	.002748
276.71	20000	.1393	.002786
276.87	20000	.1392	.002784
277.71	20000	.1394	.002788
296.2	100	.1294	.002588
297.69	100	.1293	.002586
298.41	100	.129	.00258
296.14	5000	.1312	.002624
296.63	5000	.1308	.002616
298.26	5000	.1309	.002618
296.29	10000	.1332	.002664
297.51	10000	.1325	.00265
298.43	10000	.1326	.002652
296.19	15000	.1344	.002688
296.56	15000	.1338	.002676
297.36	15000	.1338	.002676
298.36	15000	.134	.00268
296.02	20000	.1358	.002716
296.75	20000	.1359	.002718
298.13	20000	.1356	.002712
316.29	100	.1248	.002496
317.28	100	.1247	.002494
318.02	100	.125	.0025
315.7	5000	.127	.00254
315.99	5000	.1268	.002536
317.68	5000	.1265	.00253
315.46	10000	.1284	.002568
315.74	10000	.1281	.002562
317.25	10000	.1284	.002568
315.33	15000	.1304	.002608
316.91	15000	.131	.00262
317.76	15000	.1304	.002608
316.23	20000	.1328	.002656
315.64	20000	.1324	.002648
317.51	20000	.1322	.002644
318.11	20000	.1318	.002636
336.49	100	.12	.0024
337.04	100	.1201	.002402
338.66	100	.1198	.002396
337.39	5000	.1223	.002446
337.82	5000	.1222	.002444
337.85	5000	.1219	.002438
338.98	5000	.1216	.002432
337.02	10000	.1237	.002474
337.46	10000	.1236	.002472
338.84	10000	.1243	.002486
338.99	10000	.1237	.002474
337.87	15000	.1257	.002514
338.69	15000	.1258	.002516
339.1	15000	.126	.00252
336.93	20000	.1276	.002552
339.05	20000	.1278	.002556
339.42	20000	.1276	.002552
356.99	100	.1154	.002308
356.69	100	.1148	.002296
357.29	100	.1155	.00231
355.71	5000	.1179	.002358
356.65	5000	.1177	.002354
357.21	5000	.1178	.002356
356.18	10000	.1196	.002392
357.52	10000	.1197	.002394
357.48	10000	.1194	.002388
355.36	15000	.122	.00244
356.17	15000	.1222	.002444
357.31	15000	.1219	.002438
356.63	20000	.1243	.002486
357.4	20000	.1245	.00249
358.21	20000	.1244	.002488
375.83	100	.1109	.002218
376.61	100	.1111	.002222
377.52	100	.111	.00222
375.91	5000	.1141	.002282
375.86	5000	.1142	.002284
376.6	5000	.114	.00228
375.73	10000	.1158	.002316
376.71	10000	.1162	.002324
376.83	10000	.1155	.00231
376.09	15000	.1179	.002358
377.29	15000	.1185	.00237
377.41	15000	.1178	.002356
377.74	15000	.1175	.00235
375.68	20000	.1197	.002394
377.45	20000	.1197	.002394
378.14	20000	.1199	.002398

System: butanedioic acid, diethyl ester; phases: Liquid
Property: Thermal conductivity, W/m/K (Liquid); method: Hot wire method
Temperature, K	Pressure, kPa	Thermal conductivity, W/m/K	uncertainty
265.06	100	.1559	.003118
266.38	100	.1561	.003122
267.04	100	.1561	.003122
264.81	5000	.1565	.00313
266.47	5000	.1571	.003142
266.94	5000	.1572	.003144
265.83	10000	.1586	.003172
266.13	10000	.1582	.003164
267.83	10000	.1589	.003178
265.23	15000	.1602	.003204
265.57	15000	.1596	.003192
266.08	15000	.1594	.003188
265.83	20000	.1615	.00323
265.94	20000	.1602	.003204
266.81	20000	.1607	.003214
285.63	100	.1527	.003054
286.33	100	.1528	.003056
287.75	100	.1527	.003054
285.62	5000	.1539	.003078
286.14	5000	.1537	.003074
286.61	5000	.1538	.003076
287.43	5000	.1535	.00307
285.16	10000	.1556	.003112
285.71	10000	.1554	.003108
286.36	10000	.1555	.00311
285.68	15000	.157	.00314
286.27	15000	.1569	.003138
286.56	15000	.1562	.003124
287.36	15000	.1563	.003126
284.87	20000	.158	.00316
285.41	20000	.1579	.003158
286.76	20000	.1578	.003156
304.47	100	.1484	.002968
305.66	100	.1483	.002966
307.33	100	.1482	.002964
306.12	5000	.1497	.002994
306.79	5000	.1501	.003002
307.29	5000	.1502	.003004
305.72	10000	.1518	.003036
306.44	10000	.1519	.003038
306.84	10000	.1513	.003026
307.27	10000	.151	.00302
304.53	15000	.1529	.003058
306.12	15000	.1529	.003058
306.8	15000	.1529	.003058
304.85	20000	.1551	.003102
305.64	20000	.1543	.003086
306.39	20000	.1549	.003098
326.02	100	.1436	.002872
326.76	100	.1433	.002866
327.56	100	.1437	.002874
327.21	5000	.1448	.002896
327.81	5000	.1449	.002898
328.57	5000	.1449	.002898
329.63	5000	.1453	.002906
327.17	10000	.1466	.002932
328.07	10000	.1471	.002942
328.62	10000	.1469	.002938
327.58	15000	.1489	.002978
328.35	15000	.1484	.002968
329.69	15000	.1481	.002962
327.69	20000	.1503	.003006
328.56	20000	.1502	.003004
330.11	20000	.1501	.003002
345.53	100	.1385	.00277
346.63	100	.1384	.002768
347.16	100	.1385	.00277
345.49	5000	.1404	.002808
346.11	5000	.1404	.002808
345.99	5000	.1402	.002804
345.8	10000	.1422	.002844
346.44	10000	.1423	.002846
347.34	10000	.1419	.002838
346.18	15000	.1448	.002896
346.52	15000	.1442	.002884
346.65	15000	.1446	.002892
345.18	20000	.1462	.002924
346.59	20000	.1462	.002924
346.94	20000	.1461	.002922
365.09	100	.1339	.002678
365.79	100	.1341	.002682
366.5	100	.1339	.002678
365.16	5000	.1359	.002718
365.59	5000	.136	.00272
367.17	5000	.1358	.002716
365.15	10000	.1381	.002762
366.11	10000	.138	.00276
366.72	10000	.1379	.002758
365.54	15000	.1395	.00279
366.57	15000	.1399	.002798
367.31	15000	.1397	.002794
366.54	20000	.1409	.002818
366.05	20000	.1409	.002818
366.66	20000	.1415	.00283
367.25	20000	.1415	.00283
386.08	100	.1284	.002568
386.36	100	.1279	.002558
387.25	100	.1278	.002556
386.02	5000	.1309	.002618
386.15	5000	.1301	.002602
386.7	5000	.1304	.002608
386.95	5000	.1303	.002606
385.51	10000	.1325	.00265
385.95	10000	.1326	.002652
386.8	10000	.1327	.002654
386.93	10000	.1321	.002642
385.95	15000	.1349	.002698
386.5	15000	.1349	.002698
387.06	15000	.1352	.002704
385.28	20000	.1379	.002758
385.96	20000	.1384	.002768
386.63	20000	.1378	.002756
