Measured thermophysical data. Density and Surface Tension Measurements of Partially Carbonated Aqueous Monoethanolamine Solutions
Source: J. Chem. Eng. Data, 2013, 10.1021/je300920t
Compound 1: water, H2O
Compound 2: carbon dioxide, CO2, purity 99.99%
Compound 3: 2-aminoethanol, C2H7NO, purity 99.5%

System: 2-aminoethanol; phases: Liquid, Air at 1 atmosphere
Property: Surface tension liquid-gas, N/m (Liquid); method: Drop volume
Temperature, K	Surface tension liquid-gas, N/m	uncertainty
293.15	.04848	.0004
303.15	.04764	.0004
313.15	.04688	.0004

System: carbon dioxide + 2-aminoethanol + water; phases: Liquid
Fixed: Pressure, kPa = 101
Property: Mass density, kg/m3 (Liquid); method: Vibrating tube method
Temperature, K	Mole fraction of 2-aminoethanol	Mole fraction of carbon dioxide	Mass density, kg/m3	uncertainty
313.15	.5214	.0365	1053.4	6.34
313.15	.486	.1021	1115	6.34
313.15	.486	.1021	1114.8	6.34
313.15	.486	.1021	1117.6	6.34
313.15	.47	.1316	1148.6	6.34
313.15	.4678	.1357	1154	6.34
313.15	.4656	.1397	1154	6.34
313.15	.4656	.1397	1152	6.34
313.15	.4634	.1437	1158.2	6.34
313.15	.455	.1593	1173.3	6.34
313.15	.4509	.1668	1181.5	6.34
313.15	.4489	.1706	1189.9	6.34
313.15	.4489	.1706	1188.7	6.34
313.15	.4449	.178	1197.2	6.34
313.15	.441	.1852	1209	6.34
313.15	.4371	.1923	1216.4	6.34
313.15	.4333	.1993	1220.8	6.34
313.15	.4314	.2028	1223.4	6.34
313.15	.4296	.2062	1232.5	6.34
313.15	.4278	.2096	1232.1	6.34
313.15	.4241	.2163	1240.9	6.34
323.15	.5214	.0365	1046.3	6.34
323.15	.486	.1021	1108.5	6.34
323.15	.486	.1021	1108.7	6.34
323.15	.4836	.1064	1111.1	6.34
323.15	.47	.1316	1142.9	6.34
323.15	.4678	.1357	1148.2	6.34
323.15	.4656	.1397	1148.2	6.34
323.15	.4656	.1397	1146.5	6.34
323.15	.4634	.1437	1150.9	6.34
323.15	.455	.1593	1167.8	6.34
323.15	.4509	.1668	1176	6.34
323.15	.4489	.1706	1184.5	6.34
323.15	.4489	.1706	1183	6.34
323.15	.4449	.178	1191.8	6.34
323.15	.441	.1852	1203.7	6.34
323.15	.4371	.1923	1210.8	6.34
323.15	.4333	.1993	1213.8	6.34
323.15	.4314	.2028	1217.1	6.34
323.15	.4296	.2062	1226.1	6.34
323.15	.4278	.2096	1226.6	6.34
323.15	.4259	.213	1232.3	6.34
333.15	.5214	.0365	1039.1	6.34
333.15	.486	.1021	1102.6	6.34
333.15	.486	.1021	1101.4	6.34
333.15	.4836	.1064	1104.5	6.34
333.15	.4678	.1357	1135.8	6.34
333.15	.4678	.1357	1139.7	6.34
333.15	.4656	.1397	1140.2	6.34
333.15	.4634	.1437	1143.6	6.34
333.15	.455	.1593	1161.8	6.34
333.15	.4509	.1668	1168.8	6.34
333.15	.4509	.1668	1179.3	6.34
333.15	.4489	.1706	1177.3	6.34
333.15	.4449	.178	1185.5	6.34
333.15	.441	.1852	1198.2	6.34
333.15	.439	.1888	1205.2	6.34
333.15	.4352	.1958	1207.8	6.34
333.15	.4278	.2096	1220.9	6.34
333.15	.4259	.213	1223.9	6.34
343.15	.5214	.0365	1031.8	6.34
343.15	.486	.1021	1096.7	6.34
343.15	.486	.1021	1095.5	6.34
343.15	.4836	.1064	1098.8	6.34
343.15	.4678	.1357	1130.4	6.34
343.15	.4656	.1397	1135	6.34
343.15	.4656	.1397	1134.5	6.34
343.15	.4634	.1437	1138.5	6.34
343.15	.455	.1593	1156.6	6.34
343.15	.4509	.1668	1163.6	6.34
343.15	.4489	.1706	1174	6.34
343.15	.4489	.1706	1171.5	6.34
343.15	.4449	.178	1179.9	6.34
343.15	.441	.1852	1192.3	6.34
343.15	.439	.1888	1198.8	6.34
343.15	.4352	.1958	1198.8	6.34
343.15	.4278	.2096	1215.1	6.34

System: carbon dioxide + 2-aminoethanol + water; phases: Liquid, Air at 1 atmosphere
Property: Surface tension liquid-gas, N/m (Liquid); method: Drop volume
Temperature, K	Mole fraction of 2-aminoethanol	Mole fraction of carbon dioxide	Surface tension liquid-gas, N/m	uncertainty
313.15	.5412	0	.0515	.0018
313.15	.5214	.0365	.053	.0018
313.15	.4836	.1064	.0571	.0018
313.15	.4656	.1397	.0594	.0018
313.15	.4489	.1706	.0617	.0018
313.15	.4259	.213	.0664	.0018
323.15	.5412	0	.0504	.0018
323.15	.5214	.0365	.0517	.0018
323.15	.4836	.1064	.0561	.0018
323.15	.4656	.1397	.0589	.0018
323.15	.4489	.1706	.0605	.0018
323.15	.4259	.213	.0647	.0018
333.15	.5412	0	.0493	.0018
333.15	.5214	.0365	.0506	.0018
333.15	.4836	.1064	.0546	.0018
333.15	.4656	.1397	.057	.0018
333.15	.4489	.1706	.0597	.0018
333.15	.4259	.213	.0639	.0018
343.15	.5412	0	.0481	.0018
343.15	.5214	.0365	.0497	.0018
343.15	.4836	.1064	.0541	.0018
343.15	.4656	.1397	.0562	.0018
343.15	.4489	.1706	.0584	.0018
343.15	.4259	.213	.0628	.0018

System: 2-aminoethanol + water; phases: Liquid, Air at 1 atmosphere
Property: Surface tension liquid-gas, N/m (Liquid); method: Drop volume
Temperature, K	Mole fraction of 2-aminoethanol	Surface tension liquid-gas, N/m	uncertainty
313.15	.5412	.0515	.0018
323.15	.5412	.0504	.0018
333.15	.5412	.0493	.0018
343.15	.5412	.0481	.0018
