Measured thermophysical data. Thermal Conductivity of DMSO + C2H5OH, DMSO + H2O, and DMSO + C2H5OH + H2O Mixtures at T = (278.15 to 338.15) K
Source: J. Chem. Eng. Data, 2013, 10.1021/je301171y
Compound 1: water, H2O, purity 99.99%
Compound 2: ethanol, C2H6O, purity 99.7%
Compound 3: sulfinylbismethane, C2H6OS, purity 99%

System: water; phases: Liquid, Air at 1 atmosphere
Property: Thermal conductivity, W/m/K (Liquid); method: Hot wire method
Temperature, K	Thermal conductivity, W/m/K	uncertainty
279.47	.579	.01158
289.15	.599	.01198
299.07	.616	.01232
308.79	.631	.01262
318.62	.642	.01284
328.63	.656	.01312
338.24	.665	.0133

System: ethanol; phases: Liquid, Air at 1 atmosphere
Property: Thermal conductivity, W/m/K (Liquid); method: Hot wire method
Temperature, K	Thermal conductivity, W/m/K	uncertainty
278.92	.169	.00338
288.98	.167	.00334
298.87	.165	.0033
308.81	.162	.00324
318.86	.16	.0032
328.52	.157	.00314
338.22	.156	.00312

System: sulfinylbismethane; phases: Liquid, Air at 1 atmosphere
Property: Thermal conductivity, W/m/K (Liquid); method: Hot wire method
Temperature, K	Thermal conductivity, W/m/K	uncertainty
294.83	.186	.00372
299.84	.186	.00372
304.64	.185	.0037
309.47	.184	.00368
314.33	.183	.00366
319.33	.182	.00364
324.37	.182	.00364
329.31	.181	.00362
334.49	.18	.0036
339.35	.18	.0036

System: ethanol + sulfinylbismethane; phases: Liquid
Fixed: Pressure, kPa = 100
Property: Thermal conductivity, W/m/K (Liquid); method: Hot wire method
Mass fraction of sulfinylbismethane	Temperature, K	Thermal conductivity, W/m/K	uncertainty
.1028	280.31	.17	.0034
.1028	290.23	.167	.00334
.1028	300.13	.164	.00328
.1028	309.91	.162	.00324
.1028	319.71	.159	.00318
.1028	329.37	.157	.00314
.1028	339.41	.155	.0031
.406	280.19	.173	.00346
.406	289.67	.17	.0034
.406	299.77	.168	.00336
.406	309.74	.166	.00332
.406	319.47	.164	.00328
.406	329.62	.162	.00324
.406	339.18	.159	.00318
.7006	279.97	.178	.00356
.7006	289.86	.177	.00354
.7006	299.8	.174	.00348
.7006	309.85	.173	.00346
.7006	319.51	.171	.00342
.7006	329.67	.169	.00338
.7006	339.27	.166	.00332
.2005	280	.17	.0034
.2005	290.06	.168	.00336
.2005	299.81	.165	.0033
.2005	309.71	.163	.00326
.2005	319.61	.161	.00322
.2005	329.47	.158	.00316
.2005	339.51	.157	.00314
.5007	279.97	.174	.00348
.5007	289.71	.172	.00344
.5007	300.23	.171	.00342
.5007	309.84	.168	.00336
.5007	319.66	.166	.00332
.5007	329.72	.164	.00328
.5007	339.56	.162	.00324
.8004	279.39	.181	.00362
.8004	289.18	.179	.00358
.8004	299.05	.177	.00354
.8004	308.94	.176	.00352
.8004	318.75	.174	.00348
.8004	328.7	.172	.00344
.8004	338.46	.17	.0034
.3004	280.15	.171	.00342
.3004	289.71	.168	.00336
.3004	299.79	.166	.00332
.3004	309.88	.164	.00328
.3004	319.57	.162	.00324
.3004	329.6	.16	.0032
.3004	339.18	.157	.00314
.6016	280.2	.177	.00354
.6016	289.79	.174	.00348
.6016	299.87	.172	.00344
.6016	309.61	.17	.0034
.6016	319.66	.168	.00336
.6016	329.64	.166	.00332
.6016	339.25	.163	.00326
.9	280	.184	.00368
.9	289.82	.183	.00366
.9	299.88	.182	.00364
.9	309.42	.18	.0036
.9	319.18	.178	.00356
.9	328.94	.176	.00352
.9	338.72	.174	.00348

System: sulfinylbismethane + water; phases: Liquid
Fixed: Pressure, kPa = 100
Property: Thermal conductivity, W/m/K (Liquid); method: Hot wire method
Mass fraction of sulfinylbismethane	Temperature, K	Thermal conductivity, W/m/K	uncertainty
.1	279.63	.522	.01044
.1	289.49	.539	.01078
.1	299.22	.551	.01102
.1	309.03	.563	.01126
.1	318.88	.575	.0115
.1	328.78	.586	.01172
.1	338.6	.594	.01188
.1995	279.91	.466	.00932
.1995	289.8	.48	.0096
.1995	299.67	.492	.00984
.1995	309.51	.503	.01006
.1995	319.2	.511	.01022
.1995	329.2	.523	.01046
.1995	338.93	.528	.01056
.2998	280.21	.414	.00828
.2998	290.02	.424	.00848
.2998	299.92	.434	.00868
.2998	309.95	.444	.00888
.2998	319.7	.452	.00904
.2998	329.56	.46	.0092
.2998	339.37	.465	.0093
.3967	279.76	.366	.00732
.3967	289.6	.374	.00748
.3967	299.58	.382	.00764
.3967	309.43	.389	.00778
.3967	319.18	.396	.00792
.3967	328.97	.4	.008
.3967	338.87	.404	.00808
.5013	279.57	.319	.00638
.5013	289.12	.324	.00648
.5013	299.16	.33	.0066
.5013	309	.335	.0067
.5013	318.75	.339	.00678
.5013	328.48	.343	.00686
.5013	338.61	.347	.00694
.599	280.01	.282	.00564
.599	289.59	.284	.00568
.599	299.6	.288	.00576
.599	309.51	.292	.00584
.599	319.44	.296	.00592
.599	329.12	.298	.00596
.599	338.9	.299	.00598
.6929	279.37	.25	.005
.6929	288.93	.251	.00502
.6929	298.86	.253	.00506
.6929	308.79	.255	.0051
.6929	318.54	.257	.00514
.6929	328.6	.259	.00518
.6929	338.59	.261	.00522
.7941	279.69	.222	.00444
.7941	289.32	.222	.00444
.7941	299.26	.223	.00446
.7941	309.16	.224	.00448
.7941	318.9	.224	.00448
.7941	328.75	.224	.00448
.7941	338.86	.224	.00448
.9	279.18	.2	.004
.9	289.38	.2	.004
.9	299.4	.2	.004
.9	309.13	.199	.00398
.9	319.21	.199	.00398
.9	328.9	.198	.00396
.9	338.51	.196	.00392

System: ethanol + water; phases: Liquid
Fixed: Pressure, kPa = 100
Property: Thermal conductivity, W/m/K (Liquid); method: Hot wire method
Mass fraction of ethanol	Temperature, K	Thermal conductivity, W/m/K	uncertainty
.1002	279.61	.513	.01026
.1002	289.19	.527	.01054
.1002	298.94	.54	.0108
.1002	308.91	.554	.01108
.1002	318.5	.564	.01128
.1002	328.31	.574	.01148
.1002	338.27	.583	.01166
.1998	279.37	.453	.00906
.1998	289.17	.465	.0093
.1998	298.99	.475	.0095
.1998	308.78	.486	.00972
.1998	318.61	.494	.00988
.1998	328.63	.503	.01006
.1998	338.5	.511	.01022
.3002	279.32	.401	.00802
.3002	288.97	.409	.00818
.3002	299.12	.418	.00836
.3002	309.04	.426	.00852
.3002	318.77	.432	.00864
.3002	328.34	.436	.00872
.3002	338.26	.441	.00882
.4002	279.49	.355	.0071
.4002	289.08	.36	.0072
.4002	299.08	.365	.0073
.4002	308.84	.369	.00738
.4002	318.69	.374	.00748
.4002	328.65	.379	.00758
.4002	338.71	.384	.00768
.4981	279.46	.312	.00624
.4981	289.32	.317	.00634
.4981	299.13	.319	.00638
.4981	309.03	.323	.00646
.4981	318.87	.325	.0065
.4981	328.66	.327	.00654
.4981	338.41	.328	.00656
.5997	279.45	.274	.00548
.5997	288.96	.275	.0055
.5997	298.95	.277	.00554
.5997	308.68	.278	.00556
.5997	318.67	.28	.0056
.5997	328.68	.281	.00562
.5997	338.63	.283	.00566
.7016	279.23	.24	.0048
.7016	289.17	.241	.00482
.7016	299.14	.241	.00482
.7016	308.97	.241	.00482
.7016	318.79	.241	.00482
.7016	328.65	.24	.0048
.7016	338.36	.24	.0048
.7996	279.65	.213	.00426
.7996	289.44	.212	.00424
.7996	299.59	.212	.00424
.7996	309.4	.211	.00422
.7996	318.93	.209	.00418
.7996	328.87	.208	.00416
.7996	338.51	.207	.00414
.8994	279.9	.191	.00382
.8994	289.62	.189	.00378
.8994	299.35	.186	.00372
.8994	309.29	.184	.00368
.8994	319.24	.183	.00366
.8994	328.86	.181	.00362
.8994	338.59	.179	.00358

System: ethanol + sulfinylbismethane + water; phases: Liquid
Fixed: Pressure, kPa = 100
Property: Thermal conductivity, W/m/K (Liquid); method: Hot wire method
Mass fraction of sulfinylbismethane	Mass fraction of ethanol	Temperature, K	Thermal conductivity, W/m/K	uncertainty
.1013	.1004	279.89	.459	.00918
.1013	.1004	289.52	.471	.00942
.1013	.1004	299.22	.48	.0096
.1013	.1004	309.05	.49	.0098
.1013	.1004	319.04	.502	.01004
.1013	.1004	328.9	.501	.01002
.1013	.1004	338.67	.516	.01032
.099	.199	279.39	.405	.0081
.099	.199	289.21	.416	.00832
.099	.199	299.19	.424	.00848
.099	.199	309.12	.433	.00866
.099	.199	318.55	.437	.00874
.099	.199	328.55	.444	.00888
.099	.199	338.39	.45	.009
.1991	.1017	279.39	.408	.00816
.1991	.1017	289.32	.419	.00838
.1991	.1017	299.14	.427	.00854
.1991	.1017	309	.436	.00872
.1991	.1017	318.78	.444	.00888
.1991	.1017	328.57	.451	.00902
.1991	.1017	338.37	.456	.00912
.0996	.2997	279.6	.358	.00716
.0996	.2997	289.36	.363	.00726
.0996	.2997	299.44	.369	.00738
.0996	.2997	309.18	.375	.0075
.0996	.2997	319.1	.379	.00758
.0996	.2997	328.9	.384	.00768
.0996	.2997	338.74	.387	.00774
.1994	.1977	279.76	.361	.00722
.1994	.1977	289.51	.368	.00736
.1994	.1977	299.53	.375	.0075
.1994	.1977	309.33	.381	.00762
.1994	.1977	318.84	.385	.0077
.1994	.1977	328.62	.389	.00778
.1994	.1977	338.57	.394	.00788
.3012	.0997	279.73	.361	.00722
.3012	.0997	289.55	.369	.00738
.3012	.0997	299.59	.377	.00754
.3012	.0997	309.4	.383	.00766
.3012	.0997	319.14	.388	.00776
.3012	.0997	328.73	.393	.00786
.3012	.0997	338.56	.397	.00794
.1001	.3995	279.21	.313	.00626
.1001	.3995	289.19	.318	.00636
.1001	.3995	299	.321	.00642
.1001	.3995	308.98	.325	.0065
.1001	.3995	318.76	.328	.00656
.1001	.3995	328.87	.332	.00664
.1001	.3995	338.52	.334	.00668
.1993	.2998	279.24	.315	.0063
.1993	.2998	288.89	.319	.00638
.1993	.2998	298.91	.324	.00648
.1993	.2998	309.09	.33	.0066
.1993	.2998	318.61	.331	.00662
.1993	.2998	328.63	.335	.0067
.1993	.2998	338.44	.338	.00676
.2501	.2489	279.2	.316	.00632
.2501	.2489	289.08	.321	.00642
.2501	.2489	299.05	.326	.00652
.2501	.2489	308.91	.33	.0066
.2501	.2489	318.62	.333	.00666
.2501	.2489	328.36	.336	.00672
.2501	.2489	338.46	.339	.00678
.2998	.199	279.42	.318	.00636
.2998	.199	289.09	.322	.00644
.2998	.199	298.97	.326	.00652
.2998	.199	308.89	.331	.00662
.2998	.199	318.56	.334	.00668
.2998	.199	328.47	.338	.00676
.2998	.199	338.21	.34	.0068
.3984	.0998	279.31	.319	.00638
.3984	.0998	288.86	.324	.00648
.3984	.0998	298.97	.329	.00658
.3984	.0998	308.8	.334	.00668
.3984	.0998	318.62	.339	.00678
.3984	.0998	328.51	.342	.00684
.3984	.0998	338.37	.345	.0069
.1001	.4999	279.38	.276	.00552
.1001	.4999	289.22	.278	.00556
.1001	.4999	299.2	.28	.0056
.1001	.4999	308.75	.28	.0056
.1001	.4999	318.65	.282	.00564
.1001	.4999	328.45	.282	.00564
.1001	.4999	338.51	.284	.00568
.1999	.3991	279.26	.277	.00554
.1999	.3991	289.12	.279	.00558
.1999	.3991	299.14	.282	.00564
.1999	.3991	308.85	.283	.00566
.1999	.3991	318.52	.285	.0057
.1999	.3991	328.79	.288	.00576
.1999	.3991	338.61	.288	.00576
.2973	.295	279.58	.281	.00562
.2973	.295	289.38	.284	.00568
.2973	.295	299.35	.286	.00572
.2973	.295	309.11	.289	.00578
.2973	.295	319.1	.292	.00584
.2973	.295	328.83	.292	.00584
.2973	.295	338.81	.294	.00588
.3973	.1991	279.32	.28	.0056
.3973	.1991	289.1	.284	.00568
.3973	.1991	298.94	.286	.00572
.3973	.1991	308.85	.289	.00578
.3973	.1991	318.73	.292	.00584
.3973	.1991	328.56	.294	.00588
.3973	.1991	338.42	.295	.0059
.4999	.0998	279.34	.28	.0056
.4999	.0998	288.9	.283	.00566
.4999	.0998	298.9	.286	.00572
.4999	.0998	308.6	.29	.0058
.4999	.0998	318.57	.292	.00584
.4999	.0998	328.48	.294	.00588
.4999	.0998	338.31	.296	.00592
.0992	.5999	279.06	.243	.00486
.0992	.5999	288.95	.243	.00486
.0992	.5999	298.94	.243	.00486
.0992	.5999	308.83	.244	.00488
.0992	.5999	318.63	.244	.00488
.0992	.5999	328.76	.244	.00488
.0992	.5999	338.51	.244	.00488
.2002	.5005	278.9	.242	.00484
.2002	.5005	288.96	.244	.00488
.2002	.5005	299.18	.245	.0049
.2002	.5005	308.76	.245	.0049
.2002	.5005	318.57	.245	.0049
.2002	.5005	328.59	.245	.0049
.2002	.5005	338.47	.245	.0049
.2991	.401	279.06	.244	.00488
.2991	.401	288.71	.245	.0049
.2991	.401	298.92	.247	.00494
.2991	.401	308.89	.248	.00496
.2991	.401	318.83	.249	.00498
.2991	.401	328.68	.249	.00498
.2991	.401	338.44	.249	.00498
.4006	.2982	279.05	.245	.0049
.4006	.2982	288.76	.246	.00492
.4006	.2982	299.06	.248	.00496
.4006	.2982	308.62	.248	.00496
.4006	.2982	318.76	.25	.005
.4006	.2982	328.27	.249	.00498
.4006	.2982	338.21	.249	.00498
.496	.2037	278.98	.245	.0049
.496	.2037	288.93	.247	.00494
.496	.2037	298.95	.249	.00498
.496	.2037	308.93	.251	.00502
.496	.2037	318.47	.251	.00502
.496	.2037	328.53	.252	.00504
.496	.2037	338.36	.252	.00504
.5995	.0998	279.63	.248	.00496
.5995	.0998	289.32	.249	.00498
.5995	.0998	299.19	.25	.005
.5995	.0998	309.26	.253	.00506
.5995	.0998	318.99	.254	.00508
.5995	.0998	328.85	.255	.0051
.5995	.0998	338.68	.255	.0051
.1002	.7002	279.25	.215	.0043
.1002	.7002	289.2	.213	.00426
.1002	.7002	299.33	.212	.00424
.1002	.7002	309.02	.211	.00422
.1002	.7002	318.94	.21	.0042
.1002	.7002	328.66	.209	.00418
.1002	.7002	338.62	.208	.00416
.2	.5988	279.5	.215	.0043
.2	.5988	289.34	.214	.00428
.2	.5988	299.31	.214	.00428
.2	.5988	309.16	.213	.00426
.2	.5988	319.08	.212	.00424
.2	.5988	328.66	.21	.0042
.2	.5988	338.6	.21	.0042
.2953	.5048	279.46	.215	.0043
.2953	.5048	289.25	.215	.0043
.2953	.5048	299.11	.214	.00428
.2953	.5048	309.17	.214	.00428
.2953	.5048	318.75	.213	.00426
.2953	.5048	328.75	.213	.00426
.2953	.5048	338.56	.211	.00422
.3972	.4017	279.36	.216	.00432
.3972	.4017	289.07	.215	.0043
.3972	.4017	298.93	.215	.0043
.3972	.4017	308.97	.215	.0043
.3972	.4017	318.74	.215	.0043
.3972	.4017	328.67	.214	.00428
.3972	.4017	338.57	.213	.00426
.5	.2994	279.31	.216	.00432
.5	.2994	289.02	.216	.00432
.5	.2994	299.32	.217	.00434
.5	.2994	309	.217	.00434
.5	.2994	318.81	.216	.00432
.5	.2994	328.62	.216	.00432
.5	.2994	338.59	.215	.0043
.5968	.2014	279.41	.218	.00436
.5968	.2014	289.26	.218	.00436
.5968	.2014	299.02	.218	.00436
.5968	.2014	308.93	.218	.00436
.5968	.2014	318.71	.218	.00436
.5968	.2014	328.67	.218	.00436
.5968	.2014	338.79	.219	.00438
.6989	.1004	279.23	.218	.00436
.6989	.1004	289.34	.22	.0044
.6989	.1004	299.1	.22	.0044
.6989	.1004	309.05	.22	.0044
.6989	.1004	318.69	.22	.0044
.6989	.1004	328.68	.221	.00442
.6989	.1004	338.34	.219	.00438
.1001	.7984	279.2	.191	.00382
.1001	.7984	289.08	.189	.00378
.1001	.7984	299.09	.187	.00374
.1001	.7984	309	.186	.00372
.1001	.7984	318.7	.183	.00366
.1001	.7984	328.49	.181	.00362
.1001	.7984	338.43	.18	.0036
.2033	.6974	279.32	.191	.00382
.2033	.6974	289.16	.189	.00378
.2033	.6974	299.18	.187	.00374
.2033	.6974	308.89	.186	.00372
.2033	.6974	318.64	.184	.00368
.2033	.6974	328.8	.183	.00366
.2033	.6974	338.51	.181	.00362
.2999	.6001	279.16	.191	.00382
.2999	.6001	288.99	.19	.0038
.2999	.6001	299.07	.189	.00378
.2999	.6001	309.07	.187	.00374
.2999	.6001	318.93	.186	.00372
.2999	.6001	328.61	.184	.00368
.2999	.6001	338.5	.182	.00364
.4015	.4988	279.58	.191	.00382
.4015	.4988	289.65	.191	.00382
.4015	.4988	299.63	.189	.00378
.4015	.4988	309.51	.188	.00376
.4015	.4988	319.26	.187	.00374
.4015	.4988	328.98	.185	.0037
.4015	.4988	338.52	.183	.00366
.4993	.4009	279.42	.192	.00384
.4993	.4009	289.18	.191	.00382
.4993	.4009	299.24	.19	.0038
.4993	.4009	309.02	.189	.00378
.4993	.4009	318.89	.188	.00376
.4993	.4009	328.77	.187	.00374
.4993	.4009	338.86	.185	.0037
.5996	.3001	279.16	.191	.00382
.5996	.3001	288.99	.19	.0038
.5996	.3001	299.07	.189	.00378
.5996	.3001	309.07	.187	.00374
.5996	.3001	318.93	.186	.00372
.5996	.3001	328.61	.184	.00368
.5996	.3001	338.5	.182	.00364
.7008	.1996	279.61	.196	.00392
.7008	.1996	289.37	.195	.0039
.7008	.1996	299.47	.195	.0039
.7008	.1996	309.58	.194	.00388
.7008	.1996	319.04	.192	.00384
.7008	.1996	329.12	.192	.00384
.7008	.1996	338.89	.19	.0038
.7999	.1001	279.31	.198	.00396
.7999	.1001	289.27	.197	.00394
.7999	.1001	299.24	.197	.00394
.7999	.1001	308.93	.196	.00392
.7999	.1001	319.05	.195	.0039
.7999	.1001	328.75	.194	.00388
.7999	.1001	338.43	.193	.00386
