Measured thermophysical data. Isobaric Vapor Liquid Equilibria for the 2-Propanol + Ethylene Glycol Monopropyl Ether and 2-Butanol + Ethylene Glycol Monopropyl Ether Systems at 60 kPa, 80 kPa, and 100 kPa
Source: J. Chem. Eng. Data, 2012, 10.1021/je3002255
Compound 1: 2-propanol, C3H8O, purity 99.9%
Compound 2: butan-2-ol, C4H10O, purity 99%
Compound 3: 2-propoxyethanol, C5H12O2, purity 99.4%

System: 2-propanol; phases: Liquid, Gas
Property: Vapor or sublimation pressure, kPa (Liquid); method: Ebulliometric method (Recirculating still)
Temperature, K	Vapor or sublimation pressure, kPa	uncertainty
342.87	60	.18
349.6	80	.21
355.06	100	.24

System: butan-2-ol; phases: Liquid, Gas
Property: Vapor or sublimation pressure, kPa (Liquid); method: Ebulliometric method (Recirculating still)
Temperature, K	Vapor or sublimation pressure, kPa	uncertainty
359.26	60	.18
366.45	80	.21
372.21	100	.24

System: 2-propoxyethanol; phases: Liquid, Gas
Property: Vapor or sublimation pressure, kPa (Liquid); method: Ebulliometric method (Recirculating still)
Temperature, K	Vapor or sublimation pressure, kPa	uncertainty
406.15	60	.18
415.3	80	.21
422.75	100	.24
406.13	60	.18
415.28	80	.21
422.73	100	.24

System: 2-propanol + 2-propoxyethanol; phases: Liquid, Gas
Property: Boiling temperature at pressure P, K (Liquid); method: Ebulliometric method (Recirculating still)
Mole fraction of 2-propanol	Pressure, kPa	Boiling temperature at pressure P, K	uncertainty
0	60	406.15	.203
.014	60	402.79	.203
.032	60	399.16	.203
.049	60	395.45	.203
.075	60	390.73	.203
.109	60	385.58	.203
.157	60	379.48	.203
.243	60	371.56	.203
.345	60	364.28	.203
.451	60	358.85	.203
.577	60	354.29	.203
.696	60	350.28	.203
.8	60	346.65	.203
.905	60	344.37	.203
1	60	342.87	.203
.114	80	394.15	.203
.031	80	408.29	.203
.161	80	387.78	.203
.246	80	379.51	.203
.343	80	372.6	.203
.448	80	366.58	.203
.014	80	412.1	.203
.575	80	361.53	.203
.051	80	404.34	.203
.691	80	357.46	.203
.798	80	353.86	.203
0	80	415.3	.203
.901	80	351.35	.203
.078	80	399.44	.203
1	80	349.6	.203
0	100	422.75	.21
.016	100	418.99	.21
.583	100	367.47	.21
.681	100	363.69	.21
.336	100	379.27	.21
.058	100	410.24	.21
.123	100	400.21	.21
.798	100	359.68	.21
.036	100	414.79	.21
.899	100	356.91	.21
.173	100	394.3	.21
.449	100	372.61	.21
.237	100	387.41	.21
1	100	355.06	.21
.088	100	405.45	.21

System: 2-propanol + 2-propoxyethanol; phases: Gas, Liquid
Property: Mole fraction of 2-propanol (Gas); method: Chromatography
Mole fraction of 2-propanol	Pressure, kPa	Mole fraction of 2-propanol	uncertainty
0	60	0	.0015
1	60	1	.0015
.075	60	.481	.0015
.157	60	.71	.0015
.032	60	.251	.0015
.014	60	.134	.0015
.696	60	.98	.0015
.8	60	.991	.0015
.049	60	.362	.0015
.109	60	.602	.0015
.243	60	.818	.0015
.451	60	.938	.0015
.577	60	.965	.0015
.905	60	.996	.0015
.345	60	.899	.0015
.114	80	.592	.0009
.161	80	.706	.0009
.343	80	.886	.0009
.051	80	.349	.0009
0	80	0	.0009
.078	80	.476	.0009
.246	80	.815	.0009
1	80	1	.0009
.901	80	.996	.0009
.798	80	.989	.0009
.575	80	.963	.0009
.014	80	.124	.0009
.031	80	.239	.0009
.691	80	.979	.0009
.448	80	.931	.0009
1	100	1	.0024
.336	100	.879	.0024
.123	100	.597	.0024
.798	100	.989	.0024
.036	100	.25	.0024
.058	100	.374	.0024
.899	100	.996	.0024
.237	100	.793	.0024
.173	100	.703	.0024
.088	100	.49	.0024
.449	100	.929	.0024
.681	100	.977	.0024
0	100	0	.0024
.016	100	.13	.0024
.583	100	.961	.0024

System: butan-2-ol + 2-propoxyethanol; phases: Liquid, Gas
Property: Boiling temperature at pressure P, K (Liquid); method: Ebulliometric method (Recirculating still)
Mole fraction of butan-2-ol	Pressure, kPa	Boiling temperature at pressure P, K	uncertainty
0	60	406.13	.201
1	60	359.26	.201
.692	60	366.14	.201
.799	60	363.39	.201
.36	60	378.22	.201
.582	60	369.43	.201
.904	60	360.97	.201
.011	60	404.49	.201
.47	60	373.48	.201
.144	60	391.75	.201
.194	60	388.26	.201
.264	60	383.53	.201
.064	60	398.78	.201
.03	60	402.01	.201
.093	60	395.84	.201
.581	80	377.09	.201
.692	80	373.61	.201
1	80	366.45	.201
.194	80	396.98	.201
.064	80	407.77	.201
.096	80	404.58	.201
.011	80	413.59	.201
.797	80	370.5	.201
.362	80	386.25	.201
.902	80	368.03	.201
.031	80	411.02	.201
.261	80	392.09	.201
0	80	415.28	.201
.471	80	381.33	.201
.148	80	400.41	.201
.902	100	373.87	.204
.145	100	408.17	.204
.467	100	388.1	.204
.262	100	399.18	.204
.36	100	393.31	.204
0	100	422.73	.204
.582	100	383.54	.204
.689	100	379.96	.204
.064	100	415.27	.204
.096	100	411.93	.204
.798	100	376.47	.204
1	100	372.21	.204
.195	100	404.2	.204
.032	100	418.5	.204
.011	100	421.2	.204

System: butan-2-ol + 2-propoxyethanol; phases: Gas, Liquid
Property: Mole fraction of butan-2-ol (Gas); method: Chromatography
Mole fraction of butan-2-ol	Pressure, kPa	Mole fraction of butan-2-ol	uncertainty
0	60	0	.0012
.582	60	.92	.0012
.904	60	.99	.0012
1	60	1	.0012
.011	60	.065	.0012
.03	60	.154	.0012
.264	60	.693	.0012
.36	60	.793	.0012
.692	60	.949	.0012
.064	60	.282	.0012
.093	60	.377	.0012
.144	60	.503	.0012
.799	60	.974	.0012
.47	60	.869	.0012
.194	60	.59	.0012
.362	80	.788	.001
.581	80	.915	.001
.064	80	.273	.001
.011	80	.063	.001
.031	80	.148	.001
.692	80	.948	.001
.797	80	.974	.001
.902	80	.99	.001
1	80	1	.001
.096	80	.37	.001
.194	80	.582	.001
.261	80	.681	.001
.148	80	.487	.001
0	80	0	.001
.471	80	.864	.001
.064	100	.263	.0008
.582	100	.914	.0008
.902	100	.989	.0008
.262	100	.671	.0008
.096	100	.362	.0008
1	100	1	.0008
.145	100	.475	.0008
.195	100	.573	.0008
0	100	0	.0008
.011	100	.062	.0008
.467	100	.854	.0008
.36	100	.774	.0008
.032	100	.146	.0008
.689	100	.946	.0008
.798	100	.972	.0008
