Measured thermophysical data. Vapor Liquid Equilibrium Data for Binary Systems of 1-Methyl-4-(1-methylethenyl)-cyclohexene + {Ethanol, Propan-1-ol, Propan-2-ol, Butan-1-ol, Pentan-1-ol, or Hexan-1-ol} at 40 kPa
Source: J. Chem. Eng. Data, 2012, 10.1021/je300347z
Compound 1: ethanol, C2H6O, purity 99.8%
Compound 2: propyl alcohol, C3H8O, purity 99.8%
Compound 3: 2-propanol, C3H8O, purity 99.8%
Compound 4: n-butyl alcohol, C4H10O, purity 99.9%
Compound 5: pentan-1-ol, C5H12O, purity 99.4%
Compound 6: 1-hydroxyhexane, C6H14O, purity 99%
Compound 7: (R)-p-mentha-1,8-diene, C10H16, purity 97%

System: ethanol; phases: Liquid
Fixed: Pressure, kPa = 101.325
Property: Mass density, kg/m3 (Liquid); method: Vibrating tube method
Temperature, K	Mass density, kg/m3	uncertainty
293.2	789.91	.00005

System: ethanol; phases: Liquid
Fixed: Pressure, kPa = 101.325
Property: Refractive index (Na D-line) (Liquid); method: Standard Abbe refractometry
Temperature, K	Refractive index (Na D-line)	uncertainty
293.2	1.3612	.00012

System: ethanol; phases: Liquid, Gas
Property: Vapor or sublimation pressure, kPa (Liquid); method: Ebulliometric method (Recirculating still)
Temperature, K	Vapor or sublimation pressure, kPa	uncertainty
302.4	10	.3
315.4	20	.3
323.6	30	.3
329.7	40	.3
334.7	50	.3
338.8	60	.3
342.4	70	.3
345.6	80	.3
348.5	90	.3
351.1	100	.3
330	40	.3

System: propyl alcohol; phases: Liquid
Fixed: Pressure, kPa = 101.325
Property: Mass density, kg/m3 (Liquid); method: Vibrating tube method
Temperature, K	Mass density, kg/m3	uncertainty
293.2	801.33	.00005

System: propyl alcohol; phases: Liquid
Fixed: Pressure, kPa = 101.325
Property: Refractive index (Na D-line) (Liquid); method: Standard Abbe refractometry
Temperature, K	Refractive index (Na D-line)	uncertainty
293.2	1.3851	.00012

System: propyl alcohol; phases: Liquid, Gas
Property: Vapor or sublimation pressure, kPa (Liquid); method: Ebulliometric method (Recirculating still)
Temperature, K	Vapor or sublimation pressure, kPa	uncertainty
319.6	10	.3
332.8	20	.3
341.3	30	.3
347.7	40	.3
352.7	50	.3
357.1	60	.3
360.8	70	.3
364.1	80	.3
367.1	90	.3
369.8	100	.3

System: 2-propanol; phases: Liquid
Fixed: Pressure, kPa = 101.325
Property: Mass density, kg/m3 (Liquid); method: Vibrating tube method
Temperature, K	Mass density, kg/m3	uncertainty
293.2	785.42	.00005

System: 2-propanol; phases: Liquid
Fixed: Pressure, kPa = 101.325
Property: Refractive index (Na D-line) (Liquid); method: Standard Abbe refractometry
Temperature, K	Refractive index (Na D-line)	uncertainty
293.2	1.3771	.00012

System: 2-propanol; phases: Liquid, Gas
Property: Vapor or sublimation pressure, kPa (Liquid); method: Ebulliometric method (Recirculating still)
Temperature, K	Vapor or sublimation pressure, kPa	uncertainty
307.1	10	.3
319.9	20	.3
328	30	.3
334	40	.3
338.8	50	.3
342.9	60	.3
346.5	70	.3
349.7	80	.3
352.5	90	.3
355	100	.3
334.1	40	.3

System: n-butyl alcohol; phases: Liquid
Fixed: Pressure, kPa = 101.325
Property: Mass density, kg/m3 (Liquid); method: Vibrating tube method
Temperature, K	Mass density, kg/m3	uncertainty
293.2	810.28	.00005

System: n-butyl alcohol; phases: Liquid
Fixed: Pressure, kPa = 101.325
Property: Refractive index (Na D-line) (Liquid); method: Standard Abbe refractometry
Temperature, K	Refractive index (Na D-line)	uncertainty
293.2	1.3993	.00012

System: n-butyl alcohol; phases: Liquid, Gas
Property: Vapor or sublimation pressure, kPa (Liquid); method: Ebulliometric method (Recirculating still)
Temperature, K	Vapor or sublimation pressure, kPa	uncertainty
337.2	10	.3
351.1	20	.3
360	30	.3
366.7	40	.3
372.1	50	.3
376.6	60	.3
380.5	70	.3
384	80	.3
387.2	90	.3
390.1	100	.3

System: pentan-1-ol; phases: Liquid
Fixed: Pressure, kPa = 101.325
Property: Mass density, kg/m3 (Liquid); method: Vibrating tube method
Temperature, K	Mass density, kg/m3	uncertainty
293.2	814.16	.00005

System: pentan-1-ol; phases: Liquid
Fixed: Pressure, kPa = 101.325
Property: Refractive index (Na D-line) (Liquid); method: Standard Abbe refractometry
Temperature, K	Refractive index (Na D-line)	uncertainty
293.2	1.4097	.00012

System: pentan-1-ol; phases: Liquid, Gas
Property: Vapor or sublimation pressure, kPa (Liquid); method: Ebulliometric method (Recirculating still)
Temperature, K	Vapor or sublimation pressure, kPa	uncertainty
354	10	.3
368.7	20	.3
378	30	.3
385.3	40	.3
391	50	.3
395.9	60	.3
400.2	70	.3
403.9	80	.3
407.3	90	.3
410.4	100	.3
384.7	40	.3

System: 1-hydroxyhexane; phases: Liquid
Fixed: Pressure, kPa = 101.325
Property: Mass density, kg/m3 (Liquid); method: Vibrating tube method
Temperature, K	Mass density, kg/m3	uncertainty
293.2	816.31	.00005

System: 1-hydroxyhexane; phases: Liquid
Fixed: Pressure, kPa = 101.325
Property: Refractive index (Na D-line) (Liquid); method: Standard Abbe refractometry
Temperature, K	Refractive index (Na D-line)	uncertainty
293.2	1.4207	.00012

System: 1-hydroxyhexane; phases: Liquid, Gas
Property: Vapor or sublimation pressure, kPa (Liquid); method: Ebulliometric method (Recirculating still)
Temperature, K	Vapor or sublimation pressure, kPa	uncertainty
403.2	40	.3
369.8	10	.3
385.7	20	.3
395.7	30	.3
403.4	40	.3
409.3	50	.3
414.5	60	.3
419	70	.3
423	80	.3
426.5	90	.3
429.6	99.7	.3

System: (R)-p-mentha-1,8-diene; phases: Liquid
Fixed: Pressure, kPa = 101.325
Property: Mass density, kg/m3 (Liquid); method: Vibrating tube method
Temperature, K	Mass density, kg/m3	uncertainty
293.2	814.83	.00005

System: (R)-p-mentha-1,8-diene; phases: Liquid
Fixed: Pressure, kPa = 101.325
Property: Refractive index (Na D-line) (Liquid); method: Standard Abbe refractometry
Temperature, K	Refractive index (Na D-line)	uncertainty
293.2	1.473	.00012

System: (R)-p-mentha-1,8-diene; phases: Liquid, Gas
Property: Vapor or sublimation pressure, kPa (Liquid); method: Ebulliometric method (Recirculating still)
Temperature, K	Vapor or sublimation pressure, kPa	uncertainty
375.5	10	.3
394.5	20	.3
406.5	30	.3
415.8	40	.3
423.4	50	.3
429.8	60	.3
435.5	70	.3
440.5	80	.3
445	90	.3
450	100	.3
403.2	27.48	.3
423.2	49.74	.3
415.7	40	.3

System: 1-hydroxyhexane + (R)-p-mentha-1,8-diene; phases: Liquid, Gas
Property: Boiling temperature at pressure P, K (Liquid); method: Ebulliometric method (Recirculating still)
Mole fraction of (R)-p-mentha-1,8-diene	Pressure, kPa	Boiling temperature at pressure P, K	uncertainty
0	40	403.2	.1
.034	40	402.3	.1
.081	40	401.8	.1
.128	40	401.5	.1
.187	40	400.9	.1
.281	40	400.9	.1
.371	40	401.1	.1
.446	40	401.2	.1
.493	40	401.5	.1
.607	40	402.6	.1
.769	40	404.6	.1
.839	40	406.4	.1
.887	40	408.3	.1
.965	40	413.4	.1
1	40	415.7	.1

System: 1-hydroxyhexane + (R)-p-mentha-1,8-diene; phases: Gas, Liquid
Property: Mole fraction of (R)-p-mentha-1,8-diene (Gas); method: Chromatography
Mole fraction of (R)-p-mentha-1,8-diene	Pressure, kPa	Mole fraction of (R)-p-mentha-1,8-diene	uncertainty
0	40	0	.006
.034	40	.048	.006
.081	40	.108	.006
.128	40	.162	.006
.187	40	.215	.006
.281	40	.287	.006
.371	40	.348	.006
.446	40	.391	.006
.493	40	.419	.006
.607	40	.483	.006
.769	40	.599	.006
.839	40	.664	.006
.887	40	.728	.006
.965	40	.903	.006
1	40	1	.006

System: ethanol + (R)-p-mentha-1,8-diene; phases: Liquid, Gas
Property: Boiling temperature at pressure P, K (Liquid); method: Ebulliometric method (Recirculating still)
Mole fraction of (R)-p-mentha-1,8-diene	Pressure, kPa	Boiling temperature at pressure P, K	uncertainty
0	40	330	.1
.007	40	330.2	.1
.016	40	330.3	.1
.034	40	330.5	.1
.055	40	330.6	.1
.077	40	330.8	.1
.114	40	331.1	.1
.152	40	331.6	.1
.203	40	331.7	.1
.259	40	331.8	.1
.326	40	332.4	.1
.402	40	332.9	.1
.562	40	333.9	.1
.714	40	338.3	.1
.763	40	340.7	.1
.83	40	345.3	.1
.985	40	395.8	.1
.993	40	403.2	.1
.998	40	411.5	.1
.999	40	412.9	.1
1	40	415.8	.1

System: ethanol + (R)-p-mentha-1,8-diene; phases: Gas, Liquid
Property: Mole fraction of (R)-p-mentha-1,8-diene (Gas); method: Chromatography
Mole fraction of (R)-p-mentha-1,8-diene	Pressure, kPa	Mole fraction of (R)-p-mentha-1,8-diene	uncertainty
0	40	0	.006
.007	40	.01	.006
.016	40	.01	.006
.034	40	.014	.006
.055	40	.017	.006
.077	40	.019	.006
.114	40	.021	.006
.152	40	.022	.006
.203	40	.028	.006
.259	40	.03	.006
.326	40	.035	.006
.402	40	.039	.006
.562	40	.04	.006
.714	40	.043	.006
.763	40	.048	.006
.83	40	.051	.006
.985	40	.507	.006
.993	40	.662	.006
.998	40	.86	.006
.999	40	.899	.006
1	40	1	.006

System: propyl alcohol + (R)-p-mentha-1,8-diene; phases: Liquid, Gas
Property: Boiling temperature at pressure P, K (Liquid); method: Ebulliometric method (Recirculating still)
Mole fraction of (R)-p-mentha-1,8-diene	Pressure, kPa	Boiling temperature at pressure P, K	uncertainty
0	40	347.7	.1
.008	40	347.9	.1
.037	40	348.6	.1
.117	40	349.5	.1
.354	40	351.5	.1
.662	40	355.4	.1
.76	40	359.1	.1
.879	40	367.3	.1
.931	40	380.3	.1
.984	40	409.9	.1
1	40	415.7	.1

System: propyl alcohol + (R)-p-mentha-1,8-diene; phases: Gas, Liquid
Property: Mole fraction of (R)-p-mentha-1,8-diene (Gas); method: Chromatography
Mole fraction of (R)-p-mentha-1,8-diene	Pressure, kPa	Mole fraction of (R)-p-mentha-1,8-diene	uncertainty
0	40	0	.006
.008	40	.004	.006
.037	40	.022	.006
.117	40	.04	.006
.354	40	.066	.006
.662	40	.08	.006
.76	40	.102	.006
.879	40	.169	.006
.931	40	.295	.006
.984	40	.794	.006
1	40	1	.006

System: 2-propanol + (R)-p-mentha-1,8-diene; phases: Liquid, Gas
Property: Boiling temperature at pressure P, K (Liquid); method: Ebulliometric method (Recirculating still)
Mole fraction of (R)-p-mentha-1,8-diene	Pressure, kPa	Boiling temperature at pressure P, K	uncertainty
0	40	334.1	.1
.027	40	335.3	.1
.077	40	335.6	.1
.161	40	336.5	.1
.34	40	337.3	.1
.589	40	340.6	.1
.789	40	345	.1
.874	40	350.6	.1
.959	40	385.3	.1
.977	40	399.9	.1
1	40	415.8	.1

System: 2-propanol + (R)-p-mentha-1,8-diene; phases: Gas, Liquid
Property: Mole fraction of (R)-p-mentha-1,8-diene (Gas); method: Chromatography
Mole fraction of (R)-p-mentha-1,8-diene	Pressure, kPa	Mole fraction of (R)-p-mentha-1,8-diene	uncertainty
0	40	0	.006
.027	40	.023	.006
.077	40	.019	.006
.161	40	.027	.006
.34	40	.03	.006
.589	40	.045	.006
.789	40	.06	.006
.874	40	.086	.006
.959	40	.369	.006
.977	40	.633	.006
1	40	1	.006

System: n-butyl alcohol + (R)-p-mentha-1,8-diene; phases: Liquid, Gas
Property: Boiling temperature at pressure P, K (Liquid); method: Ebulliometric method (Recirculating still)
Mole fraction of (R)-p-mentha-1,8-diene	Pressure, kPa	Boiling temperature at pressure P, K	uncertainty
0	40	366.7	.1
.032	40	367.4	.1
.06	40	367.6	.1
.08	40	367.8	.1
.385	40	370.3	.1
.646	40	373.8	.1
.792	40	379.1	.1
.879	40	386.3	.1
.957	40	403.4	.1
.989	40	413.4	.1
1	40	415.7	.1

System: n-butyl alcohol + (R)-p-mentha-1,8-diene; phases: Gas, Liquid
Property: Mole fraction of (R)-p-mentha-1,8-diene (Gas); method: Chromatography
Mole fraction of (R)-p-mentha-1,8-diene	Pressure, kPa	Mole fraction of (R)-p-mentha-1,8-diene	uncertainty
0	40	0	.006
.032	40	.025	.006
.06	40	.035	.006
.08	40	.045	.006
.385	40	.139	.006
.646	40	.189	.006
.792	40	.239	.006
.879	40	.321	.006
.957	40	.669	.006
.989	40	.913	.006
1	40	1	.006

System: pentan-1-ol + (R)-p-mentha-1,8-diene; phases: Liquid, Gas
Property: Boiling temperature at pressure P, K (Liquid); method: Ebulliometric method (Recirculating still)
Mole fraction of (R)-p-mentha-1,8-diene	Pressure, kPa	Boiling temperature at pressure P, K	uncertainty
0	40	384.7	.1
.026	40	384.7	.1
.067	40	384.8	.1
.103	40	384.8	.1
.159	40	384.9	.1
.23	40	385	.1
.272	40	385.5	.1
.358	40	385.8	.1
.419	40	386.3	.1
.531	40	387.5	.1
.648	40	389.2	.1
.789	40	392.1	.1
.855	40	394.3	.1
.915	40	397.1	.1
.94	40	401.3	.1
.962	40	405.1	.1
.976	40	411.2	.1
1	40	415.7	.1

System: pentan-1-ol + (R)-p-mentha-1,8-diene; phases: Gas, Liquid
Property: Mole fraction of (R)-p-mentha-1,8-diene (Gas); method: Chromatography
Mole fraction of (R)-p-mentha-1,8-diene	Pressure, kPa	Mole fraction of (R)-p-mentha-1,8-diene	uncertainty
0	40	0	.006
.026	40	.042	.006
.067	40	.088	.006
.103	40	.105	.006
.159	40	.141	.006
.23	40	.185	.006
.272	40	.21	.006
.358	40	.238	.006
.419	40	.263	.006
.531	40	.296	.006
.648	40	.331	.006
.789	40	.386	.006
.855	40	.432	.006
.915	40	.494	.006
.94	40	.573	.006
.962	40	.676	.006
.976	40	.85	.006
1	40	1	.006
