Measured thermophysical data. Isobaric Vapor Liquid Equilibrium Data of 2-Methyl-propan-2-ol (1) + Heptan-1-ol (2), Methanol (1) + Heptan-1-ol (2), Ethanol (1) + Heptan-1-ol (2), and Propan-1-ol (1) + Heptan-1-ol (2) at 96.5 kPa
Source: J. Chem. Eng. Data, 2012, 10.1021/je300696c
Compound 1: 1-hydroxyheptane, C7H16O, purity 99%
Compound 2: methanol, CH4O, purity 99%
Compound 3: ethyl alcohol, C2H6O, purity 99%
Compound 4: propan-1-ol, C3H8O, purity 99%
Compound 5: 2-propanol, 2-methyl-, C4H10O, purity 99%

System: 1-hydroxyheptane; phases: Liquid
Fixed: Pressure, kPa = 101.325
Property: Mass density, kg/m3 (Liquid); method: Vibrating tube method
Temperature, K	Mass density, kg/m3	uncertainty
293.15	821.8	.1

System: 1-hydroxyheptane; phases: Liquid
Fixed: Pressure, kPa = 101.325
Property: Refractive index (Na D-line) (Liquid); method: Standard Abbe refractometry
Temperature, K	Refractive index (Na D-line)	uncertainty
293.15	1.4227	.0001

System: 1-hydroxyheptane; phases: Liquid, Gas
Property: Vapor or sublimation pressure, kPa (Liquid); method: Ebulliometric method (Recirculating still)
Temperature, K	Vapor or sublimation pressure, kPa	uncertainty
447.7	96.5	.133
447.74	96.5	.133
447.744	96.5	.133

System: methanol; phases: Liquid
Fixed: Pressure, kPa = 101.325
Property: Mass density, kg/m3 (Liquid); method: Vibrating tube method
Temperature, K	Mass density, kg/m3	uncertainty
293.15	791.2	.1

System: methanol; phases: Liquid
Fixed: Pressure, kPa = 101.325
Property: Refractive index (Na D-line) (Liquid); method: Standard Abbe refractometry
Temperature, K	Refractive index (Na D-line)	uncertainty
293.15	1.3285	.0001

System: methanol; phases: Liquid, Gas
Property: Vapor or sublimation pressure, kPa (Liquid); method: Closed cell (Static) method
Temperature, K	Vapor or sublimation pressure, kPa	uncertainty
336.48	96.5	.133

System: ethyl alcohol; phases: Liquid
Fixed: Pressure, kPa = 101.325
Property: Mass density, kg/m3 (Liquid); method: Vibrating tube method
Temperature, K	Mass density, kg/m3	uncertainty
293.15	788.9	.1

System: ethyl alcohol; phases: Liquid
Fixed: Pressure, kPa = 101.325
Property: Refractive index (Na D-line) (Liquid); method: Standard Abbe refractometry
Temperature, K	Refractive index (Na D-line)	uncertainty
293.15	1.3609	.0001

System: ethyl alcohol; phases: Liquid, Gas
Property: Vapor or sublimation pressure, kPa (Liquid); method: Closed cell (Static) method
Temperature, K	Vapor or sublimation pressure, kPa	uncertainty
350.21	96.5	.133

System: propan-1-ol; phases: Liquid
Fixed: Pressure, kPa = 101.325
Property: Mass density, kg/m3 (Liquid); method: Vibrating tube method
Temperature, K	Mass density, kg/m3	uncertainty
293.15	803.4	.1

System: propan-1-ol; phases: Liquid
Fixed: Pressure, kPa = 101.325
Property: Refractive index (Na D-line) (Liquid); method: Standard Abbe refractometry
Temperature, K	Refractive index (Na D-line)	uncertainty
293.15	1.3851	.0001

System: propan-1-ol; phases: Liquid, Gas
Property: Vapor or sublimation pressure, kPa (Liquid); method: Closed cell (Static) method
Temperature, K	Vapor or sublimation pressure, kPa	uncertainty
369.09	96.5	.133

System: 2-propanol, 2-methyl-; phases: Liquid
Fixed: Pressure, kPa = 101.325
Property: Mass density, kg/m3 (Liquid); method: Vibrating tube method
Temperature, K	Mass density, kg/m3	uncertainty
293.15	788.5	.1

System: 2-propanol, 2-methyl-; phases: Liquid
Fixed: Pressure, kPa = 101.325
Property: Refractive index (Na D-line) (Liquid); method: Standard Abbe refractometry
Temperature, K	Refractive index (Na D-line)	uncertainty
293.15	1.378	.0001

System: 2-propanol, 2-methyl-; phases: Liquid, Gas
Property: Vapor or sublimation pressure, kPa (Liquid); method: Ebulliometric method (Recirculating still)
Temperature, K	Vapor or sublimation pressure, kPa	uncertainty
354.3	96.5	.133

System: 2-propanol, 2-methyl- + 1-hydroxyheptane; phases: Liquid, Gas
Property: Boiling temperature at pressure P, K (Liquid); method: Ebulliometric method (Recirculating still)
Mole fraction of 2-propanol, 2-methyl-	Pressure, kPa	Boiling temperature at pressure P, K	uncertainty
0	96.5	447.7	1
.087	96.5	400	1
.19	96.5	382.8	1
.301	96.5	372.6	1
.4	96.5	369.1	1
.505	96.5	365.6	1
.672	96.5	361.2	1
.714	96.5	360.4	1
.823	96.5	358.2	1
.924	96.5	356.1	1
1	96.5	354.3	1

System: 2-propanol, 2-methyl- + 1-hydroxyheptane; phases: Gas, Liquid
Property: Mole fraction of 2-propanol, 2-methyl- (Gas); method: Chromatography
Mole fraction of 2-propanol, 2-methyl-	Pressure, kPa	Mole fraction of 2-propanol, 2-methyl-	uncertainty
0	96.5	0	.005
.087	96.5	.826	.005
.19	96.5	.923	.005
.301	96.5	.959	.005
.4	96.5	.97	.005
.505	96.5	.978	.005
.672	96.5	.984	.005
.714	96.5	.985	.005
.823	96.5	.989	.005
.924	96.5	.991	.005
1	96.5	1	.005

System: methanol + 1-hydroxyheptane; phases: Liquid, Gas
Property: Boiling temperature at pressure P, K (Liquid); method: Closed cell (Static) method
Mole fraction of methanol	Pressure, kPa	Boiling temperature at pressure P, K	uncertainty
0	96.5	447.74	1
.125	96.5	379.15	1
.228	96.5	354.15	1
.339	96.5	346.25	1
.41	96.5	345.35	1
.52	96.5	343.25	1
.61	96.5	342.45	1
.73	96.5	340.65	1
.831	96.5	340.15	1
.899	96.5	339.99	1
1	96.5	336.48	1

System: methanol + 1-hydroxyheptane; phases: Gas, Liquid
Property: Mole fraction of methanol (Gas); method: Chromatography
Mole fraction of methanol	Pressure, kPa	Mole fraction of methanol	uncertainty
0	96.5	0	.005
.125	96.5	.906	.005
.228	96.5	.971	.005
.339	96.5	.986	.005
.41	96.5	.99	.005
.52	96.5	.994	.005
.61	96.5	.994	.005
.73	96.5	.997	.005
.831	96.5	.998	.005
.899	96.5	.999	.005
1	96.5	1	.005

System: ethyl alcohol + 1-hydroxyheptane; phases: Liquid, Gas
Property: Boiling temperature at pressure P, K (Liquid); method: Closed cell (Static) method
Mole fraction of ethyl alcohol	Pressure, kPa	Boiling temperature at pressure P, K	uncertainty
0	96.5	447.744	1
.097	96.5	419.65	1
.293	96.5	360.85	1
.377	96.5	358.35	1
.502	96.5	356.35	1
.615	96.5	357.15	1
.724	96.5	353.15	1
.784	96.5	351.65	1
.955	96.5	353.15	1
1	96.5	350.21	1

System: ethyl alcohol + 1-hydroxyheptane; phases: Gas, Liquid
Property: Mole fraction of ethyl alcohol (Gas); method: Chromatography
Mole fraction of ethyl alcohol	Pressure, kPa	Mole fraction of ethyl alcohol	uncertainty
0	96.5	0	.005
.097	96.5	.742	.005
.293	96.5	.96	.005
.377	96.5	.973	.005
.502	96.5	.985	.005
.615	96.5	.989	.005
.724	96.5	.994	.005
.784	96.5	.995	.005
.955	96.5	.999	.005
1	96.5	1	.005

System: propan-1-ol + 1-hydroxyheptane; phases: Liquid, Gas
Property: Boiling temperature at pressure P, K (Liquid); method: Closed cell (Static) method
Mole fraction of propan-1-ol	Pressure, kPa	Boiling temperature at pressure P, K	uncertainty
0	96.5	447.74	1
.1	96.5	406.45	1
.2	96.5	382.95	1
.3	96.5	377.25	1
.401	96.5	377.55	1
.503	96.5	373.95	1
.627	96.5	371.75	1
.715	96.5	370.85	1
.818	96.5	371.55	1
.904	96.5	371.15	1
1	96.5	369.09	1

System: propan-1-ol + 1-hydroxyheptane; phases: Gas, Liquid
Property: Mole fraction of propan-1-ol (Gas); method: Chromatography
Mole fraction of propan-1-ol	Pressure, kPa	Mole fraction of propan-1-ol	uncertainty
0	96.5	0	.005
.1	96.5	.625	.005
.2	96.5	.826	.005
.3	96.5	.896	.005
.401	96.5	.929	.005
.503	96.5	.954	.005
.627	96.5	.972	.005
.715	96.5	.981	.005
.818	96.5	.989	.005
.904	96.5	.995	.005
1	96.5	1	.005
