Measured thermophysical data. Isobaric Vapor  -  Liquid Equilibrium for Ethyl Acetate + Acetonitrile +  1  -  Butyl-3-methylimidazolium Hexa  fl  uorophosphate at 101.3 kPa
Source: J. Chem. Eng. Data, 2013, 10.1021/je301204w
Compound 1: acetonitrile, C2H3N, purity 99.8%
Compound 2: ethyl ethanoate, C4H8O2, purity 99.5%
Compound 3: [bmim][PF6], C8H15F6N2P, purity 98%

System: acetonitrile + ethyl ethanoate; phases: Liquid, Gas
Fixed: Pressure, kPa = 101.3
Property: Boiling temperature at pressure P, K (Liquid); method: Ebulliometric method (Recirculating still)
Mole fraction of ethyl ethanoate	Boiling temperature at pressure P, K	uncertainty
0	354.3	.2
.048	353.2	.2
.145	351.6	.2
.243	350.4	.2
.345	349.6	.2
.447	349	.2
.55	348.7	.2
.648	348.5	.2
.745	348.6	.2
.852	349	.2
.947	349.5	.2
1	349.9	.2

System: acetonitrile + ethyl ethanoate; phases: Gas, Liquid
Fixed: Pressure, kPa = 101.3
Property: Mole fraction of ethyl ethanoate (Gas); method: Chromatography
Mole fraction of ethyl ethanoate	Mole fraction of ethyl ethanoate	uncertainty
0	0	.002
.048	.08	.002
.145	.215	.002
.243	.316	.002
.345	.408	.002
.447	.492	.002
.55	.577	.002
.648	.653	.002
.745	.736	.002
.852	.83	.002
.947	.938	.002
1	1	.002

System: acetonitrile + ethyl ethanoate + [bmim][PF6]; phases: Liquid, Gas
Fixed: Pressure, kPa = 101.3
Property: Boiling temperature at pressure P, K (Liquid); method: Ebulliometric method (Recirculating still)
Mole fraction of [bmim][PF6]	Solvent: Mole fraction of ethyl ethanoate	Boiling temperature at pressure P, K	uncertainty
.04999	0	356.8	.2
.05001	.1	354.4	.2
.05007	.196	352.6	.2
.05003	.295	351.4	.2
.05008	.391	350.5	.2
.05001	.494	349.9	.2
.05004	.597	349.6	.2
.05005	.697	349	.2
.04977	.797	349.2	.2
.05001	.898	349.2	.2
.05007	.948	349.4	.2
.04997	1	349.5	.2
.10005	0	360	.2
.09998	.098	356.8	.2
.10002	.196	354.7	.2
.09999	.298	353.1	.2
.10004	.393	352	.2
.10001	.493	351.2	.2
.10004	.597	350.6	.2
.10004	.699	350.4	.2
.1	.798	350.2	.2
.1	.898	350.1	.2
.10006	.95	350.2	.2
.1002	1	350.2	.2
.15	0	362.8	.2
.15006	.098	359.3	.2
.14989	.19	356.8	.2
.14992	.286	354.8	.2
.14996	.385	353.6	.2
.15002	.488	352.3	.2
.15004	.593	351.6	.2
.14631	.687	350.9	.2
.14999	.792	350.6	.2
.14993	.891	350.4	.2
.14996	.943	350.2	.2
.15008	1	350	.2
.20006	0	366.8	.2
.20004	.104	362	.2
.19995	.184	359.5	.2
.20007	.28	357.3	.2
.19992	.375	355.4	.2
.19994	.483	354	.2
.19998	.594	352.9	.2
.20008	.681	352.2	.2
.19947	.778	351.6	.2
.19999	.883	351.2	.2
.19998	.948	350.9	.2
.19997	1	351	.2

System: acetonitrile + ethyl ethanoate + [bmim][PF6]; phases: Gas, Liquid
Fixed: Pressure, kPa = 101.3
Property: Mole fraction of ethyl ethanoate (Gas); method: Chromatography
Mole fraction of [bmim][PF6]	Solvent: Mole fraction of ethyl ethanoate	Mole fraction of ethyl ethanoate	uncertainty
.04999	0	0	.002
.05001	.1	.176	.002
.05007	.196	.307	.002
.05003	.295	.415	.002
.05008	.391	.505	.002
.05001	.494	.586	.002
.05004	.597	.663	.002
.05005	.697	.744	.002
.04977	.797	.822	.002
.05001	.898	.906	.002
.05007	.948	.95	.002
.04997	1	1	.002
.10005	0	0	.002
.09998	.098	.188	.002
.10002	.196	.33	.002
.09999	.298	.439	.002
.10004	.393	.538	.002
.10001	.493	.62	.002
.10004	.597	.697	.002
.10004	.699	.773	.002
.1	.798	.844	.002
.1	.898	.921	.002
.10006	.95	.96	.002
.1002	1	1	.002
.15	0	0	.002
.15006	.098	.199	.002
.14989	.19	.345	.002
.14992	.286	.459	.002
.14996	.385	.555	.002
.15002	.488	.64	.002
.15004	.593	.719	.002
.14631	.687	.787	.002
.14999	.792	.86	.002
.14993	.891	.925	.002
.14996	.943	.959	.002
.15008	1	1	.002
.20006	0	0	.002
.20004	.104	.229	.002
.19995	.184	.36	.002
.20007	.28	.478	.002
.19992	.375	.581	.002
.19994	.483	.663	.002
.19998	.594	.738	.002
.20008	.681	.802	.002
.19947	.778	.862	.002
.19999	.883	.93	.002
.19998	.948	.968	.002
.19997	1	1	.002

System: acetonitrile + ethyl ethanoate + [bmim][PF6]; phases: Gas, Liquid
Fixed: Pressure, kPa = 101.3
Property: Mole fraction of acetonitrile (Gas); method: Chromatography
Mole fraction of [bmim][PF6]	Solvent: Mole fraction of ethyl ethanoate	Mole fraction of acetonitrile	uncertainty
.04999	0	1	.002
.05001	.1	.824	.002
.05007	.196	.693	.002
.05003	.295	.585	.002
.05008	.391	.495	.002
.05001	.494	.414	.002
.05004	.597	.337	.002
.05005	.697	.256	.002
.04977	.797	.178	.002
.05001	.898	.094	.002
.05007	.948	.05	.002
.04997	1	0	.002
.10005	0	1	.002
.09998	.098	.812	.002
.10002	.196	.67	.002
.09999	.298	.561	.002
.10004	.393	.462	.002
.10001	.493	.38	.002
.10004	.597	.303	.002
.10004	.699	.227	.002
.1	.798	.156	.002
.1	.898	.079	.002
.10006	.95	.04	.002
.1002	1	0	.002
.15	0	1	.002
.15006	.098	.801	.002
.14989	.19	.655	.002
.14992	.286	.541	.002
.14996	.385	.445	.002
.15002	.488	.36	.002
.15004	.593	.281	.002
.14631	.687	.213	.002
.14999	.792	.14	.002
.14993	.891	.075	.002
.14996	.943	.041	.002
.15008	1	0	.002
.20006	0	1	.002
.20004	.104	.771	.002
.19995	.184	.64	.002
.20007	.28	.522	.002
.19992	.375	.419	.002
.19994	.483	.337	.002
.19998	.594	.262	.002
.20008	.681	.198	.002
.19947	.778	.138	.002
.19999	.883	.07	.002
.19998	.948	.032	.002
.19997	1	0	.002
