Measured thermophysical data. Determination and Prediction of Vapor Liquid Equilibria for a System Containing Water + Butyl Acetate + Cyclohexane + Ethanol
Source: J. Chem. Eng. Data, 2012, 10.1021/je3005408
Compound 1: water, H2O
Compound 2: n-butyl acetate, C6H12O2, purity 99%
Compound 3: cyclohexane, C6H12, purity 99%
Compound 4: ethyl alcohol, C2H6O, purity 99.7%

System: n-butyl acetate; phases: Liquid, Gas
Property: Vapor or sublimation pressure, kPa (Liquid); method: Ebulliometric method (Recirculating still)
Temperature, K	Vapor or sublimation pressure, kPa	uncertainty
361.65	29.77	.02977
381.35	58.85	.05885
394.25	87.65	.08765

System: cyclohexane; phases: Liquid, Gas
Property: Vapor or sublimation pressure, kPa (Liquid); method: Ebulliometric method (Recirculating still)
Temperature, K	Vapor or sublimation pressure, kPa	uncertainty
317.95	29.77	.02977
336.85	58.85	.05885
349.15	87.65	.08765

System: cyclohexane + n-butyl acetate; phases: Liquid, Gas
Property: Boiling temperature at pressure P, K (Liquid); method: Ebulliometric method (Recirculating still)
Pressure, kPa	Mole fraction of n-butyl acetate	Boiling temperature at pressure P, K	uncertainty
29.77	0	317.95	.1
29.77	.0375	318.45	.1
29.77	.0769	319.05	.1
29.77	.1219	319.8	.1
29.77	.1664	320.6	.1
29.77	.2125	321.35	.1
29.77	.257	322.15	.1
29.77	.2954	323.2	.1
29.77	.3539	324.25	.1
29.77	.4081	325.45	.1
29.77	.4544	326.75	.1
29.77	.4949	327.85	.1
29.77	.5512	330.2	.1
29.77	.6079	331.75	.1
29.77	.6622	334.25	.1
29.77	.704	336.75	.1
29.77	.759	339.4	.1
29.77	.8006	342.65	.1
29.77	.8442	346.05	.1
29.77	.8956	350.2	.1
29.77	.9425	354.85	.1
29.77	1	361.65	.1
58.85	0	336.85	.1
58.85	.0375	337.65	.1
58.85	.0769	338.35	.1
58.85	.1219	339.2	.1
58.85	.1664	340.05	.1
58.85	.2125	340.95	.1
58.85	.257	341.85	.1
58.85	.2954	342.65	.1
58.85	.3539	344	.1
58.85	.4081	345.45	.1
58.85	.4544	346.9	.1
58.85	.4949	348.2	.1
58.85	.5512	350.65	.1
58.85	.6079	352.4	.1
58.85	.6622	354.85	.1
58.85	.704	357.4	.1
58.85	.759	360.5	.1
58.85	.8006	363.2	.1
58.85	.8442	366.9	.1
58.85	.8956	370.7	.1
58.85	.9425	375.55	.1
58.85	1	381.35	.1
87.65	0	349.15	.1
87.65	.0375	350.25	.1
87.65	.0769	351	.1
87.65	.1219	351.85	.1
87.65	.1664	352.75	.1
87.65	.2125	353.55	.1
87.65	.257	354.55	.1
87.65	.2954	355.55	.1
87.65	.3539	356.85	.1
87.65	.4081	358.3	.1
87.65	.4544	359.9	.1
87.65	.4949	361.15	.1
87.65	.5512	363.65	.1
87.65	.6079	365.65	.1
87.65	.6622	367.85	.1
87.65	.704	370.45	.1
87.65	.759	374.75	.1
87.65	.8006	377.5	.1
87.65	.8442	380.95	.1
87.65	.8956	384.55	.1
87.65	.9425	388.55	.1
87.65	1	394.25	.1

System: ethyl alcohol + n-butyl acetate + water; phases: Liquid, Gas
Property: Boiling temperature at pressure P, K (Liquid); method: Ebulliometric method (Recirculating still)
Pressure, kPa	Mole fraction of water	Mole fraction of n-butyl acetate	Boiling temperature at pressure P, K	uncertainty
29.77	.4413	.0316	324.65	.1
29.77	.4319	.0522	324.75	.1
29.77	.4049	.1116	325	.1
29.77	.3805	.165	325.3	.1
29.77	.3603	.2094	325.55	.1
29.77	.3476	.2372	325.65	.1
29.77	.3332	.2687	325.85	.1
29.77	.2989	.344	326.3	.1
29.77	.2799	.3859	326.55	.1
29.77	.2514	.4483	326.85	.1
29.77	.2055	.549	327.65	.1
29.77	.172	.6227	328.4	.1
29.77	.1265	.7223	330	.1
29.77	.0906	.8013	331.65	.1
29.77	.2435	.0178	323.8	.1
29.77	.2392	.0354	323.85	.1
29.77	.2261	.0879	324.15	.1
29.77	.2089	.1576	324.55	.1
29.77	.2083	.16	324.6	.1
29.77	.1986	.1991	324.85	.1
29.77	.1803	.2729	325.35	.1
29.77	.175	.2943	325.45	.1
29.77	.1557	.3721	325.9	.1
29.77	.1441	.4189	326.35	.1
29.77	.1241	.4994	327.2	.1
29.77	.1146	.5378	327.55	.1
29.77	.0897	.6381	328.75	.1
29.77	.0673	.7285	330.25	.1
29.77	.0401	.8384	333.95	.1
29.77	.0171	.9312	341.95	.1
29.77	.1082	.0407	323.7	.1
29.77	.1048	.0707	323.9	.1
29.77	.1039	.0792	324	.1
29.77	.1006	.1082	324.15	.1
29.77	.0954	.1545	324.55	.1
29.77	.0892	.2091	325	.1
29.77	.0858	.2395	325.15	.1
29.77	.0827	.2674	325.3	.1
29.77	.0764	.323	325.95	.1
29.77	.0735	.3488	326.1	.1
29.77	.0678	.3988	326.35	.1
29.77	.0563	.5011	327.65	.1
58.85	.4413	.0316	339.65	.1
58.85	.4319	.0522	339.75	.1
58.85	.4049	.1116	340.15	.1
58.85	.3805	.165	340.5	.1
58.85	.3603	.2094	340.75	.1
58.85	.3476	.2372	340.95	.1
58.85	.3332	.2687	341.15	.1
58.85	.2989	.344	341.65	.1
58.85	.2799	.3859	342	.1
58.85	.2514	.4483	342.4	.1
58.85	.2055	.549	343.25	.1
58.85	.172	.6227	344.15	.1
58.85	.1265	.7223	346	.1
58.85	.0906	.8013	348.05	.1
58.85	.2435	.0178	338.75	.1
58.85	.2392	.0354	338.85	.1
58.85	.2261	.0879	339.2	.1
58.85	.2089	.1576	339.7	.1
58.85	.2083	.16	339.75	.1
58.85	.1986	.1991	340	.1
58.85	.1803	.2729	340.55	.1
58.85	.175	.2943	340.75	.1
58.85	.1557	.3721	341.35	.1
58.85	.1441	.4189	342.05	.1
58.85	.1241	.4994	342.95	.1
58.85	.1146	.5378	343.35	.1
58.85	.0897	.6381	344.75	.1
58.85	.0673	.7285	346.55	.1
58.85	.0401	.8384	351.55	.1
58.85	.0171	.9312	360.75	.1
58.85	.1082	.0407	338.65	.1
58.85	.1048	.0707	338.95	.1
58.85	.1039	.0792	339.05	.1
58.85	.1006	.1082	339.25	.1
58.85	.0954	.1545	339.65	.1
58.85	.0892	.2091	340.15	.1
58.85	.0858	.2395	340.5	.1
58.85	.0827	.2674	340.75	.1
58.85	.0764	.323	341.25	.1
58.85	.0735	.3488	341.55	.1
58.85	.0678	.3988	342.05	.1
58.85	.0563	.5011	343.35	.1
87.65	.4413	.0316	349.4	.1
87.65	.4319	.0522	349.5	.1
87.65	.4049	.1116	349.95	.1
87.65	.3805	.165	350.25	.1
87.65	.3603	.2094	350.6	.1
87.65	.3476	.2372	350.8	.1
87.65	.3332	.2687	351	.1
87.65	.2989	.344	351.55	.1
87.65	.2799	.3859	351.93	.1
87.65	.2514	.4483	352.35	.1
87.65	.2055	.549	353.4	.1
87.65	.172	.6227	354.1	.1
87.65	.1265	.7223	356.1	.1
87.65	.0906	.8013	358.45	.1
87.65	.2435	.0178	348.3	.1
87.65	.2392	.0354	348.75	.1
87.65	.2261	.0879	349.15	.1
87.65	.2089	.1576	349.55	.1
87.65	.2083	.16	349.6	.1
87.65	.1986	.1991	349.8	.1
87.65	.1803	.2729	350.55	.1
87.65	.175	.2943	350.7	.1
87.65	.1557	.3721	351.35	.1
87.65	.1441	.4189	351.85	.1
87.65	.1241	.4994	352.85	.1
87.65	.1146	.5378	353.45	.1
87.65	.0897	.6381	354.85	.1
87.65	.0673	.7285	357.15	.1
87.65	.0401	.8384	363.25	.1
87.65	.0171	.9312	375.05	.1
87.65	.1082	.0407	348.45	.1
87.65	.1048	.0707	348.7	.1
87.65	.1039	.0792	348.8	.1
87.65	.1006	.1082	349.05	.1
87.65	.0954	.1545	349.45	.1
87.65	.0892	.2091	350	.1
87.65	.0858	.2395	350.3	.1
87.65	.0827	.2674	350.6	.1
87.65	.0764	.323	351.15	.1
87.65	.0735	.3488	351.45	.1
87.65	.0678	.3988	352.1	.1
87.65	.0563	.5011	353.15	.1

System: cyclohexane + n-butyl acetate + water; phases: Liquid, Gas
Property: Boiling temperature at pressure P, K (Liquid); method: Ebulliometric method (Recirculating still)
Pressure, kPa	Mole fraction of water	Mole fraction of n-butyl acetate	Boiling temperature at pressure P, K	uncertainty
29.77	.8728	.0289	314.55	.1
29.77	.8408	.0645	316.5	.1
29.77	.8156	.0926	317.8	.1
29.77	.8789	.1073	329.35	.1
29.77	.8678	.1059	325.25	.1
29.77	.8564	.1045	322.55	.1
29.77	.2419	.4771	321.05	.1
29.77	.229	.4517	320.15	.1
29.77	.279	.1247	315.25	.1
29.77	.208	.531	321.75	.1
29.77	.2747	.4862	321.95	.1
29.77	.8035	0	311.35	.1
58.85	.8728	.0289	331.55	.1
58.85	.8408	.0645	333.65	.1
58.85	.8156	.0926	335.15	.1
58.85	.8789	.1073	345.05	.1
58.85	.8678	.1059	341.45	.1
58.85	.8564	.1045	339.65	.1
58.85	.2419	.4771	337.85	.1
58.85	.229	.4517	337.45	.1
58.85	.279	.1247	330.75	.1
58.85	.208	.531	339.45	.1
58.85	.2747	.4862	339.45	.1
58.85	.8035	0	328.15	.1
87.65	.8728	.0289	342.45	.1
87.65	.8408	.0645	344.45	.1
87.65	.8156	.0926	345.95	.1
87.65	.8789	.1073	354.95	.1
87.65	.8678	.1059	351.65	.1
87.65	.8564	.1045	350.35	.1
87.65	.2419	.4771	349.25	.1
87.65	.229	.4517	348.55	.1
87.65	.279	.1247	341.05	.1
87.65	.208	.531	350.85	.1
87.65	.2747	.4862	350.65	.1
87.65	.8035	0	338.8	.1

System: cyclohexane + water; phases: Liquid, Gas
Property: Boiling temperature at pressure P, K (Liquid); method: Ebulliometric method (Recirculating still)
Pressure, kPa	Mole fraction of water	Boiling temperature at pressure P, K	uncertainty
29.77	.8035	311.35	.1
58.85	.8035	328.15	.1
87.65	.8035	338.8	.1
