Measured thermophysical data. Measurement and Correlation of the Solubility of Febuxostat in Four Organic Solvents at Various Temperatures
Source: J. Chem. Eng. Data, 2012, 10.1021/je300647k
Compound 1: ethyl ethanoate, C4H8O2, purity 99.5%
Compound 2: methanol, CH4O, purity 99.5%
Compound 3: ethyl alcohol, C2H6O, purity 99.7%
Compound 4: propanone, C3H6O, purity 99.5%
Compound 5: Febuxostat, C16H16N2O3S, purity 98.8%
Compound 6: water, H2O
Compound 7: sodium chloride, ClNa

System: sodium chloride + water; phases: Liquid, Crystal
Fixed: Pressure, kPa = 101
Property: Mass ratio of solute to solvent of sodium chloride (Liquid); method: Gravimetric
Temperature, K	Mass ratio of solute to solvent of sodium chloride	uncertainty
293.15	.3614	.014456
303.15	.3632	.014528
313.15	.3669	.014676
323.15	.3712	.014848
333.15	.3736	.014944

System: ethyl ethanoate + Febuxostat; phases: Liquid, Crystal
Fixed: Pressure, kPa = 101
Property: Mole fraction of Febuxostat (Liquid); method: Gravimetric
Temperature, K	Mole fraction of Febuxostat	uncertainty
293.15	.0037617	.000150468
298.15	.0045649	.000182596
303.15	.0051627	.000206508
308.15	.0064304	.000257216
313.15	.0073172	.000292688
318.15	.0082839	.000331356
323.15	.0097472	.000389888
328.15	.0113923	.000455692

System: ethyl alcohol + Febuxostat; phases: Liquid, Crystal
Fixed: Pressure, kPa = 101
Property: Mole fraction of Febuxostat (Liquid); method: Gravimetric
Temperature, K	Mole fraction of Febuxostat	uncertainty
293.15	.0012245	.00004898
298.15	.0017652	.000070608
303.15	.0026885	.00010754
308.15	.0040089	.000160356
313.15	.0058393	.000233572
318.15	.0083615	.00033446
323.15	.0109366	.000437464
328.15	.0142563	.000570252

System: propanone + Febuxostat; phases: Liquid, Crystal
Fixed: Pressure, kPa = 101
Property: Mole fraction of Febuxostat (Liquid); method: Gravimetric
Temperature, K	Mole fraction of Febuxostat	uncertainty
293.15	.0062333	.000249332
298.15	.0074284	.000297136
303.15	.0092127	.000368508
308.15	.0106826	.000427304
313.15	.0128785	.00051514
318.15	.0146646	.000586584
323.15	.0161533	.000646132
328.15	.0170634	.000682536

System: methanol + Febuxostat; phases: Liquid, Crystal
Fixed: Pressure, kPa = 101
Property: Mole fraction of Febuxostat (Liquid); method: Gravimetric
Temperature, K	Mole fraction of Febuxostat	uncertainty
293.15	.0005239	.000020956
298.15	.0008563	.000034252
303.15	.0011689	.000046756
308.15	.0016167	.000064668
313.15	.0022928	.000091712
318.15	.0032455	.00012982
323.15	.004504	.00018016
328.15	.0068492	.000273968
