Measured thermophysical data. Equilibrium Solubility of Sodium 3-Nitrobenzenesulfonate in Binary NaCl + H2O, Na2SO4 + H2O, and C2H5OH + H2O Solvent Mixtures at Elevated Temperatures from (273.15 to 323.15) K
Source: J. Chem. Eng. Data, 2012, 10.1021/je3010134
Compound 1: sodium 3-nitrobenzenesulphonate, C6H4NNaO5S, purity 99.5%
Compound 2: water, H2O, purity 99.9%
Compound 3: sodium sulfate, Na2O4S, purity 99.8%
Compound 4: sodium chloride, ClNa, purity 99.6%
Compound 5: ether, dimethyl-, C2H6O, purity 99.9%
Compound 6: ethyl alcohol, C2H6O, purity 95%

System: sodium 3-nitrobenzenesulphonate + water + sodium sulfate; phases: Liquid, Crystal
Fixed: Pressure, kPa = 101
Property: Mole fraction of sodium 3-nitrobenzenesulphonate (Liquid); method: Chromatography
Temperature, K	Solvent: Mass fraction of sodium sulfate	Mole fraction of sodium 3-nitrobenzenesulphonate	uncertainty
273.15	0	.1724	.003448
278.15	0	.1799	.003598
283.15	0	.1919	.003838
288.15	0	.206	.00412
293.15	0	.2209	.004418
298.15	0	.243	.00486
303.15	0	.2651	.005302
308.15	0	.2949	.005898
313.15	0	.3299	.006598
318.15	0	.3649	.007298
323.15	0	.41	.0082
273.15	.04	.0446	.000892
278.15	.04	.0478	.000956
283.15	.04	.0543	.001086
288.15	.04	.0618	.001236
293.15	.04	.072	.00144
298.15	.04	.0838	.001676
303.15	.04	.1032	.002064
308.15	.04	.1262	.002524
313.15	.04	.1466	.002932
318.15	.04	.1766	.003532
323.15	.04	.2145	.00429
273.15	.08	.0303	.000606
278.15	.08	.0331	.000662
283.15	.08	.0384	.000768
288.15	.08	.0444	.000888
293.15	.08	.0527	.001054
298.15	.08	.0651	.001302
303.15	.08	.0787	.001574
308.15	.08	.0945	.00189
313.15	.08	.1143	.002286
318.15	.08	.1348	.002696
323.15	.08	.1643	.003286
273.15	.15	.0165	.00033
278.15	.15	.018	.00036
283.15	.15	.021	.00042
288.15	.15	.0256	.000512
293.15	.15	.0319	.000638
298.15	.15	.0395	.00079
303.15	.15	.05	.001
308.15	.15	.063	.00126
313.15	.15	.0818	.001636
318.15	.15	.0985	.00197
323.15	.15	.1209	.002418
273.15	.2	.0044	.000088
278.15	.2	.0057	.000114
283.15	.2	.0079	.000158
288.15	.2	.0108	.000216
293.15	.2	.0148	.000296
298.15	.2	.0208	.000416
303.15	.2	.0296	.000592
308.15	.2	.0384	.000768
313.15	.2	.0497	.000994
318.15	.2	.0622	.001244
323.15	.2	.0795	.00159

System: sodium 3-nitrobenzenesulphonate + sodium chloride + water; phases: Liquid, Crystal
Fixed: Pressure, kPa = 101
Property: Mole fraction of sodium 3-nitrobenzenesulphonate (Liquid); method: Chromatography
Temperature, K	Solvent: Mass fraction of sodium chloride	Mole fraction of sodium 3-nitrobenzenesulphonate	uncertainty
273.15	.04	.0591	.001182
278.15	.04	.0688	.001376
283.15	.04	.0781	.001562
288.15	.04	.0922	.001844
293.15	.04	.1121	.002242
298.15	.04	.131	.00262
303.15	.04	.157	.00314
308.15	.04	.1832	.003664
313.15	.04	.2124	.004248
318.15	.04	.2416	.004832
323.15	.04	.2871	.005742
273.15	.08	.0301	.000602
278.15	.08	.0334	.000668
283.15	.08	.038	.00076
288.15	.08	.0424	.000848
293.15	.08	.0486	.000972
298.15	.08	.0571	.001142
303.15	.08	.0696	.001392
308.15	.08	.0852	.001704
313.15	.08	.113	.00226
318.15	.08	.1452	.002904
323.15	.08	.1936	.003872
273.15	.15	.0182	.000364
278.15	.15	.0203	.000406
283.15	.15	.024	.00048
288.15	.15	.028	.00056
293.15	.15	.0328	.000656
298.15	.15	.0392	.000784
303.15	.15	.0466	.000932
308.15	.15	.0567	.001134
313.15	.15	.07	.0014
318.15	.15	.0838	.001676
323.15	.15	.1023	.002046
273.15	.2	.011	.00022
278.15	.2	.0116	.000232
283.15	.2	.013	.00026
288.15	.2	.0142	.000284
293.15	.2	.0169	.000338
298.15	.2	.0207	.000414
303.15	.2	.0257	.000514
308.15	.2	.0304	.000608
313.15	.2	.0378	.000756
318.15	.2	.0454	.000908
323.15	.2	.0563	.001126

System: ethyl alcohol + sodium 3-nitrobenzenesulphonate + water; phases: Liquid, Crystal
Fixed: Pressure, kPa = 101
Property: Mole fraction of sodium 3-nitrobenzenesulphonate (Liquid); method: Chromatography
Temperature, K	Solvent: Mass fraction of ethyl alcohol	Mole fraction of sodium 3-nitrobenzenesulphonate	uncertainty
273.15	.08	.1323	.002646
278.15	.08	.145	.0029
283.15	.08	.1612	.003224
288.15	.08	.1789	.003578
293.15	.08	.1968	.003936
298.15	.08	.2188	.004376
303.15	.08	.2455	.00491
308.15	.08	.2726	.005452
313.15	.08	.3048	.006096
318.15	.08	.3343	.006686
273.15	.17	.1103	.002206
278.15	.17	.1211	.002422
283.15	.17	.1361	.002722
288.15	.17	.1534	.003068
293.15	.17	.1745	.00349
298.15	.17	.1946	.003892
303.15	.17	.22	.0044
308.15	.17	.2477	.004954
313.15	.17	.2719	.005438
318.15	.17	.3012	.006024
273.15	.35	.0921	.001842
278.15	.35	.101	.00202
283.15	.35	.116	.00232
288.15	.35	.1305	.00261
293.15	.35	.1485	.00297
298.15	.35	.1689	.003378
303.15	.35	.1908	.003816
308.15	.35	.2121	.004242
313.15	.35	.2361	.004722
318.15	.35	.2594	.005188
273.15	.54	.0827	.001654
278.15	.54	.09	.0018
283.15	.54	.102	.00204
288.15	.54	.1144	.002288
293.15	.54	.1309	.002618
298.15	.54	.1441	.002882
303.15	.54	.1628	.003256
308.15	.54	.1817	.003634
313.15	.54	.2039	.004078
318.15	.54	.2291	.004582
273.15	.7	.0782	.001564
278.15	.7	.0848	.001696
283.15	.7	.0937	.001874
288.15	.7	.1019	.002038
293.15	.7	.1122	.002244
298.15	.7	.1239	.002478
303.15	.7	.1386	.002772
308.15	.7	.1526	.003052
313.15	.7	.1696	.003392
318.15	.7	.1904	.003808

System: sodium 3-nitrobenzenesulphonate + water; phases: Liquid, Crystal
Property: Mole fraction of sodium 3-nitrobenzenesulphonate (Liquid); method: Chromatography
Temperature, K	Pressure, kPa	Mole fraction of sodium 3-nitrobenzenesulphonate	uncertainty
273.15	101	.1724	.003448
278.15	101	.1799	.003598
283.15	101	.1919	.003838
288.15	101	.206	.00412
293.15	101	.2209	.004418
298.15	101	.243	.00486
303.15	101	.2651	.005302
308.15	101	.2949	.005898
313.15	101	.3299	.006598
318.15	101	.3649	.007298
323.15	101	.41	.0082
