Measured thermophysical data. Isobaric Vapor Liquid Equilibrium Data for Binary Mixtures of 1-Phenylethanone with a Few Alcohols at 95.2 kPa
Source: J. Chem. Eng. Data, 2012, 10.1021/je300733a
Compound 1: propan-1-ol, C3H8O, purity 99%
Compound 2: sec-propyl alcohol, C3H8O, purity 99%
Compound 3: 2-methyl-1-propanol, C4H10O, purity 99%
Compound 4: butan-2-ol, C4H10O, purity 99%
Compound 5: 1-phenylethanone, C8H8O, purity 99%

System: propan-1-ol; phases: Liquid
Fixed: Pressure, kPa = 101.325
Property: Mass density, kg/m3 (Liquid); method: Vibrating tube method
Temperature, K	Mass density, kg/m3	uncertainty
295.15	802.8	.1

System: propan-1-ol; phases: Liquid
Fixed: Pressure, kPa = 101.325
Property: Refractive index (Na D-line) (Liquid); method: Standard Abbe refractometry
Temperature, K	Refractive index (Na D-line)	uncertainty
295.15	1.3854	.0001

System: propan-1-ol; phases: Liquid, Gas
Property: Vapor or sublimation pressure, kPa (Liquid); method: Ebulliometric method (Recirculating still)
Temperature, K	Vapor or sublimation pressure, kPa	uncertainty
368.65	95.2	.133

System: sec-propyl alcohol; phases: Liquid
Fixed: Pressure, kPa = 101.325
Property: Mass density, kg/m3 (Liquid); method: Vibrating tube method
Temperature, K	Mass density, kg/m3	uncertainty
295.15	786	.1

System: sec-propyl alcohol; phases: Liquid
Fixed: Pressure, kPa = 101.325
Property: Refractive index (Na D-line) (Liquid); method: Standard Abbe refractometry
Temperature, K	Refractive index (Na D-line)	uncertainty
295.15	1.3788	.0001

System: sec-propyl alcohol; phases: Liquid, Gas
Property: Vapor or sublimation pressure, kPa (Liquid); method: Ebulliometric method (Recirculating still)
Temperature, K	Vapor or sublimation pressure, kPa	uncertainty
353.84	95.2	.133

System: 2-methyl-1-propanol; phases: Liquid
Fixed: Pressure, kPa = 101.325
Property: Mass density, kg/m3 (Liquid); method: Vibrating tube method
Temperature, K	Mass density, kg/m3	uncertainty
295.15	801.3	.1

System: 2-methyl-1-propanol; phases: Liquid
Fixed: Pressure, kPa = 101.325
Property: Refractive index (Na D-line) (Liquid); method: Standard Abbe refractometry
Temperature, K	Refractive index (Na D-line)	uncertainty
295.15	1.3926	.0001

System: 2-methyl-1-propanol; phases: Liquid, Gas
Property: Vapor or sublimation pressure, kPa (Liquid); method: Ebulliometric method (Recirculating still)
Temperature, K	Vapor or sublimation pressure, kPa	uncertainty
379.65	95.2	.133

System: butan-2-ol; phases: Liquid
Fixed: Pressure, kPa = 101.325
Property: Mass density, kg/m3 (Liquid); method: Vibrating tube method
Temperature, K	Mass density, kg/m3	uncertainty
295.15	806.2	.1

System: butan-2-ol; phases: Liquid
Fixed: Pressure, kPa = 101.325
Property: Refractive index (Na D-line) (Liquid); method: Standard Abbe refractometry
Temperature, K	Refractive index (Na D-line)	uncertainty
295.15	1.3985	.0001

System: butan-2-ol; phases: Liquid, Gas
Property: Vapor or sublimation pressure, kPa (Liquid); method: Ebulliometric method (Recirculating still)
Temperature, K	Vapor or sublimation pressure, kPa	uncertainty
370.95	95.2	.133

System: 1-phenylethanone; phases: Liquid
Fixed: Pressure, kPa = 101.325
Property: Mass density, kg/m3 (Liquid); method: Vibrating tube method
Temperature, K	Mass density, kg/m3	uncertainty
295.15	1028.2	.1

System: 1-phenylethanone; phases: Liquid
Fixed: Pressure, kPa = 101.325
Property: Refractive index (Na D-line) (Liquid); method: Standard Abbe refractometry
Temperature, K	Refractive index (Na D-line)	uncertainty
295.15	1.537	.0001

System: 1-phenylethanone; phases: Liquid, Gas
Property: Vapor or sublimation pressure, kPa (Liquid); method: Ebulliometric method (Recirculating still)
Temperature, K	Vapor or sublimation pressure, kPa	uncertainty
472.25	95.2	.133

System: propan-1-ol + 1-phenylethanone; phases: Gas, Liquid
Property: Mole fraction of propan-1-ol (Gas); method: Chromatography
Mole fraction of propan-1-ol	Pressure, kPa	Mole fraction of propan-1-ol	uncertainty
0	95.2	0	.005
.147	95.2	.856	.005
.257	95.2	.924	.005
.341	95.2	.933	.005
.409	95.2	.961	.005
.464	95.2	.967	.005
.509	95.2	.977	.005
.547	95.2	.981	.005
.609	95.2	.983	.005
.655	95.2	.986	.005
.708	95.2	.988	.005
.746	95.2	.99	.005
.776	95.2	.992	.005
.933	95.2	.995	.005
.95	95.2	.998	.005
1	95.2	1	.005

System: propan-1-ol + 1-phenylethanone; phases: Liquid, Gas
Property: Boiling temperature at pressure P, K (Liquid); method: Ebulliometric method (Recirculating still)
Mole fraction of propan-1-ol	Pressure, kPa	Boiling temperature at pressure P, K	uncertainty
0	95.2	472.25	.5
.147	95.2	413.15	.5
.257	95.2	400.65	.5
.341	95.2	392.15	.5
.409	95.2	388.15	.5
.464	95.2	385.15	.5
.509	95.2	383.15	.5
.547	95.2	382.15	.5
.609	95.2	380.15	.5
.655	95.2	379.15	.5
.708	95.2	377.15	.5
.746	95.2	376.15	.5
.776	95.2	374.15	.5
.933	95.2	369.65	.5
.95	95.2	369.15	.5
1	95.2	368.65	.5

System: sec-propyl alcohol + 1-phenylethanone; phases: Gas, Liquid
Property: Mole fraction of sec-propyl alcohol (Gas); method: Chromatography
Mole fraction of sec-propyl alcohol	Pressure, kPa	Mole fraction of sec-propyl alcohol	uncertainty
0	95.2	0	.005
.145	95.2	.877	.005
.253	95.2	.948	.005
.336	95.2	.962	.005
.403	95.2	.971	.005
.458	95.2	.976	.005
.503	95.2	.983	.005
.542	95.2	.986	.005
.575	95.2	.987	.005
.603	95.2	.988	.005
.65	95.2	.99	.005
.717	95.2	.994	.005
.809	95.2	.996	.005
.931	95.2	.999	.005
1	95.2	1	.005

System: sec-propyl alcohol + 1-phenylethanone; phases: Liquid, Gas
Property: Boiling temperature at pressure P, K (Liquid); method: Ebulliometric method (Recirculating still)
Mole fraction of sec-propyl alcohol	Pressure, kPa	Boiling temperature at pressure P, K	uncertainty
0	95.2	472.25	.5
.145	95.2	412.15	.5
.253	95.2	391.65	.5
.336	95.2	383.65	.5
.403	95.2	378.65	.5
.458	95.2	375.15	.5
.503	95.2	371.15	.5
.542	95.2	369.15	.5
.575	95.2	367.15	.5
.603	95.2	366.15	.5
.65	95.2	364.15	.5
.717	95.2	363.15	.5
.809	95.2	360.65	.5
.931	95.2	356.65	.5
1	95.2	353.84	.5

System: 2-methyl-1-propanol + 1-phenylethanone; phases: Gas, Liquid
Property: Mole fraction of 2-methyl-1-propanol (Gas); method: Chromatography
Mole fraction of 2-methyl-1-propanol	Pressure, kPa	Mole fraction of 2-methyl-1-propanol	uncertainty
0	95.2	0	.005
.296	95.2	.881	.005
.354	95.2	.921	.005
.456	95.2	.948	.005
.557	95.2	.953	.005
.627	95.2	.964	.005
.677	95.2	.971	.005
.716	95.2	.972	.005
.746	95.2	.977	.005
.771	95.2	.978	.005
.791	95.2	.982	.005
.808	95.2	.984	.005
.822	95.2	.985	.005
.855	95.2	.988	.005
.894	95.2	.99	.005
.955	95.2	.993	.005
1	95.2	1	.005

System: 2-methyl-1-propanol + 1-phenylethanone; phases: Liquid, Gas
Property: Boiling temperature at pressure P, K (Liquid); method: Ebulliometric method (Recirculating still)
Mole fraction of 2-methyl-1-propanol	Pressure, kPa	Boiling temperature at pressure P, K	uncertainty
0	95.2	472.25	.5
.296	95.2	403.15	.5
.354	95.2	399.306	.5
.456	95.2	394.15	.5
.557	95.2	391.15	.5
.627	95.2	389.15	.5
.677	95.2	388.65	.5
.716	95.2	388.15	.5
.746	95.2	387.15	.5
.771	95.2	386.15	.5
.791	95.2	385.15	.5
.808	95.2	384.65	.5
.822	95.2	384.15	.5
.855	95.2	383.65	.5
.894	95.2	382.65	.5
.955	95.2	380.65	.5
1	95.2	379.65	.5

System: butan-2-ol + 1-phenylethanone; phases: Gas, Liquid
Property: Mole fraction of butan-2-ol (Gas); method: Chromatography
Mole fraction of butan-2-ol	Pressure, kPa	Mole fraction of butan-2-ol	uncertainty
0	95.2	0	.005
.145	95.2	.855	.005
.253	95.2	.914	.005
.336	95.2	.948	.005
.403	95.2	.953	.005
.458	95.2	.965	.005
.503	95.2	.966	.005
.542	95.2	.97	.005
.575	95.2	.972	.005
.603	95.2	.976	.005
.628	95.2	.977	.005
.65	95.2	.981	.005
.67	95.2	.984	.005
.703	95.2	.99	.005
.7417	95.2	.992	.005
.8085	95.2	.995	.005
.8941	95.2	.996	.005
.9311	95.2	.997	.005
1	95.2	1	.005

System: butan-2-ol + 1-phenylethanone; phases: Liquid, Gas
Property: Boiling temperature at pressure P, K (Liquid); method: Ebulliometric method (Recirculating still)
Mole fraction of butan-2-ol	Pressure, kPa	Boiling temperature at pressure P, K	uncertainty
0	95.2	472.25	.5
.145	95.2	412.15	.5
.253	95.2	399.15	.5
.336	95.2	393.15	.5
.403	95.2	388.15	.5
.458	95.2	384.65	.5
.503	95.2	381.65	.5
.542	95.2	379.65	.5
.575	95.2	377.65	.5
.603	95.2	376.15	.5
.628	95.2	375.15	.5
.65	95.2	374.65	.5
.67	95.2	374.15	.5
.703	95.2	373.65	.5
.7417	95.2	373.15	.5
.8085	95.2	372.15	.5
.8941	95.2	371.65	.5
.9311	95.2	371.15	.5
1	95.2	370.95	.5
