Measured thermophysical data. Measurement and Correlation of the Vapor Pressure of 3,5-Dichloroaniline
Source: J. Chem. Eng. Data, 2013, 10.1021/je3013638
Compound 1: aniline, 3,5-dichloro-, C6H5Cl2N, purity 99.7%

System: aniline, 3,5-dichloro-; phases: Liquid, Gas
Property: Vapor or sublimation pressure, kPa (Liquid); method: Closed cell (Static) method
Temperature, K	Vapor or sublimation pressure, kPa	uncertainty
446.6	10.2485	.0512425
453.88	12.9496	.064748
457.69	14.4428	.072214
463.14	16.6413	.0832065
464.4	17.1986	.085993
466.41	18.2105	.0910525
468.53	19.5664	.097832
469.09	19.8704	.099352
470.18	20.1997	.1009985
473.66	22.1648	.110824
474.48	23.0088	.115044
475.29	23.4807	.1174035
477.65	24.6686	.123343
481.31	27.1858	.135929
484.05	29.5989	.1479945
487.88	32.0534	.160267
490.85	35.0931	.1754655
492.54	36.629	.183145
495.3	38.7141	.1935705
497.31	41.1126	.205563
500.72	44.0644	.220322
503.96	47.6374	.238187
507.34	51.5237	.2576185
509.76	55.1741	.2758705
512.08	58.0472	.290236
513.94	60.0084	.300042
516.09	63.1335	.3156675
518.15	66.6585	.3332925
519.82	68.5543	.3427715
521.75	71.5968	.357984
523.61	75.3071	.3765355
525.72	78.6495	.3932475
528.31	82.5425	.4127125
530.51	87.1662	.435831
532.9	91.0845	.4554225
534.94	95.8374	.479187
