Measured thermophysical data. Density, Speed of Sound, Viscosity, Surface Tension, and Excess Volume of N-Ethyl-2-pyrrolidone + Ethanolamine (or Diethanolamine or Triethanolamine) from T = (293.15 to 323.15) K
Source: J. Chem. Eng. Data, 2013, 10.1021/je301123j
Compound 1: 1-ethyl-2-pyrrolidinone, C6H11NO, purity 98%
Compound 2: 2-aminoethanol, C2H7NO, purity 99%
Compound 3: iminodiethanol, C4H11NO2, purity 99%
Compound 4: ethanol, 2,2',2''-nitrilotri-, C6H15NO3, purity 99%

System: 1-ethyl-2-pyrrolidinone; phases: Liquid
Property: Mass density, kg/m3 (Liquid); method: Vibrating tube method
Temperature, K	Pressure, kPa	Mass density, kg/m3	uncertainty
293.15	100	997.91	.2
303.15	100	989.34	.2
313.15	100	980.76	.2
323.15	100	972.16	.2

System: 1-ethyl-2-pyrrolidinone; phases: Liquid
Property: Speed of sound, m/s (Liquid); method: Sing-around technique in a fixed-path interferometer
Temperature, K	Pressure, kPa	Speed of sound, m/s	uncertainty
293.15	100	1513.2	1.2
303.15	100	1475	1.2
313.15	100	1437.6	1.2
323.15	100	1400.6	1.2

System: 1-ethyl-2-pyrrolidinone; phases: Liquid
Property: Viscosity, Pa*s (Liquid); method: Capillary tube (Ostwald; Ubbelohde) method
Temperature, K	Pressure, kPa	Viscosity, Pa*s	uncertainty
293.15	100	.002132	.0000026
303.15	100	.001777	.0000026
313.15	100	.001515	.0000026
323.15	100	.00131	.0000026

System: 1-ethyl-2-pyrrolidinone; phases: Liquid, Gas
Property: Surface tension liquid-gas, N/m (Liquid); method: Ring tensiometer
Temperature, K	Surface tension liquid-gas, N/m	uncertainty
293.15	.0365	.0003
303.15	.0352	.0003
313.15	.0342	.0003

System: 2-aminoethanol; phases: Liquid
Property: Mass density, kg/m3 (Liquid); method: Vibrating tube method
Temperature, K	Pressure, kPa	Mass density, kg/m3	uncertainty
293.15	100	1015.93	.2
303.15	100	1008.02	.2
313.15	100	1000.06	.2
323.15	100	992.05	.2

System: 2-aminoethanol; phases: Liquid
Property: Speed of sound, m/s (Liquid); method: Sing-around technique in a fixed-path interferometer
Temperature, K	Pressure, kPa	Speed of sound, m/s	uncertainty
293.15	100	1734.4	1.2
303.15	100	1702.1	1.2
313.15	100	1670.1	1.2
323.15	100	1637.2	1.2

System: 2-aminoethanol; phases: Liquid
Property: Viscosity, Pa*s (Liquid); method: Capillary tube (Ostwald; Ubbelohde) method
Temperature, K	Pressure, kPa	Viscosity, Pa*s	uncertainty
293.15	100	.024231	.0000026
303.15	100	.014986	.0000026
313.15	100	.009776	.0000026
323.15	100	.006765	.0000026

System: 2-aminoethanol; phases: Liquid, Gas
Property: Surface tension liquid-gas, N/m (Liquid); method: Ring tensiometer
Temperature, K	Surface tension liquid-gas, N/m	uncertainty
293.15	.0497	.0003
303.15	.0478	.0003
313.15	.0471	.0003

System: iminodiethanol; phases: Liquid
Property: Mass density, kg/m3 (Liquid); method: Vibrating tube method
Temperature, K	Pressure, kPa	Mass density, kg/m3	uncertainty
293.15	100	1096.45	.2
303.15	100	1090.02	.2
313.15	100	1083.51	.2
323.15	100	1077.05	.2

System: iminodiethanol; phases: Liquid
Property: Speed of sound, m/s (Liquid); method: Sing-around technique in a fixed-path interferometer
Temperature, K	Pressure, kPa	Speed of sound, m/s	uncertainty
293.15	100	1739.2	1.2
303.15	100	1711.3	1.2
313.15	100	1685.9	1.2
323.15	100	1661.1	1.2

System: iminodiethanol; phases: Liquid
Property: Viscosity, Pa*s (Liquid); method: Capillary tube (Ostwald; Ubbelohde) method
Temperature, K	Pressure, kPa	Viscosity, Pa*s	uncertainty
293.15	100	.892037	.0000026
303.15	100	.3942	.0000026
313.15	100	.191317	.0000026
323.15	100	.102722	.0000026

System: iminodiethanol; phases: Liquid, Gas
Property: Surface tension liquid-gas, N/m (Liquid); method: Ring tensiometer
Temperature, K	Surface tension liquid-gas, N/m	uncertainty
293.15	.0474	.0003
303.15	.0466	.0003
313.15	.046	.0003

System: ethanol, 2,2',2''-nitrilotri-; phases: Liquid
Property: Mass density, kg/m3 (Liquid); method: Vibrating tube method
Temperature, K	Pressure, kPa	Mass density, kg/m3	uncertainty
293.15	100	1123.51	.2
303.15	100	1118	.2
313.15	100	1112.34	.2
323.15	100	1106.7	.2

System: ethanol, 2,2',2''-nitrilotri-; phases: Liquid
Property: Speed of sound, m/s (Liquid); method: Sing-around technique in a fixed-path interferometer
Temperature, K	Pressure, kPa	Speed of sound, m/s	uncertainty
293.15	100	1626.9	1.2
303.15	100	1605.3	1.2
313.15	100	1587.8	1.2
323.15	100	1571.9	1.2

System: ethanol, 2,2',2''-nitrilotri-; phases: Liquid
Property: Viscosity, Pa*s (Liquid); method: Capillary tube (Ostwald; Ubbelohde) method
Temperature, K	Pressure, kPa	Viscosity, Pa*s	uncertainty
293.15	100	.951791	.0000026
303.15	100	.413683	.0000026
313.15	100	.204567	.0000026
323.15	100	.111338	.0000026

System: ethanol, 2,2',2''-nitrilotri-; phases: Liquid, Gas
Property: Surface tension liquid-gas, N/m (Liquid); method: Ring tensiometer
Temperature, K	Surface tension liquid-gas, N/m	uncertainty
293.15	.0463	.0003
303.15	.0456	.0003
313.15	.0448	.0003

System: 2-aminoethanol + 1-ethyl-2-pyrrolidinone; phases: Liquid
Fixed: Pressure, kPa = 100
Property: Mass density, kg/m3 (Liquid); method: Vibrating tube method
Temperature, K	Mole fraction of 1-ethyl-2-pyrrolidinone	Mass density, kg/m3	uncertainty
293.15	0	1015.93	.2
293.15	.1	1014.83	.2
293.15	.2002	1012.06	.2
293.15	.2999	1008.77	.2
293.15	.4002	1006.13	.2
293.15	.4999	1002.53	.2
293.15	.5996	999.47	.2
293.15	.7002	998.41	.2
293.15	.7999	997.76	.2
293.15	.8997	997.35	.2
293.15	1	997.91	.2
303.15	0	1008.02	.2
303.15	.1	1006.71	.2
303.15	.2002	1003.8	.2
303.15	.2999	1000.38	.2
303.15	.4002	997.65	.2
303.15	.4999	993.9	.2
303.15	.5996	990.78	.2
303.15	.7002	989.74	.2
303.15	.7999	989.12	.2
303.15	.8997	988.75	.2
303.15	1	989.34	.2
313.15	0	1000.06	.2
313.15	.1	998.53	.2
313.15	.2002	995.42	.2
313.15	.2999	991.88	.2
313.15	.4002	989.14	.2
313.15	.4999	985.23	.2
313.15	.5996	982.08	.2
313.15	.7002	981.06	.2
313.15	.7999	980.46	.2
313.15	.8997	980.14	.2
313.15	1	980.76	.2
323.15	0	992.05	.2
323.15	.1	990.31	.2
323.15	.2002	986.95	.2
323.15	.2999	983.29	.2
323.15	.4002	980.53	.2
323.15	.4999	976.53	.2
323.15	.5996	973.35	.2
323.15	.7002	972.34	.2
323.15	.7999	971.78	.2
323.15	.8997	971.5	.2
323.15	1	972.16	.2

System: 2-aminoethanol + 1-ethyl-2-pyrrolidinone; phases: Liquid
Fixed: Pressure, kPa = 100
Property: Speed of sound, m/s (Liquid); method: Sing-around technique in a fixed-path interferometer
Temperature, K	Mole fraction of 1-ethyl-2-pyrrolidinone	Speed of sound, m/s	uncertainty
293.15	0	1734.4	1.2
293.15	.1	1694.5	1.2
293.15	.2002	1652.1	1.2
293.15	.2999	1621.1	1.2
293.15	.4002	1596	1.2
293.15	.4999	1575.8	1.2
293.15	.5996	1554.4	1.2
293.15	.7002	1540.5	1.2
293.15	.7999	1529.1	1.2
293.15	.8997	1519.5	1.2
293.15	1	1513.2	1.2
303.15	0	1702.1	1.2
303.15	.1	1661.1	1.2
303.15	.2002	1617	1.2
303.15	.2999	1582.4	1.2
303.15	.4002	1560.4	1.2
303.15	.4999	1539.5	1.2
303.15	.5996	1517.3	1.2
303.15	.7002	1503.1	1.2
303.15	.7999	1491.9	1.2
303.15	.8997	1481.7	1.2
303.15	1	1475	1.2
313.15	0	1670.1	1.2
313.15	.1	1628	1.2
313.15	.2002	1582.8	1.2
313.15	.2999	1552.5	1.2
313.15	.4002	1527.9	1.2
313.15	.4999	1502.9	1.2
313.15	.5996	1480.5	1.2
313.15	.7002	1466.1	1.2
313.15	.7999	1454.9	1.2
313.15	.8997	1444.2	1.2
313.15	1	1437.6	1.2
323.15	0	1637.2	1.2
323.15	.1	1594.2	1.2
323.15	.2002	1549.2	1.2
323.15	.2999	1517.9	1.2
323.15	.4002	1493.2	1.2
323.15	.4999	1467	1.2
323.15	.5996	1443.8	1.2
323.15	.7002	1429.5	1.2
323.15	.7999	1418	1.2
323.15	.8997	1407.6	1.2
323.15	1	1400.6	1.2

System: 2-aminoethanol + 1-ethyl-2-pyrrolidinone; phases: Liquid
Fixed: Pressure, kPa = 100
Property: Viscosity, Pa*s (Liquid); method: Capillary tube (Ostwald; Ubbelohde) method
Temperature, K	Mole fraction of 1-ethyl-2-pyrrolidinone	Viscosity, Pa*s	uncertainty
293.15	0	.024231	.0000026
293.15	.1	.016559	.0000026
293.15	.2002	.01156	.0000026
293.15	.2999	.008317	.0000026
293.15	.4002	.006255	.0000026
293.15	.4999	.004742	.0000026
293.15	.5996	.003762	.0000026
293.15	.7002	.003101	.0000026
293.15	.7999	.002641	.0000026
293.15	.8997	.002325	.0000026
293.15	1	.002132	.0000026
303.15	0	.014986	.0000026
303.15	.1	.010658	.0000026
303.15	.2002	.00768	.0000026
303.15	.2999	.006051	.0000026
303.15	.4002	.00476	.0000026
303.15	.4999	.003526	.0000026
303.15	.5996	.002912	.0000026
303.15	.7002	.002446	.0000026
303.15	.7999	.002147	.0000026
303.15	.8997	.001918	.0000026
303.15	1	.001777	.0000026
313.15	0	.009776	.0000026
313.15	.1	.007237	.0000026
313.15	.2002	.005477	.0000026
313.15	.2999	.004386	.0000026
313.15	.4002	.003553	.0000026
313.15	.4999	.002733	.0000026
313.15	.5996	.002322	.0000026
313.15	.7002	.00199	.0000026
313.15	.7999	.001775	.0000026
313.15	.8997	.001616	.0000026
313.15	1	.001515	.0000026
323.15	0	.006765	.0000026
323.15	.1	.005201	.0000026
323.15	.2002	.004011	.0000026
323.15	.2999	.003311	.0000026
323.15	.4002	.002734	.0000026
323.15	.4999	.002183	.0000026
323.15	.5996	.001884	.0000026
323.15	.7002	.001659	.0000026
323.15	.7999	.001503	.0000026
323.15	.8997	.001384	.0000026
323.15	1	.00131	.0000026

System: 2-aminoethanol + 1-ethyl-2-pyrrolidinone; phases: Liquid, Gas
Property: Surface tension liquid-gas, N/m (Liquid); method: Ring tensiometer
Temperature, K	Mole fraction of 1-ethyl-2-pyrrolidinone	Surface tension liquid-gas, N/m	uncertainty
293.15	0	.0497	.0003
293.15	.1	.0449	.0003
293.15	.2002	.0424	.0003
293.15	.2999	.0411	.0003
293.15	.4002	.0398	.0003
293.15	.4999	.0391	.0003
293.15	.5996	.0383	.0003
293.15	.7002	.0377	.0003
293.15	.7999	.0373	.0003
293.15	.8997	.0371	.0003
293.15	1	.0365	.0003
303.15	0	.0478	.0003
303.15	.1	.0437	.0003
303.15	.2002	.0412	.0003
303.15	.2999	.0398	.0003
303.15	.4002	.0385	.0003
303.15	.4999	.0376	.0003
303.15	.5996	.0367	.0003
303.15	.7002	.0361	.0003
303.15	.7999	.0362	.0003
303.15	.8997	.0357	.0003
303.15	1	.0352	.0003
313.15	0	.0471	.0003
313.15	.1	.0427	.0003
313.15	.2002	.0402	.0003
313.15	.2999	.0387	.0003
313.15	.4002	.037	.0003
313.15	.4999	.0359	.0003
313.15	.5996	.0349	.0003
313.15	.7002	.0345	.0003
313.15	.7999	.035	.0003
313.15	.8997	.0346	.0003
313.15	1	.0342	.0003

System: iminodiethanol + 1-ethyl-2-pyrrolidinone; phases: Liquid
Fixed: Pressure, kPa = 100
Property: Mass density, kg/m3 (Liquid); method: Vibrating tube method
Temperature, K	Mole fraction of 1-ethyl-2-pyrrolidinone	Mass density, kg/m3	uncertainty
293.15	0	1096.45	.2
293.15	.1	1084.34	.2
293.15	.2005	1072.76	.2
293.15	.3001	1061.83	.2
293.15	.4002	1051.18	.2
293.15	.4999	1040.9	.2
293.15	.6	1031.22	.2
293.15	.7001	1022.09	.2
293.15	.8001	1013.33	.2
293.15	.8995	1005.23	.2
293.15	1	997.91	.2
303.15	0	1090.02	.2
303.15	.1	1077.54	.2
303.15	.2005	1065.85	.2
303.15	.3001	1054.58	.2
303.15	.4002	1043.68	.2
303.15	.4999	1033.22	.2
303.15	.6	1023.25	.2
303.15	.7001	1013.95	.2
303.15	.8001	1005.2	.2
303.15	.8995	996.81	.2
303.15	1	989.34	.2
313.15	0	1083.51	.2
313.15	.1	1070.86	.2
313.15	.2005	1058.79	.2
313.15	.3001	1047.53	.2
313.15	.4002	1036.08	.2
313.15	.4999	1025.43	.2
313.15	.6	1015.25	.2
313.15	.7001	1005.78	.2
313.15	.8001	996.9	.2
313.15	.8995	988.38	.2
313.15	1	980.76	.2
323.15	0	1077.05	.2
323.15	.1	1064.04	.2
323.15	.2005	1051.64	.2
323.15	.3001	1039.8	.2
323.15	.4002	1028.42	.2
323.15	.4999	1017.57	.2
323.15	.6	1007.21	.2
323.15	.7001	997.61	.2
323.15	.8001	988.58	.2
323.15	.8995	979.92	.2
323.15	1	972.16	.2

System: iminodiethanol + 1-ethyl-2-pyrrolidinone; phases: Liquid
Fixed: Pressure, kPa = 100
Property: Speed of sound, m/s (Liquid); method: Sing-around technique in a fixed-path interferometer
Temperature, K	Mole fraction of 1-ethyl-2-pyrrolidinone	Speed of sound, m/s	uncertainty
293.15	0	1739.2	1.2
293.15	.1	1700.4	1.2
293.15	.2005	1666.7	1.2
293.15	.3001	1638.2	1.2
293.15	.4002	1611.7	1.2
293.15	.4999	1589.2	1.2
293.15	.6	1569.3	1.2
293.15	.7001	1552.5	1.2
293.15	.8001	1538.4	1.2
293.15	.8995	1524.5	1.2
293.15	1	1513.2	1.2
303.15	0	1711.3	1.2
303.15	.1	1672.2	1.2
303.15	.2005	1637.9	1.2
303.15	.3001	1607.8	1.2
303.15	.4002	1581	1.2
303.15	.4999	1557.4	1.2
303.15	.6	1536.3	1.2
303.15	.7001	1518.1	1.2
303.15	.8001	1503.6	1.2
303.15	.8995	1487.8	1.2
303.15	1	1475	1.2
313.15	0	1685.9	1.2
313.15	.1	1645.8	1.2
313.15	.2005	1610.1	1.2
313.15	.3001	1578.7	1.2
313.15	.4002	1550.5	1.2
313.15	.4999	1526.2	1.2
313.15	.6	1503.7	1.2
313.15	.7001	1484.4	1.2
313.15	.8001	1469.1	1.2
313.15	.8995	1451.6	1.2
313.15	1	1437.6	1.2
323.15	0	1661.1	1.2
323.15	.1	1619.5	1.2
323.15	.2005	1582.5	1.2
323.15	.3001	1550	1.2
323.15	.4002	1519.9	1.2
323.15	.4999	1495.1	1.2
323.15	.6	1471	1.2
323.15	.7001	1450.7	1.2
323.15	.8001	1434.7	1.2
323.15	.8995	1415.6	1.2
323.15	1	1400.6	1.2

System: iminodiethanol + 1-ethyl-2-pyrrolidinone; phases: Liquid
Fixed: Pressure, kPa = 100
Property: Viscosity, Pa*s (Liquid); method: Capillary tube (Ostwald; Ubbelohde) method
Temperature, K	Mole fraction of 1-ethyl-2-pyrrolidinone	Viscosity, Pa*s	uncertainty
293.15	0	.892037	.0000026
293.15	.1	.462694	.0000026
293.15	.2005	.227229	.0000026
293.15	.3001	.1096	.0000026
293.15	.4002	.051596	.0000026
293.15	.4999	.026018	.0000026
293.15	.6	.013841	.0000026
293.15	.7001	.008154	.0000026
293.15	.8001	.004999	.0000026
293.15	.8995	.003117	.0000026
293.15	1	.002132	.0000026
303.15	0	.3942	.0000026
303.15	.1	.211415	.0000026
303.15	.2005	.110731	.0000026
303.15	.3001	.055567	.0000026
303.15	.4002	.029591	.0000026
303.15	.4999	.016207	.0000026
303.15	.6	.009351	.0000026
303.15	.7001	.00587	.0000026
303.15	.8001	.003826	.0000026
303.15	.8995	.002496	.0000026
303.15	1	.001777	.0000026
313.15	0	.191317	.0000026
313.15	.1	.108678	.0000026
313.15	.2005	.057659	.0000026
313.15	.3001	.032134	.0000026
313.15	.4002	.018378	.0000026
313.15	.4999	.010799	.0000026
313.15	.6	.006732	.0000026
313.15	.7001	.004419	.0000026
313.15	.8001	.003014	.0000026
313.15	.8995	.002058	.0000026
313.15	1	.001515	.0000026
323.15	0	.102722	.0000026
323.15	.1	.05782	.0000026
323.15	.2005	.033782	.0000026
323.15	.3001	.02016	.0000026
323.15	.4002	.012279	.0000026
323.15	.4999	.007624	.0000026
323.15	.6	.005011	.0000026
323.15	.7001	.003439	.0000026
323.15	.8001	.002429	.0000026
323.15	.8995	.001734	.0000026
323.15	1	.00131	.0000026

System: iminodiethanol + 1-ethyl-2-pyrrolidinone; phases: Liquid, Gas
Property: Surface tension liquid-gas, N/m (Liquid); method: Ring tensiometer
Temperature, K	Mole fraction of 1-ethyl-2-pyrrolidinone	Surface tension liquid-gas, N/m	uncertainty
293.15	0	.0474	.0003
293.15	.1	.0445	.0003
293.15	.2005	.0428	.0003
293.15	.3001	.0412	.0003
293.15	.4002	.0401	.0003
293.15	.4999	.0392	.0003
293.15	.6	.0381	.0003
293.15	.7001	.0378	.0003
293.15	.8001	.0372	.0003
293.15	.8995	.0365	.0003
293.15	1	.0365	.0003
303.15	0	.0466	.0003
303.15	.1	.0436	.0003
303.15	.2005	.0413	.0003
303.15	.3001	.0401	.0003
303.15	.4002	.0391	.0003
303.15	.4999	.0384	.0003
303.15	.6	.0371	.0003
303.15	.7001	.0367	.0003
303.15	.8001	.0362	.0003
303.15	.8995	.0353	.0003
303.15	1	.0352	.0003
313.15	0	.046	.0003
313.15	.1	.042	.0003
313.15	.2005	.0404	.0003
313.15	.3001	.0388	.0003
313.15	.4002	.0383	.0003
313.15	.4999	.037	.0003
313.15	.6	.0363	.0003
313.15	.7001	.0359	.0003
313.15	.8001	.0348	.0003
313.15	.8995	.0344	.0003
313.15	1	.0342	.0003

System: ethanol, 2,2',2''-nitrilotri- + 1-ethyl-2-pyrrolidinone; phases: Liquid
Fixed: Pressure, kPa = 100
Property: Mass density, kg/m3 (Liquid); method: Vibrating tube method
Temperature, K	Mole fraction of 1-ethyl-2-pyrrolidinone	Mass density, kg/m3	uncertainty
293.15	0	1123.51	.2
293.15	.1001	1112.5	.2
293.15	.2	1101.3	.2
293.15	.3	1089.95	.2
293.15	.4004	1077.59	.2
293.15	.5001	1066.06	.2
293.15	.6002	1053.3	.2
293.15	.7002	1040.32	.2
293.15	.8	1026.31	.2
293.15	.8998	1012.14	.2
293.15	1	997.91	.2
303.15	0	1118	.2
303.15	.1001	1106.6	.2
303.15	.2	1095.17	.2
303.15	.3	1083.52	.2
303.15	.4004	1070.78	.2
303.15	.5001	1058.92	.2
303.15	.6002	1045.86	.2
303.15	.7002	1032.59	.2
303.15	.8	1018.3	.2
303.15	.8998	1003.86	.2
303.15	1	989.34	.2
313.15	0	1112.34	.2
313.15	.1001	1100.7	.2
313.15	.2	1088.99	.2
313.15	.3	1076.98	.2
313.15	.4004	1063.92	.2
313.15	.5001	1051.74	.2
313.15	.6002	1038.43	.2
313.15	.7002	1024.86	.2
313.15	.8	1010.29	.2
313.15	.8998	995.57	.2
313.15	1	980.76	.2
323.15	0	1106.7	.2
323.15	.1001	1094.74	.2
323.15	.2	1082.69	.2
323.15	.3	1070.36	.2
323.15	.4004	1057	.2
323.15	.5001	1044.54	.2
323.15	.6002	1030.97	.2
323.15	.7002	1017.11	.2
323.15	.8	1002.27	.2
323.15	.8998	987.27	.2
323.15	1	972.16	.2

System: ethanol, 2,2',2''-nitrilotri- + 1-ethyl-2-pyrrolidinone; phases: Liquid
Fixed: Pressure, kPa = 100
Property: Speed of sound, m/s (Liquid); method: Sing-around technique in a fixed-path interferometer
Temperature, K	Mole fraction of 1-ethyl-2-pyrrolidinone	Speed of sound, m/s	uncertainty
293.15	0	1626.9	1.2
293.15	.1001	1611.4	1.2
293.15	.2	1598.1	1.2
293.15	.3	1585.4	1.2
293.15	.4004	1574.5	1.2
293.15	.5001	1565.5	1.2
293.15	.6002	1555.6	1.2
293.15	.7002	1545.9	1.2
293.15	.8	1536.1	1.2
293.15	.8998	1525.5	1.2
293.15	1	1513.2	1.2
303.15	0	1605.3	1.2
303.15	.1001	1588.7	1.2
303.15	.2	1575.4	1.2
303.15	.3	1562.2	1.2
303.15	.4004	1548.9	1.2
303.15	.5001	1538.5	1.2
303.15	.6002	1526.5	1.2
303.15	.7002	1514.2	1.2
303.15	.8	1502.2	1.2
303.15	.8998	1490.5	1.2
303.15	1	1475	1.2
313.15	0	1587.8	1.2
313.15	.1001	1569.8	1.2
313.15	.2	1555.1	1.2
313.15	.3	1540.4	1.2
313.15	.4004	1524.8	1.2
313.15	.5001	1512.2	1.2
313.15	.6002	1497.6	1.2
313.15	.7002	1483.1	1.2
313.15	.8	1468.6	1.2
313.15	.8998	1456.6	1.2
313.15	1	1437.6	1.2
323.15	0	1571.9	1.2
323.15	.1001	1551.9	1.2
323.15	.2	1534.9	1.2
323.15	.3	1517.4	1.2
323.15	.4004	1500.3	1.2
323.15	.5001	1485.3	1.2
323.15	.6002	1469.1	1.2
323.15	.7002	1452.3	1.2
323.15	.8	1435.5	1.2
323.15	.8998	1422.3	1.2
323.15	1	1400.6	1.2

System: ethanol, 2,2',2''-nitrilotri- + 1-ethyl-2-pyrrolidinone; phases: Liquid
Fixed: Pressure, kPa = 100
Property: Viscosity, Pa*s (Liquid); method: Capillary tube (Ostwald; Ubbelohde) method
Temperature, K	Mole fraction of 1-ethyl-2-pyrrolidinone	Viscosity, Pa*s	uncertainty
293.15	0	.951791	.0000026
293.15	.1001	.570352	.0000026
293.15	.2	.31231	.0000026
293.15	.3	.164252	.0000026
293.15	.4004	.081216	.0000026
293.15	.5001	.041493	.0000026
293.15	.6002	.021517	.0000026
293.15	.7002	.011544	.0000026
293.15	.8	.006382	.0000026
293.15	.8998	.003627	.0000026
293.15	1	.002132	.0000026
303.15	0	.413683	.0000026
303.15	.1001	.252994	.0000026
303.15	.2	.151134	.0000026
303.15	.3	.085596	.0000026
303.15	.4004	.046138	.0000026
303.15	.5001	.025535	.0000026
303.15	.6002	.014289	.0000026
303.15	.7002	.008268	.0000026
303.15	.8	.004866	.0000026
303.15	.8998	.002902	.0000026
303.15	1	.001777	.0000026
313.15	0	.204567	.0000026
313.15	.1001	.132885	.0000026
313.15	.2	.082056	.0000026
313.15	.3	.04747	.0000026
313.15	.4004	.028402	.0000026
313.15	.5001	.016843	.0000026
313.15	.6002	.010071	.0000026
313.15	.7002	.006178	.0000026
313.15	.8	.003794	.0000026
313.15	.8998	.002379	.0000026
313.15	1	.001515	.0000026
323.15	0	.111338	.0000026
323.15	.1001	.07513	.0000026
323.15	.2	.046568	.0000026
323.15	.3	.029623	.0000026
323.15	.4004	.018698	.0000026
323.15	.5001	.01173	.0000026
323.15	.6002	.007428	.0000026
323.15	.7002	.004758	.0000026
323.15	.8	.00306	.0000026
323.15	.8998	.001994	.0000026
323.15	1	.00131	.0000026

System: ethanol, 2,2',2''-nitrilotri- + 1-ethyl-2-pyrrolidinone; phases: Liquid, Gas
Property: Surface tension liquid-gas, N/m (Liquid); method: Ring tensiometer
Temperature, K	Mole fraction of 1-ethyl-2-pyrrolidinone	Surface tension liquid-gas, N/m	uncertainty
293.15	0	.0463	.0003
293.15	.1001	.0447	.0003
293.15	.2	.0434	.0003
293.15	.3	.042	.0003
293.15	.4004	.0409	.0003
293.15	.5001	.0401	.0003
293.15	.6002	.0392	.0003
293.15	.7002	.0383	.0003
293.15	.8	.0378	.0003
293.15	.8998	.0369	.0003
293.15	1	.0365	.0003
303.15	0	.0456	.0003
303.15	.1001	.0439	.0003
303.15	.2	.0423	.0003
303.15	.3	.0413	.0003
303.15	.4004	.0402	.0003
303.15	.5001	.0392	.0003
303.15	.6002	.0386	.0003
303.15	.7002	.0375	.0003
303.15	.8	.0367	.0003
303.15	.8998	.036	.0003
303.15	1	.0352	.0003
313.15	0	.0448	.0003
313.15	.1001	.043	.0003
313.15	.2	.0416	.0003
313.15	.3	.0406	.0003
313.15	.4004	.0394	.0003
313.15	.5001	.0383	.0003
313.15	.6002	.0376	.0003
313.15	.7002	.0364	.0003
313.15	.8	.0358	.0003
313.15	.8998	.035	.0003
313.15	1	.0342	.0003
