Measured thermophysical data. Density, Viscosity, and Isobaric Heat Capacity of the Mixture (1-Butanol + 1-Hexene)
Source: J. Chem. Eng. Data, 2013, 10.1021/je301301j
Compound 1: n-butanol, C4H10O, purity 99.8%
Compound 2: 1-hexene, C6H12, purity 99.7%

System: n-butanol; phases: Liquid
Property: Viscosity, Pa*s (Liquid); method: Concentric cylinders viscometry
Temperature, K	Pressure, kPa	Viscosity, Pa*s	uncertainty
293.15	100	.002953	.00002953
303.15	100	.002263	.00002263
313.15	100	.001769	.00001769

System: 1-hexene; phases: Liquid
Property: Viscosity, Pa*s (Liquid); method: Concentric cylinders viscometry
Temperature, K	Pressure, kPa	Viscosity, Pa*s	uncertainty
293.15	100	.00028	.0000028
303.15	100	.000257	.00000257
313.15	100	.000236	.00000236

System: 1-hexene; phases: Liquid
Property: Molar heat capacity at constant pressure, J/K/mol (Liquid); method: Flow calorimetry
Pressure, kPa	Temperature, K	Molar heat capacity at constant pressure, J/K/mol	uncertainty
100	293.15	179.2	.5376
5000	293.15	174.9	.5247
10000	293.15	172.7	.5181
15000	293.15	169.9	.5097
20000	293.15	168.1	.5043
25000	293.15	165.7	.4971
100	313.15	188.8	.5664
5000	313.15	185.9	.5577
10000	313.15	183.1	.5493
15000	313.15	181.6	.5448
20000	313.15	179.6	.5388
25000	313.15	177.2	.5316

System: 1-hexene; phases: Liquid
Property: Mass density, kg/m3 (Liquid); method: Vibrating tube method
Pressure, kPa	Temperature, K	Mass density, kg/m3	uncertainty
100	273.15	691.5	.35
1000	273.15	692.1	.35
2000	273.15	693	.35
5000	273.15	695.8	.35
10000	273.15	700	.35
15000	273.15	704	.35
20000	273.15	707.8	.35
30000	273.15	715	.35
40000	273.15	721.6	.35
50000	273.15	727.6	.35
60000	273.15	733.2	.35
70000	273.15	738.7	.35
100	293.15	672.8	.35
1000	293.15	673.8	.35
2000	293.15	674.9	.35
5000	293.15	678	.35
10000	293.15	682.9	.35
15000	293.15	687.5	.35
20000	293.15	691.8	.35
30000	293.15	699.8	.35
40000	293.15	707	.35
50000	293.15	713.7	.35
60000	293.15	719.9	.35
70000	293.15	725.8	.35
100	313.15	653.8	.35
1000	313.15	654.9	.35
2000	313.15	656.2	.35
5000	313.15	659.9	.35
10000	313.15	665.5	.35
15000	313.15	670.8	.35
20000	313.15	675.7	.35
30000	313.15	684.6	.35
40000	313.15	692.6	.35
50000	313.15	699.9	.35
60000	313.15	706.9	.35
70000	313.15	713	.35
100	333.15	634	.35
1000	333.15	635.4	.35
2000	333.15	636.9	.35
5000	333.15	641.3	.35
10000	333.15	647.8	.35
15000	333.15	653.9	.35
20000	333.15	659.5	.35
30000	333.15	669.5	.35
40000	333.15	678.4	.35
50000	333.15	686.3	.35
60000	333.15	693.7	.35
70000	333.15	700.5	.35

System: n-butanol + 1-hexene; phases: Liquid
Property: Mass density, kg/m3 (Liquid); method: Vibrating tube method
Pressure, kPa	Temperature, K	Mole fraction of 1-hexene	Mass density, kg/m3	uncertainty
100	273.15	1	691.5	.35
1000	273.15	1	692.1	.35
2000	273.15	1	693	.35
5000	273.15	1	695.8	.35
10000	273.15	1	700	.35
15000	273.15	1	704	.35
20000	273.15	1	707.8	.35
30000	273.15	1	715	.35
40000	273.15	1	721.6	.35
50000	273.15	1	727.6	.35
60000	273.15	1	733.2	.35
70000	273.15	1	738.7	.35
100	273.15	.9	700.4	.35
1000	273.15	.9	701	.35
2000	273.15	.9	701.9	.35
5000	273.15	.9	704.6	.35
10000	273.15	.9	708.8	.35
15000	273.15	.9	712.8	.35
20000	273.15	.9	716.5	.35
30000	273.15	.9	723.6	.35
40000	273.15	.9	730.1	.35
50000	273.15	.9	736.1	.35
100	273.15	.5997	739	.35
1000	273.15	.5997	739.5	.35
2000	273.15	.5997	740.4	.35
5000	273.15	.5997	742.8	.35
10000	273.15	.5997	746.7	.35
15000	273.15	.5997	750.4	.35
20000	273.15	.5997	754	.35
30000	273.15	.5997	760.6	.35
40000	273.15	.5997	766.8	.35
50000	273.15	.5997	772.3	.35
100	273.15	.5018	751.4	.35
1000	273.15	.5018	751.9	.35
2000	273.15	.5018	752.7	.35
5000	273.15	.5018	755.1	.35
10000	273.15	.5018	758.9	.35
15000	273.15	.5018	762.5	.35
20000	273.15	.5018	766	.35
30000	273.15	.5018	772.4	.35
40000	273.15	.5018	778.4	.35
50000	273.15	.5018	783.9	.35
100	273.15	.3999	764.1	.35
1000	273.15	.3999	764.6	.35
2000	273.15	.3999	765.4	.35
5000	273.15	.3999	767.7	.35
10000	273.15	.3999	771.4	.35
15000	273.15	.3999	774.9	.35
20000	273.15	.3999	778.2	.35
30000	273.15	.3999	784.4	.35
40000	273.15	.3999	790.2	.35
50000	273.15	.3999	795.7	.35
100	273.15	.1001	808.1	.35
1000	273.15	.1001	808.5	.35
2000	273.15	.1001	809.3	.35
5000	273.15	.1001	811.3	.35
10000	273.15	.1001	814.6	.35
15000	273.15	.1001	817.8	.35
20000	273.15	.1001	820.8	.35
30000	273.15	.1001	826.5	.35
40000	273.15	.1001	831.9	.35
50000	273.15	.1001	837	.35
100	293.15	1	672.8	.35
1000	293.15	1	673.8	.35
2000	293.15	1	674.9	.35
5000	293.15	1	678	.35
10000	293.15	1	682.9	.35
15000	293.15	1	687.5	.35
20000	293.15	1	691.8	.35
30000	293.15	1	699.8	.35
40000	293.15	1	707	.35
50000	293.15	1	713.7	.35
60000	293.15	1	719.9	.35
70000	293.15	1	725.8	.35
100	293.15	.9	681.8	.35
1000	293.15	.9	682.7	.35
2000	293.15	.9	683.8	.35
5000	293.15	.9	686.9	.35
10000	293.15	.9	691.7	.35
15000	293.15	.9	696.2	.35
20000	293.15	.9	700.4	.35
30000	293.15	.9	708.3	.35
40000	293.15	.9	715.5	.35
50000	293.15	.9	722.1	.35
100	293.15	.5997	721.2	.35
1000	293.15	.5997	722	.35
2000	293.15	.5997	723	.35
5000	293.15	.5997	725.8	.35
10000	293.15	.5997	730.2	.35
15000	293.15	.5997	734.4	.35
20000	293.15	.5997	738.3	.35
30000	293.15	.5997	745.7	.35
40000	293.15	.5997	752.4	.35
50000	293.15	.5997	758.6	.35
100	293.15	.5018	734	.35
1000	293.15	.5018	734.8	.35
2000	293.15	.5018	735.7	.35
5000	293.15	.5018	738.4	.35
10000	293.15	.5018	742.7	.35
15000	293.15	.5018	746.7	.35
20000	293.15	.5018	750.5	.35
30000	293.15	.5018	757.7	.35
40000	293.15	.5018	764.2	.35
50000	293.15	.5018	770.2	.35
100	293.15	.3999	747	.35
1000	293.15	.3999	747.7	.35
2000	293.15	.3999	748.6	.35
5000	293.15	.3999	751.2	.35
10000	293.15	.3999	755.3	.35
15000	293.15	.3999	759.2	.35
20000	293.15	.3999	762.9	.35
30000	293.15	.3999	769.9	.35
40000	293.15	.3999	776.3	.35
50000	293.15	.3999	782.2	.35
100	293.15	.1001	792.4	.35
1000	293.15	.1001	793.1	.35
2000	293.15	.1001	793.8	.35
5000	293.15	.1001	796.2	.35
10000	293.15	.1001	799.7	.35
15000	293.15	.1001	803.2	.35
20000	293.15	.1001	806.5	.35
30000	293.15	.1001	812.8	.35
40000	293.15	.1001	818.6	.35
50000	293.15	.1001	824.1	.35
100	313.15	1	653.8	.35
1000	313.15	1	654.9	.35
2000	313.15	1	656.2	.35
5000	313.15	1	659.9	.35
10000	313.15	1	665.5	.35
15000	313.15	1	670.8	.35
20000	313.15	1	675.7	.35
30000	313.15	1	684.6	.35
40000	313.15	1	692.6	.35
50000	313.15	1	699.9	.35
60000	313.15	1	706.9	.35
70000	313.15	1	713	.35
100	313.15	.9	662.7	.35
1000	313.15	.9	663.9	.35
2000	313.15	.9	665.1	.35
5000	313.15	.9	668.7	.35
10000	313.15	.9	674.2	.35
15000	313.15	.9	679.5	.35
20000	313.15	.9	684.2	.35
30000	313.15	.9	693.1	.35
40000	313.15	.9	700.9	.35
50000	313.15	.9	708.2	.35
100	313.15	.5997	702.9	.35
1000	313.15	.5997	703.9	.35
2000	313.15	.5997	705	.35
5000	313.15	.5997	708.2	.35
10000	313.15	.5997	713.2	.35
15000	313.15	.5997	718	.35
20000	313.15	.5997	722.4	.35
30000	313.15	.5997	730.6	.35
40000	313.15	.5997	738	.35
50000	313.15	.5997	744.7	.35
100	313.15	.5018	716	.35
1000	313.15	.5018	716.9	.35
2000	313.15	.5018	718	.35
5000	313.15	.5018	721.1	.35
10000	313.15	.5018	725.9	.35
15000	313.15	.5018	730.5	.35
20000	313.15	.5018	734.8	.35
30000	313.15	.5018	742.7	.35
40000	313.15	.5018	749.9	.35
50000	313.15	.5018	756.5	.35
100	313.15	.3999	729.5	.35
1000	313.15	.3999	730.4	.35
2000	313.15	.3999	731.4	.35
5000	313.15	.3999	734.3	.35
10000	313.15	.3999	739	.35
15000	313.15	.3999	743.3	.35
20000	313.15	.3999	747.5	.35
30000	313.15	.3999	755.2	.35
40000	313.15	.3999	762.2	.35
50000	313.15	.3999	768.7	.35
100	313.15	.1001	776.5	.35
1000	313.15	.1001	777.2	.35
2000	313.15	.1001	778.1	.35
5000	313.15	.1001	780.6	.35
10000	313.15	.1001	784.6	.35
15000	313.15	.1001	788.4	.35
20000	313.15	.1001	792.1	.35
30000	313.15	.1001	799	.35
40000	313.15	.1001	805.3	.35
50000	313.15	.1001	811.1	.35
100	333.15	1	634	.35
1000	333.15	1	635.4	.35
2000	333.15	1	636.9	.35
5000	333.15	1	641.3	.35
10000	333.15	1	647.8	.35
15000	333.15	1	653.9	.35
20000	333.15	1	659.5	.35
30000	333.15	1	669.5	.35
40000	333.15	1	678.4	.35
50000	333.15	1	686.3	.35
60000	333.15	1	693.7	.35
70000	333.15	1	700.5	.35
100	333.15	.9	642.8	.35
1000	333.15	.9	644.1	.35
2000	333.15	.9	645.6	.35
5000	333.15	.9	649.9	.35
10000	333.15	.9	656.3	.35
15000	333.15	.9	662.2	.35
20000	333.15	.9	667.8	.35
30000	333.15	.9	677.7	.35
40000	333.15	.9	686.5	.35
50000	333.15	.9	694.4	.35
100	333.15	.5997	683.7	.35
1000	333.15	.5997	684.9	.35
2000	333.15	.5997	686.3	.35
5000	333.15	.5997	690	.35
10000	333.15	.5997	695.7	.35
15000	333.15	.5997	701.1	.35
20000	333.15	.5997	706.1	.35
30000	333.15	.5997	715.4	.35
40000	333.15	.5997	723.5	.35
50000	333.15	.5997	731	.35
100	333.15	.5018	697.2	.35
1000	333.15	.5018	698.3	.35
2000	333.15	.5018	699.6	.35
5000	333.15	.5018	703.1	.35
10000	333.15	.5018	708.6	.35
15000	333.15	.5018	713.8	.35
20000	333.15	.5018	718.7	.35
30000	333.15	.5018	728.5	.35
40000	333.15	.5018	736.5	.35
50000	333.15	.5018	743.8	.35
100	333.15	.3999	711.1	.35
1000	333.15	.3999	712.2	.35
2000	333.15	.3999	713.4	.35
5000	333.15	.3999	716.8	.35
10000	333.15	.3999	722	.35
15000	333.15	.3999	727.1	.35
20000	333.15	.3999	731.6	.35
30000	333.15	.3999	740.3	.35
40000	333.15	.3999	748	.35
50000	333.15	.3999	755.2	.35
100	333.15	.1001	759.7	.35
1000	333.15	.1001	760.6	.35
2000	333.15	.1001	761.6	.35
5000	333.15	.1001	764.5	.35
10000	333.15	.1001	768.9	.35
15000	333.15	.1001	773.1	.35
20000	333.15	.1001	777.2	.35
30000	333.15	.1001	784.7	.35
40000	333.15	.1001	791.6	.35
50000	333.15	.1001	798	.35

System: n-butanol + 1-hexene; phases: Liquid
Fixed: Pressure, kPa = 100
Property: Viscosity, Pa*s (Liquid); method: Concentric cylinders viscometry
Temperature, K	Mole fraction of n-butanol	Viscosity, Pa*s	uncertainty
293.15	1	.002953	.00002953
293.15	.9	.002125	.00002125
293.15	.7999	.001558	.00001558
293.15	.7002	.001159	.00001159
293.15	.5997	.00086	.0000086
293.15	.5018	.000669	.00000669
293.15	.3999	.000522	.00000522
293.15	.3002	.000422	.00000422
293.15	.2	.000355	.00000355
293.15	.1001	.000316	.00000316
293.15	0	.00028	.0000028
303.15	1	.002263	.00002263
303.15	.9	.001667	.00001667
303.15	.7999	.00124	.0000124
303.15	.7002	.000938	.00000938
303.15	.5997	.000703	.00000703
303.15	.5018	.000565	.00000565
303.15	.3999	.000448	.00000448
303.15	.3002	.000369	.00000369
303.15	.2	.000316	.00000316
303.15	.1001	.000283	.00000283
303.15	0	.000257	.00000257
313.15	1	.001769	.00001769
313.15	.9	.001327	.00001327
313.15	.7999	.000997	.00000997
313.15	.7002	.000763	.00000763
313.15	.5997	.000595	.00000595
313.15	.5018	.000475	.00000475
313.15	.3999	.000386	.00000386
313.15	.3002	.000322	.00000322
313.15	.2	.000285	.00000285
313.15	.1001	.000255	.00000255
313.15	0	.000236	.00000236

System: n-butanol + 1-hexene; phases: Liquid
Property: Molar heat capacity at constant pressure, J/K/mol (Liquid); method: Flow calorimetry
Mole fraction of n-butanol	Pressure, kPa	Temperature, K	Molar heat capacity at constant pressure, J/K/mol	uncertainty
0	100	293.15	179.2	.5376
.1001	100	293.15	190.4	.5712
.2	100	293.15	191.6	.5748
.3002	100	293.15	192.1	.5763
.3999	100	293.15	188.5	.5655
.5018	100	293.15	187.6	.5628
.5997	100	293.15	184.9	.5547
.7002	100	293.15	182.6	.5478
.7999	100	293.15	178.7	.5361
.9	100	293.15	176.2	.5286
0	5000	293.15	174.9	.5247
.1001	5000	293.15	187.5	.5625
.2	5000	293.15	188.7	.5661
.3002	5000	293.15	189	.567
.3999	5000	293.15	186.7	.5601
.5018	5000	293.15	185.6	.5568
.5997	5000	293.15	183.1	.5493
.7002	5000	293.15	180	.54
.7999	5000	293.15	177.5	.5325
.9	5000	293.15	175.7	.5271
0	10000	293.15	172.7	.5181
.1001	10000	293.15	184.7	.5541
.2	10000	293.15	186.3	.5589
.3002	10000	293.15	186.4	.5592
.3999	10000	293.15	184	.552
.5018	10000	293.15	183.6	.5508
.5997	10000	293.15	180.6	.5418
.7002	10000	293.15	178.7	.5361
.7999	10000	293.15	175.1	.5253
.9	10000	293.15	174	.522
0	15000	293.15	169.9	.5097
.1001	15000	293.15	182.6	.5478
.2	15000	293.15	183.1	.5493
.3002	15000	293.15	185.1	.5553
.3999	15000	293.15	182.5	.5475
.5018	15000	293.15	182.1	.5463
.5997	15000	293.15	178.5	.5355
.7002	15000	293.15	177.1	.5313
.7999	15000	293.15	173.8	.5214
.9	15000	293.15	172.1	.5163
0	20000	293.15	168.1	.5043
.1001	20000	293.15	178.4	.5352
.2	20000	293.15	179.9	.5397
.3002	20000	293.15	182.8	.5484
.3999	20000	293.15	180.1	.5403
.5018	20000	293.15	179.8	.5394
.5997	20000	293.15	176.1	.5283
.7002	20000	293.15	175.8	.5274
.7999	20000	293.15	172.4	.5172
.9	20000	293.15	170.7	.5121
0	25000	293.15	165.7	.4971
.1001	25000	293.15	176.7	.5301
.2	25000	293.15	178	.534
.3002	25000	293.15	180.1	.5403
.3999	25000	293.15	178.8	.5364
.5018	25000	293.15	178	.534
.5997	25000	293.15	174.8	.5244
.7002	25000	293.15	173.5	.5205
.7999	25000	293.15	170.7	.5121
.9	25000	293.15	169.3	.5079
0	100	313.15	188.8	.5664
.1001	100	313.15	204.1	.6123
.2	100	313.15	208	.624
.3002	100	313.15	209.8	.6294
.3999	100	313.15	210.3	.6309
.5018	100	313.15	205.3	.6159
.5997	100	313.15	203	.609
.7002	100	313.15	200.2	.6006
.7999	100	313.15	198.3	.5949
.9	100	313.15	193.4	.5802
0	5000	313.15	185.9	.5577
.1001	5000	313.15	199.9	.5997
.2	5000	313.15	204.8	.6144
.3002	5000	313.15	206.6	.6198
.3999	5000	313.15	206.5	.6195
.5018	5000	313.15	202.6	.6078
.5997	5000	313.15	200.6	.6018
.7002	5000	313.15	197.6	.5928
.7999	5000	313.15	195.5	.5865
.9	5000	313.15	192.5	.5775
0	10000	313.15	183.1	.5493
.1001	10000	313.15	196.1	.5883
.2	10000	313.15	201.3	.6039
.3002	10000	313.15	203.2	.6096
.3999	10000	313.15	203.8	.6114
.5018	10000	313.15	199.9	.5997
.5997	10000	313.15	197.8	.5934
.7002	10000	313.15	195.2	.5856
.7999	10000	313.15	193.1	.5793
.9	10000	313.15	190.4	.5712
0	15000	313.15	181.6	.5448
.1001	15000	313.15	193.2	.5796
.2	15000	313.15	198.7	.5961
.3002	15000	313.15	200.9	.6027
.3999	15000	313.15	201.5	.6045
.5018	15000	313.15	197.5	.5925
.5997	15000	313.15	195.7	.5871
.7002	15000	313.15	194	.582
.7999	15000	313.15	191.9	.5757
.9	15000	313.15	188	.564
0	20000	313.15	179.6	.5388
.1001	20000	313.15	191	.573
.2	20000	313.15	196.2	.5886
.3002	20000	313.15	198.2	.5946
.3999	20000	313.15	199.5	.5985
.5018	20000	313.15	194.1	.5823
.5997	20000	313.15	193	.579
.7002	20000	313.15	192	.576
.7999	20000	313.15	190.4	.5712
.9	20000	313.15	186.5	.5595
0	25000	313.15	177.2	.5316
.1001	25000	313.15	188.1	.5643
.2	25000	313.15	193.4	.5802
.3002	25000	313.15	194.5	.5835
.3999	25000	313.15	197	.591
.5018	25000	313.15	192.9	.5787
.5997	25000	313.15	191.4	.5742
.7002	25000	313.15	189.4	.5682
.7999	25000	313.15	188.2	.5646
.9	25000	313.15	185	.555
