Measured thermophysical data. Static Dielectric Permittivity of Homologous Series of Liquid Cyclic Ethers, 3n-Crown-n, n = 4 to 6
Source: J. Chem. Eng. Data, 2012, 10.1021/je300234g
Compound 1: 1,4,7,10-tetraoxacyclododecane, C8H16O4, purity 99%
Compound 2: 1,4,7,10,13-pentaoxacyclopentadecane, C10H20O5, purity 99%
Compound 3: 1,4,7,10,13,16-hexaoxacyclooctadecane, C12H24O6, purity 99%

System: 1,4,7,10-tetraoxacyclododecane; phases: Crystal, Liquid, Air at 1 atmosphere
Property: Normal melting temperature, K (Crystal); method: Visual observation
Normal melting temperature, K	uncertainty
289	

System: 1,4,7,10-tetraoxacyclododecane; phases: Liquid
Property: Relative permittivity at zero frequency (Liquid); method: Parallel plate capacitor
Pressure, kPa	Temperature, K	Relative permittivity at zero frequency	uncertainty
101.325	295.65	10.95	.05475
101.325	298.15	10.82	.0541
101.325	300.65	10.7	.0535
101.325	303.15	10.58	.0529
101.325	305.65	10.45	.05225
101.325	308.15	10.34	.0517
101.325	310.65	10.22	.0511
101.325	313.15	10.11	.05055
101.325	315.65	10	.05
101.325	318.15	9.9	.0495
101.325	320.65	9.79	.04895
101.325	323.15	9.69	.04845
101.325	325.65	9.59	.04795
101.325	328.15	9.49	.04745
101.325	330.65	9.41	.04705
101.325	333.15	9.31	.04655
101.325	335.65	9.22	.0461
101.325	338.15	9.13	.04565
101.325	340.65	9.04	.0452
101.325	343.15	8.94	.0447
101.325	345.65	8.86	.0443
101.325	348.15	8.76	.0438
101.325	350.65	8.68	.0434
101.325	353.15	8.59	.04295

System: 1,4,7,10,13-pentaoxacyclopentadecane; phases: Crystal, Liquid, Air at 1 atmosphere
Property: Normal melting temperature, K (Crystal); method: Visual observation
Normal melting temperature, K	uncertainty
253	

System: 1,4,7,10,13-pentaoxacyclopentadecane; phases: Liquid
Property: Relative permittivity at zero frequency (Liquid); method: Parallel plate capacitor
Pressure, kPa	Temperature, K	Relative permittivity at zero frequency	uncertainty
101.325	273.15	17.82	.0891
101.325	275.65	17.56	.0878
101.325	278.15	17.3	.0865
101.325	280.65	17.05	.08525
101.325	283.15	16.81	.08405
101.325	285.65	16.57	.08285
101.325	288.15	16.34	.0817
101.325	290.65	16.11	.08055
101.325	293.15	15.89	.07945
101.325	295.65	15.68	.0784
101.325	298.15	15.48	.0774
101.325	300.65	15.28	.0764
101.325	303.15	15.08	.0754
101.325	305.65	14.88	.0744
101.325	308.15	14.69	.07345
101.325	310.65	14.5	.0725
101.325	313.15	14.31	.07155
101.325	315.65	14.14	.0707
101.325	318.15	13.96	.0698
101.325	320.65	13.79	.06895
101.325	323.15	13.63	.06815
101.325	325.65	13.46	.0673
101.325	328.15	13.3	.0665
101.325	330.65	13.15	.06575
101.325	333.15	13	.065

System: 1,4,7,10,13,16-hexaoxacyclooctadecane; phases: Crystal, Liquid, Air at 1 atmosphere
Property: Normal melting temperature, K (Crystal); method: Visual observation
Normal melting temperature, K	uncertainty
316.5	

System: 1,4,7,10,13,16-hexaoxacyclooctadecane; phases: Liquid
Property: Relative permittivity at zero frequency (Liquid); method: Parallel plate capacitor
Pressure, kPa	Temperature, K	Relative permittivity at zero frequency	uncertainty
101.325	315.65	8.9	.0445
101.325	318.15	8.86	.0443
101.325	320.65	8.82	.0441
101.325	323.15	8.77	.04385
101.325	325.65	8.73	.04365
101.325	328.15	8.69	.04345
101.325	330.65	8.64	.0432
101.325	333.15	8.59	.04295
101.325	335.65	8.54	.0427
101.325	338.15	8.49	.04245
101.325	340.65	8.44	.0422
101.325	343.15	8.39	.04195
101.325	345.65	8.34	.0417
101.325	348.15	8.29	.04145
101.325	350.65	8.24	.0412
101.325	353.15	8.19	.04095
