Measured thermophysical data. Isobaric Vapor Liquid Equilibrium Data for the Binary Mixtures 2-Methyl Propan-2-ol with Tetraethoxysilane and 1-Phenyl Ethanone at 95.5 kPa
Source: J. Chem. Eng. Data, 2012, 10.1021/je300076y
Compound 1: 2-methyl-2-propanol, C4H10O, purity 99%
Compound 2: tetraethyl silicate, C8H20O4Si, purity 99%
Compound 3: 1-phenylethanone, C8H8O, purity 99%

System: 2-methyl-2-propanol; phases: Liquid
Fixed: Pressure, kPa = 101.325
Property: Mass density, kg/m3 (Liquid); method: Vibrating tube method
Temperature, K	Mass density, kg/m3	uncertainty
293.15	788.4	.1

System: 2-methyl-2-propanol; phases: Liquid
Fixed: Pressure, kPa = 101.325
Property: Refractive index (Na D-line) (Liquid); method: Standard Abbe refractometry
Temperature, K	Refractive index (Na D-line)	uncertainty
293.15	1.3877	.0001

System: 2-methyl-2-propanol; phases: Liquid, Gas
Property: Vapor or sublimation pressure, kPa (Liquid); method: Ebulliometric method (Recirculating still)
Temperature, K	Vapor or sublimation pressure, kPa	uncertainty
353.61	95.5	.133
353.71	95.5	.133

System: tetraethyl silicate; phases: Liquid
Fixed: Pressure, kPa = 101.325
Property: Mass density, kg/m3 (Liquid); method: Vibrating tube method
Temperature, K	Mass density, kg/m3	uncertainty
293.15	935	.1

System: tetraethyl silicate; phases: Liquid
Fixed: Pressure, kPa = 101.325
Property: Refractive index (Na D-line) (Liquid); method: Standard Abbe refractometry
Temperature, K	Refractive index (Na D-line)	uncertainty
293.15	1.3835	.0001

System: tetraethyl silicate; phases: Liquid, Gas
Property: Vapor or sublimation pressure, kPa (Liquid); method: Ebulliometric method (Recirculating still)
Temperature, K	Vapor or sublimation pressure, kPa	uncertainty
439.35	95.5	.133

System: 1-phenylethanone; phases: Liquid
Fixed: Pressure, kPa = 101.325
Property: Mass density, kg/m3 (Liquid); method: Vibrating tube method
Temperature, K	Mass density, kg/m3	uncertainty
293.15	1024.5	.1

System: 1-phenylethanone; phases: Liquid
Fixed: Pressure, kPa = 101.325
Property: Refractive index (Na D-line) (Liquid); method: Standard Abbe refractometry
Temperature, K	Refractive index (Na D-line)	uncertainty
293.15	1.537	

System: 1-phenylethanone; phases: Liquid, Gas
Property: Vapor or sublimation pressure, kPa (Liquid); method: Ebulliometric method (Recirculating still)
Temperature, K	Vapor or sublimation pressure, kPa	uncertainty
472.25	95.5	.133

System: 2-methyl-2-propanol + tetraethyl silicate; phases: Liquid, Gas
Fixed: Pressure, kPa = 95.5
Property: Boiling temperature at pressure P, K (Liquid); method: Ebulliometric method (Recirculating still)
Mole fraction of 2-methyl-2-propanol	Boiling temperature at pressure P, K	uncertainty
0	439.35	.1
.136	390.15	.1
.239	377.15	.1
.321	372.65	.1
.386	371.15	.1
.44	370.15	.1
.486	369.65	.1
.524	368.65	.1
.557	367.65	.1
.586	367.15	.1
.611	366.65	.1
.68	364.65	.1
.727	363.15	.1
.752	362.15	.1
.78	361.15	.1
.809	360.15	.1
.842	359.15	.1
.876	357.65	.1
.914	356.65	.1
1	353.61	.1

System: 2-methyl-2-propanol + 1-phenylethanone; phases: Liquid, Gas
Fixed: Pressure, kPa = 95.5
Property: Boiling temperature at pressure P, K (Liquid); method: Ebulliometric method (Recirculating still)
Mole fraction of 2-methyl-2-propanol	Boiling temperature at pressure P, K	uncertainty
0	472.25	.1
.141	403.15	.1
.247	386.65	.1
.33	377.65	.1
.397	370.65	.1
.451	368.65	.1
.497	367.15	.1
.535	365.65	.1
.568	364.65	.1
.613	363.65	.1
.655	362.15	.1
.703	361.15	.1
.76	359.65	.1
.826	358.15	.1
.904	356.15	.1
.966	354.65	.1
1	353.71	.1
