Measured thermophysical data. Multiproperty Correlation of Experimental Data of the Binaries Propyl Ethanoate + Alkanes (Pentane to Decane). New Experimental Information for Vapor Liquid Equilibrium and Mixing Properties
Source: J. Chem. Eng. Data, 2013, 10.1021/je3011979
Compound 1: propyl acetate, C5H10O2, purity 99%
Compound 2: n-pentane, C5H12, purity 99%
Compound 3: n-hexane, C6H14, purity 99%
Compound 4: heptane, C7H16, purity 99%
Compound 5: n-octane, C8H18, purity 99%
Compound 6: n-nonane, C9H20, purity 99%
Compound 7: n-decane, C10H22, purity 99%

System: propyl acetate; phases: Liquid
Fixed: Pressure, kPa = 101.325
Property: Refractive index (Na D-line) (Liquid); method: Standard Abbe refractometry
Temperature, K	Refractive index (Na D-line)	uncertainty
298.15	1.3818	.0002
318.15	1.372	.0002

System: propyl acetate; phases: Liquid, Gas
Property: Vapor or sublimation pressure, kPa (Liquid); method: Ebulliometric method (Recirculating still)
Temperature, K	Vapor or sublimation pressure, kPa	uncertainty
318.35	12.14	.02
322.19	14.43	.02
325.87	17.04	.02
328.95	19.43	.02
331.59	21.77	.02
334.22	24.29	.02
336.6	26.79	.02
338.75	29.12	.02
340.72	31.53	.02
342.66	33.96	.02
344.52	36.46	.02
346.15	38.78	.02
347.73	41.14	.02
349.35	43.69	.02
350.81	46.08	.02
352.19	48.41	.02
353.57	50.84	.02
354.78	53.11	.02
356.03	55.48	.02
357.29	57.96	.02
358.41	60.24	.02
359.52	62.59	.02
360.63	65	.02
361.71	67.41	.02
362.73	69.74	.02
363.81	72.28	.02
364.84	74.8	.02
365.86	77.35	.02
366.81	79.8	.02
367.7	82.11	.02
368.62	84.58	.02
369.51	87.01	.02
370.41	89.57	.02
371.18	91.8	.02
371.99	94.17	.02
372.78	96.55	.02
373.55	98.87	.02
373.97	100.18	.02
374.52	101.32	.02
375.1	103.76	.02
375.78	106.19	.02
376.51	108.56	.02
377.29	111.14	.02
377.98	113.47	.02
378.69	115.96	.02
379.36	118.3	.02
380.04	120.71	.02
380.74	123.19	.02
381.41	125.61	.02
382.06	128.01	.02
382.71	130.42	.02
383.34	132.85	.02
384.01	135.42	.02
384.55	137.67	.02
385.18	140.04	.02
385.79	142.47	.02
386.36	144.8	.02
386.9	147.09	.02
387.49	149.51	.02
388.06	151.96	.02
388.63	154.37	.02
389.16	156.68	.02
389.68	158.99	.02
390.18	161.23	.02
390.68	163.46	.02
391.22	165.89	.02
391.7	168.13	.02
392.24	170.62	.02
392.73	172.98	.02
393.23	175.35	.02
393.71	177.64	.02
394.16	180.01	.02
394.66	182.44	.02
395.17	185.03	.02
395.67	187.59	.02
396.16	190.1	.02
396.69	192.76	.02
374.34	101.32	.02

System: propyl acetate; phases: Liquid
Property: Mass density, kg/m3 (Liquid); method: Vibrating tube method
Temperature, K	Pressure, kPa	Mass density, kg/m3	uncertainty
298.15	101	882.5	.02
291.15	101	889.6	.02
328.15	101	848.3	.02
318.15	101	859.8	.02

System: n-pentane; phases: Liquid
Fixed: Pressure, kPa = 101.325
Property: Refractive index (Na D-line) (Liquid); method: Standard Abbe refractometry
Temperature, K	Refractive index (Na D-line)	uncertainty
298.15	1.3545	.0002

System: n-pentane; phases: Liquid, Gas
Property: Vapor or sublimation pressure, kPa (Liquid); method: Ebulliometric method (Recirculating still)
Temperature, K	Vapor or sublimation pressure, kPa	uncertainty
309.24	101.32	.02

System: n-pentane; phases: Liquid
Property: Mass density, kg/m3 (Liquid); method: Vibrating tube method
Temperature, K	Pressure, kPa	Mass density, kg/m3	uncertainty
298.15	101	621.4	.02
291.15	101	628.2	.02

System: n-hexane; phases: Liquid
Fixed: Pressure, kPa = 101.325
Property: Refractive index (Na D-line) (Liquid); method: Standard Abbe refractometry
Temperature, K	Refractive index (Na D-line)	uncertainty
298.15	1.3723	.0002
318.15	1.3615	.0002

System: n-hexane; phases: Liquid, Gas
Property: Vapor or sublimation pressure, kPa (Liquid); method: Ebulliometric method (Recirculating still)
Temperature, K	Vapor or sublimation pressure, kPa	uncertainty
341.89	101.32	.02

System: n-hexane; phases: Liquid
Property: Mass density, kg/m3 (Liquid); method: Vibrating tube method
Temperature, K	Pressure, kPa	Mass density, kg/m3	uncertainty
328.15	101	627.2	.02
318.15	101	636.7	.02
298.15	101	654.8	.02
291.15	101	661.2	.02

System: heptane; phases: Liquid
Fixed: Pressure, kPa = 101.325
Property: Refractive index (Na D-line) (Liquid); method: Standard Abbe refractometry
Temperature, K	Refractive index (Na D-line)	uncertainty
298.15	1.3852	.0002
318.15	1.3748	.0002

System: heptane; phases: Liquid, Gas
Property: Vapor or sublimation pressure, kPa (Liquid); method: Ebulliometric method (Recirculating still)
Temperature, K	Vapor or sublimation pressure, kPa	uncertainty
371.55	101.32	.02

System: heptane; phases: Liquid
Property: Mass density, kg/m3 (Liquid); method: Vibrating tube method
Temperature, K	Pressure, kPa	Mass density, kg/m3	uncertainty
328.15	101	653.7	.02
318.15	101	662.1	.02
298.15	101	679.5	.02
291.15	101	685.3	.02

System: n-octane; phases: Liquid
Fixed: Pressure, kPa = 101.325
Property: Refractive index (Na D-line) (Liquid); method: Standard Abbe refractometry
Temperature, K	Refractive index (Na D-line)	uncertainty
298.15	1.3952	.0002
318.15	1.3855	.0002

System: n-octane; phases: Liquid, Gas
Property: Vapor or sublimation pressure, kPa (Liquid); method: Ebulliometric method (Recirculating still)
Temperature, K	Vapor or sublimation pressure, kPa	uncertainty
398.85	101.32	.02

System: n-octane; phases: Liquid
Property: Mass density, kg/m3 (Liquid); method: Vibrating tube method
Temperature, K	Pressure, kPa	Mass density, kg/m3	uncertainty
328.15	101	674.1	.02
318.15	101	682.2	.02
298.15	101	698.6	.02
291.15	101	704.1	.02

System: n-nonane; phases: Liquid
Fixed: Pressure, kPa = 101.325
Property: Refractive index (Na D-line) (Liquid); method: Standard Abbe refractometry
Temperature, K	Refractive index (Na D-line)	uncertainty
298.15	1.4031	.0002
318.15	1.3938	.0002

System: n-nonane; phases: Liquid, Gas
Property: Vapor or sublimation pressure, kPa (Liquid); method: Ebulliometric method (Recirculating still)
Temperature, K	Vapor or sublimation pressure, kPa	uncertainty
423.94	101.32	.02

System: n-nonane; phases: Liquid
Property: Mass density, kg/m3 (Liquid); method: Vibrating tube method
Temperature, K	Pressure, kPa	Mass density, kg/m3	uncertainty
328.15	101	690.2	.02
318.15	101	698.1	.02
298.15	101	713.9	.02
291.15	101	719.2	.02

System: n-decane; phases: Liquid
Fixed: Pressure, kPa = 101.325
Property: Refractive index (Na D-line) (Liquid); method: Standard Abbe refractometry
Temperature, K	Refractive index (Na D-line)	uncertainty
298.15	1.4096	.0002
318.15	1.4008	.0002

System: n-decane; phases: Liquid, Gas
Property: Vapor or sublimation pressure, kPa (Liquid); method: Ebulliometric method (Recirculating still)
Temperature, K	Vapor or sublimation pressure, kPa	uncertainty
447.27	101.32	.02

System: n-decane; phases: Liquid
Property: Mass density, kg/m3 (Liquid); method: Vibrating tube method
Temperature, K	Pressure, kPa	Mass density, kg/m3	uncertainty
328.15	101	703.3	.02
318.15	101	710.9	.02
298.15	101	726.2	.02
291.15	101	731.2	.02

System: propyl acetate + n-pentane; phases: Liquid
Fixed: Pressure, kPa = 101
Property: Mass density, kg/m3 (Liquid); method: Vibrating tube method
Temperature, K	Mole fraction of propyl acetate	Mass density, kg/m3	uncertainty
298.15	0	621.4	.02
298.15	.0101	623.7	.02
298.15	.0346	629.8	.02
298.15	.0754	640	.02
298.15	.1377	655.9	.02
298.15	.1977	671.4	.02
298.15	.283	693.6	.02
298.15	.3439	709.7	.02
298.15	.4072	726.4	.02
298.15	.4881	747.7	.02
298.15	.5218	756.5	.02
298.15	.5968	776.4	.02
298.15	.6565	792.1	.02
298.15	.7085	805.9	.02
298.15	.8437	841.6	.02
298.15	.9205	861.8	.02
298.15	1	882.5	.02
291.15	0	628.2	.02
291.15	.0121	631.2	.02
291.15	.0427	638.8	.02
291.15	.078	647.7	.02
291.15	.1417	664	.02
291.15	.2048	680.3	.02
291.15	.2734	698.2	.02
291.15	.3338	714.1	.02
291.15	.3934	729.8	.02
291.15	.4636	748.4	.02
291.15	.5224	763.9	.02
291.15	.5876	781.1	.02
291.15	.6565	799.3	.02
291.15	.7136	814.4	.02
291.15	.7697	829.2	.02
291.15	.8277	844.6	.02
291.15	.8911	861.3	.02
291.15	.923	869.7	.02
291.15	1	889.6	.02

System: propyl acetate + n-pentane; phases: Liquid
Fixed: Pressure, kPa = 101
Fixed: Temperature, K = 291.15
Property: Excess molar enthalpy (molar enthalpy of mixing), kJ/mol (Liquid); method: Calvet calorimetry
Mole fraction of propyl acetate	Excess molar enthalpy (molar enthalpy of mixing), kJ/mol	uncertainty
.0667	.224	.002
.1334	.406	.002
.2047	.617	.002
.2753	.78	.002
.3414	.914	.002
.4028	.988	.002
.461	1.026	.002
.5088	1.031	.002
.5257	1.025	.002
.5824	.973	.002
.6434	.896	.002
.7089	.787	.002
.7812	.636	.002
.8537	.446	.002
.9242	.249	.002

System: propyl acetate + n-pentane; phases: Gas, Liquid
Property: Mole fraction of propyl acetate (Gas); method: Density calibration data
Mole fraction of propyl acetate	Pressure, kPa	Mole fraction of propyl acetate	uncertainty
0	101.32	0	.002
.0146	101.32	.0061	.002
.0276	101.32	.0102	.002
.0579	101.32	.017	.002
.1101	101.32	.0241	.002
.1455	101.32	.0303	.002
.1744	101.32	.0352	.002
.2135	101.32	.04	.002
.3165	101.32	.0574	.002
.4148	101.32	.0791	.002
.5263	101.32	.1092	.002
.6412	101.32	.1542	.002
.7303	101.32	.211	.002
.7819	101.32	.2622	.002
.8189	101.32	.316	.002
.853	101.32	.3782	.002
.881	101.32	.4411	.002
.915	101.32	.5433	.002
.9401	101.32	.642	.002
.9615	101.32	.7451	.002
.9734	101.32	.8131	.002
.9817	101.32	.865	.002
.9902	101.32	.925	.002
.9951	101.32	.9611	.002
1	101.32	1	.002

System: propyl acetate + n-pentane; phases: Liquid, Gas
Property: Boiling temperature at pressure P, K (Liquid); method: Ebulliometric method (Recirculating still)
Mole fraction of propyl acetate	Pressure, kPa	Boiling temperature at pressure P, K	uncertainty
0	101.32	309.24	.01
.0146	101.32	309.88	.01
.0276	101.32	310.21	.01
.0579	101.32	310.83	.01
.1101	101.32	311.59	.01
.1455	101.32	312.6	.01
.1744	101.32	313.21	.01
.2135	101.32	313.91	.01
.3165	101.32	316.48	.01
.4148	101.32	319.77	.01
.5263	101.32	324.2	.01
.6412	101.32	330.46	.01
.7303	101.32	336.62	.01
.7819	101.32	341.02	.01
.8189	101.32	344.98	.01
.853	101.32	348.96	.01
.881	101.32	352.67	.01
.915	101.32	357.79	.01
.9401	101.32	362.12	.01
.9615	101.32	366.04	.01
.9734	101.32	368.43	.01
.9817	101.32	370.32	.01
.9902	101.32	372.1	.01
.9951	101.32	373.21	.01
1	101.32	374.34	.01

System: propyl acetate + n-hexane; phases: Liquid
Fixed: Pressure, kPa = 101
Property: Mass density, kg/m3 (Liquid); method: Vibrating tube method
Temperature, K	Mole fraction of propyl acetate	Mass density, kg/m3	uncertainty
328.15	0	627.2	.02
328.15	.0253	631.3	.02
328.15	.0749	640.2	.02
328.15	.1369	651.6	.02
328.15	.2052	664.7	.02
328.15	.2719	677.8	.02
328.15	.3322	690.1	.02
328.15	.3986	704	.02
328.15	.4614	717.6	.02
328.15	.5209	730.7	.02
328.15	.5809	744.3	.02
328.15	.62	753.3	.02
328.15	.6944	770.8	.02
328.15	.7605	786.8	.02
328.15	.8114	799.4	.02
328.15	.8707	814.4	.02
328.15	.9235	828	.02
328.15	1	848.3	.02
318.15	0	636.7	.02
318.15	.0304	641.7	.02
318.15	.0796	650.7	.02
318.15	.1381	661.7	.02
318.15	.2079	675.3	.02
318.15	.2642	686.6	.02
318.15	.3318	700.5	.02
318.15	.3997	714.9	.02
318.15	.4505	725.9	.02
318.15	.5124	739.7	.02
318.15	.5708	752.9	.02
318.15	.622	764.8	.02
318.15	.6815	778.9	.02
318.15	.7426	793.7	.02
318.15	.7992	807.7	.02
318.15	.8648	824.4	.02
318.15	.9227	839.3	.02
318.15	1	859.8	.02
298.15	0	654.8	.02
298.15	.0175	658	.02
298.15	.035	661.2	.02
298.15	.0831	670.3	.02
298.15	.1535	683.9	.02
298.15	.2218	697.6	.02
298.15	.2836	710.3	.02
298.15	.3539	724.9	.02
298.15	.4197	739.4	.02
298.15	.4795	752.7	.02
298.15	.5417	766.9	.02
298.15	.604	781.5	.02
298.15	.6583	794.5	.02
298.15	.7242	810.6	.02
298.15	.7772	823.9	.02
298.15	.8357	838.9	.02
298.15	.8934	853.9	.02
298.15	.9187	860.5	.02
298.15	.9749	875.7	.02
298.15	1	882.5	.02
291.15	0	661.2	.02
291.15	.012	663.4	.02
291.15	.0372	668	.02
291.15	.0924	678.5	.02
291.15	.1648	692.7	.02
291.15	.2357	707	.02
291.15	.3085	722.2	.02
291.15	.3804	737.7	.02
291.15	.442	751.4	.02
291.15	.5117	767.2	.02
291.15	.5781	782.6	.02
291.15	.64	797.3	.02
291.15	.702	812.3	.02
291.15	.7697	829.1	.02
291.15	.8208	842.2	.02
291.15	.8835	858.4	.02
291.15	.9247	869.3	.02
291.15	1	889.6	.02

System: propyl acetate + n-hexane; phases: Liquid
Fixed: Pressure, kPa = 101
Property: Excess molar enthalpy (molar enthalpy of mixing), kJ/mol (Liquid); method: Calvet calorimetry
Temperature, K	Mole fraction of propyl acetate	Excess molar enthalpy (molar enthalpy of mixing), kJ/mol	uncertainty
291.15	.074	.275	.002
291.15	.1514	.544	.002
291.15	.2307	.751	.002
291.15	.3056	.922	.002
291.15	.3758	1.038	.002
291.15	.4417	1.087	.002
291.15	.4984	1.109	.002
291.15	.5492	1.09	.002
291.15	.5528	1.087	.002
291.15	.6101	1.029	.002
291.15	.6705	.952	.002
291.15	.7361	.817	.002
291.15	.8064	.655	.002
291.15	.8762	.464	.002
291.15	.9422	.246	.002
298.15	.0319	.103	.002
298.15	.0736	.271	.002
298.15	.145	.529	.002
298.15	.2223	.743	.002
298.15	.3011	.931	.002
298.15	.366	1.038	.002
298.15	.4223	1.104	.002
298.15	.503	1.122	.002
298.15	.559	1.094	.002
298.15	.6073	1.044	.002
298.15	.6518	.979	.002
298.15	.7091	.874	.002
298.15	.7653	.741	.002
298.15	.8334	.569	.002
298.15	.8989	.376	.002
298.15	.9494	.195	.002
318.15	.0748	.289	.002
318.15	.1298	.511	.002
318.15	.2004	.736	.002
318.15	.2777	.941	.002
318.15	.3479	1.058	.002
318.15	.4119	1.119	.002
318.15	.4746	1.146	.002
318.15	.5084	1.142	.002
318.15	.5582	1.127	.002
318.15	.6039	1.08	.002
318.15	.6543	1.012	.002
318.15	.7123	.914	.002
318.15	.7753	.774	.002
318.15	.8288	.613	.002
318.15	.8906	.417	.002
318.15	.9452	.224	.002

System: propyl acetate + n-hexane; phases: Gas, Liquid
Property: Mole fraction of propyl acetate (Gas); method: Density calibration data
Mole fraction of propyl acetate	Pressure, kPa	Mole fraction of propyl acetate	uncertainty
0	101.32	0	.002
.0088	101.32	.007	.002
.0253	101.32	.0196	.002
.047	101.32	.0354	.002
.0767	101.32	.054	.002
.11	101.32	.0715	.002
.1485	101.32	.0905	.002
.1959	101.32	.11	.002
.2372	101.32	.1301	.002
.286	101.32	.1492	.002
.3385	101.32	.1699	.002
.3866	101.32	.1959	.002
.4332	101.32	.2175	.002
.4773	101.32	.2415	.002
.5184	101.32	.2641	.002
.5629	101.32	.2904	.002
.6104	101.32	.3179	.002
.6403	101.32	.3396	.002
.6643	101.32	.3599	.002
.6922	101.32	.3833	.002
.7209	101.32	.4104	.002
.7493	101.32	.4371	.002
.7772	101.32	.4721	.002
.808	101.32	.5161	.002
.8422	101.32	.568	.002
.8746	101.32	.6264	.002
.9015	101.32	.6857	.002
.9265	101.32	.7465	.002
.9423	101.32	.7914	.002
.9629	101.32	.8567	.002
.9787	101.32	.9082	.002
.9899	101.32	.9507	.002
1	101.32	1	.002

System: propyl acetate + n-hexane; phases: Liquid, Gas
Property: Boiling temperature at pressure P, K (Liquid); method: Ebulliometric method (Recirculating still)
Mole fraction of propyl acetate	Pressure, kPa	Boiling temperature at pressure P, K	uncertainty
0	101.32	341.89	.01
.0088	101.32	341.95	.01
.0253	101.32	342.07	.01
.047	101.32	342.25	.01
.0767	101.32	342.5	.01
.11	101.32	342.91	.01
.1485	101.32	343.32	.01
.1959	101.32	343.84	.01
.2372	101.32	344.43	.01
.286	101.32	345.08	.01
.3385	101.32	345.8	.01
.3866	101.32	346.64	.01
.4332	101.32	347.46	.01
.4773	101.32	348.3	.01
.5184	101.32	349.16	.01
.5629	101.32	350.2	.01
.6104	101.32	351.25	.01
.6403	101.32	352.13	.01
.6643	101.32	352.98	.01
.6922	101.32	353.97	.01
.7209	101.32	355.22	.01
.7493	101.32	356.36	.01
.7772	101.32	357.75	.01
.808	101.32	359.48	.01
.8422	101.32	361.45	.01
.8746	101.32	363.46	.01
.9015	101.32	365.36	.01
.9265	101.32	367.41	.01
.9423	101.32	368.79	.01
.9629	101.32	370.65	.01
.9787	101.32	372.07	.01
.9899	101.32	373.16	.01
1	101.32	374.34	.01

System: propyl acetate + heptane; phases: Liquid
Fixed: Pressure, kPa = 101
Property: Mass density, kg/m3 (Liquid); method: Vibrating tube method
Temperature, K	Mole fraction of propyl acetate	Mass density, kg/m3	uncertainty
328.15	0	653.7	.02
328.15	.0373	658.5	.02
328.15	.0866	665.4	.02
328.15	.1645	676.8	.02
328.15	.2401	688.6	.02
328.15	.3096	700	.02
328.15	.3783	711.8	.02
328.15	.4478	724.3	.02
328.15	.5142	736.8	.02
328.15	.5756	748.9	.02
328.15	.6377	761.7	.02
328.15	.6884	772.5	.02
328.15	.756	787.5	.02
328.15	.8074	799.5	.02
328.15	.856	811.2	.02
328.15	.9097	824.7	.02
328.15	.9638	838.7	.02
328.15	1	848.3	.02
318.15	0	662.1	.02
318.15	.0291	666.1	.02
318.15	.0843	673.9	.02
318.15	.1595	685.1	.02
318.15	.23	696.3	.02
318.15	.2972	707.3	.02
318.15	.3638	718.8	.02
318.15	.4295	730.8	.02
318.15	.4902	742.3	.02
318.15	.553	754.6	.02
318.15	.6057	765.4	.02
318.15	.6734	779.8	.02
318.15	.726	791.4	.02
318.15	.7727	802.1	.02
318.15	.7949	807.7	.02
318.15	.8645	824.4	.02
318.15	.9242	839.3	.02
318.15	1	859.8	.02
298.15	0	679.5	.02
298.15	.0149	681.8	.02
298.15	.0308	684	.02
298.15	.0953	693.5	.02
298.15	.168	704.8	.02
298.15	.2358	715.8	.02
298.15	.3084	728.2	.02
298.15	.375	740.2	.02
298.15	.4386	752.1	.02
298.15	.5062	765.3	.02
298.15	.5643	777.2	.02
298.15	.6488	795.2	.02
298.15	.6684	799.5	.02
298.15	.7446	816.9	.02
298.15	.793	828.4	.02
298.15	.8688	847.3	.02
298.15	.91	858	.02
298.15	.9508	868.8	.02
298.15	1	882.5	.02
291.15	0	685.3	.02
291.15	.0086	686.6	.02
291.15	.032	690.1	.02
291.15	.0864	698.2	.02
291.15	.1706	711.3	.02
291.15	.2573	725.7	.02
291.15	.3308	738.6	.02
291.15	.3974	750.9	.02
291.15	.4644	763.7	.02
291.15	.5398	778.9	.02
291.15	.6055	792.8	.02
291.15	.6723	807.4	.02
291.15	.7257	819.6	.02
291.15	.8	837.2	.02
291.15	.8457	848.5	.02
291.15	.9057	864	.02
291.15	.9708	881.6	.02
291.15	1	889.6	.02

System: propyl acetate + heptane; phases: Liquid
Fixed: Pressure, kPa = 101
Fixed: Temperature, K = 291.15
Property: Excess molar enthalpy (molar enthalpy of mixing), kJ/mol (Liquid); method: Calvet calorimetry
Mole fraction of propyl acetate	Excess molar enthalpy (molar enthalpy of mixing), kJ/mol	uncertainty
.0996	.436	.002
.2001	.756	.002
.2956	1.001	.002
.3852	1.14	.002
.4642	1.192	.002
.5309	1.195	.002
.588	1.149	.002
.638	1.073	.002
.656	1.046	.002
.7113	.948	.002
.7717	.81	.002
.8326	.639	.002
.8942	.437	.002
.9501	.226	.002

System: propyl acetate + heptane; phases: Gas, Liquid
Property: Mole fraction of propyl acetate (Gas); method: Density calibration data
Mole fraction of propyl acetate	Pressure, kPa	Mole fraction of propyl acetate	uncertainty
0	101.32	0	.002
.0298	101.32	.0603	.002
.059	101.32	.1033	.002
.0954	101.32	.1513	.002
.1398	101.32	.2084	.002
.1895	101.32	.2627	.002
.2337	101.32	.3031	.002
.2761	101.32	.3347	.002
.307	101.32	.3578	.002
.3411	101.32	.3828	.002
.3789	101.32	.4073	.002
.4138	101.32	.4308	.002
.445	101.32	.447	.002
.4716	101.32	.4624	.002
.5025	101.32	.4781	.002
.5492	101.32	.5014	.002
.5694	101.32	.5155	.002
.6001	101.32	.5341	.002
.6279	101.32	.5521	.002
.6498	101.32	.5686	.002
.6729	101.32	.5869	.002
.7003	101.32	.6065	.002
.7306	101.32	.6301	.002
.7556	101.32	.6507	.002
.7801	101.32	.6762	.002
.8033	101.32	.7023	.002
.8275	101.32	.7289	.002
.8508	101.32	.7561	.002
.8823	101.32	.7959	.002
.9069	101.32	.8321	.002
.9372	101.32	.8805	.002
.9652	101.32	.9292	.002
.9912	101.32	.9712	.002
1	101.32	1	.002

System: propyl acetate + heptane; phases: Liquid, Gas
Property: Boiling temperature at pressure P, K (Liquid); method: Ebulliometric method (Recirculating still)
Mole fraction of propyl acetate	Pressure, kPa	Boiling temperature at pressure P, K	uncertainty
0	101.32	371.55	.01
.0298	101.32	370.51	.01
.059	101.32	370.13	.01
.0954	101.32	369.57	.01
.1398	101.32	368.86	.01
.1895	101.32	368.29	.01
.2337	101.32	367.78	.01
.2761	101.32	367.46	.01
.307	101.32	367.27	.01
.3411	101.32	367.11	.01
.3789	101.32	367.08	.01
.4138	101.32	367.07	.01
.445	101.32	367.05	.01
.4716	101.32	367.12	.01
.5025	101.32	367.23	.01
.5492	101.32	367.35	.01
.5694	101.32	367.46	.01
.6001	101.32	367.64	.01
.6279	101.32	367.79	.01
.6498	101.32	367.9	.01
.6729	101.32	368.19	.01
.7003	101.32	368.44	.01
.7306	101.32	368.74	.01
.7556	101.32	369.06	.01
.7801	101.32	369.43	.01
.8033	101.32	369.85	.01
.8275	101.32	370.29	.01
.8508	101.32	370.75	.01
.8823	101.32	371.26	.01
.9069	101.32	371.73	.01
.9372	101.32	372.54	.01
.9652	101.32	373.25	.01
.9912	101.32	373.98	.01
1	101.32	374.34	.01

System: propyl acetate + n-octane; phases: Liquid
Fixed: Pressure, kPa = 101
Property: Mass density, kg/m3 (Liquid); method: Vibrating tube method
Temperature, K	Mole fraction of propyl acetate	Mass density, kg/m3	uncertainty
328.15	0	674.1	.02
328.15	.0249	676.7	.02
328.15	.1032	685.4	.02
328.15	.1801	694.6	.02
328.15	.2554	704.4	.02
328.15	.3244	713.9	.02
328.15	.4	725	.02
328.15	.4761	737	.02
328.15	.5341	746.7	.02
328.15	.5975	757.9	.02
328.15	.6603	769.7	.02
328.15	.7147	780.7	.02
328.15	.7686	791.9	.02
328.15	.8149	802.1	.02
328.15	.8651	813.8	.02
328.15	.9233	828	.02
328.15	.9404	832.4	.02
328.15	1	848.3	.02
318.15	0	682.2	.02
318.15	.044	687.1	.02
318.15	.0919	692.5	.02
318.15	.1675	701.7	.02
318.15	.2438	711.7	.02
318.15	.3148	721.6	.02
318.15	.3866	732.3	.02
318.15	.4471	741.8	.02
318.15	.5188	753.7	.02
318.15	.5695	762.8	.02
318.15	.6293	773.9	.02
318.15	.6793	783.8	.02
318.15	.7422	796.8	.02
318.15	.7792	804.8	.02
318.15	.8435	819.5	.02
318.15	.8743	826.9	.02
318.15	.9284	840.5	.02
318.15	1	859.8	.02
298.15	0	698.6	.02
298.15	.0149	700.3	.02
298.15	.0603	705.4	.02
298.15	.1039	710.8	.02
298.15	.2154	725.3	.02
298.15	.2536	730.6	.02
298.15	.3283	741.5	.02
298.15	.3895	751.1	.02
298.15	.4733	765	.02
298.15	.5382	776.6	.02
298.15	.5953	787.3	.02
298.15	.6543	799	.02
298.15	.7043	809.4	.02
298.15	.7628	822.2	.02
298.15	.8145	834.2	.02
298.15	.862	845.6	.02
298.15	.9221	860.9	.02
298.15	.9349	864.3	.02
298.15	1	882.5	.02
291.15	0	704.1	.02
291.15	.012	705.7	.02
291.15	.0405	708.9	.02
291.15	.1465	721.9	.02
291.15	.1905	727.8	.02
291.15	.2679	738.6	.02
291.15	.3573	752.2	.02
291.15	.4206	762.5	.02
291.15	.4808	772.7	.02
291.15	.5357	782.6	.02
291.15	.6206	798.8	.02
291.15	.6668	808.1	.02
291.15	.7082	816.9	.02
291.15	.7644	829.3	.02
291.15	.8181	841.9	.02
291.15	.8638	853.1	.02
291.15	.9109	865.1	.02
291.15	.9798	883.9	.02
291.15	1	889.6	.02

System: propyl acetate + n-octane; phases: Liquid
Fixed: Pressure, kPa = 101
Property: Excess molar enthalpy (molar enthalpy of mixing), kJ/mol (Liquid); method: Calvet calorimetry
Temperature, K	Mole fraction of propyl acetate	Excess molar enthalpy (molar enthalpy of mixing), kJ/mol	uncertainty
291.15	.0879	.457	.002
291.15	.1784	.765	.002
291.15	.2664	1.014	.002
291.15	.3472	1.175	.002
291.15	.4208	1.265	.002
291.15	.486	1.298	.002
291.15	.5436	1.292	.002
291.15	.5927	1.257	.002
291.15	.618	1.219	.002
291.15	.6703	1.139	.002
291.15	.7256	1.02	.002
291.15	.7843	.862	.002
291.15	.8412	.686	.002
291.15	.8983	.469	.002
291.15	.9546	.233	.002
298.15	.0883	.429	.002
298.15	.1747	.727	.002
298.15	.2568	.966	.002
298.15	.3398	1.13	.002
298.15	.4117	1.219	.002
298.15	.4788	1.257	.002
298.15	.5346	1.249	.002
298.15	.5849	1.219	.002
298.15	.6055	1.199	.002
298.15	.655	1.139	.002
298.15	.7074	1.049	.002
298.15	.7607	.929	.002
318.15	.0767	.394	.002
318.15	.1676	.74	.002
318.15	.2591	1.018	.002
318.15	.3352	1.179	.002
318.15	.4086	1.276	.002
318.15	.4719	1.304	.002
318.15	.5293	1.296	.002
318.15	.5791	1.257	.002
318.15	.5859	1.248	.002
318.15	.6316	1.191	.002
318.15	.6848	1.108	.002
318.15	.7377	1.001	.002
318.15	.7936	.864	.002
318.15	.8521	.682	.002
318.15	.9064	.476	.002
318.15	.9555	.249	.002

System: propyl acetate + n-octane; phases: Gas, Liquid
Property: Mole fraction of propyl acetate (Gas); method: Density calibration data
Mole fraction of propyl acetate	Pressure, kPa	Mole fraction of propyl acetate	uncertainty
0	101.32	0	.002
.0553	101.32	.1455	.002
.1003	101.32	.2423	.002
.1319	101.32	.2986	.002
.1931	101.32	.3968	.002
.2438	101.32	.4619	.002
.3092	101.32	.5235	.002
.3414	101.32	.5482	.002
.4125	101.32	.6088	.002
.4913	101.32	.6653	.002
.5447	101.32	.6986	.002
.5692	101.32	.7115	.002
.5886	101.32	.7228	.002
.6019	101.32	.7308	.002
.6168	101.32	.741	.002
.6732	101.32	.7712	.002
.6918	101.32	.7792	.002
.7113	101.32	.7909	.002
.7295	101.32	.8025	.002
.7528	101.32	.8157	.002
.7735	101.32	.8285	.002
.7899	101.32	.8386	.002
.8078	101.32	.85	.002
.8165	101.32	.8547	.002
.8309	101.32	.8643	.002
.8455	101.32	.8736	.002
.8577	101.32	.8816	.002
.8709	101.32	.8906	.002
.8829	101.32	.8993	.002
.8949	101.32	.9081	.002
.905	101.32	.9158	.002
.9146	101.32	.9234	.002
.9246	101.32	.9315	.002
.9344	101.32	.9393	.002
.9532	101.32	.9557	.002
.9628	101.32	.9636	.002
.973	101.32	.9731	.002
.9833	101.32	.9829	.002
.9914	101.32	.9909	.002
1	101.32	1	.002

System: propyl acetate + n-octane; phases: Liquid, Gas
Property: Boiling temperature at pressure P, K (Liquid); method: Ebulliometric method (Recirculating still)
Mole fraction of propyl acetate	Pressure, kPa	Boiling temperature at pressure P, K	uncertainty
0	101.32	398.85	.01
.0553	101.32	394.46	.01
.1003	101.32	391.36	.01
.1319	101.32	389.47	.01
.1931	101.32	386.59	.01
.2438	101.32	384.48	.01
.3092	101.32	382.65	.01
.3414	101.32	381.89	.01
.4125	101.32	380.14	.01
.4913	101.32	378.44	.01
.5447	101.32	377.58	.01
.5692	101.32	377.31	.01
.5886	101.32	376.99	.01
.6019	101.32	376.84	.01
.6168	101.32	376.67	.01
.6732	101.32	376.11	.01
.6918	101.32	376.03	.01
.7113	101.32	375.79	.01
.7295	101.32	375.58	.01
.7528	101.32	375.37	.01
.7735	101.32	375.17	.01
.7899	101.32	375.07	.01
.8078	101.32	374.89	.01
.8165	101.32	374.83	.01
.8309	101.32	374.77	.01
.8455	101.32	374.64	.01
.8577	101.32	374.54	.01
.8709	101.32	374.46	.01
.8829	101.32	374.42	.01
.8949	101.32	374.39	.01
.905	101.32	374.37	.01
.9146	101.32	374.36	.01
.9246	101.32	374.35	.01
.9344	101.32	374.34	.01
.9532	101.32	374.32	.01
.9628	101.32	374.31	.01
.973	101.32	374.31	.01
.9833	101.32	374.32	.01
.9914	101.32	374.33	.01
1	101.32	374.34	.01

System: propyl acetate + n-nonane; phases: Liquid
Fixed: Pressure, kPa = 101
Property: Mass density, kg/m3 (Liquid); method: Vibrating tube method
Temperature, K	Mole fraction of propyl acetate	Mass density, kg/m3	uncertainty
328.15	0	690.2	.02
328.15	.056	695.1	.02
328.15	.1062	699.8	.02
328.15	.1918	708.3	.02
328.15	.2757	717.5	.02
328.15	.3519	726.6	.02
328.15	.429	736.7	.02
328.15	.4999	746.7	.02
328.15	.5709	757.6	.02
328.15	.6217	766	.02
328.15	.6881	777.7	.02
328.15	.7461	788.7	.02
328.15	.7857	796.8	.02
328.15	.8318	806.6	.02
328.15	.8801	817.6	.02
328.15	.8853	818.8	.02
328.15	.9429	833	.02
328.15	1	848.3	.02
318.15	0	698.1	.02
318.15	.0217	700	.02
318.15	.1046	707.7	.02
318.15	.1791	715.4	.02
318.15	.2659	725	.02
318.15	.335	733.4	.02
318.15	.4077	742.9	.02
318.15	.4731	752.1	.02
318.15	.5367	761.7	.02
318.15	.5943	771	.02
318.15	.6526	781.2	.02
318.15	.7078	791.4	.02
318.15	.7597	801.7	.02
318.15	.8179	814.1	.02
318.15	.8565	822.8	.02
318.15	.8964	832.4	.02
318.15	.9373	842.7	.02
318.15	1	859.8	.02
298.15	0	713.9	.02
298.15	.0361	717.2	.02
298.15	.0384	717.4	.02
298.15	.1106	724.5	.02
298.15	.2023	734.5	.02
298.15	.2833	744.2	.02
298.15	.3636	754.6	.02
298.15	.4312	764.2	.02
298.15	.5061	775.6	.02
298.15	.5653	785.3	.02
298.15	.6308	796.9	.02
298.15	.6728	804.8	.02
298.15	.7321	816.5	.02
298.15	.7908	829	.02
298.15	.8257	836.9	.02
298.15	.8918	852.8	.02
298.15	.9404	865.6	.02
298.15	1	882.5	.02
291.15	0	719.2	.02
291.15	.0569	724.6	.02
291.15	.1163	730.7	.02
291.15	.1916	739	.02
291.15	.282	750	.02
291.15	.3583	760	.02
291.15	.4338	770.9	.02
291.15	.4846	778.7	.02
291.15	.5686	792.4	.02
291.15	.6289	803.2	.02
291.15	.6876	814.4	.02
291.15	.7441	826	.02
291.15	.7948	837.1	.02
291.15	.8162	841.9	.02
291.15	.8844	858.5	.02
291.15	.9349	871.7	.02
291.15	.9464	874.9	.02
291.15	1	889.6	.02

System: propyl acetate + n-nonane; phases: Liquid
Fixed: Pressure, kPa = 101
Fixed: Temperature, K = 291.15
Property: Excess molar enthalpy (molar enthalpy of mixing), kJ/mol (Liquid); method: Calvet calorimetry
Mole fraction of propyl acetate	Excess molar enthalpy (molar enthalpy of mixing), kJ/mol	uncertainty
.1167	.596	.002
.2247	.946	.002
.3093	1.167	.002
.379	1.298	.002
.4448	1.36	.002
.5009	1.383	.002
.5447	1.371	.002
.5617	1.359	.002
.6139	1.312	.002
.6683	1.222	.002
.7299	1.085	.002
.7964	.899	.002
.8649	.648	.002
.9356	.355	.002

System: propyl acetate + n-nonane; phases: Gas, Liquid
Property: Mole fraction of propyl acetate (Gas); method: Density calibration data
Mole fraction of propyl acetate	Pressure, kPa	Mole fraction of propyl acetate	uncertainty
0	101.32	0	.002
.0127	101.32	.0577	.002
.025	101.32	.1133	.002
.0444	101.32	.1855	.002
.0722	101.32	.2671	.002
.1076	101.32	.3537	.002
.149	101.32	.447	.002
.1913	101.32	.5268	.002
.2419	101.32	.5915	.002
.2952	101.32	.6524	.002
.324	101.32	.6851	.002
.3624	101.32	.7188	.002
.4017	101.32	.749	.002
.4245	101.32	.7647	.002
.4703	101.32	.7903	.002
.5126	101.32	.8107	.002
.5346	101.32	.8226	.002
.572	101.32	.8381	.002
.6152	101.32	.8531	.002
.6546	101.32	.8673	.002
.6949	101.32	.8818	.002
.7311	101.32	.8943	.002
.7702	101.32	.9067	.002
.8112	101.32	.9224	.002
.8507	101.32	.9359	.002
.8853	101.32	.9505	.002
.9151	101.32	.9624	.002
.9373	101.32	.9701	.002
.9577	101.32	.9767	.002
.9749	101.32	.9843	.002
.9873	101.32	.9899	.002
.9949	101.32	.9955	.002
1	101.32	1	.002

System: propyl acetate + n-nonane; phases: Liquid, Gas
Property: Boiling temperature at pressure P, K (Liquid); method: Ebulliometric method (Recirculating still)
Mole fraction of propyl acetate	Pressure, kPa	Boiling temperature at pressure P, K	uncertainty
0	101.32	423.94	.01
.0127	101.32	422.45	.01
.025	101.32	420.6	.01
.0444	101.32	418.03	.01
.0722	101.32	414.85	.01
.1076	101.32	411.13	.01
.149	101.32	407.09	.01
.1913	101.32	403.33	.01
.2419	101.32	399.7	.01
.2952	101.32	396.2	.01
.324	101.32	394.25	.01
.3624	101.32	392.13	.01
.4017	101.32	390.12	.01
.4245	101.32	389.02	.01
.4703	101.32	387.13	.01
.5126	101.32	385.53	.01
.5346	101.32	384.63	.01
.572	101.32	383.46	.01
.6152	101.32	382.34	.01
.6546	101.32	381.35	.01
.6949	101.32	380.41	.01
.7311	101.32	379.6	.01
.7702	101.32	378.81	.01
.8112	101.32	377.99	.01
.8507	101.32	377.21	.01
.8853	101.32	376.55	.01
.9151	101.32	376.01	.01
.9373	101.32	375.59	.01
.9577	101.32	375.23	.01
.9749	101.32	374.88	.01
.9873	101.32	374.65	.01
.9949	101.32	374.5	.01
1	101.32	374.34	.01

System: propyl acetate + n-decane; phases: Liquid
Fixed: Pressure, kPa = 101
Property: Mass density, kg/m3 (Liquid); method: Vibrating tube method
Temperature, K	Mole fraction of propyl acetate	Mass density, kg/m3	uncertainty
328.15	0	703.3	.02
328.15	.0485	706.6	.02
328.15	.1075	711.1	.02
328.15	.196	718.6	.02
328.15	.2952	728	.02
328.15	.3758	736.6	.02
328.15	.4553	746	.02
328.15	.5227	754.7	.02
328.15	.5818	763	.02
328.15	.6506	773.6	.02
328.15	.7058	782.9	.02
328.15	.7598	792.6	.02
328.15	.8204	804.6	.02
328.15	.8511	811.2	.02
328.15	.8851	818.8	.02
328.15	.9321	830.2	.02
328.15	.958	836.9	.02
328.15	1	848.3	.02
318.15	0	710.9	.02
318.15	.064	715.5	.02
318.15	.1164	719.7	.02
318.15	.1961	726.8	.02
318.15	.2794	734.8	.02
318.15	.3548	742.9	.02
318.15	.4333	752.2	.02
318.15	.4936	760	.02
318.15	.5563	768.6	.02
318.15	.6213	778.5	.02
318.15	.6781	788	.02
318.15	.7226	795.8	.02
318.15	.7733	805.5	.02
318.15	.8247	816.1	.02
318.15	.867	825.5	.02
318.15	.9092	835.5	.02
318.15	.9463	844.9	.02
318.15	1	859.8	.02
298.15	0	726.2	.02
298.15	.0402	729.1	.02
298.15	.1191	735.7	.02
298.15	.2077	744	.02
298.15	.2921	752.8	.02
298.15	.3727	762.1	.02
298.15	.4509	772	.02
298.15	.5172	781.2	.02
298.15	.5788	790.5	.02
298.15	.6343	799.5	.02
298.15	.6912	809.6	.02
298.15	.7504	820.9	.02
298.15	.7988	830.9	.02
298.15	.8462	841.5	.02
298.15	.8882	851.7	.02
298.15	.9267	861.6	.02
298.15	.9583	870.2	.02
298.15	1	882.5	.02
291.15	0	731.2	.02
291.15	.0491	735.2	.02
291.15	.1081	740.2	.02
291.15	.2054	749.4	.02
291.15	.2933	758.8	.02
291.15	.372	768	.02
291.15	.4514	778.3	.02
291.15	.5221	788.4	.02
291.15	.5892	798.8	.02
291.15	.6468	808.4	.02
291.15	.7079	819.6	.02
291.15	.7955	837.5	.02
291.15	.8151	841.8	.02
291.15	.8554	851.2	.02
291.15	.8932	860.5	.02
291.15	.9454	874.3	.02
291.15	.9719	881.5	.02
291.15	1	889.6	.02

System: propyl acetate + n-decane; phases: Liquid
Fixed: Pressure, kPa = 101
Property: Excess molar enthalpy (molar enthalpy of mixing), kJ/mol (Liquid); method: Calvet calorimetry
Temperature, K	Mole fraction of propyl acetate	Excess molar enthalpy (molar enthalpy of mixing), kJ/mol	uncertainty
291.15	.0703	.391	.002
291.15	.1623	.752	.002
291.15	.2528	1.061	.002
291.15	.3401	1.276	.002
291.15	.4179	1.399	.002
291.15	.4892	1.457	.002
291.15	.5501	1.46	.002
291.15	.6049	1.428	.002
291.15	.615	1.413	.002
291.15	.6649	1.337	.002
291.15	.7166	1.228	.002
291.15	.7751	1.056	.002
291.15	.8324	.844	.002
291.15	.8924	.585	.002
291.15	.9524	.309	.002
298.15	.1028	.532	.002
298.15	.2102	.889	.002
298.15	.3062	1.158	.002
298.15	.3924	1.317	.002
298.15	.4676	1.394	.002
298.15	.5348	1.416	.002
298.15	.5925	1.395	.002
298.15	.6163	1.363	.002
298.15	.6615	1.305	.002
298.15	.71	1.195	.002
298.15	.7601	1.076	.002
298.15	.8123	.898	.002
298.15	.8626	.707	.002
298.15	.9119	.492	.002
298.15	.9581	.259	.002
318.15	.1083	.556	.002
318.15	.2064	.922	.002
318.15	.3068	1.211	.002
318.15	.3885	1.364	.002
318.15	.4625	1.446	.002
318.15	.5203	1.454	.002
318.15	.571	1.432	.002
318.15	.6098	1.391	.002
318.15	.6588	1.329	.002
318.15	.7129	1.225	.002
318.15	.7682	1.083	.002
318.15	.8288	.885	.002
318.15	.8862	.64	.002
318.15	.948	.347	.002

System: propyl acetate + n-decane; phases: Gas, Liquid
Property: Mole fraction of propyl acetate (Gas); method: Density calibration data
Mole fraction of propyl acetate	Pressure, kPa	Mole fraction of propyl acetate	uncertainty
0	101.32	0	.002
.0082	101.32	.0669	.002
.0208	101.32	.1568	.002
.0357	101.32	.2518	.002
.0547	101.32	.3527	.002
.0722	101.32	.4238	.002
.0998	101.32	.5187	.002
.1383	101.32	.6084	.002
.1803	101.32	.684	.002
.2298	101.32	.7473	.002
.2811	101.32	.7967	.002
.3242	101.32	.8281	.002
.3707	101.32	.8539	.002
.4155	101.32	.8709	.002
.4598	101.32	.8815	.002
.5001	101.32	.8919	.002
.5249	101.32	.8984	.002
.5739	101.32	.9117	.002
.6114	101.32	.9204	.002
.6479	101.32	.9291	.002
.681	101.32	.9354	.002
.7285	101.32	.9441	.002
.7635	101.32	.9506	.002
.8002	101.32	.9566	.002
.8427	101.32	.9654	.002
.8839	101.32	.9734	.002
.9143	101.32	.9799	.002
.9382	101.32	.9847	.002
.9578	101.32	.989	.002
.9734	101.32	.9926	.002
.9839	101.32	.9954	.002
.9934	101.32	.9976	.002
1	101.32	1	.002

System: propyl acetate + n-decane; phases: Liquid, Gas
Property: Boiling temperature at pressure P, K (Liquid); method: Ebulliometric method (Recirculating still)
Mole fraction of propyl acetate	Pressure, kPa	Boiling temperature at pressure P, K	uncertainty
0	101.32	447.27	.01
.0082	101.32	444.79	.01
.0208	101.32	441.09	.01
.0357	101.32	437.03	.01
.0547	101.32	432.26	.01
.0722	101.32	428.68	.01
.0998	101.32	423.19	.01
.1383	101.32	417.23	.01
.1803	101.32	411.51	.01
.2298	101.32	406.02	.01
.2811	101.32	401.08	.01
.3242	101.32	397.63	.01
.3707	101.32	394.41	.01
.4155	101.32	391.99	.01
.4598	101.32	390.36	.01
.5001	101.32	388.74	.01
.5249	101.32	387.75	.01
.5739	101.32	385.8	.01
.6114	101.32	384.48	.01
.6479	101.32	383.18	.01
.681	101.32	382.32	.01
.7285	101.32	381.16	.01
.7635	101.32	380.28	.01
.8002	101.32	379.43	.01
.8427	101.32	378.33	.01
.8839	101.32	377.27	.01
.9143	101.32	376.49	.01
.9382	101.32	375.87	.01
.9578	101.32	375.31	.01
.9734	101.32	374.92	.01
.9839	101.32	374.62	.01
.9934	101.32	374.35	.01
1	101.32	374.34	.01
