Measured thermophysical data. Vapor Liquid Equilibrium for 2-Methyl-1-butanol + Ethylbenzene + Xylene Isomers at 101.33 kPa
Source: J. Chem. Eng. Data, 2013, 10.1021/je301220s
Compound 1: 2-methyl-1-butanol, C5H12O, purity 98%
Compound 2: ethylbenzene, C8H10, purity 98.5%
Compound 3: o-xylene, C8H10, purity 99%
Compound 4: 1,3-xylene, C8H10, purity 99%
Compound 5: p-xylene, C8H10, purity 99%

System: 2-methyl-1-butanol; phases: Liquid
Fixed: Pressure, kPa = 101.325
Property: Mass density, kg/m3 (Liquid); method: Vibrating tube method
Temperature, K	Mass density, kg/m3	uncertainty
298.15	814.83	.01

System: 2-methyl-1-butanol; phases: Liquid, Gas
Property: Normal boiling temperature, K (Liquid); method: Ebulliometric method (Recirculating still)
Normal boiling temperature, K	uncertainty
401.91	.1

System: ethylbenzene; phases: Liquid
Fixed: Pressure, kPa = 101.325
Property: Mass density, kg/m3 (Liquid); method: Vibrating tube method
Temperature, K	Mass density, kg/m3	uncertainty
298.15	862.57	.01

System: ethylbenzene; phases: Liquid, Gas
Property: Normal boiling temperature, K (Liquid); method: Ebulliometric method (Recirculating still)
Normal boiling temperature, K	uncertainty
409.31	.1

System: o-xylene; phases: Liquid
Fixed: Pressure, kPa = 101.325
Property: Mass density, kg/m3 (Liquid); method: Vibrating tube method
Temperature, K	Mass density, kg/m3	uncertainty
298.15	875.81	.01

System: o-xylene; phases: Liquid, Gas
Property: Normal boiling temperature, K (Liquid); method: Ebulliometric method (Recirculating still)
Normal boiling temperature, K	uncertainty
417.55	.1

System: 1,3-xylene; phases: Liquid
Fixed: Pressure, kPa = 101.325
Property: Mass density, kg/m3 (Liquid); method: Vibrating tube method
Temperature, K	Mass density, kg/m3	uncertainty
298.15	860.06	.01

System: 1,3-xylene; phases: Liquid, Gas
Property: Normal boiling temperature, K (Liquid); method: Ebulliometric method (Recirculating still)
Normal boiling temperature, K	uncertainty
412.28	.1

System: p-xylene; phases: Liquid
Fixed: Pressure, kPa = 101.325
Property: Mass density, kg/m3 (Liquid); method: Vibrating tube method
Temperature, K	Mass density, kg/m3	uncertainty
298.15	856.54	.01

System: p-xylene; phases: Liquid, Gas
Property: Normal boiling temperature, K (Liquid); method: Ebulliometric method (Recirculating still)
Normal boiling temperature, K	uncertainty
411.43	.1

System: ethylbenzene + 2-methyl-1-butanol; phases: Liquid, Gas
Property: Boiling temperature at pressure P, K (Liquid); method: Ebulliometric method (Recirculating still)
Mole fraction of 2-methyl-1-butanol	Pressure, kPa	Boiling temperature at pressure P, K	uncertainty
.9175	101.33	399.57	.1
.8738	101.33	398.68	.1
.8258	101.33	398.22	.1
.7825	101.33	397.82	.1
.7357	101.33	397.96	.1
.6962	101.33	397.97	.1
.6491	101.33	397.87	.1
.6009	101.33	398.06	.1
.5352	101.33	398.27	.1
.4691	101.33	398.62	.1
.3951	101.33	399.09	.1
.3361	101.33	399.62	.1
.2569	101.33	400.42	.1
.1394	101.33	402.77	.1
.1152	101.33	404.23	.1
.0781	101.33	405.49	.1
.0448	101.33	406.95	.1
.02	101.33	408.58	.1

System: ethylbenzene + 2-methyl-1-butanol; phases: Gas, Liquid
Property: Mole fraction of 2-methyl-1-butanol (Gas); method: Chromatography
Mole fraction of 2-methyl-1-butanol	Pressure, kPa	Mole fraction of 2-methyl-1-butanol	uncertainty
.9175	101.33	.8588	.005
.8738	101.33	.8012	.005
.8258	101.33	.7581	.005
.7825	101.33	.7281	.005
.7357	101.33	.6928	.005
.6962	101.33	.6648	.005
.6491	101.33	.6466	.005
.6009	101.33	.6123	.005
.5352	101.33	.5795	.005
.4691	101.33	.537	.005
.3951	101.33	.4919	.005
.3361	101.33	.4452	.005
.2569	101.33	.3829	.005
.1394	101.33	.2481	.005
.1152	101.33	.2096	.005
.0781	101.33	.1581	.005
.0448	101.33	.0992	.005
.02	101.33	.0419	.005

System: o-xylene + 2-methyl-1-butanol; phases: Liquid, Gas
Property: Boiling temperature at pressure P, K (Liquid); method: Ebulliometric method (Recirculating still)
Mole fraction of 2-methyl-1-butanol	Pressure, kPa	Boiling temperature at pressure P, K	uncertainty
.9497	101.33	401.7	.1
.9148	101.33	401.62	.1
.8686	101.33	401.51	.1
.8223	101.33	401.02	.1
.7713	101.33	400.92	.1
.696	101.33	401.24	.1
.6418	101.33	401.31	.1
.5851	101.33	401.62	.1
.5339	101.33	402.07	.1
.4668	101.33	402.47	.1
.4071	101.33	403.19	.1
.3323	101.33	404.26	.1
.2704	101.33	405.28	.1
.2113	101.33	406.62	.1
.1423	101.33	408.72	.1
.1003	101.33	410.53	.1
.0407	101.33	414.58	.1
.021	101.33	416.1	.1

System: o-xylene + 2-methyl-1-butanol; phases: Gas, Liquid
Property: Mole fraction of 2-methyl-1-butanol (Gas); method: Chromatography
Mole fraction of 2-methyl-1-butanol	Pressure, kPa	Mole fraction of 2-methyl-1-butanol	uncertainty
.9497	101.33	.933	.1
.9148	101.33	.8963	.1
.8686	101.33	.8515	.1
.8223	101.33	.8085	.1
.7713	101.33	.7708	.1
.696	101.33	.715	.1
.6418	101.33	.6804	.1
.5851	101.33	.6458	.1
.5339	101.33	.6139	.1
.4668	101.33	.5728	.1
.4071	101.33	.5376	.1
.3323	101.33	.4881	.1
.2704	101.33	.4313	.1
.2113	101.33	.3793	.1
.1423	101.33	.2944	.1
.1003	101.33	.2293	.1
.0407	101.33	.112	.1
.021	101.33	.0573	.1

System: 1,3-xylene + 2-methyl-1-butanol; phases: Liquid, Gas
Property: Boiling temperature at pressure P, K (Liquid); method: Ebulliometric method (Recirculating still)
Mole fraction of 2-methyl-1-butanol	Pressure, kPa	Boiling temperature at pressure P, K	uncertainty
.9601	101.33	401.81	.1
.9339	101.33	401.21	.1
.8887	101.33	400.61	.1
.8471	101.33	400.43	.1
.7867	101.33	399.98	.1
.7255	101.33	399.73	.1
.6587	101.33	399.72	.1
.6063	101.33	399.99	.1
.556	101.33	400.12	.1
.5026	101.33	400.43	.1
.4253	101.33	400.9	.1
.3847	101.33	401.12	.1
.3509	101.33	401.66	.1
.3004	101.33	402.12	.1
.256	101.33	402.94	.1
.2166	101.33	403.64	.1
.1831	101.33	404.56	.1
.1392	101.33	405.47	.1
.1013	101.33	406.78	.1
.0754	101.33	407.94	.1

System: 1,3-xylene + 2-methyl-1-butanol; phases: Gas, Liquid
Property: Mole fraction of 2-methyl-1-butanol (Gas); method: Chromatography
Mole fraction of 2-methyl-1-butanol	Pressure, kPa	Mole fraction of 2-methyl-1-butanol	uncertainty
.9601	101.33	.9423	.005
.9339	101.33	.9035	.005
.8887	101.33	.8536	.005
.8471	101.33	.8099	.005
.7867	101.33	.7542	.005
.7255	101.33	.7057	.005
.6587	101.33	.6635	.005
.6063	101.33	.6243	.005
.556	101.33	.5959	.005
.5026	101.33	.5597	.005
.4253	101.33	.5122	.005
.3847	101.33	.4882	.005
.3509	101.33	.4574	.005
.3004	101.33	.4264	.005
.256	101.33	.3955	.005
.2166	101.33	.3495	.005
.1831	101.33	.3113	.005
.1392	101.33	.2746	.005
.1013	101.33	.2112	.005
.0754	101.33	.1669	.005

System: p-xylene + 2-methyl-1-butanol; phases: Liquid, Gas
Property: Boiling temperature at pressure P, K (Liquid); method: Ebulliometric method (Recirculating still)
Mole fraction of 2-methyl-1-butanol	Pressure, kPa	Boiling temperature at pressure P, K	uncertainty
.9369	101.33	401.26	.1
.8917	101.33	400.43	.1
.8566	101.33	399.91	.1
.8299	101.33	399.86	.1
.7916	101.33	399.55	.1
.744	101.33	399.22	.1
.6831	101.33	398.98	.1
.6343	101.33	399.01	.1
.5827	101.33	399.08	.1
.5287	101.33	399.34	.1
.4627	101.33	399.7	.1
.4022	101.33	400.16	.1
.3469	101.33	400.62	.1
.2957	101.33	401.21	.1
.2487	101.33	401.95	.1
.1967	101.33	402.86	.1
.1559	101.33	403.85	.1
.1137	101.33	405.24	.1
.0847	101.33	406.27	.1
.0632	101.33	407.32	.1

System: p-xylene + 2-methyl-1-butanol; phases: Gas, Liquid
Property: Mole fraction of 2-methyl-1-butanol (Gas); method: Chromatography
Mole fraction of 2-methyl-1-butanol	Pressure, kPa	Mole fraction of 2-methyl-1-butanol	uncertainty
.9369	101.33	.9059	.005
.8917	101.33	.8501	.005
.8566	101.33	.8107	.005
.8299	101.33	.7825	.005
.7916	101.33	.7543	.005
.744	101.33	.7102	.005
.6831	101.33	.6721	.005
.6343	101.33	.6384	.005
.5827	101.33	.6037	.005
.5287	101.33	.5689	.005
.4627	101.33	.5304	.005
.4022	101.33	.4903	.005
.3469	101.33	.4564	.005
.2957	101.33	.4198	.005
.2487	101.33	.3791	.005
.1967	101.33	.3283	.005
.1559	101.33	.2827	.005
.1137	101.33	.2323	.005
.0847	101.33	.1814	.005
.0632	101.33	.1406	.005
