Measured thermophysical data. Vapor Liquid Equilibrium at p/kPa = 101.3 of the Binary Mixtures of Ethenyl Acetate with Methanol and Butan-1-ol
Source: J. Chem. Eng. Data, 2012, 10.1021/je300835h
Compound 1: methanol, CH4O, purity 99.9%
Compound 2: n-butyl alcohol, C4H10O, purity 99.8%
Compound 3: acetic acid, vinyl ester, C4H6O2, purity 99%

System: methanol; phases: Liquid, Gas
Property: Vapor or sublimation pressure, kPa (Liquid); method: Ebulliometric method (Recirculating still)
Temperature, K	Vapor or sublimation pressure, kPa	uncertainty
337.75	101.3	.133

System: n-butyl alcohol; phases: Liquid, Gas
Property: Vapor or sublimation pressure, kPa (Liquid); method: Ebulliometric method (Recirculating still)
Temperature, K	Vapor or sublimation pressure, kPa	uncertainty
390.65	101.3	.133

System: acetic acid, vinyl ester; phases: Liquid, Gas
Property: Vapor or sublimation pressure, kPa (Liquid); method: Ebulliometric method (Recirculating still)
Temperature, K	Vapor or sublimation pressure, kPa	uncertainty
345.75	101.3	.133

System: methanol + acetic acid, vinyl ester; phases: Gas, Liquid
Property: Mole fraction of acetic acid, vinyl ester (Gas); method: Chromatography
Mole fraction of acetic acid, vinyl ester	Pressure, kPa	Mole fraction of acetic acid, vinyl ester	uncertainty
0	101.3	0	.001
.033	101.3	.077	.001
.046	101.3	.105	.001
.092	101.3	.187	.001
.145	101.3	.247	.001
.183	101.3	.294	.001
.258	101.3	.333	.001
.299	101.3	.374	.001
.367	101.3	.401	.001
.413	101.3	.425	.001
.555	101.3	.487	.001
.782	101.3	.615	.001
1	101.3	1	.001

System: methanol + acetic acid, vinyl ester; phases: Liquid, Gas
Property: Boiling temperature at pressure P, K (Liquid); method: Ebulliometric method (Recirculating still)
Mole fraction of acetic acid, vinyl ester	Pressure, kPa	Boiling temperature at pressure P, K	uncertainty
0	101.3	337.75	.1
.033	101.3	336.15	.1
.046	101.3	335.65	.1
.092	101.3	334.35	.1
.145	101.3	333.55	.1
.183	101.3	332.95	.1
.258	101.3	332.45	.1
.299	101.3	332.15	.1
.367	101.3	332.05	.1
.413	101.3	332.05	.1
.555	101.3	332.55	.1
.782	101.3	335.35	.1
1	101.3	345.75	.1

System: n-butyl alcohol + acetic acid, vinyl ester; phases: Gas, Liquid
Property: Mole fraction of acetic acid, vinyl ester (Gas); method: Chromatography
Mole fraction of acetic acid, vinyl ester	Pressure, kPa	Mole fraction of acetic acid, vinyl ester	uncertainty
0	101.3	0	.007
.02	101.3	.135	.007
.16	101.3	.55	.007
.275	101.3	.735	.007
.505	101.3	.84	.007
.725	101.3	.92	.007
.855	101.3	.955	.007
1	101.3	1	.007

System: n-butyl alcohol + acetic acid, vinyl ester; phases: Liquid, Gas
Property: Boiling temperature at pressure P, K (Liquid); method: Ebulliometric method (Recirculating still)
Mole fraction of acetic acid, vinyl ester	Pressure, kPa	Boiling temperature at pressure P, K	uncertainty
0	101.3	390.65	.1
.02	101.3	388.95	.1
.16	101.3	372.55	.1
.275	101.3	363.05	.1
.505	101.3	354.85	.1
.725	101.3	350.35	.1
.855	101.3	348.15	.1
1	101.3	345.75	.1
