Measured thermophysical data. Activity and Activity Coefficient Studies of Aqueous Binary Solutions of Procaine, Lidocaine, and Tetracaine Hydrochloride at 298.15 K
Source: J. Chem. Eng. Data, 2012, 10.1021/je3006985
Compound 1: novocaine, C13H21ClN2O2, purity 97%
Compound 2: lidocaine hydrochloride, C14H23ClN2O, purity 99%
Compound 3: tetracaine hydrochloride, C15H25ClN2O2, purity 99%
Compound 4: water, H2O, purity 99.9%

System: novocaine + water; phases: Liquid, Gas
Fixed: Temperature, K = 298.15
Property: Osmotic coefficient (Liquid); method: Vapor Pressure Osmometer (Knaur K-7000)
Molality, mol/kg of novocaine	Osmotic coefficient	uncertainty
.0158	.885	.001
.01893	.873	.001
.02475	.856	.001
.03023	.843	.001
.03265	.838	.001
.03891	.827	.001
.04358	.82	.001
.04823	.814	.001
.05787	.804	.001
.0712	.794	.001
.09584	.781	.001
.1165	.772	.001
.14379	.759	.001
.17494	.741	.001
.19725	.727	.001
.21873	.713	.001
.24574	.694	.001
.27908	.673	.001
.29965	.661	.001
.32052	.65	.001
.35234	.636	.001
.4061	.62	.001
.46132	.609	.001
.51695	.587	.001

System: novocaine + water; phases: Liquid
Fixed: Temperature, K = 298.15
Fixed: Pressure, kPa = 101
Property: Mass density, kg/m3 (Liquid); method: Vibrating tube method
Molality, mol/kg of novocaine	Mass density, kg/m3	uncertainty
0	997.043	.005
.0158	997.809	.005
.01893	997.979	.005
.02475	998.219	.005
.03023	998.477	.005
.03265	998.609	.005
.03891	998.872	.005
.04358	999.105	.005
.04823	999.338	.005
.05787	999.774	.005
.0712	1000.37	.005
.09584	1001.52	.005
.1165	1002.46	.005
.14379	1003.64	.005
.17494	1005.05	.005
.19725	1005.94	.005
.21873	1007.01	.005
.24574	1008.14	.005
.27908	1009.54	.005
.29965	1010.41	.005
.32052	1011.32	.005
.35234	1012.67	.005
.4061	1014.95	.005
.46132	1016.97	.005
.51695	1019.21	.005

System: lidocaine hydrochloride + water; phases: Liquid, Gas
Fixed: Temperature, K = 298.15
Property: Osmotic coefficient (Liquid); method: Vapor Pressure Osmometer (Knaur K-7000)
Molality, mol/kg of lidocaine hydrochloride	Osmotic coefficient	uncertainty
.01004	.879	.001
.02018	.83	.001
.02958	.807	.001
.03474	.8	.001
.03911	.796	.001
.04409	.793	.001
.04809	.792	.001
.05588	.792	.001
.07017	.796	.001
.09322	.805	.001
.11507	.812	.001
.14098	.813	.001
.1712	.805	.001
.18797	.797	.001
.20816	.785	.001
.23864	.765	.001
.26746	.748	.001
.29064	.736	.001
.30893	.728	.001
.3399	.72	.001
.39192	.718	.001
.44322	.72	.001
.49817	.696	.001

System: lidocaine hydrochloride + water; phases: Liquid
Fixed: Temperature, K = 298.15
Fixed: Pressure, kPa = 101
Property: Mass density, kg/m3 (Liquid); method: Vibrating tube method
Molality, mol/kg of lidocaine hydrochloride	Mass density, kg/m3	uncertainty
0	997.043	.005
.01004	997.37	.005
.02018	997.713	.005
.02958	998.034	.005
.03474	998.184	.005
.03911	998.35	.005
.04409	998.51	.005
.04809	998.641	.005
.05588	998.887	.005
.07017	999.384	.005
.09322	1000.14	.005
.11507	1000.85	.005
.14098	1001.69	.005
.1712	1002.65	.005
.18797	1003.15	.005
.20816	1003.81	.005
.23864	1004.84	.005
.26746	1005.71	.005
.29064	1006.37	.005
.30893	1006.95	.005
.3399	1007.94	.005
.39192	1009.45	.005
.44322	1011.03	.005
.49817	1012.71	.005

System: tetracaine hydrochloride + water; phases: Liquid, Gas
Fixed: Temperature, K = 298.15
Property: Osmotic coefficient (Liquid); method: Vapor Pressure Osmometer (Knaur K-7000)
Molality, mol/kg of tetracaine hydrochloride	Osmotic coefficient	uncertainty
.01696	.896	.001
.0205	.884	.001
.02526	.871	.001
.0301	.858	.001
.03454	.848	.001
.03897	.839	.001
.04254	.832	.001
.04793	.822	.001
.05807	.805	.001
.06741	.79	.001
.07521	.778	.001
.08589	.762	.001
.09567	.747	.001
.11611	.716	.001
.1436	.672	.001
.17263	.622	.001
.19243	.587	.001
.24266	.498	.001
.30086	.411	.001
.34788	.367	.001
.40048	.363	.001

System: tetracaine hydrochloride + water; phases: Liquid
Fixed: Temperature, K = 298.15
Fixed: Pressure, kPa = 101
Property: Mass density, kg/m3 (Liquid); method: Vibrating tube method
Molality, mol/kg of tetracaine hydrochloride	Mass density, kg/m3	uncertainty
0	997.043	.005
.01696	997.722	.005
.0205	997.869	.005
.02526	998.076	.005
.0301	998.265	.005
.03454	998.444	.005
.03897	998.614	.005
.04254	998.764	.005
.04793	998.98	.005
.05807	999.405	.005
.06741	999.767	.005
.07521	1000.07	.005
.08589	1000.49	.005
.09567	1000.88	.005
.11611	1001.66	.005
.1436	1002.67	.005
.17263	1003.78	.005
.19243	1004.46	.005
.24266	1006.27	.005
.30086	1008.22	.005
.34788	1009.67	.005
.40048	1011.44	.005
