Measured thermophysical data. Vapor Liquid Equilibrium, Densities, and Interfacial Tensions of the System Hexane + 2,5-Dimethylfuran
Source: J. Chem. Eng. Data, 2012, 10.1021/je300631s
Compound 1: n-hexane, C6H14, purity 99.9%
Compound 2: 2,5-dimethylfuran, C6H8O, purity 99.9%

System: n-hexane; phases: Liquid, Gas
Property: Normal boiling temperature, K (Liquid); method: Ebulliometric method (Recirculating still)
Normal boiling temperature, K	uncertainty
341.94	.01

System: n-hexane; phases: Liquid
Fixed: Pressure, kPa = 101.325
Property: Mass density, kg/m3 (Liquid); method: Vibrating tube method
Temperature, K	Mass density, kg/m3	uncertainty
293.15	659.776	.005
298.25	655.17	.005

System: n-hexane; phases: Liquid
Fixed: Pressure, kPa = 101.325
Property: Refractive index (Na D-line) (Liquid); method: Standard Abbe refractometry
Temperature, K	Refractive index (Na D-line)	uncertainty
298.15	1.37374	.00001

System: n-hexane; phases: Liquid, Gas
Property: Surface tension liquid-gas, N/m (Liquid); method: Maximal bubble pressure
Temperature, K	Surface tension liquid-gas, N/m	uncertainty
303.15	.0174	.0002

System: 2,5-dimethylfuran; phases: Liquid, Gas
Property: Normal boiling temperature, K (Liquid); method: Ebulliometric method (Recirculating still)
Normal boiling temperature, K	uncertainty
366.83	.01

System: 2,5-dimethylfuran; phases: Liquid
Fixed: Pressure, kPa = 101.325
Property: Refractive index (Na D-line) (Liquid); method: Standard Abbe refractometry
Temperature, K	Refractive index (Na D-line)	uncertainty
298.15	1.4404	.00001

System: 2,5-dimethylfuran; phases: Liquid, Gas
Property: Surface tension liquid-gas, N/m (Liquid); method: Maximal bubble pressure
Temperature, K	Surface tension liquid-gas, N/m	uncertainty
293.15	.02542	.0002
303.15	.02404	.0002
313.15	.02273	.0002
323.15	.02141	.0002
333.15	.02022	.0002
343.15	.0191	.0002
353.15	.01805	.0002
358.15	.0175	.0002

System: 2,5-dimethylfuran; phases: Liquid
Fixed: Pressure, kPa = 101.325
Property: Mass density, kg/m3 (Liquid); method: Vibrating tube method
Temperature, K	Mass density, kg/m3	uncertainty
293.15	901.18	.005
303.15	890.37	.005
313.15	879.43	.005
323.15	868.36	.005
333.15	857.1	.005
343.15	845.67	.005
353.15	834.01	.005
358.15	828.13	.005
298.15	895.7	.005

System: 2,5-dimethylfuran; phases: Liquid, Gas
Property: Vapor or sublimation pressure, kPa (Liquid); method: Ebulliometric method (Recirculating still)
Temperature, K	Vapor or sublimation pressure, kPa	uncertainty
331.46	30.01	.03
335.51	35.01	.03
339.09	40.01	.03
342.32	45.01	.03
345.26	50.01	.03
348	55.01	.03
350.53	60.01	.03
352.9	65.01	.03
355.13	70.01	.03
357.24	75.01	.03
359.24	80.01	.03
361.13	85.01	.03
362.95	90.01	.03
364.69	95.01	.03
366.79	101.33	.03

System: n-hexane + 2,5-dimethylfuran; phases: Liquid, Gas
Property: Boiling temperature at pressure P, K (Liquid); method: Ebulliometric method (Recirculating still)
Mole fraction of n-hexane	Pressure, kPa	Boiling temperature at pressure P, K	uncertainty
0	50	345.24	.02
.047	50	342.4	.02
.096	50	339.73	.02
.142	50	337.71	.02
.192	50	335.71	.02
.241	50	334.11	.02
.288	50	332.73	.02
.338	50	331.38	.02
.39	50	330.04	.02
.441	50	328.89	.02
.479	50	328.23	.02
.53	50	327.31	.02
.616	50	325.72	.02
.663	50	325	.02
.708	50	324.36	.02
.76	50	323.6	.02
.79	50	323.26	.02
.855	50	322.46	.02
.896	50	321.97	.02
.94	50	321.55	.02
1	50	321.03	.02
0	75	357.21	.02
.047	75	354.35	.02
.091	75	352.01	.02
.142	75	349.69	.02
.194	75	347.71	.02
.241	75	346.06	.02
.288	75	344.66	.02
.342	75	343.16	.02
.389	75	342.12	.02
.44	75	340.75	.02
.485	75	339.96	.02
.54	75	338.93	.02
.608	75	337.68	.02
.662	75	336.84	.02
.699	75	336.3	.02
.707	75	336.2	.02
.789	75	335.07	.02
.811	75	334.79	.02
.853	75	334.25	.02
.895	75	333.69	.02
.939	75	333.21	.02
1	75	332.65	.02
0	94	364.37	.02
.045	94	361.54	.02
.092	94	359.14	.02
.142	94	356.83	.02
.194	94	354.81	.02
.24	94	353.25	.02
.285	94	351.86	.02
.339	94	350.4	.02
.385	94	349.11	.02
.444	94	347.8	.02
.489	94	346.99	.02
.54	94	345.84	.02
.604	94	344.84	.02
.661	94	343.96	.02
.701	94	343.36	.02
.757	94	342.57	.02
.803	94	341.87	.02
.852	94	341.23	.02
.895	94	340.69	.02
.937	94	340.17	.02
1	94	339.57	.02

System: n-hexane + 2,5-dimethylfuran; phases: Gas, Liquid
Property: Mole fraction of n-hexane (Gas); method: Chromatography
Mole fraction of n-hexane	Pressure, kPa	Mole fraction of n-hexane	uncertainty
0	50	0	.01
.047	50	.149	.01
.096	50	.268	.01
.142	50	.351	.01
.192	50	.428	.01
.241	50	.489	.01
.288	50	.538	.01
.338	50	.591	.01
.39	50	.644	.01
.441	50	.678	.01
.479	50	.697	.01
.53	50	.73	.01
.616	50	.78	.01
.663	50	.809	.01
.708	50	.834	.01
.76	50	.863	.01
.79	50	.879	.01
.855	50	.914	.01
.896	50	.937	.01
.94	50	.963	.01
1	50	1	.01
0	75	0	.01
.047	75	.137	.01
.091	75	.238	.01
.142	75	.336	.01
.194	75	.413	.01
.241	75	.469	.01
.288	75	.525	.01
.342	75	.581	.01
.389	75	.615	.01
.44	75	.666	.01
.485	75	.692	.01
.54	75	.727	.01
.608	75	.769	.01
.662	75	.8	.01
.699	75	.822	.01
.707	75	.826	.01
.789	75	.873	.01
.811	75	.886	.01
.853	75	.909	.01
.895	75	.934	.01
.939	75	.96	.01
1	75	1	.01
0	94	0	.01
.045	94	.131	.01
.092	94	.229	.01
.142	94	.323	.01
.194	94	.402	.01
.24	94	.462	.01
.285	94	.514	.01
.339	94	.565	.01
.385	94	.614	.01
.444	94	.656	.01
.489	94	.686	.01
.54	94	.725	.01
.604	94	.76	.01
.661	94	.795	.01
.701	94	.817	.01
.757	94	.853	.01
.803	94	.878	.01
.852	94	.908	.01
.895	94	.933	.01
.937	94	.959	.01
1	94	1	.01

System: n-hexane + 2,5-dimethylfuran; phases: Liquid
Fixed: Temperature, K = 298.15
Fixed: Pressure, kPa = 101
Property: Mass density, kg/m3 (Liquid); method: Vibrating tube method
Mole fraction of n-hexane	Mass density, kg/m3	uncertainty
0	895.7	.005
.058	878.43	.005
.103	865.07	.005
.169	846.48	.005
.211	834.86	.005
.284	815.33	.005
.326	804.35	.005
.373	792.42	.005
.425	779.22	.005
.474	767.35	.005
.523	755.53	.005
.577	743.04	.005
.671	722.12	.005
.73	709.38	.005
.854	683.63	.005
.915	671.56	.005
.979	659.09	.005
1	655.17	.005

System: n-hexane + 2,5-dimethylfuran; phases: Liquid, Air at 1 atmosphere
Fixed: Pressure, kPa = 101
Property: Surface tension liquid-gas, N/m (Liquid); method: Maximal bubble pressure
Mole fraction of n-hexane	Surface tension liquid-gas, N/m	uncertainty
0	.0236	.0002
.048	.02232	.0002
.095	.02163	.0002
.189	.02075	.0002
.295	.02012	.0002
.397	.01936	.0002
.502	.01914	.0002
.606	.0187	.0002
.723	.0184	.0002
.811	.01815	.0002
.915	.01782	.0002
.97	.01749	.0002
1	.0174	.0002
