Measured thermophysical data. Conductometric Studies of Sodium Tetraphenylborate, Tetrabutylammonium Bromide, and Sodium Tetrafluoroborate in N,N-Dimethylformamide at Temperatures from (283.15 to 318.15) K
Source: J. Chem. Eng. Data, 2012, 10.1021/je300252d
Compound 1: sodium tetraphenylboron, C24H20BNa, purity 99.5%
Compound 2: 1-butanaminium, N,N,N-tributyl-, bromide, C16H36BrN, purity 99%
Compound 3: sodium tetrafluoroborate, BF4Na, purity 98%
Compound 4: N,N-dimethylformamide, C3H7NO, purity 99.8%

System: N,N-dimethylformamide + sodium tetraphenylboron; phases: Liquid
Fixed: Pressure, kPa = 100
Property: Molar conductivity, S*m2/mol (Liquid); method: Direct current cell with electrodes
Temperature, K	Molality, mol/kg of sodium tetraphenylboron	Molar conductivity, S*m2/mol	uncertainty
283.15	.0001121	.0043111	.000000035
283.15	.0003006	.004246	.000000035
283.15	.00053051	.0041942	.000000035
283.15	.00075384	.0041545	.000000035
283.15	.0011842	.0040963	.000000035
283.15	.0019588	.0040172	.000000035
283.15	.0029638	.0039424	.000000035
283.15	.004014	.0038787	.000000035
283.15	.0059051	.0037902	.000000035
283.15	.0079081	.0037146	.000000035
283.15	.009953	.0036529	.000000035
283.15	.011891	.003601	.000000035
288.15	.00008405	.0046533	.000000035
288.15	.00033754	.0045596	.000000035
288.15	.00055319	.0045097	.000000035
288.15	.00082616	.0044598	.000000035
288.15	.0011735	.0044103	.000000035
288.15	.0019355	.0043259	.000000035
288.15	.0030885	.004235	.000000035
288.15	.0039466	.00418	.000000035
288.15	.0059261	.0040813	.000000035
288.15	.0078879	.004001	.000000035
288.15	.0098931	.0039356	.000000035
288.15	.011858	.0038782	.000000035
293.15	.00008854	.0049901	.000000035
293.15	.00030681	.0049023	.000000035
293.15	.00051644	.0048481	.000000035
293.15	.00075125	.0047996	.000000035
293.15	.0012239	.004726	.000000035
293.15	.0019888	.004637	.000000035
293.15	.0030771	.0045457	.000000035
293.15	.0040012	.004483	.000000035
293.15	.0059078	.0043822	.000000035
293.15	.0079269	.004295	.000000035
293.15	.009859	.004226	.000000035
293.15	.011899	.004162	.000000035
298.15	.00011596	.005325	.000000035
298.15	.00031569	.0052442	.000000035
298.15	.00055037	.0051809	.000000035
298.15	.00076179	.0051351	.000000035
298.15	.0012173	.0050592	.000000035
298.15	.002007	.0049609	.000000035
298.15	.0029644	.0048739	.000000035
298.15	.0039394	.004802	.000000035
298.15	.0059173	.0046899	.000000035
298.15	.0078895	.004599	.000000035
298.15	.0098075	.0045256	.000000035
298.15	.011886	.0044558	.000000035
303.15	.00010234	.0056938	.000000035
303.15	.00032618	.0055956	.000000035
303.15	.00055653	.00553	.000000035
303.15	.0007645	.0054821	.000000035
303.15	.0012289	.0053997	.000000035
303.15	.0020169	.0052952	.000000035
303.15	.0030179	.0051984	.000000035
303.15	.0040007	.0051217	.000000035
303.15	.005892	.0050075	.000000035
303.15	.0078407	.0049118	.000000035
303.15	.0098738	.0048292	.000000035
303.15	.011883	.0047579	.000000035
308.15	.00013499	.0060462	.000000035
308.15	.00032643	.0059608	.000000035
308.15	.00052295	.0058999	.000000035
308.15	.00075393	.0058422	.000000035
308.15	.0012204	.0057534	.000000035
308.15	.0020024	.0056421	.000000035
308.15	.0029695	.005541	.000000035
308.15	.0039497	.0054581	.000000035
308.15	.0059258	.00533	.000000035
308.15	.0079231	.0052265	.000000035
308.15	.0098851	.005143	.000000035
308.15	.011872	.0050687	.000000035
313.15	.00008854	.0064604	.000000035
313.15	.00025314	.0063666	.000000035
313.15	.00043435	.0062989	.000000035
313.15	.00070997	.0062208	.000000035
313.15	.0012192	.006116	.000000035
313.15	.0020124	.0059959	.000000035
313.15	.003006	.0058852	.000000035
313.15	.0039903	.0057965	.000000035
313.15	.0059073	.0056636	.000000035
313.15	.0079129	.0055535	.000000035
313.15	.0098896	.0054653	.000000035
313.15	.011847	.0053887	.000000035
318.15	.00011152	.0068379	.000000035
318.15	.00026182	.0067508	.000000035
318.15	.00048702	.0066648	.000000035
318.15	.00074573	.0065904	.000000035
318.15	.001234	.0064856	.000000035
318.15	.0020377	.0063572	.000000035
318.15	.003	.0062427	.000000035
318.15	.0039852	.0061473	.000000035
318.15	.0059308	.0060029	.000000035
318.15	.0078776	.0058897	.000000035
318.15	.0099139	.0057949	.000000035

System: N,N-dimethylformamide + 1-butanaminium, N,N,N-tributyl-, bromide; phases: Liquid
Fixed: Pressure, kPa = 100
Property: Molar conductivity, S*m2/mol (Liquid); method: Direct current cell with electrodes
Temperature, K	Molality, mol/kg of 1-butanaminium, N,N,N-tributyl-, bromide	Molar conductivity, S*m2/mol	uncertainty
283.15	.00009197	.0062361	.000000035
283.15	.00029215	.0061407	.000000035
283.15	.00049084	.0060781	.000000035
283.15	.0006894	.0060258	.000000035
283.15	.001222	.0059158	.000000035
283.15	.0019896	.0057906	.000000035
283.15	.0029383	.0056698	.000000035
283.15	.0039641	.0055611	.000000035
283.15	.0058975	.005399	.000000035
283.15	.0079165	.0052571	.000000035
283.15	.0098852	.0051385	.000000035
283.15	.01187	.0050378	.000000035
288.15	.00023843	.0066408	.000000035
288.15	.00036367	.0065881	.000000035
288.15	.00055427	.0065255	.000000035
288.15	.00076991	.0064657	.000000035
288.15	.0012317	.0063637	.000000035
288.15	.0020095	.0062266	.000000035
288.15	.0029735	.0060937	.000000035
288.15	.0039456	.005981	.000000035
288.15	.0059064	.0058005	.000000035
288.15	.0078943	.0056496	.000000035
288.15	.0098759	.0055214	.000000035
288.15	.011825	.0054109	.000000035
293.15	.00012403	.0071961	.000000035
293.15	.000358	.0070674	.000000035
293.15	.00056172	.0069931	.000000035
293.15	.00074963	.0069356	.000000035
293.15	.0012031	.006825	.000000035
293.15	.0019736	.0066764	.000000035
293.15	.0029621	.006528	.000000035
293.15	.0039413	.0064046	.000000035
293.15	.0059129	.0062071	.000000035
293.15	.0078987	.0060446	.000000035
293.15	.0099027	.0059059	.000000035
293.15	.01185	.0057855	.000000035
298.15	.0000812	.0077304	.000000035
298.15	.00032466	.0075649	.000000035
298.15	.00053349	.0074782	.000000035
298.15	.00075396	.0074043	.000000035
298.15	.0011881	.0072894	.000000035
298.15	.0019852	.0071236	.000000035
298.15	.0029725	.0069641	.000000035
298.15	.0039894	.0068266	.000000035
298.15	.0058923	.0066212	.000000035
298.15	.0079086	.0064436	.000000035
298.15	.0098487	.0062996	.000000035
298.15	.011898	.0061631	.000000035
303.15	.00012791	.0081823	.000000035
303.15	.00037365	.008028	.000000035
303.15	.0004937	.0079753	.000000035
303.15	.00072031	.0078909	.000000035
303.15	.0012103	.0077502	.000000035
303.15	.0020129	.0075724	.000000035
303.15	.0029736	.0074063	.000000035
303.15	.0039566	.0072634	.000000035
303.15	.0059166	.0070358	.000000035
303.15	.0078698	.0068512	.000000035
303.15	.0098232	.0066956	.000000035
303.15	.011838	.0065521	.000000035
308.15	.00013748	.008672	.000000035
308.15	.00033744	.0085375	.000000035
308.15	.0005902	.0084224	.000000035
308.15	.00072526	.0083707	.000000035
308.15	.0012208	.0082189	.000000035
308.15	.0020036	.0080331	.000000035
308.15	.0029927	.0078504	.000000035
308.15	.0039561	.0077012	.000000035
308.15	.0059216	.0074573	.000000035
308.15	.0079028	.0072572	.000000035
308.15	.0098964	.007088	.000000035
308.15	.011891	.0069381	.000000035
313.15	.00006835	.0092457	.000000035
313.15	.00032321	.0090418	.000000035
313.15	.00059787	.0089092	.000000035
313.15	.00070571	.0088651	.000000035
313.15	.0012276	.0086936	.000000035
313.15	.002045	.0084879	.000000035
313.15	.0029922	.0083023	.000000035
313.15	.0039706	.0081415	.000000035
313.15	.0058504	.0078927	.000000035
313.15	.0078698	.0076738	.000000035
313.15	.0098732	.0074917	.000000035
313.15	.011888	.007332	.000000035
318.15	.00009782	.009714	.000000035
318.15	.00032544	.0095414	.000000035
318.15	.00053243	.009434	.000000035
318.15	.00076509	.0093342	.000000035
318.15	.0012063	.0091821	.000000035
318.15	.0019766	.0089725	.000000035
318.15	.0029894	.0087596	.000000035
318.15	.0039674	.0085894	.000000035
318.15	.0059376	.0083142	.000000035
318.15	.0078937	.0080896	.000000035
318.15	.0099053	.0078947	.000000035
318.15	.01189	.0077299	.000000035

System: N,N-dimethylformamide + sodium tetrafluoroborate; phases: Liquid
Fixed: Pressure, kPa = 100
Property: Molar conductivity, S*m2/mol (Liquid); method: Direct current cell with electrodes
Temperature, K	Molality, mol/kg of sodium tetrafluoroborate	Molar conductivity, S*m2/mol	uncertainty
283.15	.00019236	.006693	.000000035
283.15	.00039524	.0066184	.000000035
283.15	.00064508	.0065533	.000000035
283.15	.00082646	.0065141	.000000035
283.15	.0012951	.006434	.000000035
283.15	.0020932	.0063285	.000000035
283.15	.0030901	.0062291	.000000035
283.15	.0040936	.0061456	.000000035
283.15	.0059822	.0060221	.000000035
283.15	.0079832	.0059166	.000000035
283.15	.0099644	.005832	.000000035
283.15	.011992	.0057567	.000000035
288.15	.00016743	.0072087	.000000035
288.15	.00044198	.0071017	.000000035
288.15	.00062698	.0070513	.000000035
288.15	.0007814	.0070146	.000000035
288.15	.0013241	.0069135	.000000035
288.15	.0021279	.0067991	.000000035
288.15	.0030874	.0066947	.000000035
288.15	.0040799	.0066044	.000000035
288.15	.0060006	.0064671	.000000035
288.15	.0079829	.0063522	.000000035
288.15	.0099814	.0062566	.000000035
288.15	.011952	.0061747	.000000035
293.15	.00023355	.0076864	.000000035
293.15	.00045831	.0076005	.000000035
293.15	.0006194	.0075538	.000000035
293.15	.00082176	.0075029	.000000035
293.15	.0012624	.0074142	.000000035
293.15	.0019958	.0072971	.000000035
293.15	.0030848	.0071656	.000000035
293.15	.0040728	.0070679	.000000035
293.15	.0059707	.0069203	.000000035
293.15	.0079744	.0067931	.000000035
293.15	.0099862	.0066867	.000000035
293.15	.01198	.0065964	.000000035
298.15	.0001864	.0082284	.000000035
298.15	.00036039	.008147	.000000035
298.15	.00059709	.0080676	.000000035
298.15	.00083297	.0080036	.000000035
298.15	.0012969	.0079038	.000000035
298.15	.0021582	.0077599	.000000035
298.15	.0030697	.0076432	.000000035
298.15	.0041307	.0075305	.000000035
298.15	.0059705	.0073766	.000000035
298.15	.0079941	.0072373	.000000035
298.15	.0099493	.0071242	.000000035
298.15	.01197	.0070255	.000000035
303.15	.00016628	.008767	.000000035
303.15	.00039176	.0086544	.000000035
303.15	.00058607	.0085855	.000000035
303.15	.00077456	.008529	.000000035
303.15	.0012787	.0084093	.000000035
303.15	.0020884	.0082612	.000000035
303.15	.0030441	.0081277	.000000035
303.15	.004105	.0080061	.000000035
303.15	.0059638	.0078384	.000000035
303.15	.0079484	.0076906	.000000035
303.15	.010009	.0075615	.000000035
303.15	.011981	.0074596	.000000035
308.15	.00017607	.0092946	.000000035
308.15	.00038713	.009183	.000000035
308.15	.00056546	.0091142	.000000035
308.15	.00080953	.0090359	.000000035
308.15	.0012656	.0089201	.000000035
308.15	.0020434	.0087655	.000000035
308.15	.0030189	.0086178	.000000035
308.15	.0040643	.0084888	.000000035
308.15	.0059837	.0083031	.000000035
308.15	.0079862	.0081431	.000000035
308.15	.010013	.0080069	.000000035
308.15	.011959	.0079009	.000000035
313.15	.00011129	.0098884	.000000035
313.15	.00038122	.0097197	.000000035
313.15	.00061352	.0096252	.000000035
313.15	.00078295	.0095672	.000000035
313.15	.0012968	.0094265	.000000035
313.15	.0021625	.0092463	.000000035
313.15	.0030514	.0091053	.000000035
313.15	.0040995	.0089684	.000000035
313.15	.0059957	.0087733	.000000035
313.15	.008013	.0086011	.000000035
313.15	.010044	.0084556	.000000035
313.15	.011992	.0083454	.000000035
318.15	.00015956	.0103979	.000000035
318.15	.00042147	.0102414	.000000035
318.15	.00056973	.0101769	.000000035
318.15	.0008753	.0100665	.000000035
318.15	.0013385	.009935	.000000035
318.15	.0020124	.0097823	.000000035
318.15	.0030945	.009596	.000000035
318.15	.0040946	.0094578	.000000035
318.15	.0059938	.0092497	.000000035
318.15	.0080137	.0090658	.000000035
318.15	.0099533	.0089174	.000000035
318.15	.01195	.0087989	.000000035
