Measured thermophysical data. Solubility of Dexamethasone in Supercritical Carbon Dioxide
Source: J. Chem. Eng. Data, 2012, 10.1021/je301065f
Compound 1: carbon dioxide, CO2, purity 99.98%
Compound 2: 9-fluoro-11.beta.,17,21-trihydroxy-16.alpha.-methylpregna-1,4-diene-3,20-dione, C22H29FO5, purity 98%

System: 9-fluoro-11.beta.,17,21-trihydroxy-16.alpha.-methylpregna-1,4-diene-3,20-dione + carbon dioxide; phases: Fluid (supercritical or subcritical phases), Crystal
Property: Mole fraction of 9-fluoro-11.beta.,17,21-trihydroxy-16.alpha.-methylpregna-1,4-diene-3,20-dione (Fluid (supercritical or subcritical phases)); method: HPLC
Temperature, K	Pressure, kPa	Mole fraction of 9-fluoro-11.beta.,17,21-trihydroxy-16.alpha.-methylpregna-1,4-diene-3,20-dione	uncertainty
308.15	15110	.00000125	.000000087
308.15	20030	.00000127	.000000087
308.15	25060	.00000126	.000000087
308.15	30100	.0000014	.000000087
308.15	35030	.00000192	.000000087
318.15	15050	.00000137	.000000087
318.15	20090	.00000136	.000000087
318.15	25170	.00000142	.000000087
318.15	30060	.00000151	.000000087
318.15	35070	.00000183	.000000087
328.15	15160	.00000143	.000000087
328.15	20090	.00000127	.000000087
328.15	25130	.00000151	.000000087
328.15	29990	.00000219	.000000087
328.15	34830	.00000281	.000000087
