Measured thermophysical data. Solubility of 6-Chloropyridazin-3-amine in Different Solvents
Source: J. Chem. Eng. Data, 2012, 10.1021/je3001188
Compound 1: 3-pyridazinamine, 6-chloro-, C4H4ClN3, purity 98%
Compound 2: methanol, CH4O, purity 99.5%
Compound 3: ethanol, C2H6O, purity 99.5%
Compound 4: n-butyl alcohol, C4H10O, purity 99.5%
Compound 5: N,N-dimethylformamide, C3H7NO, purity 99.5%
Compound 6: acetone, C3H6O, purity 99.5%
Compound 7: ethyl ethanoate, C4H8O2, purity 99.5%
Compound 8: toluene, C7H8, purity 99.5%
Compound 9: cyclohexanone, C6H10O, purity 99.5%

System: methanol + 3-pyridazinamine, 6-chloro-; phases: Liquid, Crystal
Fixed: Pressure, kPa = 101
Property: Mass fraction of 3-pyridazinamine, 6-chloro- (Liquid); method: Index of refraction calibration data
Temperature, K	Mass fraction of 3-pyridazinamine, 6-chloro-	uncertainty
298.15	.003876	.00003876
303.35	.004437	.00004437
308.05	.00525	.0000525
313.15	.006055	.00006055
318.15	.007214	.00007214
322.95	.008241	.00008241
328.55	.009358	.00009358
332.45	.010717	.00010717

System: ethanol + 3-pyridazinamine, 6-chloro-; phases: Liquid, Crystal
Fixed: Pressure, kPa = 101
Property: Mass fraction of 3-pyridazinamine, 6-chloro- (Liquid); method: Index of refraction calibration data
Temperature, K	Mass fraction of 3-pyridazinamine, 6-chloro-	uncertainty
298.15	.002064	.00002064
303.25	.002712	.00002712
308.15	.003176	.00003176
313.15	.004048	.00004048
318.15	.005005	.00005005
323.15	.006002	.00006002
328.15	.00702	.0000702
333.15	.00848	.0000848
338.15	.009941	.00009941
342.85	.011268	.00011268

System: n-butyl alcohol + 3-pyridazinamine, 6-chloro-; phases: Liquid, Crystal
Fixed: Pressure, kPa = 101
Property: Mass fraction of 3-pyridazinamine, 6-chloro- (Liquid); method: Index of refraction calibration data
Temperature, K	Mass fraction of 3-pyridazinamine, 6-chloro-	uncertainty
298.15	.00171	.0000171
303.25	.002236	.00002236
309.35	.003146	.00003146
313.85	.003565	.00003565
318.45	.004284	.00004284
323.28	.004977	.00004977
328.35	.00629	.0000629
333.25	.007414	.00007414
343.15	.008714	.00008714
353.15	.010234	.00010234

System: N,N-dimethylformamide + 3-pyridazinamine, 6-chloro-; phases: Liquid, Crystal
Fixed: Pressure, kPa = 101
Property: Mass fraction of 3-pyridazinamine, 6-chloro- (Liquid); method: Index of refraction calibration data
Temperature, K	Mass fraction of 3-pyridazinamine, 6-chloro-	uncertainty
298.45	.035267	.00035267
303.35	.040115	.00040115
308.15	.045472	.00045472
313.35	.052156	.00052156
318.15	.059186	.00059186
323.25	.06468	.0006468
328.35	.070504	.00070504
333.45	.076806	.00076806
337.95	.082956	.00082956
343.05	.090433	.00090433

System: acetone + 3-pyridazinamine, 6-chloro-; phases: Liquid, Crystal
Fixed: Pressure, kPa = 101
Property: Mass fraction of 3-pyridazinamine, 6-chloro- (Liquid); method: Index of refraction calibration data
Temperature, K	Mass fraction of 3-pyridazinamine, 6-chloro-	uncertainty
298.15	.003376	.00003376
303.15	.004234	.00004234
308.15	.005135	.00005135
313.25	.00597	.0000597
318.15	.006821	.00006821
323.15	.007914	.00007914
328.15	.008706	.00008706

System: cyclohexanone + 3-pyridazinamine, 6-chloro-; phases: Liquid, Crystal
Fixed: Pressure, kPa = 101
Property: Mass fraction of 3-pyridazinamine, 6-chloro- (Liquid); method: Index of refraction calibration data
Temperature, K	Mass fraction of 3-pyridazinamine, 6-chloro-	uncertainty
298.25	.004552	.00004552
303.25	.0053	.000053
308.15	.006432	.00006432
313.15	.00782	.0000782
318.25	.008888	.00008888
323.05	.0107	.000107
328.15	.012518	.00012518
333.15	.015033	.00015033
338.25	.017408	.00017408
343.15	.019973	.00019973

System: ethyl ethanoate + 3-pyridazinamine, 6-chloro-; phases: Liquid, Crystal
Fixed: Pressure, kPa = 101
Property: Mass fraction of 3-pyridazinamine, 6-chloro- (Liquid); method: Index of refraction calibration data
Temperature, K	Mass fraction of 3-pyridazinamine, 6-chloro-	uncertainty
298.45	.001327	.00001327
303.35	.001657	.00001657
308.15	.001943	.00001943
313.15	.002272	.00002272
318.25	.002633	.00002633
323.25	.003192	.00003192
328.15	.00358	.0000358
333.15	.00413	.0000413
338.35	.004794	.00004794
343.15	.005303	.00005303

System: toluene + 3-pyridazinamine, 6-chloro-; phases: Liquid, Crystal
Fixed: Pressure, kPa = 101
Property: Mass fraction of 3-pyridazinamine, 6-chloro- (Liquid); method: Index of refraction calibration data
Temperature, K	Mass fraction of 3-pyridazinamine, 6-chloro-	uncertainty
298.15	.0000502	.000000502
303.25	.0000673	.000000673
308.15	.0000817	.000000817
313.35	.0001158	.000001158
318.15	.0001552	.000001552
323.25	.0002017	.000002017
328.35	.0002496	.000002496
333.15	.000293	.00000293
338.35	.000352	.00000352
343.55	.0004542	.000004542
