Measured thermophysical data. Measurements of the Speed of Sound in Propene in the Liquid and Supercritical Regions
Source: J. Chem. Eng. Data, 2013, 10.1021/je301344y
Compound 1: propene, C3H6

System: propene; phases: Fluid (supercritical or subcritical phases)
Property: Speed of sound, m/s (Fluid (supercritical or subcritical phases)); method: Pulse-echo method
Temperature, K	Pressure, kPa	Speed of sound, m/s	uncertainty
240.0057	1302.95	1101.184	.1651776
240.006	2103.6	1108.727	.16630905
240.006	3104.34	1117.981	.16769715
240.0056	4105.03	1127.052	.1690578
240.0054	5105.72	1135.947	.17039205
240.0052	6106.44	1144.672	.1717008
240.0049	7107.33	1153.244	.1729866
240.0048	8108.06	1161.649	.17424735
240.005	9108.71	1169.913	.17548695
240.0048	10109.3	1178.038	.1767057
240.0045	12611	1197.777	.17966655
240.0047	15112.7	1216.761	.18251415
240.0041	17613.8	1235.067	.18526005
240.0042	20115.5	1252.744	.1879116
240.0041	25118.7	1286.456	.1929684
240.0043	30122.1	1318.218	.1977327
240.0043	35125.5	1348.316	.2022474
240.0044	40128.9	1376.953	.20654295
240.0046	45132.3	1404.298	.2106447
240.0048	50135.8	1430.49	.2145735
240.0047	60143.9	1479.896	.2219844
259.9987	1303.35	970.6167	.145592505
259.9984	2103.91	979.8807	.146982105
259.9984	3104.55	991.1728	.14867592
259.9983	4105.29	1002.157	.15032355
259.9985	5106.05	1012.855	.15192825
259.9979	6106.61	1023.292	.1534938
259.998	7107.25	1033.466	.1550199
259.9986	8107.79	1043.406	.1565109
259.9983	9108.24	1053.122	.1579683
259.9976	10108.6	1062.635	.15939525
260	12612.7	1085.589	.16283835
259.9999	15114.3	1107.451	.16611765
259.9999	17616	1128.358	.1692537
260	20117.7	1148.412	.1722618
260.0001	25120.8	1186.29	.1779435
260	30124.2	1221.63	.1832445
260.0001	35127.6	1254.829	.18822435
260.0003	40130.9	1286.199	.19292985
260.0001	45134.3	1315.977	.19739655
260.0001	50137.7	1344.352	.2016528
260.0001	60144.7	1397.522	.2096283
259.9999	70151.7	1446.691	.21700365
259.9967	80158.3	1492.558	.2238837
259.9965	90165.4	1535.614	.2303421
259.9967	100172	1576.274	.2364411
279.997	1301.64	836.3895	.125458425
279.9967	2102.4	848.1849	.127227735
279.997	3103.25	862.3844	.12935766
279.9971	4104.04	876.0391	.131405865
279.997	5104.9	889.1962	.13337943
279.9966	6105.8	901.9084	.13528626
279.9958	7107.3	914.226	.1371339
279.9955	8108.06	926.147	.13892205
279.9955	9108.75	937.7206	.14065809
279.9954	10109.5	948.9727	.142345905
279.9953	12611.2	975.844	.1463766
279.9954	15112.9	1001.134	.1501701
279.9978	17613	1025.03	.1537545
279.9964	20116.6	1047.822	.1571733
279.9976	25118.1	1090.299	.16354485
279.9967	30122.1	1129.497	.16942455
279.997	35125.6	1165.965	.17489475
279.9966	40129.1	1200.175	.18002625
279.9966	45132.6	1232.436	.1848654
279.9963	50137.5	1263.053	.18945795
279.9958	60144.5	1319.965	.19799475
279.9959	70151.4	1372.233	.20583495
279.9951	80157.1	1420.745	.21311175
279.9952	90163.8	1466.06	.219909
279.9954	100171	1508.713	.22630695
299.9991	1402.74	696.0055	.104400825
299.9996	1402.49	696.0019	.104400285
299.9995	2102.73	709.9808	.10649712
299.9991	3103.18	728.8441	.109326615
299.9989	4103.79	746.5981	.111989715
300.0005	5104.16	763.3956	.11450934
300.0003	6104.72	779.3623	.116904345
299.998	7107.16	794.6502	.11919753
300.0005	8106.02	809.2137	.121382055
300.0004	9106.68	823.2426	.12348639
300.0006	10107.4	836.7487	.125512305
299.9984	12611	868.5757	.130286355
299.9984	15112.8	898.0009	.134700135
299.9978	17612.9	925.4679	.138820185
299.9977	20114.5	951.3014	.14269521
299.997	25117.9	998.9279	.149839185
299.9952	30121	1042.26	.156339
299.995	35124.5	1082.142	.1623213
299.9951	40127.9	1119.233	.16788495
299.9953	45131.3	1153.99	.1730985
299.9953	50134.7	1186.769	.17801535
299.9955	60141.6	1247.367	.18710505
299.9952	70148.6	1302.641	.19539615
299.9948	80156.4	1353.625	.20304375
299.995	90163.4	1401.096	.2101644
299.9952	100170	1445.593	.21683895
319.9995	2104.38	556.1954	.08342931
319.9995	3105.15	584.4265	.087663975
319.999	4105.81	609.6331	.091444965
319.9989	5106.44	632.5514	.09488271
319.9994	6107.1	653.6827	.098052405
319.9994	7107.76	673.3549	.101003235
319.9995	8108.42	691.8119	.103771785
319.9998	9108.44	709.2415	.106386225
319.9996	10109	725.7727	.108865905
320	12610.8	763.8982	.11458473
319.9999	15112.4	798.3686	.11975529
319.9998	17614.2	829.9901	.124498515
319.9999	20115.9	859.315	.12889725
319.9919	22616.1	886.7121	.133006815
319.9989	25119.1	912.5156	.13687734
319.9985	30122.6	960.177	.14402655
319.9987	35126.1	1003.57	.1505355
319.9986	40129.5	1043.576	.1565364
319.9989	45133	1080.799	.16211985
319.9993	50136.4	1115.7	.167355
319.9993	60143.3	1179.838	.1769757
319.9986	70150.3	1237.921	.18568815
319.999	80157.3	1291.239	.19368585
319.9992	90164.3	1340.678	.2011017
319.9943	100172	1386.918	.2080377
340.0053	4104.99	453.1596	.06797394
340.0052	5105.68	489.4936	.07342404
340.0052	6106.34	520.3782	.07805673
340.0052	7107.01	547.5906	.08213859
340.0052	8107.68	572.1165	.085817475
340.0055	9108.21	594.5675	.089185125
340.0055	10109.2	615.3622	.09230433
340.0052	12611.1	661.8283	.099274245
340.0052	15113	702.4814	.10537221
340.0051	17614.9	738.9356	.11084034
340.0052	20116.7	772.1799	.115826985
340.0096	25118.7	831.3877	.124708155
340.0098	30122.2	883.5328	.13252992
340.0097	35125.7	930.4511	.139567665
340.0097	40129.2	973.3167	.145997505
340.0099	45132.7	1012.939	.15194085
340.01	50136.2	1049.877	.15748155
340.0102	60143.2	1117.334	.1676001
340.0099	70150.1	1178.042	.1767063
340.0159	80157.2	1233.504	.1850256
340.0166	90164.1	1284.765	.19271475
340.0168	100171	1332.533	.19987995
360.0003	5105.03	311.2621	.046689315
360.0008	6105.74	370.1493	.055522395
360.0032	30122.5	812.7998	.12191997
360.003	35126.6	863.1282	.12946923
360.0002	7106.48	413.2767	.061991505
360.001	8107.12	448.5373	.067280595
360.0009	9107.83	478.9194	.07183791
360.0012	10108.6	505.8886	.07588329
360.0022	12610.2	563.3187	.084497805
360.0026	15112	611.3697	.091705455
360.0026	17613.8	653.2581	.097988715
360.0027	20115.5	690.7152	.10360728
360.0022	25119	756.1986	.11342979
360.0029	40130.3	908.7145	.136307175
360.0031	45133.8	950.5766	.14258649
360.0031	50137.2	989.4131	.148411965
360.0026	60144.2	1059.921	.15898815
360.0027	70151.2	1123.012	.1684518
360.0026	80158.2	1180.418	.1770627
360.0028	90165.3	1233.294	.1849941
360.003	100172	1282.448	.1923672
380.0038	7106.08	268.3329	.040249935
380.0019	7357.45	283.4828	.04252242
380.0038	7606.54	297.2909	.044593635
380.0023	7858.19	310.3168	.04654752
380.0035	8106.93	322.3437	.048351555
380.0036	9107.64	364.5579	.054683685
380.0032	10108.4	399.8405	.059976075
380.0033	12610.2	470.5486	.07058229
380.003	15112	526.7248	.07900872
380.0027	17612.7	574.2551	.086138265
380.0026	20115.6	615.9259	.092388885
380.0026	25119.3	687.4295	.103114425
380.0025	30122.8	748.2189	.112232835
380.002	35126.4	801.6801	.120252015
380.0017	40129.9	849.7384	.12746076
380.0022	45133.6	893.6203	.134043045
380.0019	50137.2	934.1499	.140122485
380.002	60144.2	1007.369	.15110535
380.0019	70151.9	1072.573	.16088595
380.0018	80159	1131.68	.169752
380.0021	90166.2	1185.973	.17789595
380.002	100173	1236.348	.1854522
400.002	10108.4	309.3001	.046395015
400.0029	11109	343.8351	.051575265
400.0027	12109.6	374.7474	.05621211
400.0029	13110.2	402.6829	.060402435
400.0031	14110.8	428.2085	.064231275
400.0032	15111.4	451.7568	.06776352
400.0045	25116.7	625.8106	.09387159
400.004	30120.7	690.1602	.10352403
400.0042	35124.3	746.2882	.11194323
400.0043	40128	796.4534	.11946801
400.0041	45131.7	842.0517	.126307755
400.0044	50135.3	884.0224	.13260336
400.0041	16111.2	473.6279	.071044185
400.0042	17109.9	494.1486	.07412229
400.0044	18111.6	513.4833	.077022495
400.0043	19112.3	531.7898	.07976847
400.0043	20113.1	549.1977	.082379655
400.0045	22614.8	589.4087	.088411305
400.0042	60142.5	959.552	.1439328
400.0051	70148.4	1026.538	.1539807
400.0052	80155.5	1087.01	.1630515
400.0052	90162.6	1142.605	.17139075
400.0052	100170	1194.015	.17910225
419.9962	12107.3	315.0009	.047250135
419.9965	13108.2	341.8445	.051276675
419.9963	14109	367.291	.05509365
419.9962	15109.6	391.2481	.058687215
419.996	16110.5	413.7903	.062068545
419.9963	17113.1	435.0734	.06526101
419.9962	18114.2	455.1739	.068276085
419.996	19114.9	474.2406	.07113609
419.9961	20115.7	492.387	.07385805
419.996	22617.6	534.318	.0801477
419.9961	25119.7	572.2371	.085835565
419.9961	30123.1	639.0872	.09586308
419.996	35126.8	697.1889	.104578335
419.9963	40130.3	748.9529	.112342935
419.9963	45133.9	795.8868	.11938302
419.9968	50137.5	838.9913	.125848695
419.9967	60145.1	916.3699	.137455485
419.9969	70152.3	984.8194	.14772291
419.9969	80159.4	1046.574	.1569861
299.9954	2104.097	710.0426	.10650639
299.9952	3104.744	728.903	.10933545
299.9953	3105.094	728.9086	.10933629
299.9951	4105.752	746.6704	.11200056

System: propene; phases: Fluid (supercritical or subcritical phases)
Property: Speed of sound, m/s (Fluid (supercritical or subcritical phases)); method: Pulse-echo method
Temperature, K	Pressure, kPa	Speed of sound, m/s	uncertainty
299.9946	1403.25	696.0529	.066
299.996	1402.2	696.0144	.066
299.9946	2103.74	710.0347	.068
299.9947	4105.09	746.6577	.072
299.995	6106.47	779.4237	.075
299.9949	8107.82	809.2648	.079
299.9965	8107.18	809.2459	.079
299.9955	10109.2	836.7947	.082
299.9948	15112.6	898.0194	.089
299.9946	20116.1	951.3293	.096
299.9939	25119.6	998.9619	.102
299.9949	25119	998.9331	.102
299.994	30123.1	1042.275	.107
299.9945	35125.9	1082.131	.113
299.9938	40130	1119.259	.118
299.9943	50136.7	1186.79	.129
299.9937	60143.6	1247.406	.139
299.9938	70150.6	1302.674	.148
299.9936	80157.5	1353.657	.158
299.9934	90164.5	1401.128	.167
299.9933	100172	1445.648	.176
