Measured thermophysical data. Solubility of 3-Ethyl-5-methyl-(4RS)-2-((2-aminoethoxy)methyl)-4-(2-chlorophenyl)-1,4-dihydro-6-methyl-3,5-pyridinedicarboxylate Monobenzenesulfonate (Amlodipine Besylate) in Ethanol + Water and Propane-1,2-diol + Water Mixtures at Various Temperatures
Source: J. Chem. Eng. Data, 2012, 10.1021/je3005672
Compound 1: ethyl alcohol, C2H6O, purity 99.5%
Compound 2: water, H2O
Compound 3: amlodipine benzenesulfonate, C26H31ClN2O8S, purity 99.7%
Compound 4: propylene glycol, C3H8O2, purity 99.5%

System: ethyl alcohol + water + amlodipine benzenesulfonate; phases: Liquid, Crystal
Fixed: Pressure, kPa = 101.3
Property: Mole fraction of amlodipine benzenesulfonate (Liquid); method: spectrophotometry
Temperature, K	Solvent: Mass fraction of ethyl alcohol	Mole fraction of amlodipine benzenesulfonate	uncertainty
293.2	0	.00000035	
293.2	.08	.00000065	
293.2	.16	.00000137	
293.2	.25	.00000428	
293.2	.34	.000016	
293.2	.44	.0000416	
293.2	.54	.0000776	
293.2	.65	.000129	
293.2	.76	.000133	
293.2	.88	.000103	
293.2	1	.0000167	
298.2	0	.00000053	
298.2	.08	.00000104	
298.2	.16	.00000237	
298.2	.25	.00000777	
298.2	.34	.0000263	
298.2	.44	.0000651	
298.2	.54	.000114	
298.2	.65	.000155	
298.2	.76	.000175	
298.2	.88	.000136	
298.2	1	.0000226	
303.2	0	.00000062	
303.2	.08	.00000126	
303.2	.16	.0000031	
303.2	.25	.0000109	
303.2	.34	.000036	
303.2	.44	.000082	
303.2	.54	.000133	
303.2	.65	.000189	
303.2	.76	.000217	
303.2	.88	.000155	
303.2	1	.0000256	
308.2	0	.00000081	
308.2	.08	.00000173	
308.2	.16	.00000433	
308.2	.25	.0000179	
308.2	.34	.0000548	
308.2	.44	.000129	
308.2	.54	.000185	
308.2	.65	.000238	
308.2	.76	.000246	
308.2	.88	.000174	
308.2	1	.0000285	
313.2	0	.00000095	
313.2	.08	.00000277	
313.2	.16	.00000633	
313.2	.25	.0000302	
313.2	.34	.0000902	
313.2	.44	.000174	
313.2	.54	.000215	
313.2	.65	.000271	
313.2	.76	.000269	
313.2	.88	.000198	
313.2	1	.0000379	

System: ethyl alcohol + water + amlodipine benzenesulfonate; phases: Liquid, Crystal
Fixed: Pressure, kPa = 101.3
Property: Mass density, kg/m3 (Liquid); method: Pycnometric method
Temperature, K	Solvent: Mass fraction of ethyl alcohol	Mass density, kg/m3	uncertainty
293.2	0	1036	
293.2	.08	1025	
293.2	.16	1016	
293.2	.25	1002	
293.2	.34	989	
293.2	.44	979	
293.2	.54	978	
293.2	.65	966	
293.2	.76	939	
293.2	.88	905	
293.2	1	825	
298.2	0	1035	
298.2	.08	1023	
298.2	.16	1013	
298.2	.25	1001	
298.2	.34	991	
298.2	.44	989	
298.2	.54	992	
298.2	.65	985	
298.2	.76	955	
298.2	.88	911	
298.2	1	823	
303.2	0	1034	
303.2	.08	1021	
303.2	.16	1010	
303.2	.25	1000	
303.2	.34	992	
303.2	.44	996	
303.2	.54	1000	
303.2	.65	994	
303.2	.76	967	
303.2	.88	917	
303.2	1	816	
308.2	0	1034	
308.2	.08	1020	
308.2	.16	1010	
308.2	.25	998	
308.2	.34	1001	
308.2	.44	1009	
308.2	.54	1012	
308.2	.65	1003	
308.2	.76	990	
308.2	.88	927	
308.2	1	822	
313.2	0	1034	
313.2	.08	1017	
313.2	.16	1009	
313.2	.25	1000	
313.2	.34	1005	
313.2	.44	1031	
313.2	.54	1046	
313.2	.65	1044	
313.2	.76	1006	
313.2	.88	934	
313.2	1	823	

System: propylene glycol + water + amlodipine benzenesulfonate; phases: Liquid, Crystal
Fixed: Pressure, kPa = 101.3
Property: Mole fraction of amlodipine benzenesulfonate (Liquid); method: spectrophotometry
Temperature, K	Solvent: Mass fraction of propylene glycol	Mole fraction of amlodipine benzenesulfonate	uncertainty
293.2	0	.00000035	
293.2	.1	.00000066	
293.2	.2	.00000116	
293.2	.3	.00000229	
293.2	.4	.0000047	
293.2	.5	.0000101	
293.2	.6	.0000218	
293.2	.7	.0000506	
293.2	.75	.0000735	
293.2	.8	.0000897	
293.2	.85	.0000954	
293.2	.9	.0000984	
293.2	.95	.0000898	
293.2	1	.0000862	
298.2	0	.00000053	
298.2	.1	.00000094	
298.2	.2	.00000176	
298.2	.3	.00000317	
298.2	.4	.00000699	
298.2	.5	.0000142	
298.2	.6	.0000299	
298.2	.7	.0000719	
298.2	.75	.0000905	
298.2	.8	.000103	
298.2	.85	.000108	
298.2	.9	.000111	
298.2	.95	.000106	
298.2	1	.0000999	
303.2	0	.00000062	
303.2	.1	.0000011	
303.2	.2	.00000211	
303.2	.3	.00000418	
303.2	.4	.0000101	
303.2	.5	.0000208	
303.2	.6	.0000431	
303.2	.7	.0000928	
303.2	.75	.000108	
303.2	.8	.00012	
303.2	.85	.000123	
303.2	.9	.000123	
303.2	.95	.000116	
303.2	1	.000109	
308.2	0	.00000081	
308.2	.1	.00000139	
308.2	.2	.0000029	
308.2	.3	.00000613	
308.2	.4	.0000132	
308.2	.5	.0000301	
308.2	.6	.0000645	
308.2	.7	.000105	
308.2	.75	.000117	
308.2	.8	.00013	
308.2	.85	.00013	
308.2	.9	.00013	
308.2	.95	.000123	
308.2	1	.000118	
313.2	0	.00000095	
313.2	.1	.00000191	
313.2	.2	.00000344	
313.2	.3	.00000839	
313.2	.4	.0000193	
313.2	.5	.0000378	
313.2	.6	.0000813	
313.2	.7	.000126	
313.2	.75	.000135	
313.2	.8	.000148	
313.2	.85	.000148	
313.2	.9	.000145	
313.2	.95	.000138	
313.2	1	.000126	

System: propylene glycol + water + amlodipine benzenesulfonate; phases: Liquid, Crystal
Fixed: Pressure, kPa = 101.3
Property: Mass density, kg/m3 (Liquid); method: Pycnometric method
Temperature, K	Solvent: Mass fraction of propylene glycol	Mass density, kg/m3	uncertainty
293.2	0	1036	
293.2	.1	1043	
293.2	.2	1055	
293.2	.3	1065	
293.2	.4	1073	
293.2	.5	1082	
293.2	.6	1091	
293.2	.7	1097	
293.2	.75	1104	
293.2	.8	1107	
293.2	.85	1102	
293.2	.9	1098	
293.2	.95	1095	
293.2	1	1090	
298.2	0	1035	
298.2	.1	1043	
298.2	.2	1053	
298.2	.3	1063	
298.2	.4	1073	
298.2	.5	1078	
298.2	.6	1090	
298.2	.7	1096	
298.2	.75	1100	
298.2	.8	1103	
298.2	.85	1099	
298.2	.9	1093	
298.2	.95	1089	
298.2	1	1083	
303.2	0	1034	
303.2	.1	1039	
303.2	.2	1051	
303.2	.3	1059	
303.2	.4	1069	
303.2	.5	1077	
303.2	.6	1091	
303.2	.7	1099	
303.2	.75	1101	
303.2	.8	1103	
303.2	.85	1100	
303.2	.9	1095	
303.2	.95	1091	
303.2	1	1081	
308.2	0	1034	
308.2	.1	1041	
308.2	.2	1050	
308.2	.3	1060	
308.2	.4	1069	
308.2	.5	1088	
308.2	.6	1090	
308.2	.7	1102	
308.2	.75	1104	
308.2	.8	1103	
308.2	.85	1103	
308.2	.9	1100	
308.2	.95	1096	
308.2	1	1084	
313.2	0	1034	
313.2	.1	1043	
313.2	.2	1052	
313.2	.3	1062	
313.2	.4	1075	
313.2	.5	1091	
313.2	.6	1100	
313.2	.7	1104	
313.2	.75	1109	
313.2	.8	1109	
313.2	.85	1105	
313.2	.9	1101	
313.2	.95	1097	
313.2	1	1087	
