Measured thermophysical data. Solubilities of Bis(2,4,6-trimethylbenzoyl)phenylphosphine Oxide in Different Organic Solvents at Several Temperatures
Source: J. Chem. Eng. Data, 2012, 10.1021/je300343y
Compound 1: bis(2,4,6-trimethylbenzoyl)phenylphosphine oxide, C26H27O3P, purity 99.8%
Compound 2: methanol, CH4O, purity 99.7%
Compound 3: ethyl alcohol, C2H6O, purity 99.8%
Compound 4: ethyl ethanoate, C4H8O2, purity 99.8%
Compound 5: cyclohexane, C6H12, purity 99.8%
Compound 6: 2-propanol, C3H8O, purity 99.7%
Compound 7: cyanomethane, C2H3N, purity 99.8%
Compound 8: n-hexane, C6H14, purity 99.8%

System: methanol + bis(2,4,6-trimethylbenzoyl)phenylphosphine oxide; phases: Liquid, Crystal
Fixed: Pressure, kPa = 101
Property: Mole fraction of bis(2,4,6-trimethylbenzoyl)phenylphosphine oxide (Liquid); method: Gravimetric
Temperature, K	Mole fraction of bis(2,4,6-trimethylbenzoyl)phenylphosphine oxide	uncertainty
295.4	.002348	.00086
303.2	.004343	.00095
308.3	.006286	.00116
313.1	.009094	.00215
318.2	.013422	.00156
323.4	.019498	.00136
328	.028247	.00126
333.2	.042647	.00236

System: ethyl alcohol + bis(2,4,6-trimethylbenzoyl)phenylphosphine oxide; phases: Liquid, Crystal
Fixed: Pressure, kPa = 101
Property: Mole fraction of bis(2,4,6-trimethylbenzoyl)phenylphosphine oxide (Liquid); method: Gravimetric
Temperature, K	Mole fraction of bis(2,4,6-trimethylbenzoyl)phenylphosphine oxide	uncertainty
295.4	.00372	.00115
303.2	.006274	.00132
307.2	.008272	.00098
313.1	.011929	.00126
318	.016095	.00206
324.1	.023892	.00213
328.3	.032577	.00263
333.2	.047148	.00185

System: ethyl ethanoate + bis(2,4,6-trimethylbenzoyl)phenylphosphine oxide; phases: Liquid, Crystal
Fixed: Pressure, kPa = 101
Property: Mole fraction of bis(2,4,6-trimethylbenzoyl)phenylphosphine oxide (Liquid); method: Gravimetric
Temperature, K	Mole fraction of bis(2,4,6-trimethylbenzoyl)phenylphosphine oxide	uncertainty
295.4	.017806	.00104
303.2	.025888	.00156
307.9	.03264	.00207
313.2	.040595	.00156
318.2	.050774	.00154
323.3	.063947	.00209
328.2	.084236	.00225
333	.102856	.00308
338.1	.126835	.00206
343.2	.160192	.00254

System: cyclohexane + bis(2,4,6-trimethylbenzoyl)phenylphosphine oxide; phases: Liquid, Crystal
Fixed: Pressure, kPa = 101
Property: Mole fraction of bis(2,4,6-trimethylbenzoyl)phenylphosphine oxide (Liquid); method: Gravimetric
Temperature, K	Mole fraction of bis(2,4,6-trimethylbenzoyl)phenylphosphine oxide	uncertainty
295.4	.001598	.00065
303.2	.002392	.00085
308.3	.003229	.00069
313.1	.004142	.00098
318.2	.005419	.00125
323.4	.007323	.00203
328.1	.009662	.00156
333.2	.012273	.00226
338.1	.01704	.00214
343.3	.021709	.00197

System: 2-propanol + bis(2,4,6-trimethylbenzoyl)phenylphosphine oxide; phases: Liquid, Crystal
Fixed: Pressure, kPa = 101
Property: Mole fraction of bis(2,4,6-trimethylbenzoyl)phenylphosphine oxide (Liquid); method: Gravimetric
Temperature, K	Mole fraction of bis(2,4,6-trimethylbenzoyl)phenylphosphine oxide	uncertainty
295.4	.00278	.00087
305.2	.0055	.00124
308.2	.006804	.00156
313.3	.009797	.00185
318	.013722	.00256
324.1	.02051	.00305
328.1	.028086	.00264
333.2	.039994	.00185
338.3	.055567	.00185
343.2	.079332	.00213

System: cyanomethane + bis(2,4,6-trimethylbenzoyl)phenylphosphine oxide; phases: Liquid, Crystal
Fixed: Pressure, kPa = 101
Property: Mole fraction of bis(2,4,6-trimethylbenzoyl)phenylphosphine oxide (Liquid); method: Gravimetric
Temperature, K	Mole fraction of bis(2,4,6-trimethylbenzoyl)phenylphosphine oxide	uncertainty
295.4	.004634	.00112
303.2	.007928	.00116
308	.010809	.00215
313.3	.015392	.00362
318.1	.022527	.00139
323.2	.030004	.00332
328.1	.042095	.00264
333.2	.061129	.00195
338.1	.086297	.00232

System: n-hexane + bis(2,4,6-trimethylbenzoyl)phenylphosphine oxide; phases: Liquid, Crystal
Fixed: Pressure, kPa = 101
Property: Mole fraction of bis(2,4,6-trimethylbenzoyl)phenylphosphine oxide (Liquid); method: v
Temperature, K	Mole fraction of bis(2,4,6-trimethylbenzoyl)phenylphosphine oxide	uncertainty
295.4	.151	.00114
303.2	.218	.00126
308.1	.277	.00098
313.2	.323	.00085
318.1	.389	.00156
322.9	.442	.00203
328.1	.525	.00096
333.2	.635	.00135
