Measured thermophysical data. Static Permittivities of Isomeric Butanol Mixtures at Temperatures from (288.15 to 308.15) K
Source: J. Chem. Eng. Data, 2012, 10.1021/je3007666
Compound 1: n-butyl alcohol, C4H10O, purity 99.4%
Compound 2: 2-methyl-1-propanol, C4H10O, purity 99.5%
Compound 3: butan-2-ol, C4H10O, purity 99.5%
Compound 4: 2-propanol, 2-methyl-, C4H10O, purity 99.7%

System: n-butyl alcohol; phases: Liquid
Property: Relative permittivity at zero frequency (Liquid); method: Dielectrometer
Temperature, K	Pressure, kPa	Relative permittivity at zero frequency	uncertainty
288.15	100	19.01	.06
293.15	100	18.28	.06
298.15	100	17.58	.06
303.15	100	16.91	.06
308.15	100	16.26	.06

System: 2-methyl-1-propanol; phases: Liquid
Property: Relative permittivity at zero frequency (Liquid); method: Dielectrometer
Temperature, K	Pressure, kPa	Relative permittivity at zero frequency	uncertainty
288.15	100	19.51	.06
293.15	100	18.71	.06
298.15	100	17.96	.06
303.15	100	17.23	.06
308.15	100	16.53	.06

System: butan-2-ol; phases: Liquid
Property: Relative permittivity at zero frequency (Liquid); method: Dielectrometer
Temperature, K	Pressure, kPa	Relative permittivity at zero frequency	uncertainty
288.15	100	18.47	.06
293.15	100	17.51	.06
298.15	100	16.6	.06
303.15	100	15.75	.06
308.15	100	14.94	.06

System: 2-propanol, 2-methyl-; phases: Liquid
Property: Relative permittivity at zero frequency (Liquid); method: Dielectrometer
Temperature, K	Pressure, kPa	Relative permittivity at zero frequency	uncertainty
288.15	100	14.49	.06
293.15	100	13.38	.06
298.15	100	12.49	.06
303.15	100	11.34	.06
308.15	100	10.4	.06

System: n-butyl alcohol + 2-methyl-1-propanol; phases: Liquid
Fixed: Pressure, kPa = 100
Property: Relative permittivity at zero frequency (Liquid); method: Dielectrometer
Temperature, K	Mole fraction of 2-methyl-1-propanol	Relative permittivity at zero frequency	uncertainty
288.15	0	19.01	.06
288.15	.0505	19.03	.06
288.15	.1011	19.05	.06
288.15	.1496	19.06	.06
288.15	.2001	19.08	.06
288.15	.2488	19.1	.06
288.15	.3011	19.12	.06
288.15	.3497	19.14	.06
288.15	.399	19.16	.06
288.15	.4511	19.18	.06
288.15	.5021	19.21	.06
288.15	.5489	19.23	.06
288.15	.6004	19.26	.06
288.15	.6488	19.28	.06
288.15	.6975	19.31	.06
288.15	.751	19.34	.06
288.15	.8004	19.37	.06
288.15	.848	19.4	.06
288.15	.8995	19.43	.06
288.15	.9506	19.47	.06
288.15	1	19.51	.06
293.15	0	18.28	.06
293.15	.0505	18.3	.06
293.15	.1011	18.31	.06
293.15	.1496	18.33	.06
293.15	.2001	18.34	.06
293.15	.2488	18.36	.06
293.15	.3011	18.38	.06
293.15	.3497	18.4	.06
293.15	.399	18.41	.06
293.15	.4511	18.43	.06
293.15	.5021	18.44	.06
293.15	.5489	18.46	.06
293.15	.6004	18.5	.06
293.15	.6488	18.52	.06
293.15	.6975	18.55	.06
293.15	.751	18.57	.06
293.15	.8004	18.6	.06
293.15	.848	18.62	.06
293.15	.8995	18.65	.06
293.15	.9506	18.68	.06
293.15	1	18.71	.06
298.15	0	17.58	.06
298.15	.0505	17.59	.06
298.15	.1011	17.61	.06
298.15	.1496	17.62	.06
298.15	.2001	17.63	.06
298.15	.2488	17.65	.06
298.15	.3011	17.66	.06
298.15	.3497	17.68	.06
298.15	.399	17.7	.06
298.15	.4511	17.71	.06
298.15	.5021	17.73	.06
298.15	.5489	17.75	.06
298.15	.6004	17.77	.06
298.15	.6488	17.79	.06
298.15	.6975	17.81	.06
298.15	.751	17.83	.06
298.15	.8004	17.86	.06
298.15	.848	17.88	.06
298.15	.8995	17.9	.06
298.15	.9506	17.93	.06
298.15	1	17.96	.06
303.15	0	16.91	.06
303.15	.0505	16.92	.06
303.15	.1011	16.93	.06
303.15	.1496	16.94	.06
303.15	.2001	16.95	.06
303.15	.2488	16.97	.06
303.15	.3011	16.98	.06
303.15	.3497	16.99	.06
303.15	.399	17.01	.06
303.15	.4511	17.02	.06
303.15	.5021	17.04	.06
303.15	.5489	17.06	.06
303.15	.6004	17.07	.06
303.15	.6488	17.09	.06
303.15	.6975	17.11	.06
303.15	.751	17.13	.06
303.15	.8004	17.15	.06
303.15	.848	17.17	.06
303.15	.8995	17.19	.06
303.15	.9506	17.21	.06
303.15	1	17.23	.06
308.15	0	16.26	.06
308.15	.0505	16.26	.06
308.15	.1011	16.27	.06
308.15	.1496	16.28	.06
308.15	.2001	16.29	.06
308.15	.2488	16.31	.06
308.15	.3011	16.32	.06
308.15	.3497	16.33	.06
308.15	.399	16.34	.06
308.15	.4511	16.36	.06
308.15	.5021	16.37	.06
308.15	.5489	16.39	.06
308.15	.6004	16.4	.06
308.15	.6488	16.42	.06
308.15	.6975	16.43	.06
308.15	.751	16.45	.06
308.15	.8004	16.46	.06
308.15	.848	16.48	.06
308.15	.8995	16.5	.06
308.15	.9506	16.52	.06
308.15	1	16.53	.06

System: n-butyl alcohol + butan-2-ol; phases: Liquid
Fixed: Pressure, kPa = 100
Property: Relative permittivity at zero frequency (Liquid); method: Dielectrometer
Temperature, K	Mole fraction of butan-2-ol	Relative permittivity at zero frequency	uncertainty
288.15	0	19.01	.06
288.15	.0501	18.97	.06
288.15	.0987	18.93	.06
288.15	.1506	18.89	.06
288.15	.1998	18.86	.06
288.15	.2503	18.82	.06
288.15	.2986	18.79	.06
288.15	.3512	18.75	.06
288.15	.3977	18.72	.06
288.15	.4497	18.69	.06
288.15	.4998	18.67	.06
288.15	.5501	18.64	.06
288.15	.6011	18.61	.06
288.15	.649	18.59	.06
288.15	.7005	18.57	.06
288.15	.7511	18.55	.06
288.15	.7986	18.53	.06
288.15	.8498	18.51	.06
288.15	.9006	18.5	.06
288.15	.9487	18.48	.06
288.15	1	18.47	.06
293.15	0	18.28	.06
293.15	.0501	18.24	.06
293.15	.0987	18.2	.06
293.15	.1506	18.15	.06
293.15	.1998	18.11	.06
293.15	.2503	18.07	.06
293.15	.2986	18.03	.06
293.15	.3512	17.99	.06
293.15	.3977	17.95	.06
293.15	.4497	17.91	.06
293.15	.4998	17.87	.06
293.15	.5501	17.83	.06
293.15	.6011	17.79	.06
293.15	.649	17.76	.06
293.15	.7005	17.72	.06
293.15	.7511	17.68	.06
293.15	.7986	17.65	.06
293.15	.8498	17.62	.06
293.15	.9006	17.58	.06
293.15	.9487	17.55	.06
293.15	1	17.51	.06
298.15	0	17.58	.06
298.15	.0501	17.54	.06
298.15	.0987	17.49	.06
298.15	.1506	17.44	.06
298.15	.1998	17.4	.06
298.15	.2503	17.35	.06
298.15	.2986	17.3	.06
298.15	.3512	17.25	.06
298.15	.3977	17.2	.06
298.15	.4497	17.16	.06
298.15	.4998	17.11	.06
298.15	.5501	17.06	.06
298.15	.6011	17.01	.06
298.15	.649	16.96	.06
298.15	.7005	16.91	.06
298.15	.7511	16.86	.06
298.15	.7986	16.81	.06
298.15	.8498	16.76	.06
298.15	.9006	16.71	.06
298.15	.9487	16.66	.06
298.15	1	16.6	.06
303.15	0	16.91	.06
303.15	.0501	16.86	.06
303.15	.0987	16.81	.06
303.15	.1506	16.76	.06
303.15	.1998	16.71	.06
303.15	.2503	16.65	.06
303.15	.2986	16.6	.06
303.15	.3512	16.54	.06
303.15	.3977	16.49	.06
303.15	.4497	16.43	.06
303.15	.4998	16.37	.06
303.15	.5501	16.32	.06
303.15	.6011	16.26	.06
303.15	.649	16.2	.06
303.15	.7005	16.14	.06
303.15	.7511	16.07	.06
303.15	.7986	16.01	.06
303.15	.8498	15.95	.06
303.15	.9006	15.88	.06
303.15	.9487	15.82	.06
303.15	1	15.75	.06
308.15	0	16.26	.06
308.15	.0501	16.21	.06
308.15	.0987	16.16	.06
308.15	.1506	16.1	.06
308.15	.1998	16.05	.06
308.15	.2503	15.99	.06
308.15	.2986	15.93	.06
308.15	.3512	15.87	.06
308.15	.3977	15.81	.06
308.15	.4497	15.74	.06
308.15	.4998	15.68	.06
308.15	.5501	15.61	.06
308.15	.6011	15.54	.06
308.15	.649	15.47	.06
308.15	.7005	15.4	.06
308.15	.7511	15.32	.06
308.15	.7986	15.25	.06
308.15	.8498	15.17	.06
308.15	.9006	15.09	.06
308.15	.9487	15.01	.06
308.15	1	14.94	.06

System: n-butyl alcohol + 2-propanol, 2-methyl-; phases: Liquid
Fixed: Pressure, kPa = 100
Property: Relative permittivity at zero frequency (Liquid); method: Dielectrometer
Temperature, K	Mole fraction of 2-propanol, 2-methyl-	Relative permittivity at zero frequency	uncertainty
288.15	0	19.01	.06
288.15	.0501	18.96	.06
288.15	.1012	18.93	.06
288.15	.1503	18.85	.06
288.15	.2003	18.75	.06
288.15	.2497	18.61	.06
288.15	.299	18.48	.06
288.15	.349	18.36	.06
288.15	.3993	18.25	.06
288.15	.4505	18.13	.06
288.15	.5001	18.01	.06
288.15	.5511	17.89	.06
288.15	.5998	17.74	.06
288.15	.649	17.6	.06
288.15	.7001	17.39	.06
288.15	.7503	17.15	.06
288.15	.8003	16.84	.06
288.15	.8497	16.45	.06
288.15	.899	15.96	.06
288.15	.95	15.29	.06
288.15	1	14.49	.06
293.15	0	18.28	.06
293.15	.0501	18.21	.06
293.15	.1012	18.16	.06
293.15	.1503	18.04	.06
293.15	.2003	17.92	.06
293.15	.2497	17.79	.06
293.15	.299	17.63	.06
293.15	.349	17.5	.06
293.15	.3993	17.35	.06
293.15	.4505	17.22	.06
293.15	.5001	17.06	.06
293.15	.5511	16.91	.06
293.15	.5998	16.73	.06
293.15	.649	16.54	.06
293.15	.7001	16.31	.06
293.15	.7503	16.03	.06
293.15	.8003	15.7	.06
293.15	.8497	15.26	.06
293.15	.899	14.77	.06
293.15	.95	14.15	.06
293.15	1	13.38	.06
298.15	0	17.58	.06
298.15	.0501	17.49	.06
298.15	.1012	17.42	.06
298.15	.1503	17.29	.06
298.15	.2003	17.15	.06
298.15	.2497	16.99	.06
298.15	.299	16.85	.06
298.15	.349	16.69	.06
298.15	.3993	16.53	.06
298.15	.4505	16.38	.06
298.15	.5001	16.19	.06
298.15	.5511	16.01	.06
298.15	.5998	15.82	.06
298.15	.649	15.58	.06
298.15	.7001	15.32	.06
298.15	.7503	15	.06
298.15	.8003	14.63	.06
298.15	.8497	14.21	.06
298.15	.899	13.71	.06
298.15	.95	13.15	.06
298.15	1	12.49	.06
303.15	0	16.91	.06
303.15	.0501	16.81	.06
303.15	.1012	16.68	.06
303.15	.1503	16.53	.06
303.15	.2003	16.37	.06
303.15	.2497	16.19	.06
303.15	.299	16.01	.06
303.15	.349	15.83	.06
303.15	.3993	15.65	.06
303.15	.4505	15.45	.06
303.15	.5001	15.25	.06
303.15	.5511	15.02	.06
303.15	.5998	14.79	.06
303.15	.649	14.51	.06
303.15	.7001	14.21	.06
303.15	.7503	13.88	.06
303.15	.8003	13.48	.06
303.15	.8497	13.03	.06
303.15	.899	12.53	.06
303.15	.95	11.97	.06
303.15	1	11.34	.06
308.15	0	16.26	.06
308.15	.0501	16.12	.06
308.15	.1012	15.97	.06
308.15	.1503	15.81	.06
308.15	.2003	15.62	.06
308.15	.2497	15.44	.06
308.15	.299	15.25	.06
308.15	.349	15.07	.06
308.15	.3993	14.87	.06
308.15	.4505	14.63	.06
308.15	.5001	14.42	.06
308.15	.5511	14.15	.06
308.15	.5998	13.89	.06
308.15	.649	13.59	.06
308.15	.7001	13.25	.06
308.15	.7503	12.89	.06
308.15	.8003	12.49	.06
308.15	.8497	12.04	.06
308.15	.899	11.55	.06
308.15	.95	11	.06
308.15	1	10.4	.06

System: 2-methyl-1-propanol + butan-2-ol; phases: Liquid
Fixed: Pressure, kPa = 100
Property: Relative permittivity at zero frequency (Liquid); method: Dielectrometer
Temperature, K	Mole fraction of butan-2-ol	Relative permittivity at zero frequency	uncertainty
288.15	0	19.51	.06
288.15	.0488	19.46	.06
288.15	.1011	19.41	.06
288.15	.1488	19.36	.06
288.15	.2005	19.31	.06
288.15	.2489	19.25	.06
288.15	.3013	19.2	.06
288.15	.3511	19.14	.06
288.15	.3993	19.09	.06
288.15	.4473	19.03	.06
288.15	.4984	18.98	.06
288.15	.5512	18.92	.06
288.15	.5999	18.87	.06
288.15	.649	18.81	.06
288.15	.7017	18.76	.06
288.15	.7502	18.71	.06
288.15	.7989	18.66	.06
288.15	.851	18.61	.06
288.15	.9003	18.56	.06
288.15	.9499	18.51	.06
288.15	1	18.47	.06
293.15	0	18.71	.06
293.15	.0488	18.66	.06
293.15	.1011	18.61	.06
293.15	.1488	18.55	.06
293.15	.2005	18.49	.06
293.15	.2489	18.43	.06
293.15	.3013	18.38	.06
293.15	.3511	18.31	.06
293.15	.3993	18.25	.06
293.15	.4473	18.19	.06
293.15	.4984	18.13	.06
293.15	.5512	18.06	.06
293.15	.5999	18	.06
293.15	.649	17.94	.06
293.15	.7017	17.88	.06
293.15	.7502	17.81	.06
293.15	.7989	17.75	.06
293.15	.851	17.69	.06
293.15	.9003	17.63	.06
293.15	.9499	17.57	.06
293.15	1	17.51	.06
298.15	0	17.96	.06
298.15	.0488	17.9	.06
298.15	.1011	17.85	.06
298.15	.1488	17.78	.06
298.15	.2005	17.72	.06
298.15	.2489	17.66	.06
298.15	.3013	17.59	.06
298.15	.3511	17.53	.06
298.15	.3993	17.46	.06
298.15	.4473	17.39	.06
298.15	.4984	17.32	.06
298.15	.5512	17.25	.06
298.15	.5999	17.18	.06
298.15	.649	17.1	.06
298.15	.7017	17.03	.06
298.15	.7502	16.96	.06
298.15	.7989	16.89	.06
298.15	.851	16.81	.06
298.15	.9003	16.74	.06
298.15	.9499	16.67	.06
298.15	1	16.6	.06
303.15	0	17.23	.06
303.15	.0488	17.17	.06
303.15	.1011	17.11	.06
303.15	.1488	17.05	.06
303.15	.2005	16.98	.06
303.15	.2489	16.92	.06
303.15	.3013	16.85	.06
303.15	.3511	16.78	.06
303.15	.3993	16.7	.06
303.15	.4473	16.63	.06
303.15	.4984	16.56	.06
303.15	.5512	16.48	.06
303.15	.5999	16.4	.06
303.15	.649	16.32	.06
303.15	.7017	16.24	.06
303.15	.7502	16.16	.06
303.15	.7989	16.08	.06
303.15	.851	16	.06
303.15	.9003	15.92	.06
303.15	.9499	15.83	.06
303.15	1	15.75	.06
308.15	0	16.53	.06
308.15	.0488	16.47	.06
308.15	.1011	16.4	.06
308.15	.1488	16.34	.06
308.15	.2005	16.27	.06
308.15	.2489	16.2	.06
308.15	.3013	16.13	.06
308.15	.3511	16.05	.06
308.15	.3993	15.97	.06
308.15	.4473	15.89	.06
308.15	.4984	15.81	.06
308.15	.5512	15.73	.06
308.15	.5999	15.65	.06
308.15	.649	15.56	.06
308.15	.7017	15.48	.06
308.15	.7502	15.39	.06
308.15	.7989	15.3	.06
308.15	.851	15.21	.06
308.15	.9003	15.12	.06
308.15	.9499	15.03	.06
308.15	1	14.94	.06

System: 2-propanol, 2-methyl- + 2-methyl-1-propanol; phases: Liquid
Fixed: Pressure, kPa = 100
Property: Relative permittivity at zero frequency (Liquid); method: Dielectrometer
Temperature, K	Mole fraction of 2-propanol, 2-methyl-	Relative permittivity at zero frequency	uncertainty
288.15	0	19.51	.06
288.15	.0497	19.46	.06
288.15	.0999	19.37	.06
288.15	.1502	19.24	.06
288.15	.2002	19.09	.06
288.15	.2497	18.94	.06
288.15	.2998	18.78	.06
288.15	.3507	18.6	.06
288.15	.4003	18.43	.06
288.15	.4497	18.26	.06
288.15	.4998	18.11	.06
288.15	.5501	17.93	.06
288.15	.6012	17.74	.06
288.15	.649	17.53	.06
288.15	.7003	17.3	.06
288.15	.751	17.02	.06
288.15	.8007	16.68	.06
288.15	.8499	16.3	.06
288.15	.9002	15.8	.06
288.15	.9489	15.21	.06
288.15	1	14.49	.06
293.15	0	18.71	.06
293.15	.0497	18.65	.06
293.15	.0999	18.52	.06
293.15	.1502	18.38	.06
293.15	.2002	18.24	.06
293.15	.2497	18.08	.06
293.15	.2998	17.89	.06
293.15	.3507	17.71	.06
293.15	.4003	17.53	.06
293.15	.4497	17.36	.06
293.15	.4998	17.15	.06
293.15	.5501	16.96	.06
293.15	.6012	16.74	.06
293.15	.649	16.5	.06
293.15	.7003	16.24	.06
293.15	.751	15.93	.06
293.15	.8007	15.59	.06
293.15	.8499	15.17	.06
293.15	.9002	14.67	.06
293.15	.9489	14.08	.06
293.15	1	13.38	.06
298.15	0	17.96	.06
298.15	.0497	17.85	.06
298.15	.0999	17.74	.06
298.15	.1502	17.57	.06
298.15	.2002	17.43	.06
298.15	.2497	17.25	.06
298.15	.2998	17.08	.06
298.15	.3507	16.88	.06
298.15	.4003	16.7	.06
298.15	.4497	16.49	.06
298.15	.4998	16.3	.06
298.15	.5501	16.07	.06
298.15	.6012	15.83	.06
298.15	.649	15.58	.06
298.15	.7003	15.28	.06
298.15	.751	14.96	.06
298.15	.8007	14.59	.06
298.15	.8499	14.17	.06
298.15	.9002	13.69	.06
298.15	.9489	13.13	.06
298.15	1	12.49	.06
303.15	0	17.23	.06
303.15	.0497	17.09	.06
303.15	.0999	16.96	.06
303.15	.1502	16.78	.06
303.15	.2002	16.62	.06
303.15	.2497	16.42	.06
303.15	.2998	16.22	.06
303.15	.3507	16.01	.06
303.15	.4003	15.8	.06
303.15	.4497	15.57	.06
303.15	.4998	15.34	.06
303.15	.5501	15.07	.06
303.15	.6012	14.8	.06
303.15	.649	14.52	.06
303.15	.7003	14.2	.06
303.15	.751	13.84	.06
303.15	.8007	13.46	.06
303.15	.8499	13.03	.06
303.15	.9002	12.53	.06
303.15	.9489	11.97	.06
303.15	1	11.34	.06
308.15	0	16.53	.06
308.15	.0497	16.37	.06
308.15	.0999	16.21	.06
308.15	.1502	16.05	.06
308.15	.2002	15.84	.06
308.15	.2497	15.63	.06
308.15	.2998	15.44	.06
308.15	.3507	15.2	.06
308.15	.4003	14.97	.06
308.15	.4497	14.74	.06
308.15	.4998	14.47	.06
308.15	.5501	14.22	.06
308.15	.6012	13.93	.06
308.15	.649	13.61	.06
308.15	.7003	13.27	.06
308.15	.751	12.91	.06
308.15	.8007	12.49	.06
308.15	.8499	12.06	.06
308.15	.9002	11.55	.06
308.15	.9489	11.01	.06
308.15	1	10.4	.06

System: 2-propanol, 2-methyl- + butan-2-ol; phases: Liquid
Fixed: Pressure, kPa = 100
Property: Relative permittivity at zero frequency (Liquid); method: Dielectrometer
Temperature, K	Mole fraction of 2-propanol, 2-methyl-	Relative permittivity at zero frequency	uncertainty
288.15	0	18.47	.06
288.15	.0511	18.35	.06
288.15	.1003	18.24	.06
288.15	.1512	18.11	.06
288.15	.199	17.97	.06
288.15	.2498	17.85	.06
288.15	.3007	17.71	.06
288.15	.35	17.55	.06
288.15	.3997	17.42	.06
288.15	.4502	17.25	.06
288.15	.5011	17.09	.06
288.15	.5497	16.89	.06
288.15	.6007	16.7	.06
288.15	.6511	16.5	.06
288.15	.701	16.28	.06
288.15	.7497	16.03	.06
288.15	.8005	15.76	.06
288.15	.8488	15.49	.06
288.15	.9003	15.19	.06
288.15	.9496	14.84	.06
288.15	1	14.49	.06
293.15	0	17.51	.06
293.15	.0511	17.39	.06
293.15	.1003	17.25	.06
293.15	.1512	17.13	.06
293.15	.199	16.98	.06
293.15	.2498	16.83	.06
293.15	.3007	16.67	.06
293.15	.35	16.54	.06
293.15	.3997	16.36	.06
293.15	.4502	16.19	.06
293.15	.5011	16	.06
293.15	.5497	15.83	.06
293.15	.6007	15.64	.06
293.15	.6511	15.42	.06
293.15	.701	15.17	.06
293.15	.7497	14.93	.06
293.15	.8005	14.68	.06
293.15	.8488	14.39	.06
293.15	.9003	14.07	.06
293.15	.9496	13.72	.06
293.15	1	13.38	.06
298.15	0	16.6	.06
298.15	.0511	16.47	.06
298.15	.1003	16.35	.06
298.15	.1512	16.22	.06
298.15	.199	16.06	.06
298.15	.2498	15.92	.06
298.15	.3007	15.77	.06
298.15	.35	15.6	.06
298.15	.3997	15.44	.06
298.15	.4502	15.27	.06
298.15	.5011	15.09	.06
298.15	.5497	14.9	.06
298.15	.6007	14.72	.06
298.15	.6511	14.5	.06
298.15	.701	14.26	.06
298.15	.7497	14.03	.06
298.15	.8005	13.78	.06
298.15	.8488	13.5	.06
298.15	.9003	13.18	.06
298.15	.9496	12.84	.06
298.15	1	12.49	.06
303.15	0	15.75	.06
303.15	.0511	15.62	.06
303.15	.1003	15.46	.06
303.15	.1512	15.31	.06
303.15	.199	15.15	.06
303.15	.2498	14.98	.06
303.15	.3007	14.79	.06
303.15	.35	14.62	.06
303.15	.3997	14.44	.06
303.15	.4502	14.25	.06
303.15	.5011	14.05	.06
303.15	.5497	13.84	.06
303.15	.6007	13.62	.06
303.15	.6511	13.41	.06
303.15	.701	13.17	.06
303.15	.7497	12.89	.06
303.15	.8005	12.63	.06
303.15	.8488	12.32	.06
303.15	.9003	12.01	.06
303.15	.9496	11.68	.06
303.15	1	11.34	.06
308.15	0	14.94	.06
308.15	.0511	14.8	.06
308.15	.1003	14.64	.06
308.15	.1512	14.47	.06
308.15	.199	14.28	.06
308.15	.2498	14.1	.06
308.15	.3007	13.92	.06
308.15	.35	13.75	.06
308.15	.3997	13.54	.06
308.15	.4502	13.34	.06
308.15	.5011	13.14	.06
308.15	.5497	12.92	.06
308.15	.6007	12.7	.06
308.15	.6511	12.47	.06
308.15	.701	12.23	.06
308.15	.7497	11.96	.06
308.15	.8005	11.68	.06
308.15	.8488	11.39	.06
308.15	.9003	11.07	.06
308.15	.9496	10.74	.06
308.15	1	10.4	.06
