Measured thermophysical data. Measurement and Correlation of the Solubility of 2,6-Diaminohexanoic Acid Hydrochloride in Aqueous Methanol and Aqueous Ethanol Mixtures
Source: J. Chem. Eng. Data, 2012, 10.1021/je300173v
Compound 1: L-lysine monohydrochloride, C6H15ClN2O2
Compound 2: water, H2O, purity 99.8%
Compound 3: methanol, CH4O, purity 99%
Compound 4: ethanol, C2H6O, purity 99%

System: methanol + L-lysine monohydrochloride + water; phases: Liquid, Crystal
Fixed: Pressure, kPa = 101
Property: Mole fraction of L-lysine monohydrochloride (Liquid); method: laser monitoring
Temperature, K	Solvent: Mole fraction of methanol	Mole fraction of L-lysine monohydrochloride	uncertainty
283.15	0	.052	.00156
283.15	.1975	.047	.00141
283.15	.3984	.0183	.000549
283.15	.5919	.0058	.000174
283.15	.7959	.0023	.000069
283.15	1	.0001	.000003
293.15	0	.0609	.001827
293.15	.1975	.0629	.001887
293.15	.3984	.0285	.000855
293.15	.5919	.0088	.000264
293.15	.7959	.0027	.000081
293.15	1	.0002	.000006
303.15	0	.0732	.002196
303.15	.1975	.0775	.002325
303.15	.3984	.04	.0012
303.15	.5919	.0136	.000408
303.15	.7959	.0033	.000099
303.15	1	.0004	.000012
313.15	0	.0931	.002793
313.15	.1975	.0909	.002727
313.15	.3984	.0531	.001593
313.15	.5919	.0194	.000582
313.15	.7959	.0043	.000129
313.15	1	.0005	.000015
323.15	0	.1157	.003471
323.15	.1975	.1046	.003138
323.15	.3984	.0687	.002061
323.15	.5919	.0264	.000792
323.15	.7959	.0058	.000174
323.15	1	.0006	.000018
333.15	0	.1289	.003867
333.15	.1975	.1205	.003615
333.15	.3984	.0895	.002685
333.15	.5919	.0344	.001032
333.15	.7959	.0081	.000243
333.15	1	.0007	.000021

System: ethanol + L-lysine monohydrochloride + water; phases: Liquid, Crystal
Fixed: Pressure, kPa = 101
Property: Mole fraction of L-lysine monohydrochloride (Liquid); method: laser monitoring
Temperature, K	Solvent: Mole fraction of ethanol	Mole fraction of L-lysine monohydrochloride	uncertainty
283.15	0	.052	.00156
283.15	.1989	.0216	.000648
283.15	.4011	.0043	.000129
283.15	.609	.0024	.000072
283.15	.7867	.0001	.000003
283.15	1	.000005321	.00000015963
293.15	0	.0609	.001827
293.15	.1989	.0423	.001269
293.15	.4011	.0092	.000276
293.15	.609	.0039	.000117
293.15	.7867	.0003	.000009
293.15	1	.000008733	.00000026199
303.15	0	.0732	.002196
303.15	.1989	.0611	.001833
303.15	.4011	.0247	.000741
303.15	.609	.005	.00015
303.15	.7867	.0007	.000021
303.15	1	.000010531	.00000031593
313.15	0	.0931	.002793
313.15	.1989	.0811	.002433
313.15	.4011	.0419	.001257
313.15	.609	.0065	.000195
313.15	.7867	.0009	.000027
313.15	1	.000014453	.00000043359
323.15	0	.1157	.003471
323.15	.1989	.0983	.002949
323.15	.4011	.0577	.001731
323.15	.609	.0083	.000249
323.15	.7867	.0011	.000033
323.15	1	.000018845	.00000056535
333.15	0	.1289	.003867
333.15	.1989	.1032	.003096
333.15	.4011	.0628	.001884
333.15	.609	.0098	.000294
333.15	.7867	.0012	.000036
333.15	1	.000021214	.00000063642

System: L-lysine monohydrochloride + water; phases: Liquid, Crystal
Property: Mole fraction of L-lysine monohydrochloride (Liquid); method: laser monitoring
Temperature, K	Pressure, kPa	Mole fraction of L-lysine monohydrochloride	uncertainty
283.15	101	.052	.00156
293.15	101	.0609	.001827
303.15	101	.0732	.002196
313.15	101	.0931	.002793
323.15	101	.1157	.003471
333.15	101	.1289	.003867

System: methanol + L-lysine monohydrochloride; phases: Liquid, Crystal
Property: Mole fraction of L-lysine monohydrochloride (Liquid); method: laser monitoring
Temperature, K	Pressure, kPa	Mole fraction of L-lysine monohydrochloride	uncertainty
283.15	101	.0001	.000003
293.15	101	.0002	.000006
303.15	101	.0004	.000012
313.15	101	.0005	.000015
323.15	101	.0006	.000018
333.15	101	.0007	.000021

System: ethanol + L-lysine monohydrochloride; phases: Liquid, Crystal
Property: Mole fraction of L-lysine monohydrochloride (Liquid); method: laser monitoring
Temperature, K	Pressure, kPa	Mole fraction of L-lysine monohydrochloride	uncertainty
283.15	101	.000005321	.00000015963
293.15	101	.000008733	.00000026199
303.15	101	.000010531	.00000031593
313.15	101	.000014453	.00000043359
323.15	101	.000018845	.00000056535
333.15	101	.000021214	.00000063642
