Measured thermophysical data. Conductance Studies of Tetrabutylammonium Bromide, Sodium Bromide, and Sodium Tetraphenylborate in 2-Butoxyethanol (1) + Water (2) Mixtures at (298.15, 303.15, 308.15, and 313.15) K
Source: J. Chem. Eng. Data, 2012, 10.1021/je300737t
Compound 1: 2-n-butoxyethanol, C6H14O2
Compound 2: water, H2O
Compound 3: 1-butanaminium, N,N,N-tributyl-, bromide, C16H36BrN, purity 98%
Compound 4: sodium bromide, BrNa, purity 98%
Compound 5: sodium tetraphenylboron, C24H20BNa, purity 98%

System: 2-n-butoxyethanol; phases: Liquid
Property: Mass density, kg/m3 (Liquid); method: Pycnometric method
Temperature, K	Pressure, kPa	Mass density, kg/m3	uncertainty
298.15	101	896.16	.5
303.15	101	892.74	.5
308.15	101	888.88	.5
313.15	101	884.29	.5

System: 2-n-butoxyethanol; phases: Liquid
Property: Viscosity, Pa*s (Liquid); method: Capillary tube (Ostwald; Ubbelohde) method
Temperature, K	Pressure, kPa	Viscosity, Pa*s	uncertainty
298.15	101	.0027817	.00001
303.15	101	.0024993	.00001
308.15	101	.0022064	.00001
313.15	101	.0019459	.00001

System: 2-n-butoxyethanol + water; phases: Liquid
Fixed: Pressure, kPa = 101
Property: Mass density, kg/m3 (Liquid); method: Pycnometric method
Temperature, K	Mole fraction of 2-n-butoxyethanol	Mass density, kg/m3	uncertainty
298.15	.017	993.26	.5
303.15	.017	990.82	.5
308.15	.017	988.89	.5
313.15	.017	985.94	.5
298.15	.037	986.46	.5
303.15	.037	982.92	.5
308.15	.037	980.38	.5
313.15	.037	977.64	.5
298.15	.061	976.33	.5
303.15	.061	974.23	.5
308.15	.061	971.37	.5
313.15	.061	968.64	.5
298.15	.092	967.1	.5
303.15	.092	964.31	.5
308.15	.092	961.45	.5
313.15	.092	958.48	.5
298.15	.132	948.1	.5
303.15	.132	944.74	.5
308.15	.132	941.59	.5
313.15	.132	937.57	.5
298.15	1	896.16	.5
303.15	1	892.74	.5
308.15	1	888.88	.5
313.15	1	884.29	.5

System: 2-n-butoxyethanol + water; phases: Liquid
Fixed: Pressure, kPa = 101
Property: Viscosity, Pa*s (Liquid); method: Capillary tube (Ostwald; Ubbelohde) method
Temperature, K	Mole fraction of 2-n-butoxyethanol	Viscosity, Pa*s	uncertainty
298.15	.017	.0012844	.00001
303.15	.017	.0011307	.00001
308.15	.017	.0009936	.00001
313.15	.017	.0008871	.00001
298.15	.037	.0018493	.00001
303.15	.037	.0016217	.00001
308.15	.037	.0014654	.00001
313.15	.037	.0013025	.00001
298.15	.061	.0024499	.00001
303.15	.061	.002161	.00001
308.15	.061	.001916	.00001
313.15	.061	.0017543	.00001
298.15	.092	.0029975	.00001
303.15	.092	.0026354	.00001
308.15	.092	.0023342	.00001
313.15	.092	.0020545	.00001
298.15	.132	.0039178	.00001
303.15	.132	.0033944	.00001
308.15	.132	.0029205	.00001
313.15	.132	.0025386	.00001
298.15	1	.0027817	.00001
303.15	1	.0024993	.00001
308.15	1	.0022064	.00001
313.15	1	.0019459	.00001

System: 2-n-butoxyethanol + 1-butanaminium, N,N,N-tributyl-, bromide + water; phases: Liquid
Fixed: Pressure, kPa = 101
Property: Molar conductivity, S*m2/mol (Liquid); method: Alternating current cell with electrodes
Temperature, K	Solvent: Mole fraction of 2-n-butoxyethanol	Molality, mol/kg of 1-butanaminium, N,N,N-tributyl-, bromide	Molar conductivity, S*m2/mol	uncertainty
298.15	.017	.0071	.0063168	.00000063168
298.15	.017	.01481	.0061518	.00000061518
298.15	.017	.02075	.0060313	.00000060313
298.15	.017	.02967	.0058048	.00000058048
298.15	.017	.0386	.0056097	.00000056097
298.15	.017	.04755	.0054237	.00000054237
298.15	.017	.05352	.0053049	.00000053049
298.15	.017	.0595	.005198	.0000005198
303.15	.017	.0071	.0070514	.00000070514
303.15	.017	.01481	.0068732	.00000068732
303.15	.017	.02075	.0067515	.00000067515
303.15	.017	.02967	.0065287	.00000065287
303.15	.017	.0386	.0063148	.00000063148
303.15	.017	.04755	.0061247	.00000061247
303.15	.017	.05352	.0060031	.00000060031
303.15	.017	.0595	.0058752	.00000058752
308.15	.017	.0071	.0077465	.00000077465
308.15	.017	.01481	.0075564	.00000075564
308.15	.017	.02075	.0074257	.00000074257
308.15	.017	.02967	.0072066	.00000072066
308.15	.017	.0386	.0069742	.00000069742
308.15	.017	.04755	.0067756	.00000067756
308.15	.017	.05352	.0066415	.00000066415
308.15	.017	.0595	.006499	.0000006499
313.15	.017	.0071	.0085425	.00000085425
313.15	.017	.01481	.0083524	.00000083524
313.15	.017	.02075	.008198	.0000008198
313.15	.017	.02967	.0079841	.00000079841
313.15	.017	.0386	.0077465	.00000077465
313.15	.017	.04755	.0075445	.00000075445
313.15	.017	.05352	.0073901	.00000073901
313.15	.017	.0595	.0072356	.00000072356
298.15	.037	.00611	.005293	.0000005293
298.15	.037	.01019	.0052099	.00000052099
298.15	.037	.01427	.0051029	.00000051029
298.15	.037	.0204	.0049722	.00000049722
298.15	.037	.02653	.0048415	.00000048415
298.15	.037	.03063	.0047584	.00000047584
298.15	.037	.03472	.0046871	.00000046871
298.15	.037	.04087	.0045564	.00000045564
303.15	.037	.00611	.0059346	.00000059346
303.15	.037	.01019	.0058514	.00000058514
303.15	.037	.01427	.0057683	.00000057683
303.15	.037	.0204	.0056376	.00000056376
303.15	.037	.02653	.0054831	.00000054831
303.15	.037	.03063	.0053877	.00000053877
303.15	.037	.03472	.005293	.0000005293
303.15	.037	.04087	.0051505	.00000051505
308.15	.037	.00611	.0066475	.00000066475
308.15	.037	.01019	.0065524	.00000065524
308.15	.037	.01427	.0064455	.00000064455
308.15	.037	.0204	.0063267	.00000063267
308.15	.037	.02653	.0061722	.00000061722
308.15	.037	.03063	.0060597	.00000060597
308.15	.037	.03472	.0059703	.00000059703
308.15	.037	.04087	.0058396	.00000058396
313.15	.037	.00611	.0073597	.00000073597
313.15	.037	.01019	.0072712	.00000072712
313.15	.037	.01427	.0071762	.00000071762
313.15	.037	.0204	.0070099	.00000070099
313.15	.037	.02653	.0068673	.00000068673
313.15	.037	.03063	.0067722	.00000067722
313.15	.037	.03472	.0066653	.00000066653
313.15	.037	.04087	.0065108	.00000065108
298.15	.061	.00377	.004297	.0000004297
298.15	.061	.00786	.0042173	.00000042173
298.15	.061	.01101	.0041627	.00000041627
298.15	.061	.01574	.0040594	.00000040594
298.15	.061	.02047	.0039604	.00000039604
298.15	.061	.0252	.0038712	.00000038712
298.15	.061	.02836	.0038118	.00000038118
298.15	.061	.03152	.0037524	.00000037524
303.15	.061	.00377	.0048316	.00000048316
303.15	.061	.00786	.0047333	.00000047333
303.15	.061	.01101	.0046633	.00000046633
303.15	.061	.01574	.0045643	.00000045643
303.15	.061	.02047	.0044653	.00000044653
303.15	.061	.0252	.0043762	.00000043762
303.15	.061	.02836	.0042871	.00000042871
303.15	.061	.03152	.0042277	.00000042277
308.15	.061	.00377	.0053663	.00000053663
308.15	.061	.00786	.0052816	.00000052816
308.15	.061	.01101	.0052188	.00000052188
308.15	.061	.01574	.0051089	.00000051089
308.15	.061	.02047	.0050216	.00000050216
308.15	.061	.0252	.0049004	.00000049004
308.15	.061	.02836	.0048415	.00000048415
308.15	.061	.03152	.0047722	.00000047722
313.15	.061	.00377	.0059802	.00000059802
313.15	.061	.00786	.0058811	.00000058811
313.15	.061	.01101	.005802	.0000005802
313.15	.061	.01574	.0056831	.00000056831
313.15	.061	.02047	.0055841	.00000055841
313.15	.061	.0252	.0054752	.00000054752
313.15	.061	.02836	.005396	.0000005396
313.15	.061	.03152	.0053267	.00000053267
298.15	.092	.00312	.0035683	.00000035683
298.15	.092	.00517	.0035307	.00000035307
298.15	.092	.00724	.0034683	.00000034683
298.15	.092	.01035	.003413	.0000003413
298.15	.092	.01346	.0033722	.00000033722
298.15	.092	.01637	.0033188	.00000033188
298.15	.092	.01762	.0032972	.00000032972
298.15	.092	.02073	.0032475	.00000032475
303.15	.092	.00312	.0040495	.00000040495
303.15	.092	.00517	.0040138	.00000040138
303.15	.092	.00724	.0039693	.00000039693
303.15	.092	.01035	.0039069	.00000039069
303.15	.092	.01346	.0038534	.00000038534
303.15	.092	.01637	.0038	.00000038
303.15	.092	.01762	.0037617	.00000037617
303.15	.092	.02073	.0037019	.00000037019
308.15	.092	.00312	.0046108	.00000046108
308.15	.092	.00517	.0045574	.00000045574
308.15	.092	.00724	.0045039	.00000045039
308.15	.092	.01035	.0044326	.00000044326
308.15	.092	.01346	.0043613	.00000043613
308.15	.092	.01637	.0043079	.00000043079
308.15	.092	.01762	.0042722	.00000042722
308.15	.092	.02073	.0042009	.00000042009
313.15	.092	.00312	.0050831	.00000050831
313.15	.092	.00517	.0050386	.00000050386
313.15	.092	.00724	.004994	.0000004994
313.15	.092	.01035	.0049185	.00000049185
313.15	.092	.01346	.0048425	.00000048425
313.15	.092	.01637	.0047891	.00000047891
313.15	.092	.01762	.0047534	.00000047534
313.15	.092	.02073	.0046821	.00000046821
298.15	.132	.00105	.0023475	.00000023475
298.15	.132	.00211	.0023296	.00000023296
298.15	.132	.00316	.0023079	.00000023079
298.15	.132	.00422	.0022762	.00000022762
298.15	.132	.00475	.00226	.000000226
298.15	.132	.00527	.0022524	.00000022524
298.15	.132	.00633	.0022366	.00000022366
298.15	.132	.00739	.0022128	.00000022128
303.15	.132	.00105	.0026722	.00000026722
303.15	.132	.00211	.0026485	.00000026485
303.15	.132	.00316	.0026247	.00000026247
303.15	.132	.00422	.0026009	.00000026009
303.15	.132	.00475	.0025851	.00000025851
303.15	.132	.00527	.0025693	.00000025693
303.15	.132	.00633	.0025455	.00000025455
303.15	.132	.00739	.0025217	.00000025217
308.15	.132	.00105	.002997	.0000002997
308.15	.132	.00211	.0029732	.00000029732
308.15	.132	.00316	.0029439	.00000029439
308.15	.132	.00422	.0029141	.00000029141
308.15	.132	.00475	.0028963	.00000028963
308.15	.132	.00527	.0028782	.00000028782
308.15	.132	.00633	.0028465	.00000028465
308.15	.132	.00739	.002824	.0000002824
313.15	.132	.00105	.0033217	.00000033217
313.15	.132	.00211	.0033021	.00000033021
313.15	.132	.00316	.0032742	.00000032742
313.15	.132	.00422	.0032505	.00000032505
313.15	.132	.00475	.0032282	.00000032282
313.15	.132	.00527	.0032188	.00000032188
313.15	.132	.00633	.003195	.0000003195
313.15	.132	.00739	.0031712	.00000031712

System: 2-n-butoxyethanol + sodium bromide + water; phases: Liquid
Fixed: Pressure, kPa = 101
Property: Molar conductivity, S*m2/mol (Liquid); method: Alternating current cell with electrodes
Temperature, K	Solvent: Mole fraction of 2-n-butoxyethanol	Molality, mol/kg of sodium bromide	Molar conductivity, S*m2/mol	uncertainty
298.15	.017	.00623	.0094257	.00000094257
298.15	.017	.01248	.0092079	.00000092079
298.15	.017	.01872	.0089901	.00000089901
298.15	.017	.02497	.0087822	.00000087822
298.15	.017	.03122	.0086138	.00000086138
298.15	.017	.03748	.0084158	.00000084158
298.15	.017	.04374	.0082178	.00000082178
298.15	.017	.05313	.0079009	.00000079009
303.15	.017	.00623	.0104554	.00000104554
303.15	.017	.01248	.0102178	.00000102178
303.15	.017	.01872	.01	.000001
303.15	.017	.02497	.0097753	.00000097753
303.15	.017	.03122	.0095841	.00000095841
303.15	.017	.03748	.0093861	.00000093861
303.15	.017	.04374	.0091871	.00000091871
303.15	.017	.05313	.0089108	.00000089108
308.15	.017	.00623	.011505	.0000011505
308.15	.017	.01248	.0112871	.00000112871
308.15	.017	.01872	.0110693	.00000110693
308.15	.017	.02497	.0108515	.00000108515
308.15	.017	.03122	.0106337	.00000106337
308.15	.017	.03748	.0104221	.00000104221
308.15	.017	.04374	.010198	.0000010198
308.15	.017	.05313	.0099009	.00000099009
313.15	.017	.00623	.0125941	.00000125941
313.15	.017	.01248	.0123942	.00000123942
313.15	.017	.01872	.0121584	.00000121584
313.15	.017	.02497	.0119406	.00000119406
313.15	.017	.03122	.0116832	.00000116832
313.15	.017	.03748	.0114851	.00000114851
313.15	.017	.04374	.0112091	.00000112091
313.15	.017	.05313	.0109307	.00000109307
298.15	.037	.00611	.0077465	.00000077465
298.15	.037	.01019	.0076158	.00000076158
298.15	.037	.01427	.0074633	.00000074633
298.15	.037	.02039	.0072525	.00000072525
298.15	.037	.02652	.0070475	.00000070475
298.15	.037	.03061	.0069188	.00000069188
298.15	.037	.0347	.0067881	.00000067881
298.15	.037	.04012	.006592	.0000006592
303.15	.037	.00611	.008792	.0000008792
303.15	.037	.01019	.0086178	.00000086178
303.15	.037	.01427	.0084871	.00000084871
303.15	.037	.02039	.008291	.0000008291
303.15	.037	.02652	.0080732	.00000080732
303.15	.037	.03061	.0079425	.00000079425
303.15	.037	.0347	.007773	.0000007773
303.15	.037	.04012	.0075722	.00000075722
308.15	.037	.00611	.0099405	.00000099405
308.15	.037	.01019	.0098019	.00000098019
308.15	.037	.01427	.0096633	.00000096633
308.15	.037	.02039	.0094653	.00000094653
308.15	.037	.02652	.0092475	.00000092475
308.15	.037	.03061	.0091236	.00000091236
308.15	.037	.0347	.0089834	.00000089834
308.15	.037	.04012	.008792	.0000008792
313.15	.037	.00611	.0110139	.00000110139
313.15	.037	.01019	.0108614	.00000108614
313.15	.037	.01427	.0107089	.00000107089
313.15	.037	.02039	.0104911	.00000104911
313.15	.037	.02652	.0102515	.00000102515
313.15	.037	.03061	.0101426	.00000101426
313.15	.037	.0347	.0100119	.00000100119
313.15	.037	.04012	.0098158	.00000098158
298.15	.061	.00361	.0065346	.00000065346
298.15	.061	.00602	.0064356	.00000064356
298.15	.061	.00904	.0063366	.00000063366
298.15	.061	.01205	.006209	.0000006209
298.15	.061	.01507	.0061563	.00000061563
298.15	.061	.01809	.0060554	.00000060554
298.15	.061	.02111	.0059604	.00000059604
298.15	.061	.03017	.0056831	.00000056831
303.15	.061	.00361	.0071683	.00000071683
303.15	.061	.00602	.0070891	.00000070891
303.15	.061	.00904	.0069901	.00000069901
303.15	.061	.01205	.0069108	.00000069108
303.15	.061	.01507	.006802	.0000006802
303.15	.061	.01809	.0067016	.00000067016
303.15	.061	.02111	.0066138	.00000066138
303.15	.061	.03017	.0063564	.00000063564
308.15	.061	.00361	.0079688	.00000079688
308.15	.061	.00602	.0079009	.00000079009
308.15	.061	.00904	.0077821	.00000077821
308.15	.061	.01205	.0076831	.00000076831
308.15	.061	.01507	.0075643	.00000075643
308.15	.061	.01809	.0074834	.00000074834
308.15	.061	.02111	.0073663	.00000073663
308.15	.061	.03017	.0071089	.00000071089
313.15	.061	.00361	.0087547	.00000087547
313.15	.061	.00602	.0086534	.00000086534
313.15	.061	.00904	.0085544	.00000085544
313.15	.061	.01205	.0084356	.00000084356
313.15	.061	.01507	.0083366	.00000083366
313.15	.061	.01809	.0082257	.00000082257
313.15	.061	.02111	.0081188	.00000081188
313.15	.061	.03017	.0078303	.00000078303
298.15	.092	.0031	.0052673	.00000052673
298.15	.092	.00517	.0052051	.00000052051
298.15	.092	.00724	.0051485	.00000051485
298.15	.092	.01035	.0050633	.00000050633
298.15	.092	.01346	.0050118	.00000050118
298.15	.092	.01553	.0049429	.00000049429
298.15	.092	.0176	.0049186	.00000049186
298.15	.092	.02071	.0048316	.00000048316
303.15	.092	.0031	.005895	.0000005895
303.15	.092	.00517	.0058514	.00000058514
303.15	.092	.00724	.005792	.0000005792
303.15	.092	.01035	.0057148	.00000057148
303.15	.092	.01346	.0056376	.00000056376
303.15	.092	.01553	.0055603	.00000055603
303.15	.092	.0176	.0055089	.00000055089
303.15	.092	.02071	.0054316	.00000054316
308.15	.092	.0031	.0065722	.00000065722
308.15	.092	.00517	.0065057	.00000065057
308.15	.092	.00724	.0064238	.00000064238
308.15	.092	.01035	.0063435	.00000063435
308.15	.092	.01346	.0062544	.00000062544
308.15	.092	.01553	.0062029	.00000062029
308.15	.092	.0176	.0061402	.00000061402
308.15	.092	.02071	.0060594	.00000060594
313.15	.092	.0031	.0072376	.00000072376
313.15	.092	.00517	.0071544	.00000071544
313.15	.092	.00724	.0070802	.00000070802
313.15	.092	.01035	.0069772	.00000069772
313.15	.092	.01346	.0068742	.00000068742
313.15	.092	.01553	.0068222	.00000068222
313.15	.092	.0176	.0067455	.00000067455
313.15	.092	.02071	.0066683	.00000066683
298.15	.132	.00107	.003693	.0000003693
298.15	.132	.00214	.0036574	.00000036574
298.15	.132	.00321	.0036178	.00000036178
298.15	.132	.00429	.00358	.000000358
298.15	.132	.00482	.0035623	.00000035623
298.15	.132	.00536	.0035386	.00000035386
298.15	.132	.00643	.0035029	.00000035029
298.15	.132	.00751	.0034673	.00000034673
303.15	.132	.00107	.0040613	.00000040613
303.15	.132	.00214	.0040257	.00000040257
303.15	.132	.00321	.0039901	.00000039901
303.15	.132	.00429	.0039425	.00000039425
303.15	.132	.00482	.0039247	.00000039247
303.15	.132	.00536	.0039009	.00000039009
303.15	.132	.00643	.0038653	.00000038653
303.15	.132	.00751	.0038297	.00000038297
308.15	.132	.00107	.0044297	.00000044297
308.15	.132	.00214	.004394	.0000004394
308.15	.132	.00321	.0043485	.00000043485
308.15	.132	.00429	.004299	.0000004299
308.15	.132	.00482	.0042752	.00000042752
308.15	.132	.00536	.0042574	.00000042574
308.15	.132	.00643	.0042217	.00000042217
308.15	.132	.00751	.0041802	.00000041802
313.15	.132	.00107	.0048059	.00000048059
313.15	.132	.00214	.0047623	.00000047623
313.15	.132	.00321	.0047207	.00000047207
313.15	.132	.00429	.0046851	.00000046851
313.15	.132	.00482	.0046673	.00000046673
313.15	.132	.00536	.0046495	.00000046495
313.15	.132	.00643	.0046079	.00000046079
313.15	.132	.00751	.0045722	.00000045722

System: 2-n-butoxyethanol + sodium tetraphenylboron + water; phases: Liquid
Fixed: Pressure, kPa = 101
Property: Molar conductivity, S*m2/mol (Liquid); method: Alternating current cell with electrodes
Temperature, K	Solvent: Mole fraction of 2-n-butoxyethanol	Molality, mol/kg of sodium tetraphenylboron	Molar conductivity, S*m2/mol	uncertainty
298.15	.017	.0071	.0052227	.0000052227
298.15	.017	.0148	.005096	.000005096
298.15	.017	.02074	.0050089	.0000050089
298.15	.017	.02964	.0048505	.0000048505
298.15	.017	.03855	.004692	.000004692
298.15	.017	.04747	.0045336	.0000045336
298.15	.017	.05343	.0044307	.0000044307
298.15	.017	.05939	.0043356	.0000043356
303.15	.017	.0071	.0058009	.0000058009
303.15	.017	.0148	.0056663	.0000056663
303.15	.017	.02074	.0055554	.0000055554
303.15	.017	.02964	.0054049	.0000054049
303.15	.017	.03855	.0052324	.0000052324
303.15	.017	.04747	.0050564	.0000050564
303.15	.017	.05343	.0049376	.0000049376
303.15	.017	.05939	.0048188	.0000048188
308.15	.017	.0071	.0063633	.0000063633
308.15	.017	.0148	.0062207	.0000062207
308.15	.017	.02074	.0061178	.0000061178
308.15	.017	.02964	.0059277	.0000059277
308.15	.017	.03855	.0057791	.0000057791
308.15	.017	.04747	.005595	.000005595
308.15	.017	.05343	.0054762	.0000054762
308.15	.017	.05939	.0053574	.0000053574
313.15	.017	.0071	.0069475	.0000069475
313.15	.017	.0148	.0068049	.0000068049
313.15	.017	.02074	.0067019	.0000067019
313.15	.017	.02964	.0065118	.0000065118
313.15	.017	.03855	.0063348	.0000063348
313.15	.017	.04747	.0061475	.0000061475
313.15	.017	.05343	.0060128	.0000060128
313.15	.017	.05939	.0059019	.0000059019
298.15	.037	.00615	.0042901	.0000042901
298.15	.037	.01026	.0042207	.0000042207
298.15	.037	.01436	.0041514	.0000041514
298.15	.037	.02053	.0040623	.0000040623
298.15	.037	.0267	.0039534	.0000039534
298.15	.037	.03081	.0038742	.0000038742
298.15	.037	.03493	.0038049	.0000038049
298.15	.037	.04111	.0036861	.0000036861
303.15	.037	.00615	.0048247	.0000048247
303.15	.037	.01026	.0047554	.0000047554
303.15	.037	.01436	.0046861	.0000046861
303.15	.037	.02053	.0045772	.0000045772
303.15	.037	.0267	.0044683	.0000044683
303.15	.037	.03081	.004399	.000004399
303.15	.037	.03493	.0043495	.0000043495
303.15	.037	.04111	.0042306	.0000042306
308.15	.037	.00615	.0054128	.0000054128
308.15	.037	.01026	.0053138	.0000053138
308.15	.037	.01436	.0052445	.0000052445
308.15	.037	.02053	.0051356	.0000051356
308.15	.037	.0267	.0050465	.0000050465
308.15	.037	.03081	.0049772	.0000049772
308.15	.037	.03493	.004898	.000004898
308.15	.037	.04111	.0047792	.0000047792
313.15	.037	.00615	.0059297	.0000059297
313.15	.037	.01026	.0058505	.0000058505
313.15	.037	.01436	.0057811	.0000057811
313.15	.037	.02053	.0056722	.0000056722
313.15	.037	.0267	.0055534	.0000055534
313.15	.037	.03081	.0054643	.0000054643
313.15	.037	.03493	.0053851	.0000053851
313.15	.037	.04111	.0052452	.0000052452
298.15	.061	.00368	.0035198	.0000035198
298.15	.061	.00768	.0034604	.0000034604
298.15	.061	.01075	.0034247	.0000034247
298.15	.061	.01537	.0033415	.0000033415
298.15	.061	.01999	.0032821	.0000032821
298.15	.061	.02461	.0032227	.0000032227
298.15	.061	.02769	.0031649	.0000031649
298.15	.061	.03077	.0031039	.0000031039
303.15	.061	.00368	.0039475	.0000039475
303.15	.061	.00768	.0038762	.0000038762
303.15	.061	.01075	.0038287	.0000038287
303.15	.061	.01537	.0037455	.0000037455
303.15	.061	.01999	.0036742	.0000036742
303.15	.061	.02461	.0035992	.0000035992
303.15	.061	.02769	.0035554	.0000035554
303.15	.061	.03077	.0035079	.0000035079
308.15	.061	.00368	.0043772	.0000043772
308.15	.061	.00768	.004294	.000004294
308.15	.061	.01075	.0042465	.0000042465
308.15	.061	.01537	.0041752	.0000041752
308.15	.061	.01999	.004092	.000004092
308.15	.061	.02461	.0040326	.0000040326
308.15	.061	.02769	.0039706	.0000039706
308.15	.061	.03077	.0039138	.0000039138
313.15	.061	.00368	.0047673	.0000047673
313.15	.061	.00768	.0046841	.0000046841
313.15	.061	.01075	.0046247	.0000046247
313.15	.061	.01537	.0045415	.0000045415
313.15	.061	.01999	.0044821	.0000044821
313.15	.061	.02461	.0044109	.0000044109
313.15	.061	.02769	.0043463	.0000043463
313.15	.061	.03077	.0043039	.0000043039
298.15	.092	.0031	.002558	.000002558
298.15	.092	.00517	.0025217	.0000025217
298.15	.092	.00725	.0024861	.0000024861
298.15	.092	.01035	.0024386	.0000024386
298.15	.092	.01347	.0023792	.0000023792
298.15	.092	.01554	.0023435	.0000023435
298.15	.092	.01761	.0023108	.0000023108
298.15	.092	.02073	.0022538	.0000022538
303.15	.092	.0031	.002897	.000002897
303.15	.092	.00517	.0028663	.0000028663
303.15	.092	.00725	.0028306	.0000028306
303.15	.092	.01035	.0027766	.0000027766
303.15	.092	.01347	.0027227	.0000027227
303.15	.092	.01554	.002691	.000002691
303.15	.092	.01761	.002653	.000002653
303.15	.092	.02073	.0025925	.0000025925
308.15	.092	.0031	.0032346	.0000032346
308.15	.092	.00517	.003199	.000003199
308.15	.092	.00725	.0031633	.0000031633
308.15	.092	.01035	.0031039	.0000031039
308.15	.092	.01347	.0030445	.0000030445
308.15	.092	.01554	.0030089	.0000030089
308.15	.092	.01761	.0029732	.0000029732
308.15	.092	.02073	.002912	.000002912
313.15	.092	.0031	.0035673	.0000035673
313.15	.092	.00517	.0035316	.0000035316
313.15	.092	.00725	.003496	.000003496
313.15	.092	.01035	.0034366	.0000034366
313.15	.092	.01347	.0033817	.0000033817
313.15	.092	.01554	.0033415	.0000033415
313.15	.092	.01761	.0033059	.0000033059
313.15	.092	.02073	.0032518	.0000032518
298.15	.132	.00108	.0020015	.0000020015
298.15	.132	.00217	.0019861	.0000019861
298.15	.132	.00325	.0019679	.0000019679
298.15	.132	.00434	.0019501	.0000019501
298.15	.132	.00488	.0019398	.0000019398
298.15	.132	.00543	.0019324	.0000019324
298.15	.132	.00651	.001915	.000001915
298.15	.132	.0076	.0018986	.0000018986
303.15	.132	.00108	.0021906	.0000021906
303.15	.132	.00217	.0021716	.0000021716
303.15	.132	.00325	.0021536	.0000021536
303.15	.132	.00434	.002133	.000002133
303.15	.132	.00488	.0021225	.0000021225
303.15	.132	.00543	.0021124	.0000021124
303.15	.132	.00651	.0020918	.0000020918
303.15	.132	.0076	.0020734	.0000020734
308.15	.132	.00108	.0023924	.0000023924
308.15	.132	.00217	.0023718	.0000023718
308.15	.132	.00325	.0023538	.0000023538
308.15	.132	.00434	.0023358	.0000023358
308.15	.132	.00488	.0023255	.0000023255
308.15	.132	.00543	.0023142	.0000023142
308.15	.132	.00651	.0022936	.0000022936
308.15	.132	.0076	.0022762	.0000022762
313.15	.132	.00108	.0025914	.0000025914
313.15	.132	.00217	.0025714	.0000025714
313.15	.132	.00325	.0025485	.0000025485
313.15	.132	.00434	.0025247	.0000025247
313.15	.132	.00488	.0025152	.0000025152
313.15	.132	.00543	.0025057	.0000025057
313.15	.132	.00651	.0024819	.0000024819
313.15	.132	.0076	.0024582	.0000024582
