Measured thermophysical data. Vapor Liquid Equilibrium for Ternary and Binary Mixtures of 2-Isopropoxypropane, 2-Propanol, and N,N-Dimethylacetamide at 101.3 kPa
Source: J. Chem. Eng. Data, 2013, 10.1021/je300994y
Compound 1: isopropyl ether, C6H14O
Compound 2: 2-propanol, C3H8O
Compound 3: acetamide, N,N-dimethyl-, C4H9NO

System: isopropyl ether; phases: Liquid
Fixed: Pressure, kPa = 101.325
Property: Mass density, kg/m3 (Liquid); method: Vibrating tube method
Temperature, K	Mass density, kg/m3	uncertainty
298.15	718.3	.2

System: isopropyl ether; phases: Liquid
Fixed: Pressure, kPa = 101.325
Property: Refractive index (Na D-line) (Liquid); method: Standard Abbe refractometry
Temperature, K	Refractive index (Na D-line)	uncertainty
298.15	1.3651	.0002

System: isopropyl ether; phases: Liquid, Gas
Property: Vapor or sublimation pressure, kPa (Liquid); method: Ebulliometric method (Recirculating still)
Temperature, K	Vapor or sublimation pressure, kPa	uncertainty
287.06	11.98	.3
290.73	14.22	.3
293.32	16.02	.3
296.62	18.54	.3
298.03	19.72	.3
301.55	22.95	.3
305.29	26.85	.3
308.69	30.85	.3
311.46	34.47	.3
315.15	39.81	.3
318.61	45.43	.3
321.46	50.52	.3
325.59	58.72	.3
329.24	67.84	.3
332.63	75.17	.3
335.77	84.61	.3
338.84	93.58	.3
341.51	101.29	.3

System: 2-propanol; phases: Liquid
Fixed: Pressure, kPa = 101.325
Property: Mass density, kg/m3 (Liquid); method: Vibrating tube method
Temperature, K	Mass density, kg/m3	uncertainty
298.15	785.1	.2

System: 2-propanol; phases: Liquid
Fixed: Pressure, kPa = 101.325
Property: Refractive index (Na D-line) (Liquid); method: Standard Abbe refractometry
Temperature, K	Refractive index (Na D-line)	uncertainty
298.15	1.3554	.0002

System: 2-propanol; phases: Liquid, Gas
Property: Vapor or sublimation pressure, kPa (Liquid); method: Ebulliometric method (Recirculating still)
Temperature, K	Vapor or sublimation pressure, kPa	uncertainty
355.42	101.3	.3
355.41	101.3	.3
305.78	9.56	.3
308.57	11.32	.3
311.12	12.9	.3
314.02	15.27	.3
316.97	17.78	.3
319.62	20.47	.3
322.43	23.35	.3
324.89	26.59	.3
327.34	29.75	.3
330.35	34.43	.3
333.67	40.34	.3
339.26	51.7	.3
342.41	59.25	.3
345.84	68.84	.3
348.23	76.09	.3
350.75	83.99	.3
352.19	89.19	.3
355.42	101.22	.3

System: acetamide, N,N-dimethyl-; phases: Liquid
Fixed: Pressure, kPa = 101.325
Property: Mass density, kg/m3 (Liquid); method: Vibrating tube method
Temperature, K	Mass density, kg/m3	uncertainty
298.15	1112.8	.2

System: acetamide, N,N-dimethyl-; phases: Liquid
Fixed: Pressure, kPa = 101.325
Property: Refractive index (Na D-line) (Liquid); method: Standard Abbe refractometry
Temperature, K	Refractive index (Na D-line)	uncertainty
298.15	1.4352	.0002

System: acetamide, N,N-dimethyl-; phases: Liquid, Gas
Property: Vapor or sublimation pressure, kPa (Liquid); method: Ebulliometric method (Recirculating still)
Temperature, K	Vapor or sublimation pressure, kPa	uncertainty
378.79	15.88	.3
382.26	17.95	.3
385.71	20.23	.3
389.57	22.77	.3
392.44	24.91	.3
395.63	28.24	.3
399.37	31.1	.3
403.83	36.81	.3
406.08	38.52	.3
409.51	42.94	.3
412.16	46.94	.3
416.59	53.42	.3
420.34	59.76	.3
425.53	69.54	.3
429.34	77.14	.3
433.63	87.65	.3
436.68	93.44	.3
440.31	101.32	.3

System: 2-propanol + isopropyl ether; phases: Liquid, Gas
Fixed: Pressure, kPa = 101.3
Property: Boiling temperature at pressure P, K (Liquid); method: Ebulliometric method (Recirculating still)
Mole fraction of isopropyl ether	Boiling temperature at pressure P, K	uncertainty
0	355.42	.07
.029	352.94	.02
.066	350.39	.04
.102	348.39	.05
.142	346.61	.02
.189	345.02	.02
.232	343.92	.03
.281	342.97	.05
.331	342.23	.05
.382	341.63	.03
.439	341.1	.02
.499	340.57	.06
.555	340.13	.04
.613	339.73	.01
.672	339.39	.01
.728	339.18	.06
.785	339.13	.09
.842	339.3	.04
.894	339.71	.03
.947	340.37	.01
1	341.51	.02

System: 2-propanol + isopropyl ether; phases: Gas, Liquid
Fixed: Pressure, kPa = 101.3
Property: Mole fraction of isopropyl ether (Gas); method: Chromatography
Mole fraction of isopropyl ether	Mole fraction of isopropyl ether	uncertainty
0	0	.008
.029	.106	.008
.066	.213	.008
.102	.295	.008
.142	.368	.008
.189	.434	.008
.232	.483	.008
.281	.529	.008
.331	.567	.008
.382	.6	.008
.439	.632	.008
.499	.66	.008
.555	.685	.008
.613	.709	.008
.672	.733	.008
.728	.757	.008
.785	.784	.008
.842	.817	.008
.894	.856	.008
.947	.912	.008
1	1	.008

System: isopropyl ether + acetamide, N,N-dimethyl-; phases: Liquid, Gas
Fixed: Pressure, kPa = 101.3
Property: Boiling temperature at pressure P, K (Liquid); method: Ebulliometric method (Recirculating still)
Mole fraction of isopropyl ether	Boiling temperature at pressure P, K	uncertainty
0	440.31	.07
.002	437.04	.07
.004	435.32	.07
.009	429.41	.07
.022	421.68	.07
.061	401.27	.07
.102	388.26	.07
.158	375.56	.07
.195	368.99	.07
.225	364.66	.07
.288	355.89	.07
.342	351.54	.07
.393	348.94	.07
.446	346.82	.07
.502	345.69	.07
.569	344.57	.07
.622	343.99	.07
.686	343.61	.07
.734	343.13	.07
.832	342.43	.07
.916	342.34	.07
.949	342.08	.07
1	341.51	.07

System: isopropyl ether + acetamide, N,N-dimethyl-; phases: Gas, Liquid
Fixed: Pressure, kPa = 101.3
Property: Mole fraction of isopropyl ether (Gas); method: Chromatography
Mole fraction of isopropyl ether	Mole fraction of isopropyl ether	uncertainty
0	0	.009
.002	.102	.009
.004	.135	.009
.009	.256	.009
.022	.426	.009
.061	.695	.009
.102	.798	.009
.158	.879	.009
.195	.906	.009
.225	.913	.009
.288	.935	.009
.342	.939	.009
.393	.94	.009
.446	.945	.009
.502	.952	.009
.569	.961	.009
.622	.966	.009
.686	.971	.009
.734	.972	.009
.832	.983	.009
.916	.991	.009
.949	.994	.009
1	1	.009

System: 2-propanol + acetamide, N,N-dimethyl-; phases: Liquid, Gas
Fixed: Pressure, kPa = 101.3
Property: Boiling temperature at pressure P, K (Liquid); method: Ebulliometric method (Recirculating still)
Mole fraction of 2-propanol	Boiling temperature at pressure P, K	uncertainty
0	440.31	.09
.063	427.31	.09
.115	418.87	.09
.171	410.88	.09
.222	404.33	.09
.282	397.99	.09
.336	392.84	.09
.394	388.05	.09
.448	383.52	.09
.496	379.31	.09
.551	375.44	.09
.601	372.18	.09
.656	369.08	.09
.712	366.47	.09
.745	364.32	.09
.802	362.48	.09
.841	360.9	.09
.875	359.42	.09
.911	358.05	.09
.951	356.73	.09
1	355.41	.09

System: 2-propanol + acetamide, N,N-dimethyl-; phases: Gas, Liquid
Fixed: Pressure, kPa = 101.3
Property: Mole fraction of 2-propanol (Gas); method: Chromatography
Mole fraction of 2-propanol	Mole fraction of 2-propanol	uncertainty
0	0	.007
.063	.283	.007
.115	.443	.007
.171	.563	.007
.222	.652	.007
.282	.731	.007
.336	.783	.007
.394	.825	.007
.448	.861	.007
.496	.895	.007
.551	.928	.007
.601	.949	.007
.656	.965	.007
.712	.976	.007
.745	.985	.007
.802	.988	.007
.841	.991	.007
.875	.994	.007
.911	.996	.007
.951	.998	.007
1	1	.007

System: 2-propanol + isopropyl ether + acetamide, N,N-dimethyl-; phases: Liquid, Gas
Fixed: Pressure, kPa = 101.3
Property: Mole fraction of 2-propanol (Liquid); method: Phase equilibration
Property: Mole fraction of isopropyl ether (Gas); method: Phase equilibration
Property: Mole fraction of 2-propanol (Gas); method: Phase equilibration
Temperature, K	Mole fraction of isopropyl ether	Mole fraction of 2-propanol	uncertainty	Mole fraction of isopropyl ether	uncertainty	Mole fraction of 2-propanol	uncertainty
341.76	.991	.001	.009	.995	.009	.003	.009
341.69	.894	.093	.009	.981	.009	.011	.009
342.31	.694	.081	.009	.931	.009	.059	.009
341.76	.52	.211	.009	.878	.009	.115	.009
342.23	.732	.023	.009	.978	.009	.009	.009
341.61	.473	.246	.009	.865	.009	.129	.009
341.66	.336	.403	.009	.767	.009	.229	.009
341.95	.647	.018	.009	.972	.009	.012	.009
342.49	.288	.542	.009	.725	.009	.272	.009
341.83	.597	.018	.009	.973	.009	.011	.009
341.59	.533	.106	.009	.947	.009	.042	.009
342.64	.231	.581	.009	.692	.009	.304	.009
342.16	.409	.129	.009	.921	.009	.065	.009
342.21	.346	.236	.009	.872	.009	.117	.009
342.41	.461	.029	.009	.966	.009	.015	.009
348.08	.096	.884	.009	.431	.009	.568	.009
348.31	.086	.881	.009	.413	.009	.586	.009
342.83	.435	.024	.009	.968	.009	.012	.009
344.51	.134	.668	.009	.587	.009	.411	.009
344.67	.155	.531	.009	.676	.009	.317	.009
348.84	.061	.767	.009	.398	.009	.597	.009
349.48	.077	.641	.009	.451	.009	.545	.009
348.81	.186	.248	.009	.843	.009	.141	.009
353.59	.104	.389	.009	.705	.009	.281	.009
349.9	.211	.136	.009	.914	.009	.063	.009
351.84	.223	.025	.009	.965	.009	.005	.009
357.64	.142	.133	.009	.891	.009	.078	.009
361.09	.121	.132	.009	.879	.009	.087	.009
368.15	.097	.087	.009	.894	.009	.061	.009
368.26	.026	.474	.009	.269	.009	.713	.009
384.77	.039	.143	.009	.701	.009	.235	.009
388.16	.052	.014	.009	.921	.009	.011	.009
411.08	.011	.071	.009	.564	.009	.277	.009
