Measured thermophysical data. Oxygen Solubility Measurements in a MEA/H2O/CO2 Mixture
Source: J. Chem. Eng. Data, 2013, 10.1021/je301077y
Compound 1: water, H2O
Compound 2: 2-aminoethanol, C2H7NO, purity 99%
Compound 3: oxygen, O2, purity 99%

System: 2-aminoethanol + water + oxygen; phases: Liquid, Gas
Property: Mole fraction of oxygen (Liquid); method: Titration method
Temperature, K	Pressure, kPa	Solvent: Mass fraction of 2-aminoethanol	Mole fraction of oxygen	uncertainty
291.35	100.6	0	.0000093	.0000001
292.65	100.7	.3	.0000098	.0000001
292.65	100.7	.3	.0000083	.0000001
291.75	100.6	.3	.0000083	.0000001

System: 2-aminoethanol + water + oxygen; phases: Liquid, Gas
Property: Mole fraction of oxygen (Liquid); method: Polarographic probe
Temperature, K	Pressure, kPa	Solvent: Mass fraction of 2-aminoethanol	Mole fraction of oxygen	uncertainty
291.35	100.6	0	.000009	.00000001
292.65	100.7	.3	.00000976	.00000001
292.65	100.7	.3	.0000093	.00000001
291.75	100.6	.3	.00000876	.00000001

System: 2-aminoethanol + water + oxygen; phases: Liquid, Gas
Fixed: Pressure, kPa = 101
Property: Mass fraction of oxygen (Liquid); method: polarographic probe
Temperature, K	Solvent: Mass fraction of 2-aminoethanol	Mass fraction of oxygen	uncertainty
10	.2	.00001091	.000001
20	.2	.00000951	.000001
30	.2	.00000787	.000001
40	.2	.00000682	.000001
50	.2	.00000557	.000001
60	.2	.00000466	.000001
10	.3	.00001011	.000001
23	.3	.00000924	.000001
32	.3	.00000796	.000001
40	.3	.00000713	.000001
50	.3	.0000056	.000001
60	.3	.00000365	.000001
10	.5	.00000934	.000001
23	.5	.0000081	.000001
32	.5	.00000713	.000001
40	.5	.00000642	.000001
50	.5	.00000548	.000001
59.3	.5	.00000483	.000001
11	.8	.00000985	.000001
24	.8	.00000809	.000001
32.5	.8	.00000701	.000001
42	.8	.00000582	.000001
52	.8	.00000478	.000001
59.1	.8	.00000468	.000001
