Measured thermophysical data. Surface Tension of 1-Ethyl-3-methylimidazolium Ethyl Sulfate or 1-Butyl-3-methylimidazolium Hexafluorophosphate with Argon and Carbon Dioxide
Source: J. Chem. Eng. Data, 2013, 10.1021/je3013414
Compound 1: 1-ethyl-3-methylimidazolium ethyl sulfate, C8H16N2O4S, purity 98%
Compound 2: [bmim][PF6], C8H15F6N2P, purity 98%
Compound 3: argon-40, Ar, purity 99.995%
Compound 4: carbon dioxide, CO2, purity 99.995%

System: 1-ethyl-3-methylimidazolium ethyl sulfate; phases: Liquid
Fixed: Pressure, kPa = 101.325
Property: Refractive index (Na D-line) (Liquid); method: Standard Abbe refractometry
Temperature, K	Refractive index (Na D-line)	uncertainty
298.15	1.4106	.00005

System: 1-ethyl-3-methylimidazolium ethyl sulfate; phases: Liquid
Fixed: Pressure, kPa = 101.325
Property: Mass density, kg/m3 (Liquid); method: Vibrating tube method
Temperature, K	Mass density, kg/m3	uncertainty
303.15	1233.7	.005
313.15	1226.9	.005
323.15	1220.2	.005
333.15	1213.6	.005
343.15	1207	.005
353.15	1200.4	.005
363.15	1193.9	.005

System: [bmim][PF6]; phases: Liquid
Fixed: Pressure, kPa = 101.325
Property: Refractive index (Na D-line) (Liquid); method: Standard Abbe refractometry
Temperature, K	Refractive index (Na D-line)	uncertainty
298.15	1.4106	.00005

System: [bmim][PF6]; phases: Liquid
Fixed: Pressure, kPa = 101.325
Property: Mass density, kg/m3 (Liquid); method: Vibrating tube method
Temperature, K	Mass density, kg/m3	uncertainty
303.15	1361.3	.005
313.15	1353	.005
323.15	1344.8	.005
333.15	1336.7	.005
343.15	1328.5	.005
353.15	1320.5	.005
363.15	1312.4	.005

System: argon-40 + [bmim][PF6]; phases: Liquid, Gas
Property: Surface tension liquid-gas, N/m (Liquid); method: Pendant drop shape
Temperature, K	Pressure, kPa	Surface tension liquid-gas, N/m	uncertainty
303.15	500	.0415	.0006
303.15	1000	.04093	.0006
303.15	3000	.03941	.0006
303.15	5000	.03811	.0006
303.15	10000	.0344	.0006
303.15	15000	.03209	.0006
313.15	500	.0402	.0006
313.15	1000	.03981	.0006
313.15	3000	.03769	.0006
313.15	5000	.03556	.0006
313.15	10000	.03296	.0006
313.15	15000	.03147	.0006
323.15	500	.04144	.0006
323.15	1000	.04019	.0006
323.15	3000	.03881	.0006
323.15	5000	.03807	.0006
323.15	10000	.03503	.0006
323.15	15000	.03216	.0006
343.15	500	.04022	.0006
343.15	1000	.04006	.0006
343.15	3000	.03879	.0006
343.15	5000	.03743	.0006
343.15	10000	.03193	.0006
343.15	15000	.03132	.0006
363.15	500	.038	.0006
363.15	1000	.03714	.0006
363.15	3000	.03574	.0006
363.15	5000	.03512	.0006
363.15	10000	.03251	.0006
363.15	15000	.03156	.0006

System: carbon dioxide + [bmim][PF6]; phases: Liquid, Gas
Property: Surface tension liquid-gas, N/m (Liquid); method: Pendant drop shape
Temperature, K	Pressure, kPa	Surface tension liquid-gas, N/m	uncertainty
303.15	1000	.03519	.0006
303.15	3000	.02659	.0006
303.15	5000	.01879	.0006
313.15	1000	.03519	.0006
313.15	3000	.02615	.0006
313.15	5000	.02147	.0006
323.15	1000	.03531	.0006
323.15	3000	.02842	.0006
323.15	5000	.02233	.0006
343.15	1000	.03209	.0006
343.15	3000	.02754	.0006
343.15	5000	.02499	.0006

System: carbon dioxide + 1-ethyl-3-methylimidazolium ethyl sulfate; phases: Liquid, Gas
Property: Surface tension liquid-gas, N/m (Liquid); method: Pendant drop shape
Temperature, K	Pressure, kPa	Surface tension liquid-gas, N/m	uncertainty
303.15	500	.0371	.0006
303.15	1000	.0365	.0006
303.15	2000	.03415	.0006
303.15	3000	.02723	.0006
303.15	5000	.02194	.0006
333.15	500	.03515	.0006
333.15	1000	.03438	.0006
333.15	2000	.0317	.0006
333.15	3000	.03077	.0006
333.15	5000	.0257	.0006
363.15	500	.0368	.0006
363.15	1000	.03324	.0006
363.15	2000	.0325	.0006
363.15	3000	.03194	.0006
363.15	5000	.02932	.0006
