Measured thermophysical data. Thermodynamic Properties of Binary Mixtures of Water and Room-Temperature Ionic Liquids: Vapor Pressures, Heat Capacities, Densities, and Viscosities of Water + 1-Ethyl-3-methylimidazolium Acetate and Water + Diethylmethylammonium Methane Sulfonate
Source: J. Chem. Eng. Data, 2012, 10.1021/je300132e
Compound 1: 1-ethyl-3-methylimidazolium acetate, C8H14N2O2
Compound 2: diethylmethylammonium methanesulfonate, C6H17NO3S
Compound 3: water, H2O, purity 99%

System: water + 1-ethyl-3-methylimidazolium acetate; phases: Liquid, Gas
Property: Vapor or sublimation pressure, kPa (Liquid); method: Ebulliometric method (Recirculating still)
Temperature, K	Mole fraction of water	Vapor or sublimation pressure, kPa	uncertainty
293.15	.6865	.14	.00336
293.15	.7452	.36	.00864
293.15	.7819	.541	.012984
293.15	.8177	.782	.018768
293.15	.8553	1.132	.027168
293.15	.8855	1.395	.03348
293.15	.9333	1.93	.04632
293.15	.9568	2.105	.05052
293.15	1	2.318	.055632
303.15	.6119	.183	.004392
303.15	.6547	.305	.00732
303.15	.6864	.39	.00936
303.15	.7451	.822	.019728
303.15	.7817	1.092	.026208
303.15	.8175	1.475	.0354
303.15	.8552	1.986	.047664
303.15	.8853	2.494	.059856
303.15	.933	3.632	.087168
303.15	.9566	4.086	.098064
303.15	1	4.443	.106632
313.15	.4945	.145	.00348
313.15	.5532	.271	.006504
313.15	.6118	.47	.01128
313.15	.6545	.867	.020808
313.15	.6863	.871	.020904
313.15	.7449	1.485	.03564
313.15	.7815	1.889	.045336
313.15	.8173	2.544	.061056
313.15	.8548	3.712	.089088
313.15	.8849	4.71	.11304
313.15	.9326	6.435	.15444
313.15	.9562	7.178	.172272
313.15	1	7.786	.186864
323.15	.4944	.352	.008448
323.15	.5531	.533	.012792
323.15	.6117	.819	.019656
323.15	.6543	1.277	.030648
323.15	.686	1.573	.037752
323.15	.7446	2.505	.06012
323.15	.7811	3.427	.082248
323.15	.8168	4.732	.113568
323.15	.8542	6.357	.152568
323.15	.8843	7.983	.191592
323.15	.9321	10.559	.253416
323.15	.9556	11.602	.278448
323.15	1	12.669	.304056
333.15	.4943	.645	.01548
333.15	.5529	.955	.02292
333.15	.6114	1.471	.035304
333.15	.654	2.205	.05292
333.15	.6857	2.641	.063384
333.15	.744	4.575	.1098
333.15	.7805	5.926	.142224
333.15	.8161	7.814	.187536
333.15	.8534	10.364	.248736
333.15	.8834	12.752	.306048
333.15	.9313	16.652	.399648
333.15	.9548	18.277	.438648
333.15	1	19.928	.478272
343.15	.4941	1.09	.02616
343.15	.5526	1.611	.038664
343.15	.6111	2.324	.055776
343.15	.6534	3.774	.090576
343.15	.685	4.701	.112824
343.15	.7432	7.558	.181392
343.15	.7796	9.462	.227088
343.15	.8151	12.292	.295008
343.15	.8523	16.162	.387888
343.15	.8823	19.712	.473088
343.15	.9302	25.591	.614184
343.15	.9536	28.328	.679872
343.15	1	30.597	.734328
353.15	.4938	1.78	.04272
353.15	.5522	2.506	.060144
353.15	.6105	3.859	.092616
353.15	.6525	6.395	.15348
353.15	.684	7.687	.184488
353.15	.742	11.752	.282048
353.15	.7783	14.7	.3528
353.15	.8136	18.997	.455928
353.15	.8507	24.564	.589536
353.15	.8806	29.854	.716496
353.15	.9286	38.679	.928296
353.15	.9519	42.949	1.030776
353.15	1	46.322	1.111728

System: water + 1-ethyl-3-methylimidazolium acetate; phases: Liquid
Fixed: Pressure, kPa = 101
Property: Molar heat capacity at constant pressure, J/K/mol (Liquid); method: Small sample (50 mg) DSC
Temperature, K	Mole fraction of water	Molar heat capacity at constant pressure, J/K/mol	uncertainty
293.15	.3532	226.037609901888	.015
293.15	.5156	189.43884061536	.015
293.15	.6278	162.090762311712	.015
293.15	.7045	144.93662152008	.015
293.15	.7552	133.593179186816	.015
293.15	.7996	124.44074287776	.015
293.15	.8584	111.7737138752	.015
293.15	.8982	103.273519894976	.015
293.15	.9282	96.37949725344	.015
293.15	.9614	88.03449941616	.015
293.15	.9849	81.55832419064	.015
293.15	1	75.89837464	.015
303.15	.3532	229.298327612992	.015
303.15	.5156	192.19097873568	.015
303.15	.6278	165.00257241312	.015
303.15	.7045	147.77110564368	.015
303.15	.7552	136.301522496768	.015
303.15	.7996	127.10906290048	.015
303.15	.8584	113.989405194496	.015
303.15	.8982	104.982458738144	.015
303.15	.9282	97.681922892	.015
303.15	.9614	88.679528312832	.015
303.15	.9849	81.680204625296	.015
303.15	1	75.79028296	.015
313.15	.3532	232.209682712192	.015
313.15	.5156	195.126592730688	.015
313.15	.6278	167.989044312	.015
313.15	.7045	150.5426012312	.015
313.15	.7552	139.065138119168	.015
313.15	.7996	129.53480837568	.015
313.15	.8584	116.007266931712	.015
313.15	.8982	106.523854557472	.015
313.15	.9282	98.810691778752	.015
313.15	.9614	89.252887332096	.015
313.15	.9849	81.842711871504	.015
313.15	1	75.80829824	.015
323.15	.3532	235.586854627264	.015
323.15	.5156	198.062206725696	.015
323.15	.6278	170.900854413408	.015
323.15	.7045	153.25110828264	.015
323.15	.7552	141.662936804224	.015
323.15	.7996	131.815009122368	.015
323.15	.8584	117.866865003264	.015
323.15	.8982	107.864198748192	.015
323.15	.9282	99.794746705664	.015
323.15	.9614	89.730686514816	.015
323.15	.9849	81.96459230616	.015
323.15	1	75.8443288	.015
333.15	.3532	238.847572338368	.015
333.15	.5156	201.089558658048	.015
333.15	.6278	173.663340919872	.015
333.15	.7045	155.83363826192	.015
333.15	.7552	143.98437392704	.015
333.15	.7996	133.90115023104	.015
333.15	.8584	119.48906757632	.015
333.15	.8982	109.07050851984	.015
333.15	.9282	100.634087672736	.015
333.15	.9614	90.160705779264	.015
333.15	.9849	82.106786146592	.015
333.15	1	75.86234408	.015
343.15	.3532	241.526019029632	.015
343.15	.5156	204.025172653056	.015
343.15	.6278	176.351165628864	.015
343.15	.7045	158.29019116904	.015
343.15	.7552	146.139994112512	.015
343.15	.7996	135.744716792192	.015
343.15	.8584	120.913440567296	.015
343.15	.8982	110.07576666288	.015
343.15	.9282	101.357657471936	.015
343.15	.9614	90.519055166304	.015
343.15	.9849	82.248979987024	.015
343.15	1	75.91638992	.015
353.15	.3532	244.204465720896	.015
353.15	.5156	206.86904871072	.015
353.15	.6278	178.889666742912	.015
353.15	.7045	160.49478993184	.015
353.15	.7552	148.074525048192	.015
353.15	.7996	137.394223715328	.015
353.15	.8584	122.100418059776	.015
353.15	.8982	110.91348178208	.015
353.15	.9282	101.965456103264	.015
353.15	.9614	90.829624635072	.015
353.15	.9849	82.411487233232	.015
353.15	1	75.97043576	.015
363.15	.3532	249.561359103424	.015
363.15	.5156	209.345973019008	.015
363.15	.6278	181.502829654432	.015
363.15	.7045	162.44743455032	.015
363.15	.7552	149.843239046528	.015
363.15	.7996	138.898185909952	.015
363.15	.8584	123.129131886592	.015
363.15	.8982	111.617162482208	.015
363.15	.9282	102.486426358688	.015
363.15	.9614	91.092414185568	.015
363.15	.9849	82.533367667888	.015
363.15	1	76.0244816	.015

System: water + 1-ethyl-3-methylimidazolium acetate; phases: Liquid
Fixed: Pressure, kPa = 101
Property: Mass density, kg/m3 (Liquid); method: Pycnometric method
Temperature, K	Mole fraction of water	Mass density, kg/m3	uncertainty
293.15	.3467	1104.4	.66264
293.15	.5165	1107.2	.66432
293.15	.5775	1108.7	.66522
293.15	.6271	1108.5	.6651
293.15	.7045	1107.7	.66462
313.15	.3467	1092.2	.65532
313.15	.5165	1095.1	.65706
313.15	.5775	1097.3	.65838
313.15	.6271	1095.7	.65742
313.15	.7045	1094.9	.65694
333.15	.3467	1080.7	.64842
333.15	.5165	1083	.6498
333.15	.5775	1085.1	.65106
333.15	.6271	1083.1	.64986
333.15	.7045	1081.5	.6489
353.15	.3467	1068.5	.6411
353.15	.5165	1070.6	.64236
353.15	.5775	1073.1	.64386
353.15	.6271	1070.9	.64254
353.15	.7045	1069.5	.6417

System: water + 1-ethyl-3-methylimidazolium acetate; phases: Liquid
Fixed: Pressure, kPa = 101
Property: Viscosity, Pa*s (Liquid); method: Falling or rolling sphere viscometry
Temperature, K	Mole fraction of water	Viscosity, Pa*s	uncertainty
293.15	.3467	.093666	.003652974
293.15	.5165	.059385	.002316015
293.15	.5775	.051081	.001992159
293.15	.6271	.042807	.001669473
293.15	.7045	.032693	.001275027
313.15	.3467	.035208	.001373112
313.15	.5165	.024446	.000953394
313.15	.5775	.021414	.000835146
313.15	.6271	.018222	.000710658
313.15	.7045	.013956	.000544284
333.15	.3467	.016922	.000659958
333.15	.5165	.012266	.000478374
333.15	.5775	.011001	.000429039
333.15	.6271	.009391	.000366249
333.15	.7045	.007357	.000286923
353.15	.3467	.009512	.000370968
353.15	.5165	.007186	.000280254
353.15	.5775	.006455	.000251745
353.15	.6271	.005629	.000219531
353.15	.7045	.004377	.000170703

System: water + diethylmethylammonium methanesulfonate; phases: Liquid, Gas
Property: Vapor or sublimation pressure, kPa (Liquid); method: Ebulliometric method (Recirculating still)
Temperature, K	Mass fraction of water	Vapor or sublimation pressure, kPa	uncertainty
293.15	.3517	.166	.003984
293.15	.4147	.186	.004464
293.15	.4833	.297	.007128
293.15	.5403	.359	.008616
293.15	.5838	.399	.009576
293.15	.6144	.478	.011472
293.15	.6439	.515	.01236
293.15	.6742	.595	.01428
293.15	.7203	.754	.018096
293.15	.843	1.43	.03432
293.15	.9067	1.926	.046224
293.15	.9366	2.192	.052608
293.15	1	2.318	.055632
303.15	.2789	.191	.004584
303.15	.3516	.322	.007728
303.15	.4146	.379	.009096
303.15	.4832	.537	.012888
303.15	.5401	.683	.016392
303.15	.5836	.777	.018648
303.15	.6142	.918	.022032
303.15	.6437	1.047	.025128
303.15	.674	1.192	.028608
303.15	.7201	1.441	.034584
303.15	.8428	2.515	.06036
303.15	.9065	3.432	.082368
303.15	.9364	3.953	.094872
303.15	1	4.443	.106632
313.15	.2029	.173	.004152
313.15	.2788	.365	.00876
313.15	.3515	.547	.013128
313.15	.4144	.685	.01644
313.15	.4829	.974	.023376
313.15	.5399	1.211	.029064
313.15	.5834	1.376	.033024
313.15	.614	1.573	.037752
313.15	.6435	1.795	.04308
313.15	.6737	2.043	.049032
313.15	.7198	2.457	.058968
313.15	.8423	4.693	.112632
313.15	.9061	6.152	.147648
313.15	.936	6.952	.166848
313.15	1	7.786	.186864
323.15	.2028	.333	.007992
323.15	.2786	.628	.015072
323.15	.3513	.926	.022224
323.15	.4141	1.184	.028416
323.15	.4826	1.586	.038064
323.15	.5396	1.942	.046608
323.15	.5831	2.237	.053688
323.15	.6136	2.556	.061344
323.15	.643	3.114	.074736
323.15	.6732	3.671	.088104
323.15	.7192	4.607	.110568
323.15	.8417	7.995	.19188
323.15	.9055	10.188	.244512
323.15	.9355	11.25	.27
323.15	1	12.669	.304056
333.15	.2026	.603	.014472
333.15	.2783	1.157	.027768
333.15	.351	1.47	.03528
333.15	.4138	1.891	.045384
333.15	.4822	2.532	.060768
333.15	.539	3.225	.0774
333.15	.5824	3.91	.09384
333.15	.6129	4.556	.109344
333.15	.6422	5.405	.12972
333.15	.6724	6.239	.149736
333.15	.7184	7.631	.183144
333.15	.8408	12.793	.307032
333.15	.9047	16.172	.388128
333.15	.9347	17.888	.429312
333.15	1	19.928	.478272
343.15	.2024	.988	.023712
343.15	.278	1.675	.0402
343.15	.3505	2.247	.053928
343.15	.4132	3.082	.073968
343.15	.4814	4.355	.10452
343.15	.5381	5.414	.129936
343.15	.5815	6.428	.154272
343.15	.6119	7.325	.1758
343.15	.6412	8.757	.210168
343.15	.6713	9.92	.23808
343.15	.7172	11.759	.282216
343.15	.8395	19.943	.478632
343.15	.9034	25.217	.605208
343.15	.9335	27.705	.66492
343.15	1	30.597	.734328
353.15	.2019	1.777	.042648
353.15	.2775	2.471	.059304
353.15	.3498	3.664	.087936
353.15	.4122	5	.12
353.15	.4803	6.845	.16428
353.15	.5369	8.431	.202344
353.15	.58	10.384	.249216
353.15	.6104	11.901	.285624
353.15	.6397	13.507	.324168
353.15	.6697	15.234	.365616
353.15	.7155	18.475	.4434
353.15	.8376	30.556	.733344
353.15	.9017	38.494	.923856
353.15	.9319	41.958	1.006992
353.15	1	46.322	1.111728

System: water + diethylmethylammonium methanesulfonate; phases: Liquid
Fixed: Pressure, kPa = 101
Property: Molar heat capacity at constant pressure, J/K/mol (Liquid); method: Small sample (50 mg) DSC
Temperature, K	Mole fraction of water	Molar heat capacity at constant pressure, J/K/mol	uncertainty
293.15	.0714	323.908576236936	.015
293.15	.277	264.12699082372	.015
293.15	.4418	217.874810615488	.015
293.15	.4816	207.263094722944	.015
293.15	.5169	198.048183844896	.015
293.15	.6427	164.13957712716	.015
293.15	.7148	145.92695122432	.015
293.15	.8015	126.08036540094	.015
293.15	.8651	109.476956899856	.015
293.15	.9004	102.493170316272	.015
293.15	.9304	95.251413420128	.015
293.15	.9553	88.475762805084	.015
293.15	.9771	83.972120200272	.015
293.15	1	75.8443288	.015
303.15	.0714	326.309169178872	.015
303.15	.277	266.87688141012	.015
303.15	.4418	220.190281780936	.015
303.15	.4816	209.751496060288	.015
303.15	.5169	200.494431174996	.015
303.15	.6427	166.83670632878	.015
303.15	.7148	148.467643678672	.015
303.15	.8015	128.46882859072	.015
303.15	.8651	111.492364795656	.015
303.15	.9004	104.147954095344	.015
303.15	.9304	96.638713212736	.015
303.15	.9553	89.28863228822	.015
303.15	.9771	84.211915974468	.015
303.15	1	75.73623712	.015
313.15	.0714	329.052703969656	.015
313.15	.277	269.35178293788	.015
313.15	.4418	222.836534541448	.015
313.15	.4816	212.447264175744	.015
313.15	.5169	203.136378291504	.015
313.15	.6427	169.225592193072	.015
313.15	.7148	150.943190172656	.015
313.15	.8015	130.80647341476	.015
313.15	.8651	113.427156375624	.015
313.15	.9004	105.733788550288	.015
313.15	.9304	97.789876870432	.015
313.15	.9553	89.974490914616	.015
313.15	.9771	84.429912132828	.015
313.15	1	75.73623712	.015
323.15	.0714	331.967709684864	.015
323.15	.277	272.2391680536	.015
323.15	.4418	225.372526770272	.015
323.15	.4816	215.039348902144	.015
323.15	.5169	205.778325408012	.015
323.15	.6427	171.768599726028	.015
323.15	.7148	153.288444745904	.015
323.15	.8015	133.04248150732	.015
323.15	.8651	115.241023481844	.015
323.15	.9004	107.112775032848	.015
323.15	.9304	98.852489477536	.015
323.15	.9553	90.609545198316	.015
323.15	.9771	84.669707907024	.015
323.15	1	75.77226768	.015
333.15	.0714	334.882715400072	.015
333.15	.277	274.98905864	.015
333.15	.4418	228.129040062472	.015
333.15	.4816	217.631433628544	.015
333.15	.5169	208.322422631316	.015
333.15	.6427	174.234546424652	.015
333.15	.7148	155.568553358784	.015
333.15	.8015	135.12603450266	.015
333.15	.8651	116.974274272232	.015
333.15	.9004	108.388337529216	.015
333.15	.9304	99.76751700032	.015
333.15	.9553	91.142990796624	.015
333.15	.9771	84.931303297056	.015
333.15	1	75.8443288	.015
343.15	.0714	337.79772111528	.015
343.15	.277	277.60145469708	.015
343.15	.4418	230.665032291296	.015
343.15	.4816	220.016151576832	.015
343.15	.5169	210.86651985462	.015
343.15	.6427	176.546371454612	.015
343.15	.7148	157.718370050928	.015
343.15	.8015	137.05713240078	.015
343.15	.8651	118.425367957208	.015
343.15	.9004	109.491526715264	.015
343.15	.9304	100.50544242192	.015
343.15	.9553	91.676436394932	.015
343.15	.9771	85.149299455416	.015
343.15	1	75.97043576	.015
353.15	.0714	340.541255906064	.015
353.15	.277	280.35134528348	.015
353.15	.4418	233.311285051808	.015
353.15	.4816	222.711919692288	.015
353.15	.5169	213.410617077924	.015
353.15	.6427	178.935257318904	.015
353.15	.7148	159.737894822336	.015
353.15	.8015	138.83577520168	.015
353.15	.8651	119.755537168436	.015
353.15	.9004	110.49129191512	.015
353.15	.9304	101.213850826656	.015
353.15	.9553	92.032066793804	.015
353.15	.9771	85.389095229612	.015
353.15	1	76.15058856	.015
363.15	.0714	343.627732545696	.015
363.15	.277	283.2387303992	.015
363.15	.4418	235.626756217256	.015
363.15	.4816	225.200321029632	.015
363.15	.5169	215.856864408024	.015
363.15	.6427	181.247082348864	.015
363.15	.7148	161.757419593744	.015
363.15	.8015	140.36032617388	.015
363.15	.8651	120.924473748	.015
363.15	.9004	111.422107790848	.015
363.15	.9304	101.892742214528	.015
363.15	.9553	92.413099364024	.015
363.15	.9771	85.541692540464	.015
363.15	1	76.24066496	.015

System: water + diethylmethylammonium methanesulfonate; phases: Liquid
Fixed: Pressure, kPa = 101
Property: Mass density, kg/m3 (Liquid); method: Pycnometric method
Temperature, K	Mole fraction of water	Mass density, kg/m3	uncertainty
293.15	.3719	1134.9	.68094
293.15	.4487	1133.6	.68016
293.15	.5069	1133	.6798
293.15	.6242	1128.4	.67704
293.15	.7065	1122.2	.67332
313.15	.3719	1122.9	.67374
313.15	.4487	1120.5	.6723
313.15	.5069	1120.1	.67206
313.15	.6242	1115.4	.66924
313.15	.7065	1110.1	.66606
333.15	.3719	1109.7	.66582
333.15	.4487	1107.1	.66426
333.15	.5069	1106.7	.66402
333.15	.6242	1102.3	.66138
333.15	.7065	1096.4	.65784
353.15	.3719	1096.7	.65802
353.15	.4487	1094.2	.65652
353.15	.5069	1093.5	.6561
353.15	.6242	1089.5	.6537
353.15	.7065	1083.2	.64992

System: water + diethylmethylammonium methanesulfonate; phases: Liquid
Fixed: Pressure, kPa = 101
Property: Viscosity, Pa*s (Liquid); method: Falling or rolling sphere viscometry
Temperature, K	Mole fraction of water	Viscosity, Pa*s	uncertainty
293.15	.3719	.065257	.002545023
293.15	.4487	.049938	.001947582
293.15	.5069	.041921	.001634919
293.15	.6242	.027933	.001089387
293.15	.7065	.020996	.000818844
313.15	.3719	.027272	.001063608
313.15	.4487	.021546	.000840294
313.15	.5069	.018686	.000728754
313.15	.6242	.013355	.000520845
313.15	.7065	.010094	.000393666
333.15	.3719	.013945	.000543855
333.15	.4487	.011368	.000443352
333.15	.5069	.00998	.00038922
333.15	.6242	.00734	.00028626
333.15	.7065	.005715	.000222885
353.15	.3719	.008196	.000319644
353.15	.4487	.006832	.000266448
353.15	.5069	.006081	.000237159
353.15	.6242	.004578	.000178542
353.15	.7065	.003597	.000140283
