Measured thermophysical data. Geometric Structures of Associating Component Optimized toward Correlation and Prediction of Isobaric Vapor Liquid Equilibria for Binary and Ternary Mixtures of Ethanal, Ethanol, and Ethanoic Acid
Source: J. Chem. Eng. Data, 2013, 10.1021/je300810p
Compound 1: ethanol, C2H6O
Compound 2: ethanal, C2H4O
Compound 3: acetic acid, C2H4O2

System: ethanol; phases: Liquid
Property: Refractive index (Na D-line) (Liquid); method: Standard Abbe refractometry
Temperature, K	Pressure, kPa	Refractive index (Na D-line)	uncertainty
298.15	101.325	1.3592	

System: ethanol; phases: Liquid
Property: Mass density, kg/m3 (Liquid); method: Pycnometric method
Temperature, K	Pressure, kPa	Mass density, kg/m3	uncertainty
298.15	101.325	784.88	

System: ethanol; phases: Liquid, Gas
Property: Vapor or sublimation pressure, kPa (Liquid); method: Ebulliometric method (Recirculating still)
Temperature, K	Vapor or sublimation pressure, kPa	uncertainty
351.46	101.325	

System: ethanal; phases: Liquid
Property: Refractive index (Na D-line) (Liquid); method: Standard Abbe refractometry
Temperature, K	Pressure, kPa	Refractive index (Na D-line)	uncertainty
293.15	101.325	1.3328	

System: ethanal; phases: Liquid
Property: Mass density, kg/m3 (Liquid); method: Pycnometric method
Temperature, K	Pressure, kPa	Mass density, kg/m3	uncertainty
289.15	101.325	788.02	

System: ethanal; phases: Liquid, Gas
Property: Vapor or sublimation pressure, kPa (Liquid); method: Ebulliometric method (Recirculating still)
Temperature, K	Vapor or sublimation pressure, kPa	uncertainty
293.91	101.325	

System: acetic acid; phases: Liquid
Property: Refractive index (Na D-line) (Liquid); method: Standard Abbe refractometry
Temperature, K	Pressure, kPa	Refractive index (Na D-line)	uncertainty
298.15	101.325	1.3716	

System: acetic acid; phases: Liquid
Property: Mass density, kg/m3 (Liquid); method: Pycnometric method
Temperature, K	Pressure, kPa	Mass density, kg/m3	uncertainty
298.15	101.325	1049.42	

System: acetic acid; phases: Liquid, Gas
Property: Vapor or sublimation pressure, kPa (Liquid); method: Ebulliometric method (Recirculating still)
Temperature, K	Vapor or sublimation pressure, kPa	uncertainty
391.43	101.325	

System: ethanol + ethanal; phases: Liquid, Gas
Fixed: Pressure, kPa = 101.325
Property: Boiling temperature at pressure P, K (Liquid); method: Ebulliometric method (Recirculating still)
Mole fraction of ethanal	Boiling temperature at pressure P, K	uncertainty
0	351.46	
.0402	348.56	
.08	344.88	
.12	341.2	
.16	337.92	
.2001	334.73	
.2401	331.1	
.28	328.22	
.32	325.53	
.3601	322.75	
.3904	320.71	
.44	317.53	
.48	314.44	
.52	312.6	
.56	310.02	
.6	307.63	
.64	305.84	
.68	304.15	
.72	302.21	
.76	300.87	
.8	299.07	
.8401	297.63	
.88	296.44	
.92	295.6	
.96	294.59	
1	293.91	

System: ethanol + ethanal; phases: Gas, Liquid
Fixed: Pressure, kPa = 101.325
Property: Mole fraction of ethanal (Gas); method: Chromatography
Mole fraction of ethanal	Mole fraction of ethanal	uncertainty
0	0	
.0402	.1284	
.08	.2481	
.12	.3591	
.16	.4597	
.2001	.5493	
.2401	.6272	
.28	.6939	
.32	.7506	
.3601	.7981	
.3904	.8285	
.44	.8695	
.48	.8958	
.52	.9172	
.56	.9345	
.6	.9485	
.64	.9598	
.68	.9689	
.72	.9763	
.76	.9822	
.8	.987	
.8401	.9908	
.88	.9939	
.905	.9953	
.92	.9964	
.96	.9984	
1	1	

System: acetic acid + ethanal; phases: Liquid, Gas
Fixed: Pressure, kPa = 101.325
Property: Boiling temperature at pressure P, K (Liquid); method: Ebulliometric method (Recirculating still)
Mole fraction of ethanal	Boiling temperature at pressure P, K	uncertainty
0	391.43	
.0088	386.49	
.013	385.93	
.0218	381.99	
.025	380.16	
.0389	375.38	
.079	363.27	
.119	354.08	
.1589	346.74	
.1988	338.76	
.2386	332.14	
.2787	327.58	
.3188	323.88	
.3588	319.06	
.3987	315.38	
.4387	312.94	
.4788	311.49	
.5188	309.16	
.5588	307.63	
.6051	305.1	
.6448	303.63	
.6845	301.94	
.7242	300.58	
.7637	299.31	
.8031	297.9	
.8424	296.84	
.8816	296.19	
.9208	294.77	
.9598	293.66	
1	293.91	

System: acetic acid + ethanal; phases: Gas, Liquid
Fixed: Pressure, kPa = 101.325
Property: Mole fraction of ethanal (Gas); method: Chromatography
Mole fraction of ethanal	Mole fraction of ethanal	uncertainty
0	0	
.0088	.1106	
.013	.1341	
.0218	.2016	
.025	.2356	
.0389	.3321	
.079	.5304	
.119	.6492	
.1589	.7487	
.1988	.8222	
.2386	.8848	
.2787	.9104	
.3188	.929	
.3588	.9429	
.3987	.9536	
.4387	.9619	
.4788	.9685	
.5188	.9738	
.5588	.9781	
.6051	.9821	
.6448	.985	
.6845	.9874	
.7242	.9894	
.7637	.9912	
.8031	.9927	
.8424	.9939	
.8816	.995	
.9208	.996	
.9598	.9969	
1	1	

System: ethanol + acetic acid; phases: Liquid, Gas
Fixed: Pressure, kPa = 101.325
Property: Boiling temperature at pressure P, K (Liquid); method: Ebulliometric method (Recirculating still)
Mole fraction of ethanol	Boiling temperature at pressure P, K	uncertainty
0	391.43	
.0364	389.53	
.0772	387.9	
.1219	386.25	
.1707	384.29	
.2245	382.43	
.2839	379.91	
.3498	376.93	
.4235	374.31	
.4388	373.68	
.4788	371.79	
.5188	369.93	
.5587	368.01	
.5987	366.35	
.6387	364.76	
.6788	363.37	
.7189	361.71	
.7588	359.79	
.7989	358.36	
.8389	356.84	
.8789	355.01	
.919	353.72	
.9589	352.56	
1	351.46	

System: ethanol + acetic acid; phases: Gas, Liquid
Fixed: Pressure, kPa = 101.325
Property: Mole fraction of ethanol (Gas); method: Chromatography
Mole fraction of ethanol	Mole fraction of ethanol	uncertainty
0	0	
.0364	.1161	
.0772	.2098	
.1219	.2829	
.1707	.34	
.2245	.4277	
.2839	.5151	
.3498	.6008	
.4235	.6739	
.4388	.7052	
.4788	.7531	
.5188	.7999	
.5587	.8256	
.5987	.8491	
.6387	.8705	
.6788	.8901	
.7189	.9256	
.7588	.942	
.7989	.9522	
.8389	.9678	
.8789	.9768	
.919	.9846	
.9589	.9986	
1	1	

System: ethanol + acetic acid + ethanal; phases: Liquid, Gas
Fixed: Pressure, kPa = 101.325
Property: Mole fraction of ethanol (Liquid); method: Chromatography
Property: Mole fraction of ethanal (Gas); method: Chromatography
Property: Mole fraction of ethanol (Gas); method: Chromatography
Temperature, K	Mole fraction of ethanal	Mole fraction of ethanol	uncertainty	Mole fraction of ethanal	uncertainty	Mole fraction of ethanol	uncertainty
296.4	.905	.095		.9953		.0047	
306.86	.6605	.0694		.9868		.0078	
308.47	.6334	.0665		.9848		.0084	
310.29	.6063	.0637		.9824		.0091	
312.43	.5791	.0608		.9795		.0099	
315	.552	.058		.9759		.0108	
318.24	.5249	.0551		.9715		.0118	
321.28	.4974	.0522		.966		.013	
322.82	.42	.5246		.8712		.126	
324.83	.3901	.5517		.8457		.1509	
325.99	.3602	.5788		.8151		.1808	
297.28	.8777	.0922		.9948		.0049	
328.28	.3301	.606		.7782		.2167	
330.87	.3001	.6332		.7346		.2591	
333.53	.27	.6603		.6832		.3091	
337.18	.24	.6875		.6238		.3668	
339.41	.2101	.7145		.5563		.4321	
341.49	.1801	.7417		.481		.505	
344.39	.1501	.7688		.3992		.5839	
346.64	.1201	.7959		.3133		.6666	
349.27	.09	.8232		.2262		.7502	
350.21	.0599	.8504		.1419		.8306	
298.06	.8504	.0893		.9943		.0052	
350.99	.0301	.8774		.0656		.9028	
364.73	.0587	.3599		.1177		.6351	
365.94	.0615	.3299		.1265		.6076	
366.79	.0642	.2999		.1358		.5778	
367.72	.067	.2699		.1462		.5453	
368.87	.0698	.2399		.1575		.5096	
370.66	.0725	.2098		.17		.4701	
371.65	.0753	.1798		.1835		.4265	
372.8	.078	.1498		.1983		.3777	
374.46	.0808	.12		.215		.3229	
298.93	.8233	.0865		.9936		.0054	
376.1	.0835	.09		.2337		.2601	
377.68	.0862	.0601		.2548		.1876	
379.3	.089	.0301		.2797		.1023	
398.72	.0521	.0224		.3632		.0309	
299.7	.7962	.0836		.9929		.0057	
300.71	.7691	.0808		.992		.0061	
301.94	.7419	.0779		.991		.0064	
303.91	.7148	.0751		.9899		.0068	
305.28	.6877	.0722		.9885		.0073	
