Measured thermophysical data. Volumetric Study of (3-Ethoxypropan-1-amine + Water) Mixtures between (283.15 and 303.15) K
Source: J. Chem. Eng. Data, 2012, 10.1021/je3003578
Compound 1: 3-ethoxy-1-propanamine, C5H13NO, purity 99%
Compound 2: water, H2O, purity 99.99%

System: 3-ethoxy-1-propanamine; phases: Liquid
Property: Mass density, kg/m3 (Liquid); method: Vibrating tube method
Temperature, K	Pressure, kPa	Mass density, kg/m3	uncertainty
283.15	101	865.36	.1
288.15	101	860.63	.1
293.15	101	855.715	.1
298.15	101	851.018	.1
303.15	101	846.075	.1

System: 3-ethoxy-1-propanamine + water; phases: Liquid
Fixed: Pressure, kPa = 101
Property: Mass density, kg/m3 (Liquid); method: Vibrating tube method
Temperature, K	Mole fraction of 3-ethoxy-1-propanamine	Mass density, kg/m3	uncertainty
283.15	0	999.699	.1
283.15	.000108	999.685	.1
283.15	.000319	999.612	.1
283.15	.000625	999.489	.1
283.15	.000707	999.462	.1
283.15	.000942	999.378	.1
283.15	.001046	999.335	.1
283.15	.001284	999.244	.1
283.15	.001947	999.006	.1
283.15	.002912	998.665	.1
283.15	.00392	998.32	.1
283.15	.005098	997.943	.1
283.15	.007456	997.213	.1
283.15	.00981	996.579	.1
283.15	.014804	995.454	.1
283.15	.019563	994.585	.1
283.15	.028319	993.306	.1
283.15	.039136	992.137	.1
283.15	.050821	991.126	.1
283.15	.066736	989.564	.1
283.15	.095356	985.793	.1
283.15	.120903	981.126	.1
283.15	.145154	976.001	.1
283.15	.184444	967.807	.1
283.15	.212076	960.275	.1
283.15	.243763	954.343	.1
283.15	.292341	944.589	.1
283.15	.361002	932.627	.1
283.15	.436854	921.019	.1
283.15	.493727	911.932	.1
283.15	.551304	904.655	.1
283.15	.621429	896.914	.1
283.15	.677529	891.266	.1
283.15	.69433	889.59	.1
283.15	.745814	884.839	.1
283.15	.77334	882.976	.1
283.15	.794733	880.664	.1
283.15	.827596	878.228	.1
283.15	.848775	876.201	.1
283.15	.874404	874.608	.1
283.15	.899316	872.317	.1
283.15	.918855	871.084	.1
283.15	.941083	869.403	.1
283.15	.948584	868.869	.1
283.15	.960131	868.041	.1
283.15	.985043	866.322	.1
283.15	1	865.36	.1
288.15	0	999.099	.1
288.15	.000108	999.073	.1
288.15	.000319	998.997	.1
288.15	.000942	998.755	.1
288.15	.001284	998.623	.1
288.15	.001947	998.367	.1
288.15	.002912	998.003	.1
288.15	.00392	997.639	.1
288.15	.005098	997.245	.1
288.15	.007456	996.459	.1
288.15	.00981	995.782	.1
288.15	.014804	994.495	.1
288.15	.019563	993.456	.1
288.15	.028319	991.899	.1
288.15	.039136	990.361	.1
288.15	.050821	988.889	.1
288.15	.066736	986.858	.1
288.15	.095356	982.292	.1
288.15	.120903	977.267	.1
288.15	.145154	971.617	.1
288.15	.184444	962.845	.1
288.15	.212076	955.87	.1
288.15	.243763	948.987	.1
288.15	.292341	939.953	.1
288.15	.361002	926.801	.1
288.15	.436854	916.153	.1
288.15	.493727	907.295	.1
288.15	.551304	900.039	.1
288.15	.621429	892.186	.1
288.15	.677529	886.402	.1
288.15	.69433	884.998	.1
288.15	.745814	880.089	.1
288.15	.794733	875.868	.1
288.15	.827596	873.43	.1
288.15	.848775	871.511	.1
288.15	.899316	867.858	.1
288.15	.918855	866.306	.1
288.15	.93491	864.955	.1
288.15	.943586	864.338	.1
288.15	.960131	863.267	.1
288.15	.975455	862.192	.1
288.15	.985043	861.525	.1
288.15	1	860.63	.1
293.15	0	998.203	.1
293.15	.000108	998.176	.1
293.15	.000319	998.098	.1
293.15	.000625	997.974	.1
293.15	.000942	997.845	.1
293.15	.001284	997.706	.1
293.15	.001947	997.459	.1
293.15	.002912	997.058	.1
293.15	.00392	996.673	.1
293.15	.005098	996.25	.1
293.15	.00981	994.681	.1
293.15	.014804	993.269	.1
293.15	.019563	992.092	.1
293.15	.028319	990.264	.1
293.15	.039136	988.357	.1
293.15	.050821	986.504	.1
293.15	.066736	983.968	.1
293.15	.095356	978.874	.1
293.15	.120903	973.326	.1
293.15	.145154	967.737	.1
293.15	.184444	958.517	.1
293.15	.212076	951.456	.1
293.15	.243763	944.543	.1
293.15	.292341	935.456	.1
293.15	.361002	922.252	.1
293.15	.436854	911.545	.1
293.15	.493727	902.62	.1
293.15	.551304	895.311	.1
293.15	.621429	887.472	.1
293.15	.677529	881.634	.1
293.15	.69433	880.062	.1
293.15	.745814	875.436	.1
293.15	.77334	873.142	.1
293.15	.794733	871.067	.1
293.15	.827596	868.648	.1
293.15	.874404	864.922	.1
293.15	.899316	862.73	.1
293.15	.918855	861.498	.1
293.15	.941083	859.742	.1
293.15	.948584	859.29	.1
293.15	.961298	858.247	.1
293.15	.974599	857.315	.1
293.15	.987118	856.398	.1
293.15	1	855.715	.1
298.15	0	997.043	.1
298.15	.000108	997.018	.1
298.15	.000319	996.937	.1
298.15	.000625	996.811	.1
298.15	.000942	996.67	.1
298.15	.001284	996.533	.1
298.15	.001947	996.269	.1
298.15	.002912	995.851	.1
298.15	.00392	995.45	.1
298.15	.005098	995.024	.1
298.15	.00981	993.348	.1
298.15	.014804	991.824	.1
298.15	.019563	990.53	.1
298.15	.028319	988.433	.1
298.15	.039136	986.207	.1
298.15	.050821	983.995	.1
298.15	.066736	980.975	.1
298.15	.095356	975.145	.1
298.15	.120903	969.369	.1
298.15	.145154	963.561	.1
298.15	.184444	954.192	.1
298.15	.212076	947.02	.1
298.15	.243763	940.074	.1
298.15	.292341	930.954	.1
298.15	.361002	917.676	.1
298.15	.436854	906.929	.1
298.15	.493727	897.985	.1
298.15	.551304	890.64	.1
298.15	.621429	882.775	.1
298.15	.677529	876.891	.1
298.15	.69433	875.446	.1
298.15	.745814	870.539	.1
298.15	.77334	868.397	.1
298.15	.794733	866.312	.1
298.15	.827596	863.952	.1
298.15	.848775	862.009	.1
298.15	.874404	860.155	.1
298.15	.899316	858.054	.1
298.15	.918855	856.71	.1
298.15	.941083	855.013	.1
298.15	.948584	854.542	.1
298.15	.961298	853.53	.1
298.15	.974599	852.649	.1
298.15	.987118	851.83	.1
298.15	1	851.018	.1
303.15	0	995.643	.1
303.15	.000108	995.609	.1
303.15	.000319	995.522	.1
303.15	.000625	995.392	.1
303.15	.000942	995.256	.1
303.15	.001284	995.106	.1
303.15	.001947	994.822	.1
303.15	.002912	994.409	.1
303.15	.00392	993.991	.1
303.15	.005098	993.55	.1
303.15	.00981	991.796	.1
303.15	.014804	990.144	.1
303.15	.019563	988.708	.1
303.15	.028319	986.387	.1
303.15	.039136	983.868	.1
303.15	.050821	981.31	.1
303.15	.066736	977.903	.1
303.15	.095356	971.645	.1
303.15	.120903	965.331	.1
303.15	.145154	959.341	.1
303.15	.184444	949.751	.1
303.15	.212076	942.563	.1
303.15	.243763	935.55	.1
303.15	.292341	926.38	.1
303.15	.361002	913.059	.1
303.15	.436854	902.254	.1
303.15	.493727	893.262	.1
303.15	.551304	885.906	.1
303.15	.621429	877.992	.1
303.15	.677529	872.12	.1
303.15	.69433	870.586	.1
303.15	.745814	865.744	.1
303.15	.77334	863.589	.1
303.15	.794733	861.557	.1
303.15	.827596	859.105	.1
303.15	.874404	855.327	.1
303.15	.899316	853.46	.1
303.15	.918855	851.896	.1
303.15	.941083	850.2	.1
303.15	.948584	849.691	.1
303.15	.961298	848.739	.1
303.15	.974599	847.719	.1
303.15	.987118	846.839	.1
303.15	1	846.075	.1
