Measured thermophysical data. Study on Thermodynamic Properties of Ionic Liquid N-Butyl-3-methylpyridinium Bis(trifluoromethylsulfonyl)imide
Source: J. Chem. Eng. Data, 2012, 10.1021/je300153f
Compound 1: 1-butyl-3-methylpyridinium bis(trifluoromethylsulfonyl)imide, C12H16F6N2O4S2, purity 99%

System: 1-butyl-3-methylpyridinium bis(trifluoromethylsulfonyl)imide; phases: Glass, Liquid, Air at 1 atmosphere
Property: Triple point temperature, K (Glass); method: DSC/DTA
Triple point temperature, K	uncertainty
190.8	.05

System: 1-butyl-3-methylpyridinium bis(trifluoromethylsulfonyl)imide; phases: Liquid
Fixed: Pressure, kPa = 101.325
Property: Mass density, kg/m3 (Liquid); method: Buoyancy - hydrostatic balance with magnetic suspension - one sinker
Temperature, K	Mass density, kg/m3	uncertainty
278.15	1439.9	.2
283.15	1435.7	.2
288.15	1431.5	.2
293.15	1427.1	.2
298.15	1422.6	.2
303.15	1418.3	.2
308.15	1414.2	.2
313.15	1409.8	.2
318.15	1405.1	.2
323.15	1400.7	.2
328.15	1396.4	.2
333.15	1392.1	.2
338.15	1387.6	.2

System: 1-butyl-3-methylpyridinium bis(trifluoromethylsulfonyl)imide; phases: Liquid, Gas
Property: Surface tension liquid-gas, N/m (Liquid); method: Maximal bubble pressure
Temperature, K	Surface tension liquid-gas, N/m	uncertainty
283.15	.0292	.0001
288.15	.0288	.0001
293.15	.0284	.0001
298.15	.0282	.0001
303.15	.0278	.0001
308.15	.0274	.0001
313.15	.0272	.0001
318.15	.0267	.0001
323.15	.0264	.0001
328.15	.0261	.0001
333.15	.0258	.0001
338.15	.0254	.0001

System: 1-butyl-3-methylpyridinium bis(trifluoromethylsulfonyl)imide; phases: Liquid
Fixed: Pressure, kPa = 101.325
Property: Viscosity, Pa*s (Liquid); method: Capillary tube (Ostwald; Ubbelohde) method
Temperature, K	Viscosity, Pa*s	uncertainty
298.15	.0632	.000632
303.15	.0511	.000511
308.15	.0414	.000414
313.15	.034	.00034
318.15	.0284	.000284
323.15	.0239	.000239
328.15	.0203	.000203
333.15	.0175	.000175
338.15	.0152	.000152
343.15	.013	.00013
348.15	.0113	.000113
353.15	.01	.0001

System: 1-butyl-3-methylpyridinium bis(trifluoromethylsulfonyl)imide; phases: Liquid
Fixed: Pressure, kPa = 101.325
Property: Electrical conductivity, S/m (Liquid); method: MP522 conductivity meter
Temperature, K	Electrical conductivity, S/m	uncertainty
278.15	.1	.001
283.15	.132	.00132
288.15	.172	.00172
293.15	.217	.00217
298.15	.272	.00272
303.15	.335	.00335
308.15	.409	.00409
313.15	.49	.0049
318.15	.576	.00576
323.15	.69	.0069
328.15	.796	.00796
333.15	.91	.0091
338.15	1.031	.01031
343.15	1.16	.0116
348.15	1.296	.01296
353.15	1.437	.01437
