Measured thermophysical data. Properties of Pure 1-Butyl-2,3-dimethylimidazolium Tetrafluoroborate Ionic Liquid and Its Binary Mixtures with Dimethyl Sulfoxide and Acetonitrile
Source: J. Chem. Eng. Data, 2012, 10.1021/je3007474
Compound 1: 1-n-butyl-2,3-dimethylimidazolium tetrafluoroborate, C9H17N2BF4, purity 99.8%
Compound 2: dimethyl sulphoxide, C2H6OS, purity 99.9%
Compound 3: methanecarbonitrile, C2H3N, purity 99.5%

System: 1-n-butyl-2,3-dimethylimidazolium tetrafluoroborate; phases: Liquid
Property: Mass density, kg/m3 (Liquid); method: Vibrating tube method
Temperature, K	Pressure, kPa	Mass density, kg/m3	uncertainty
298.15	101	1193.19	.00005
303.15	101	1189.8	.00005
313.15	101	1183.02	.00005
323.15	101	1176.38	.00005
333.15	101	1169.82	.00005
343.15	101	1163.26	.00005
353.15	101	1156.71	.00005

System: 1-n-butyl-2,3-dimethylimidazolium tetrafluoroborate; phases: Liquid
Property: Viscosity, Pa*s (Liquid); method: Falling or rolling sphere viscometry
Temperature, K	Pressure, kPa	Viscosity, Pa*s	uncertainty
298.15	101	.65	.00325
303.15	101	.447	.002235
313.15	101	.2329	.0011645
323.15	101	.1328	.000664
333.15	101	.08153	.00040765
343.15	101	.05399	.00026995
353.15	101	.03713	.00018565

System: dimethyl sulphoxide; phases: Liquid
Property: Mass density, kg/m3 (Liquid); method: Vibrating tube method
Temperature, K	Pressure, kPa	Mass density, kg/m3	uncertainty
298.15	101	1095.74	.00005
303.15	101	1090.73	.00005
313.15	101	1080.69	.00005
323.15	101	1070.66	.00005
333.15	101	1060.63	.00005
343.15	101	1050.58	.00005
353.15	101	1040.51	.00005

System: dimethyl sulphoxide; phases: Liquid
Property: Viscosity, Pa*s (Liquid); method: Falling or rolling sphere viscometry
Temperature, K	Pressure, kPa	Viscosity, Pa*s	uncertainty
298.15	101	.002012	.00001006
303.15	101	.001843	.000009215
313.15	101	.001556	.00000778
323.15	101	.001337	.000006685
333.15	101	.001165	.000005825
343.15	101	.001028	.00000514
353.15	101	.000917	.000004585

System: methanecarbonitrile; phases: Liquid
Property: Mass density, kg/m3 (Liquid); method: Vibrating tube method
Temperature, K	Pressure, kPa	Mass density, kg/m3	uncertainty
298.15	101	776.55	.00005
303.15	101	771.13	.00005
313.15	101	760.18	.00005
323.15	101	749.11	.00005
333.15	101	737.86	.00005
343.15	101	726.43	.00005

System: methanecarbonitrile; phases: Liquid
Property: Viscosity, Pa*s (Liquid); method: Falling or rolling sphere viscometry
Temperature, K	Pressure, kPa	Viscosity, Pa*s	uncertainty
298.15	101	.00037	.00000185
303.15	101	.000354	.00000177
313.15	101	.000327	.000001635
323.15	101	.000302	.00000151
333.15	101	.000281	.000001405
343.15	101	.000262	.00000131

System: dimethyl sulphoxide + 1-n-butyl-2,3-dimethylimidazolium tetrafluoroborate; phases: Liquid
Fixed: Pressure, kPa = 101
Property: Mass density, kg/m3 (Liquid); method: Vibrating tube method
Temperature, K	Mole fraction of 1-n-butyl-2,3-dimethylimidazolium tetrafluoroborate	Mass density, kg/m3	uncertainty
298.15	0	1095.74	.00005
298.15	.138	1128.27	.00005
298.15	.2292	1142.83	.00005
298.15	.3151	1153.4	.00005
298.15	.4079	1162.44	.00005
298.15	.5334	1172.17	.00005
298.15	.6374	1178.33	.00005
298.15	.7004	1181.74	.00005
298.15	.7952	1185.94	.00005
298.15	.8785	1189.03	.00005
298.15	1	1193.19	.00005
303.15	0	1090.73	.00005
303.15	.138	1123.85	.00005
303.15	.2292	1138.65	.00005
303.15	.3151	1149.37	.00005
303.15	.4079	1158.58	.00005
303.15	.5334	1168.48	.00005
303.15	.6374	1174.75	.00005
303.15	.7004	1178.22	.00005
303.15	.7952	1182.45	.00005
303.15	.8785	1185.53	.00005
303.15	1	1189.8	.00005
313.15	0	1080.69	.00005
313.15	.138	1115.07	.00005
313.15	.2292	1130.35	.00005
313.15	.3151	1141.4	.00005
313.15	.4079	1150.89	.00005
313.15	.5334	1161.12	.00005
313.15	.6374	1167.61	.00005
313.15	.7004	1171.2	.00005
313.15	.7952	1175.55	.00005
313.15	.8785	1178.68	.00005
313.15	1	1183.02	.00005
323.15	0	1070.66	.00005
323.15	.138	1106.3	.00005
323.15	.2292	1122.07	.00005
323.15	.3151	1133.47	.00005
323.15	.4079	1143.24	.00005
323.15	.5334	1153.77	.00005
323.15	.6374	1160.48	.00005
323.15	.7004	1164.2	.00005
323.15	.7952	1168.71	.00005
323.15	.8785	1171.96	.00005
323.15	1	1176.38	.00005
333.15	0	1060.63	.00005
333.15	.138	1097.56	.00005
333.15	.2292	1113.83	.00005
333.15	.3151	1125.56	.00005
333.15	.4079	1135.62	.00005
333.15	.5334	1146.46	.00005
333.15	.6374	1153.38	.00005
333.15	.7004	1157.22	.00005
333.15	.7952	1161.88	.00005
333.15	.8785	1165.23	.00005
333.15	1	1169.82	.00005
343.15	0	1050.58	.00005
343.15	.138	1088.84	.00005
343.15	.2292	1105.61	.00005
343.15	.3151	1117.7	.00005
343.15	.4079	1128.03	.00005
343.15	.5334	1139.19	.00005
343.15	.6374	1146.31	.00005
343.15	.7004	1150.26	.00005
343.15	.7952	1155.06	.00005
343.15	.8785	1158.52	.00005
343.15	1	1163.26	.00005
353.15	0	1040.51	.00005
353.15	.138	1080.12	.00005
353.15	.2292	1097.41	.00005
353.15	.3151	1109.86	.00005
353.15	.4079	1120.49	.00005
353.15	.5334	1131.96	.00005
353.15	.6374	1139.27	.00005
353.15	.7004	1143.34	.00005
353.15	.7952	1148.27	.00005
353.15	.8785	1151.83	.00005
353.15	1	1156.71	.00005

System: dimethyl sulphoxide + 1-n-butyl-2,3-dimethylimidazolium tetrafluoroborate; phases: Liquid
Fixed: Pressure, kPa = 101
Property: Viscosity, Pa*s (Liquid); method: Falling or rolling sphere viscometry
Temperature, K	Mole fraction of 1-n-butyl-2,3-dimethylimidazolium tetrafluoroborate	Viscosity, Pa*s	uncertainty
298.15	0	.002012	.00001006
298.15	.138	.005197	.000025985
298.15	.2292	.009384	.00004692
298.15	.3151	.0162	.000081
298.15	.4079	.02831	.00014155
298.15	.5334	.06017	.00030085
298.15	.6374	.1083	.0005415
298.15	.7004	.1601	.0008005
298.15	.8785	.3704	.001852
298.15	1	.65	.00325
303.15	0	.001843	.000009215
303.15	.138	.004594	.00002297
303.15	.2292	.008077	.000040385
303.15	.3151	.01358	.0000679
303.15	.4079	.02332	.0001166
303.15	.5334	.04709	.00023545
303.15	.6374	.08219	.00041095
303.15	.7004	.1194	.000597
303.15	.8785	.2632	.001316
303.15	1	.447	.002235
313.15	0	.001556	.00000778
313.15	.138	.003654	.00001827
313.15	.2292	.006142	.00003071
313.15	.3151	.009873	.000049365
313.15	.4079	.01599	.00007995
313.15	.5334	.03051	.00015255
313.15	.6374	.05032	.0002516
313.15	.7004	.07058	.0003529
313.15	.8785	.1449	.0007245
313.15	1	.2329	.0011645
323.15	0	.001337	.000006685
323.15	.138	.002981	.000014905
323.15	.2292	.004831	.000024155
323.15	.3151	.007481	.000037405
323.15	.4079	.01164	.0000582
323.15	.5334	.02096	.0001048
323.15	.6374	.03305	.00016525
323.15	.7004	.04488	.0002244
323.15	.8785	.08655	.00043275
323.15	1	.1328	.000664
333.15	0	.001165	.000005825
333.15	.138	.00249	.00001245
333.15	.2292	.003906	.00001953
333.15	.3151	.005851	.000029255
333.15	.4079	.008806	.00004403
333.15	.5334	.01518	.0000759
333.15	.6374	.02296	.0001148
333.15	.7004	.0303	.0001515
333.15	.8785	.05564	.0002782
333.15	1	.08153	.00040765
343.15	0	.001028	.00000514
343.15	.138	.002115	.000010575
343.15	.2292	.00323	.00001615
343.15	.3151	.004708	.00002354
343.15	.4079	.006868	.00003434
343.15	.5334	.01146	.0000573
343.15	.6374	.0167	.0000835
343.15	.7004	.02153	.00010765
343.15	.8785	.03774	.0001887
343.15	1	.05399	.00026995
353.15	0	.000917	.000004585
353.15	.138	.001826	.00000913
353.15	.2292	.002724	.00001362
353.15	.3151	.003873	.000019365
353.15	.4079	.005501	.000027505
353.15	.5334	.008897	.000044485
353.15	.6374	.01273	.00006365
353.15	.7004	.01603	.00008015
353.15	.8785	.02675	.00013375
353.15	1	.03713	.00018565

System: methanecarbonitrile + 1-n-butyl-2,3-dimethylimidazolium tetrafluoroborate; phases: Liquid
Fixed: Pressure, kPa = 101
Property: Mass density, kg/m3 (Liquid); method: Vibrating tube method
Temperature, K	Mole fraction of 1-n-butyl-2,3-dimethylimidazolium tetrafluoroborate	Mass density, kg/m3	uncertainty
298.15	0	776.55	.00005
298.15	.1118	919.74	.00005
298.15	.1536	957.71	.00005
298.15	.2247	1008.5	.00005
298.15	.3784	1079.62	.00005
298.15	.4601	1104.79	.00005
298.15	.5515	1127.21	.00005
298.15	.666	1149.45	.00005
298.15	.7581	1163.71	.00005
298.15	.8423	1174.52	.00005
298.15	1	1193.19	.00005
303.15	0	771.13	.00005
303.15	.1118	915.06	.00005
303.15	.1536	953.22	.00005
303.15	.2247	1004.26	.00005
303.15	.3784	1075.69	.00005
303.15	.4601	1100.98	.00005
303.15	.5515	1123.51	.00005
303.15	.666	1145.88	.00005
303.15	.7581	1160.23	.00005
303.15	.8423	1171.09	.00005
303.15	1	1189.8	.00005
313.15	0	760.18	.00005
313.15	.1118	905.7	.00005
313.15	.1536	944.25	.00005
313.15	.2247	995.79	.00005
313.15	.3784	1067.89	.00005
313.15	.4601	1093.41	.00005
313.15	.5515	1116.15	.00005
313.15	.666	1138.75	.00005
313.15	.7581	1153.24	.00005
313.15	.8423	1164.22	.00005
313.15	1	1183.02	.00005
323.15	0	749.11	.00005
323.15	.1118	896.31	.00005
323.15	.1536	935.27	.00005
323.15	.2247	987.34	.00005
323.15	.3784	1060.12	.00005
323.15	.4601	1085.88	.00005
323.15	.5515	1108.85	.00005
323.15	.666	1131.67	.00005
323.15	.7581	1146.32	.00005
323.15	.8423	1157.4	.00005
323.15	1	1176.38	.00005
333.15	0	737.86	.00005
333.15	.1118	886.87	.00005
333.15	.1536	926.27	.00005
333.15	.2247	978.89	.00005
333.15	.3784	1052.37	.00005
333.15	.4601	1078.37	.00005
333.15	.5515	1101.56	.00005
333.15	.666	1124.62	.00005
333.15	.7581	1139.41	.00005
333.15	.8423	1150.59	.00005
333.15	1	1169.82	.00005
343.15	0	726.43	.00005
343.15	.1118	877.39	.00005
343.15	.1536	917.25	.00005
343.15	.2247	970.44	.00005
343.15	.3784	1044.64	.00005
343.15	.4601	1070.89	.00005
343.15	.5515	1094.31	.00005
343.15	.666	1117.6	.00005
343.15	.7581	1132.51	.00005
343.15	.8423	1143.79	.00005
343.15	1	1163.26	.00005

System: methanecarbonitrile + 1-n-butyl-2,3-dimethylimidazolium tetrafluoroborate; phases: Liquid
Fixed: Pressure, kPa = 101
Property: Viscosity, Pa*s (Liquid); method: Falling or rolling sphere viscometry
Temperature, K	Mole fraction of 1-n-butyl-2,3-dimethylimidazolium tetrafluoroborate	Viscosity, Pa*s	uncertainty
298.15	0	.00037	.00000185
298.15	.1118	.001045	.000005225
298.15	.2247	.002637	.000013185
298.15	.3784	.008933	.000044665
298.15	.5515	.0323	.0001615
298.15	.666	.06772	.0003386
298.15	.7581	.1439	.0007195
298.15	.8423	.2414	.001207
298.15	1	.65	.00325
303.15	0	.000354	.00000177
303.15	.1118	.000982	.00000491
303.15	.2247	.002438	.00001219
303.15	.3784	.007746	.00003873
303.15	.5515	.02637	.00013185
303.15	.666	.05292	.0002646
303.15	.7581	.1082	.000541
303.15	.8423	.1763	.0008815
303.15	1	.447	.002235
313.15	0	.000327	.000001635
313.15	.1118	.000873	.000004365
313.15	.2247	.002071	.000010355
313.15	.3784	.005997	.000029985
313.15	.5515	.01833	.00009165
313.15	.666	.03434	.0001717
313.15	.7581	.06514	.0003257
313.15	.8423	.1022	.000511
313.15	1	.2329	.0011645
323.15	0	.000302	.00000151
323.15	.1118	.000783	.000003915
323.15	.2247	.001781	.000008905
323.15	.3784	.004784	.00002392
323.15	.5515	.01336	.0000668
323.15	.666	.02363	.00011815
323.15	.7581	.04226	.0002113
323.15	.8423	.06315	.00031575
323.15	1	.1328	.000664
333.15	0	.000281	.000001405
333.15	.1118	.000714	.00000357
333.15	.2247	.001551	.000007755
333.15	.3784	.003914	.00001957
333.15	.5515	.01011	.00005055
333.15	.666	.01706	.0000853
333.15	.7581	.02889	.00014445
333.15	.8423	.04176	.0002088
333.15	1	.08153	.00040765
343.15	0	.000262	.00000131
343.15	.1118	.000572	.00000286
343.15	.2247	.001369	.000006845
343.15	.3784	.003264	.00001632
343.15	.5515	.007897	.000039485
343.15	.666	.01279	.00006395
343.15	.7581	.0207	.0001035
343.15	.8423	.03	.00015
343.15	1	.05399	.00026995
