Measured thermophysical data. Interaction of Some Aminophosphonic Acids with Urea in Aqueous Solutions at 298.15 K
Source: J. Chem. Eng. Data, 2012, 10.1021/je300167m
Compound 1: aminomethanephosphonic acid, CH6NO3P, purity 99%
Compound 2: phosphonic acid, (1-aminoethyl)-, C2H8NO3P, purity 99%
Compound 3: 1-aminopropanephosphonic acid, C3H10NO3P, purity 99%
Compound 4: urea, CH4N2O, purity 99.5%
Compound 5: water, H2O

System: urea + aminomethanephosphonic acid + water; phases: Liquid
Fixed: Temperature, K = 298.15
Fixed: Pressure, kPa = 101
Property: Molar enthalpy of solution, kJ/mol (Liquid); method: Isoperibol calorimetry
Molality, mol/kg of aminomethanephosphonic acid	Solvent: Molality, mol/kg of urea	Molar enthalpy of solution, kJ/mol	uncertainty
.0008	0	13.35	.1335
.00108	0	13.14	.1314
.001576	0	13.05	.1305
.001851	0	12.97	.1297
.002403	0	12.99	.1299
.003024	0	12.96	.1296
.0034	0	12.9	.129
.001066	.5	12.13	.1213
.001257	.5	12.08	.1208
.001327	.5	12.1	.121
.001505	.5	12.08	.1208
.001804	.5	11.99	.1199
.002004	.5	11.93	.1193
.00301	.5	11.87	.1187
.000945	1	11.1	.111
.001027	1	11.06	.1106
.00113	1	11.01	.1101
.001261	1	11.06	.1106
.001653	1	11.01	.1101
.001696	1	10.99	.1099
.002202	1	10.96	.1096
.00118	1.5	10.92	.1092
.001345	1.5	10.87	.1087
.00156	1.5	10.85	.1085
.001604	1.5	10.86	.1086
.001717	1.5	10.84	.1084
.002278	1.5	10.83	.1083
.00076	2	10.51	.1051
.001127	2	10.5	.105
.001347	2	10.49	.1049
.001358	2	10.49	.1049
.001479	2	10.48	.1048
.001903	2	10.47	.1047
.001138	2.5	10.56	.1056
.001434	2.5	10.46	.1046
.001696	2.5	10.49	.1049
.001788	2.5	10.51	.1051
.001875	2.5	10.46	.1046
.001974	2.5	10.44	.1044
.000756236	3	10.08	.1008
.001230216	3	10.01	.1001
.001231611	3	10	.1
.001319533	3	9.85	.0985
.002104	3	9.74	.0974
.002549	3	9.69	.0969

System: urea + phosphonic acid, (1-aminoethyl)- + water; phases: Liquid
Fixed: Temperature, K = 298.15
Fixed: Pressure, kPa = 101
Property: Molar enthalpy of solution, kJ/mol (Liquid); method: Isoperibol calorimetry
Molality, mol/kg of phosphonic acid, (1-aminoethyl)-	Solvent: Molality, mol/kg of urea	Molar enthalpy of solution, kJ/mol	uncertainty
.001248	0	3.97	.0397
.001261	0	3.95	.0395
.001301	0	3.94	.0394
.001464	0	3.93	.0393
.001517	0	3.94	.0394
.001785	0	3.92	.0392
.001206	.5	2.79	.0279
.001258	.5	2.72	.0272
.001301	.5	2.65	.0265
.001451	.5	2.63	.0263
.001687	.5	2.55	.0255
.001903	.5	2.51	.0251
.000853	1	2.56	.0256
.001073	1	2.29	.0229
.001272	1	2.34	.0234
.001344	1	2.26	.0226
.001528	1	2.23	.0223
.001703	1	2.21	.0221
.001146	1.5	2.39	.0239
.001293	1.5	2.33	.0233
.001352	1.5	2.32	.0232
.001465	1.5	2.29	.0229
.00153	1.5	2.25	.0225
.001785	1.5	2.24	.0224
.001203	2	2.19	.0219
.001217	2	2.19	.0219
.001298	2	2.18	.0218
.001324	2	2.17	.0217
.001374	2	2.17	.0217
.001553	2	2.16	.0216
.001046	2.5	1.84	.0184
.001398	2.5	1.79	.0179
.001428	2.5	1.76	.0176
.001496	2.5	1.77	.0177
.001641	2.5	1.75	.0175
.002036	2.5	1.74	.0174
.001063	3	1.64	.0164
.001258	3	1.61	.0161
.001318	3	1.58	.0158
.001366	3	1.55	.0155
.001449	3	1.59	.0159
.001623	3	1.56	.0156

System: urea + water + 1-aminopropanephosphonic acid; phases: Liquid
Fixed: Temperature, K = 298.15
Fixed: Pressure, kPa = 101
Property: Molar enthalpy of solution, kJ/mol (Liquid); method: Isoperibol calorimetry
Molality, mol/kg of 1-aminopropanephosphonic acid	Solvent: Molality, mol/kg of urea	Molar enthalpy of solution, kJ/mol	uncertainty
.00144	0	-.34	-.0034
.002157	0	-.35	-.0035
.001805	0	-.35	-.0035
.00196	0	-.34	-.0034
.002058	0	-.37	-.0037
.00207	0	-.34	-.0034
.001164	1	-1.29	-.0129
.001365	1	-1.36	-.0136
.001521	1	-1.37	-.0137
.001687	1	-1.7	-.017
.001767	1	-1.41	-.0141
.001849	1	-1.39	-.0139
.000754	2	-1.6	-.016
.00129	2	-1.65	-.0165
.001335	2	-1.68	-.0168
.001367	2	-1.65	-.0165
.001794	2	-1.66	-.0166
.001927	2	-1.72	-.0172
.001147	3	-1.93	-.0193
.001442	3	-1.97	-.0197
.001538	3	-1.95	-.0195
.001659	3	-1.95	-.0195
.001705	3	-1.98	-.0198
.001862	3	-1.97	-.0197
