Measured thermophysical data. Specific Conductivities and Viscosities of 0.1LiNO3 + 0.9[xCH3CONH2 + (1   x)CO(NH2)2] as Functions of Mole Fraction, x, and Temperature
Source: J. Chem. Eng. Data, 2012, 10.1021/je300707j
Compound 1: lithium nitrate, LiNO3, purity 98%
Compound 2: acetamide, C2H5NO, purity 99%
Compound 3: urea, CH4N2O, purity 99.5%

System: urea + acetamide + lithium nitrate; phases: Liquid
Fixed: Pressure, kPa = 101
Property: Mass density, kg/m3 (Liquid); method: Vibrating tube method
Temperature, K	Mole fraction of lithium nitrate	Solvent: Mole fraction of acetamide	Mass density, kg/m3	uncertainty
303.15	.4	.1	1233.7	1.4
313.15	.4	.1	1226.9	1.2
323.15	.4	.1	1219.5	1.3
328.15	.4	.1	1216.1	.1
333.15	.4	.1	1212.6	.5
338.15	.4	.1	1208.9	.1
343.15	.4	.1	1205.1	1.1
283.15	.5	.1	1220.1	.3
293.15	.5	.1	1215.6	.7
303.15	.5	.1	1208.5	1
313.15	.5	.1	1201.7	1.1
323.15	.5	.1	1194.4	.9
328.15	.5	.1	1190.9	1.1
333.15	.5	.1	1187.3	1
338.15	.5	.1	1183.5	1.2
343.15	.5	.1	1180.1	.7
283.15	.55	.1	1209.8	.8
293.15	.55	.1	1201.9	.7
303.15	.55	.1	1195.4	1
313.15	.55	.1	1188.1	1.1
323.15	.55	.1	1180.5	1.3
328.15	.55	.1	1178.1	1.3
333.15	.55	.1	1174.7	1.2
338.15	.55	.1	1171.8	.6
343.15	.55	.1	1167.7	1
283.15	.6	.1	1197.4	1.2
293.15	.6	.1	1190.1	1.1
303.15	.6	.1	1183.1	1.1
313.15	.6	.1	1176.1	1.1
323.15	.6	.1	1169.1	1
328.15	.6	.1	1165.6	1
333.15	.6	.1	1162.1	.9
338.15	.6	.1	1158.4	.6
343.15	.6	.1	1154.9	.7
283.15	.625	.1	1193.3	.5
293.15	.625	.1	1185.5	1
303.15	.625	.1	1178.2	.9
313.15	.625	.1	1171	.9
323.15	.625	.1	1163.8	.8
328.15	.625	.1	1159.9	.6
333.15	.625	.1	1156.4	.8
338.15	.625	.1	1152.8	.8
343.15	.625	.1	1149	.7
283.15	.65	.1	1188.1	1
293.15	.65	.1	1181.3	1
303.15	.65	.1	1174.2	1
313.15	.65	.1	1165.8	1.1
323.15	.65	.1	1159.3	1.2
328.15	.65	.1	1155.8	1.1
333.15	.65	.1	1152.1	.9
338.15	.65	.1	1148.3	1
343.15	.65	.1	1144.8	.9
293.15	.7	.1	1169.1	.6
303.15	.7	.1	1161.7	.5
313.15	.7	.1	1154.4	.5
323.15	.7	.1	1147.2	.5
328.15	.7	.1	1143.5	.5
333.15	.7	.1	1139.8	.6
338.15	.7	.1	1136.1	.6
343.15	.7	.1	1132.4	.5
293.15	.75	.1	1158.8	1.3
303.15	.75	.1	1151.4	1.3
313.15	.75	.1	1144	1
323.15	.75	.1	1137	1.2
328.15	.75	.1	1133.1	1.3
333.15	.75	.1	1129.4	1.3
338.15	.75	.1	1125.7	1
343.15	.75	.1	1122	1
293.15	.65	.2	1235.5	1
303.15	.65	.2	1228.2	.6
313.15	.65	.2	1221	.6
323.15	.65	.2	1214	.9
328.15	.65	.2	1210.4	1
333.15	.65	.2	1206.9	.6
338.15	.65	.2	1203.3	.8
343.15	.65	.2	1199.7	1

System: urea + acetamide + lithium nitrate; phases: Liquid
Fixed: Pressure, kPa = 101
Property: Viscosity, Pa*s (Liquid); method: Capillary tube (Ostwald; Ubbelohde) method
Temperature, K	Mole fraction of lithium nitrate	Solvent: Mole fraction of acetamide	Viscosity, Pa*s	uncertainty
328.15	.1	.4	.0279	.008
333.15	.1	.4	.0228	.008
338.15	.1	.4	.0188	.008
343.15	.1	.4	.0156	.008
348.15	.1	.4	.0132	.008
353.15	.1	.4	.0114	.008
290.15	.1	.5	.2805	.008
293.15	.1	.5	.215	.008
298.15	.1	.5	.1477	.008
303.15	.1	.5	.0998	.008
308.15	.1	.5	.074	.008
313.15	.1	.5	.0553	.008
318.15	.1	.5	.0422	.008
323.15	.1	.5	.032	.008
328.15	.1	.5	.0263	.008
333.15	.1	.5	.0207	.008
338.15	.1	.5	.0176	.008
343.15	.1	.5	.0143	.008
348.15	.1	.5	.0126	.008
353.15	.1	.5	.0108	.008
283.15	.1	.55	.5048	.008
285.15	.1	.55	.4155	.008
288.15	.1	.55	.322	.008
290.15	.1	.55	.2678	.008
293.15	.1	.55	.2064	.008
298.15	.1	.55	.1379	.008
303.15	.1	.55	.0976	.008
308.15	.1	.55	.069	.008
313.15	.1	.55	.0523	.008
318.15	.1	.55	.0398	.008
323.15	.1	.55	.0308	.008
328.15	.1	.55	.0249	.008
333.15	.1	.55	.02	.008
338.15	.1	.55	.0167	.008
343.15	.1	.55	.014	.008
348.15	.1	.55	.0119	.008
353.15	.1	.55	.0103	.008
285.15	.1	.6	.3835	.008
288.15	.1	.6	.2913	.008
290.15	.1	.6	.2439	.008
293.15	.1	.6	.1899	.008
298.15	.1	.6	.1268	.008
303.15	.1	.6	.087	.008
308.15	.1	.6	.0673	.008
313.15	.1	.6	.0481	.008
318.15	.1	.6	.037	.008
323.15	.1	.6	.0292	.008
328.15	.1	.6	.0225	.008
333.15	.1	.6	.0186	.008
338.15	.1	.6	.0152	.008
343.15	.1	.6	.0129	.008
348.15	.1	.6	.0109	.008
353.15	.1	.6	.0094	.008
283.15	.1	.625	.5242	.008
285.15	.1	.625	.4249	.008
288.15	.1	.625	.3165	.008
290.15	.1	.625	.2634	.008
293.15	.1	.625	.2024	.008
298.15	.1	.625	.1344	.008
303.15	.1	.625	.0948	.008
313.15	.1	.625	.0507	.008
323.15	.1	.625	.0299	.008
328.15	.1	.625	.0238	.008
333.15	.1	.625	.0193	.008
338.15	.1	.625	.0159	.008
343.15	.1	.625	.0133	.008
348.15	.1	.625	.0113	.008
353.15	.1	.625	.0098	.008
293.15	.1	.7	.186	.008
298.15	.1	.7	.1194	.008
303.15	.1	.7	.0833	.008
308.15	.1	.7	.0605	.008
313.15	.1	.7	.0447	.008
318.15	.1	.7	.035	.008
323.15	.1	.7	.0274	.008
328.15	.1	.7	.0221	.008
333.15	.1	.7	.0179	.008
338.15	.1	.7	.0148	.008
343.15	.1	.7	.0124	.008
348.15	.1	.7	.0106	.008
353.15	.1	.7	.0091	.008
293.15	.1	.75	.154	.008
298.15	.1	.75	.106	.008
308.15	.1	.75	.0553	.008
318.15	.1	.75	.0339	.008
323.15	.1	.75	.0261	.008
328.15	.1	.75	.0212	.008
333.15	.1	.75	.0172	.008
338.15	.1	.75	.0144	.008
343.15	.1	.75	.0121	.008
348.15	.1	.75	.0103	.008
353.15	.1	.75	.0087	.008
293.15	.2	.65	.6706	.008
298.15	.2	.65	.4234	.008
303.15	.2	.65	.2899	.008
313.15	.2	.65	.144	.008
323.15	.2	.65	.0785	.008
333.15	.2	.65	.0485	.008
338.15	.2	.65	.039	.008
343.15	.2	.65	.0317	.008
348.15	.2	.65	.0263	.008
353.15	.2	.65	.022	.008

System: urea + acetamide + lithium nitrate; phases: Liquid
Fixed: Pressure, kPa = 101
Property: Electrical conductivity, S/m (Liquid); method: Alternating current cell with electrodes
Temperature, K	Mole fraction of lithium nitrate	Solvent: Mole fraction of acetamide	Electrical conductivity, S/m	uncertainty
318.15	.1	.4	.312	.024
323.15	.1	.4	.398	.024
333.15	.1	.4	.582	.024
338.15	.1	.4	.688	.024
343.15	.1	.4	.802	.024
348.15	.1	.4	.925	.024
353.15	.1	.4	1.05	.024
293.15	.1	.5	.069	.024
298.15	.1	.5	.101	.024
303.15	.1	.5	.142	.024
308.15	.1	.5	.194	.024
313.15	.1	.5	.25	.024
318.15	.1	.5	.321	.024
323.15	.1	.5	.4	.024
333.15	.1	.5	.582	.024
338.15	.1	.5	.687	.024
343.15	.1	.5	.803	.024
348.15	.1	.5	.925	.024
353.15	.1	.5	1.05	.024
283.15	.1	.55	.03	.024
285.15	.1	.55	.036	.024
288.15	.1	.55	.047	.024
290.15	.1	.55	.056	.024
293.15	.1	.55	.071	.024
298.15	.1	.55	.103	.024
303.15	.1	.55	.146	.024
308.15	.1	.55	.195	.024
313.15	.1	.55	.254	.024
318.15	.1	.55	.317	.024
323.15	.1	.55	.401	.024
333.15	.1	.55	.577	.024
338.15	.1	.55	.681	.024
343.15	.1	.55	.804	.024
348.15	.1	.55	.915	.024
353.15	.1	.55	1.04	.024
283.15	.1	.6	.031	.024
285.15	.1	.6	.037	.024
288.15	.1	.6	.048	.024
290.15	.1	.6	.057	.024
293.15	.1	.6	.076	.024
298.15	.1	.6	.103	.024
303.15	.1	.6	.15	.024
308.15	.1	.6	.189	.024
313.15	.1	.6	.257	.024
318.15	.1	.6	.31	.024
323.15	.1	.6	.402	.024
328.15	.1	.6	.487	.024
333.15	.1	.6	.576	.024
338.15	.1	.6	.685	.024
343.15	.1	.6	.801	.024
348.15	.1	.6	.916	.024
353.15	.1	.6	1.04	.024
283.15	.1	.625	.031	.024
288.15	.1	.625	.048	.024
290.15	.1	.625	.057	.024
293.15	.1	.625	.072	.024
298.15	.1	.625	.103	.024
303.15	.1	.625	.142	.024
313.15	.1	.625	.246	.024
323.15	.1	.625	.387	.024
333.15	.1	.625	.564	.024
338.15	.1	.625	.665	.024
343.15	.1	.625	.776	.024
348.15	.1	.625	.893	.024
353.15	.1	.625	1.02	.024
283.15	.1	.65	.033	.024
285.15	.1	.65	.039	.024
288.15	.1	.65	.051	.024
290.15	.1	.65	.06	.024
293.15	.1	.65	.076	.024
298.15	.1	.65	.109	.024
303.15	.1	.65	.151	.024
308.15	.1	.65	.199	.024
313.15	.1	.65	.26	.024
318.15	.1	.65	.326	.024
323.15	.1	.65	.407	.024
328.15	.1	.65	.481	.024
333.15	.1	.65	.587	.024
338.15	.1	.65	.688	.024
343.15	.1	.65	.804	.024
348.15	.1	.65	.922	.024
353.15	.1	.65	1.05	.024
283.15	.1	.7	.034	.024
285.15	.1	.7	.041	.024
288.15	.1	.7	.053	.024
290.15	.1	.7	.062	.024
293.15	.1	.7	.079	.024
298.15	.1	.7	.113	.024
303.15	.1	.7	.153	.024
308.15	.1	.7	.203	.024
313.15	.1	.7	.267	.024
318.15	.1	.7	.332	.024
323.15	.1	.7	.411	.024
333.15	.1	.7	.6	.024
338.15	.1	.7	.702	.024
343.15	.1	.7	.819	.024
348.15	.1	.7	.939	.024
353.15	.1	.7	1.07	.024
283.15	.1	.75	.035	.024
285.15	.1	.75	.042	.024
288.15	.1	.75	.055	.024
290.15	.1	.75	.063	.024
293.15	.1	.75	.08	.024
298.15	.1	.75	.116	.024
303.15	.1	.75	.154	.024
308.15	.1	.75	.209	.024
313.15	.1	.75	.264	.024
318.15	.1	.75	.333	.024
323.15	.1	.75	.419	.024
333.15	.1	.75	.605	.024
338.15	.1	.75	.703	.024
343.15	.1	.75	.816	.024
348.15	.1	.75	.937	.024
353.15	.1	.75	1.08	.024
283.15	.2	.65	.015	.024
288.15	.2	.65	.026	.024
293.15	.2	.65	.041	.024
298.15	.2	.65	.062	.024
303.15	.2	.65	.09	.024
313.15	.2	.65	.169	.024
323.15	.2	.65	.284	.024
333.15	.2	.65	.44	.024
338.15	.2	.65	.534	.024
343.15	.2	.65	.634	.024
353.15	.2	.65	.873	.024
