Measured thermophysical data. Solubility Measurements and Saturated Liquid Properties of Ternary Systems (Methane + Decane + Octadecane) at 295 K
Source: J. Chem. Eng. Data, 2012, 10.1021/je300526w
Compound 1: methane, CH4, purity 99.97%
Compound 2: n-decane, C10H22, purity 99%
Compound 3: n-octadecane, C18H38, purity 99%

System: n-decane + n-octadecane; phases: Liquid
Property: Mass density, kg/m3 (Liquid); method: Vibrating tube method
Temperature, K	Pressure, kPa	Mole fraction of n-decane	Mass density, kg/m3	uncertainty
295.1	1000	.5	759.7	.1
295.1	2000	.5	760.4	.1
295.1	3000	.5	761.1	.1
295.1	4000	.5	761.7	.1
295.1	5000	.5	762.4	.1
295.1	6000	.5	763.1	.1
295.1	7000	.5	763.7	.1
295.1	8000	.5	764.4	.1
295.1	9000	.5	765.1	.1
295.1	10000	.5	765.8	.1
295.2	1000	.75	745.7	.1
295.2	2000	.75	746.4	.1
295.2	3000	.75	747.1	.1
295.2	4000	.75	747.9	.1
295.2	5000	.75	748.6	.1
295.2	6000	.75	749.3	.1
295.2	7000	.75	750	.1
295.2	8000	.75	750.7	.1
295.2	9000	.75	751.4	.1
295.2	10000	.75	752.1	.1
295.8	1000	.9	733.9	.1
295.8	2000	.9	734.7	.1
295.8	3000	.9	735.4	.1
295.8	4000	.9	736.2	.1
295.8	5000	.9	736.9	.1
295.8	6000	.9	737.6	.1
295.8	7000	.9	738.4	.1
295.8	8000	.9	739.1	.1
295.8	9000	.9	739.9	.1
295.8	10000	.9	740.6	.1

System: methane + n-decane + n-octadecane; phases: Liquid, Gas
Property: Boiling temperature at pressure P, K (Liquid); method: Ebulliometric method (Recirculating still)
Pressure, kPa	Mole fraction of methane	Mole fraction of n-decane	Boiling temperature at pressure P, K	uncertainty
970	.053	.852	295.7	.1
2060	.106	.804	295.7	.1
2970	.147	.767	295	.1
4010	.186	.733	295.1	.1
4940	.221	.701	295.8	.1
6140	.266	.66	295.8	.1
7110	.299	.631	295.5	.1
8050	.322	.61	295.6	.1
940	.055	.709	294.7	.1
2040	.107	.67	294.8	.1
3040	.15	.638	295	.1
4010	.188	.609	295.1	.1
4960	.227	.58	294.4	.1
5960	.262	.554	294.6	.1
6900	.291	.532	294.7	.1
8010	.325	.506	294.9	.1
990	.059	.47	294.7	.1
2020	.111	.444	294.8	.1
3030	.155	.422	295.7	.1
3990	.19	.405	295.9	.1
5100	.237	.381	295.7	.1
6010	.267	.366	295.7	.1
6940	.296	.352	294.9	.1
7930	.327	.337	295	.1

System: methane + n-decane + n-octadecane; phases: Liquid, Gas
Property: Mass density, kg/m3 (Liquid); method: Vibrating tube method
Pressure, kPa	Mole fraction of methane	Mole fraction of n-decane	Mass density, kg/m3	uncertainty
970	.053	.852	728	1
2060	.106	.804	722	1
2970	.147	.767	718	1
4010	.186	.733	713	1
4940	.221	.701	707	1
6140	.266	.66	700	1
7110	.299	.631	696	1
8050	.322	.61	692	1
940	.055	.709	739	1
2040	.107	.67	734	1
3040	.15	.638	729	1
4010	.188	.609	725	1
4960	.227	.58	721	1
5960	.262	.554	716	1
6900	.291	.532	712	1
8010	.325	.506	707	1
990	.059	.47	753	1
2020	.111	.444	749	1
3030	.155	.422	744	1
3990	.19	.405	740	1
5100	.237	.381	735	1
6010	.267	.366	732	1
6940	.296	.352	729	1
7930	.327	.337	725	1

System: methane + n-decane + n-octadecane; phases: Liquid, Gas
Property: Viscosity, Pa*s (Liquid); method: Falling or rolling sphere viscometry
Pressure, kPa	Mole fraction of methane	Mole fraction of n-decane	Viscosity, Pa*s	uncertainty
970	.053	.852	.00105	.0000525
2060	.106	.804	.00098	.000049
2970	.147	.767	.00092	.000046
4010	.186	.733	.00086	.000043
4940	.221	.701	.00081	.0000405
6140	.266	.66	.00073	.0000365
7110	.299	.631	.00069	.0000345
8050	.322	.61	.00064	.000032
940	.055	.709	.00165	.0000825
2040	.107	.67	.00152	.000076
3040	.15	.638	.00142	.000071
4010	.188	.609	.00131	.0000655
4960	.227	.58	.00121	.0000605
5960	.262	.554	.00109	.0000545
6900	.291	.532	.00098	.000049
8010	.325	.506	.00085	.0000425
990	.059	.47	.00216	.000108
2020	.111	.444	.00203	.0001015
3030	.155	.422	.00188	.000094
3990	.19	.405	.00172	.000086
5100	.237	.381	.00159	.0000795
6010	.267	.366	.00143	.0000715
6940	.296	.352	.00131	.0000655
7930	.327	.337	.00122	.000061

System: methane + n-decane + n-octadecane; phases: Liquid, Gas
Property: Mole fraction of methane (Liquid); method: Chromatography
Temperature, K	Pressure, kPa	Mole fraction of n-decane	Mole fraction of methane	uncertainty
295.7	970	.852	.998	.002
295.7	2060	.804	.998	.002
295	2970	.767	.998	.002
295.1	4010	.733	.998	.002
295.8	4940	.701	.998	.002
295.8	6140	.66	.998	.002
295.5	7110	.631	.998	.002
295.6	8050	.61	.998	.002
294.7	940	.709	.998	.002
294.8	2040	.67	.998	.002
295	3040	.638	.998	.002
295.1	4010	.609	.998	.002
294.4	4960	.58	.998	.002
294.6	5960	.554	.998	.002
294.7	6900	.532	.998	.002
294.9	8010	.506	.998	.002
294.7	990	.47	.998	.002
294.8	2020	.444	.998	.002
295.7	3030	.422	.998	.002
295.9	3990	.405	.998	.002
295.7	5100	.381	.998	.002
295.7	6010	.366	.998	.002
294.9	6940	.352	.998	.002
295	7930	.337	.998	.002
