Measured thermophysical data. Liquid Liquid Equilibrium of Some Aliphatic Alcohols + Disodium Tartrate + Water Aqueous Two-Phase Systems at 298.15 K
Source: J. Chem. Eng. Data, 2012, 10.1021/je300533r
Compound 1: propyl alcohol, C3H8O, purity 99.5%
Compound 2: 2-propanol, C3H8O, purity 99.7%
Compound 3: 2-methyl-2-propanol, C4H10O, purity 99%
Compound 4: butan-2-ol, C4H10O, purity 99%
Compound 5: water, H2O, purity 99.9%
Compound 6: sodium tartrate, C4H4Na2O6, purity 99%

System: propyl alcohol + sodium tartrate + water; phases: Liquid mixture 1, Liquid mixture 2
Fixed: Pressure, kPa = 101
Fixed: Temperature, K = 298.15
Property: Mass fraction of sodium tartrate (Liquid mixture 1); method: Titration method
Mass fraction of propyl alcohol	Mass fraction of sodium tartrate	uncertainty
.1207	.1216	.003
.151	.1055	.003
.1859	.0888	.003
.2185	.075	.003
.2627	.0617	.003
.3091	.0509	.003
.3431	.0434	.003
.3688	.0389	.003
.3928	.0338	.003
.4132	.0301	.003
.4246	.0279	.003
.4355	.026	.003
.4469	.0238	.003
.4694	.0213	.003
.4839	.0187	.003
.4978	.0174	.003
.5137	.0152	.003
.5332	.014	.003

System: propyl alcohol + sodium tartrate + water; phases: Liquid
Fixed: Pressure, kPa = 101
Fixed: Temperature, K = 298.15
Property: Refractive index (Na D-line) (Liquid); method: Standard Abbe refractometry
Mass fraction of propyl alcohol	Mass fraction of sodium tartrate	Refractive index (Na D-line)	uncertainty
0	.0401	1.3393	.0002
.007	.0373	1.3395	.0002
.014	.0345	1.3397	.0002
.0191	.0345	1.3401	.0002
.0368	.0312	1.3412	.0002
.0401	.0286	1.3411	.0002
.0421	.0263	1.3411	.0002
.0488	.0233	1.3409	.0002
.0497	.0209	1.3407	.0002
.0549	.0182	1.3408	.0002
.0623	.0159	1.341	.0002
.0733	.0103	1.341	.0002
.0905	.0026	1.3415	.0002
.0949	0	1.3413	.0002

System: propyl alcohol + sodium tartrate + water; phases: Liquid mixture 1, Liquid mixture 2
Fixed: Solvent: Amount ratio of component to other component of binary solvent of sodium tartrate = .00886
Fixed: Pressure, kPa = 101
Property: Mole fraction of sodium tartrate (Liquid mixture 1); method: Titration method
Temperature, K	Mole fraction of sodium tartrate	uncertainty
293.15	.099	.001
298.15	.094	.001
303.15	.089	.001
308.15	.087	.001
313.15	.087	.001
318.15	.087	.001
323.15	.087	.001
328.15	.087	.001

System: propyl alcohol + sodium tartrate + water; phases: Liquid mixture 1, Liquid mixture 2
Property: Mass fraction of sodium tartrate (Liquid mixture 1); method: Titration method
Property: Mass fraction of propyl alcohol (Liquid mixture 2); method: Titration method
Property: Mass fraction of sodium tartrate (Liquid mixture 2); method: Titration method
Temperature, K	Pressure, kPa	Mass fraction of propyl alcohol	Mass fraction of sodium tartrate	uncertainty	Mass fraction of propyl alcohol	uncertainty	Mass fraction of sodium tartrate	uncertainty
298.15	1	.5065	.0154	.002	.1624	.003	.0953	.002
298.15	1	.5499	.0108	.002	.1315	.003	.1219	.002
298.15	1	.6051	.0058	.002	.1129	.003	.1397	.002
298.15	1	.6483	.0026	.002	.0906	.003	.1663	.002
298.15	1	.6811	.001	.002	.061	.003	.205	.002

System: 2-propanol + sodium tartrate + water; phases: Liquid mixture 1, Liquid mixture 2
Fixed: Pressure, kPa = 101
Fixed: Temperature, K = 298.15
Property: Mass fraction of sodium tartrate (Liquid mixture 1); method: Titration method
Mass fraction of 2-propanol	Mass fraction of sodium tartrate	uncertainty
.2397	.1164	.003
.2535	.1063	.003
.2639	.1009	.003
.2717	.0959	.003
.2843	.0884	.003
.2972	.0822	.003
.3119	.0743	.003
.3278	.0671	.003
.3541	.0565	.003
.3707	.0497	.003
.3981	.0408	.003
.4122	.0366	.003
.4292	.0325	.003
.4428	.0291	.003
.4623	.025	.003
.475	.0224	.003
.4918	.0197	.003
.5036	.018	.003
.511	.0165	.003

System: 2-propanol + sodium tartrate + water; phases: Liquid
Fixed: Pressure, kPa = 101
Fixed: Temperature, K = 298.15
Property: Refractive index (Na D-line) (Liquid); method: Standard Abbe refractometry
Mass fraction of 2-propanol	Mass fraction of sodium tartrate	Refractive index (Na D-line)	uncertainty
0	.0472	1.34	.0002
.0069	.0439	1.3401	.0002
.0153	.0405	1.3402	.0002
.0187	.0375	1.34	.0002
.0251	.0342	1.3401	.0002
.0316	.0311	1.3401	.0002
.0372	.0277	1.34	.0002
.0434	.0246	1.3401	.0002
.05	.0216	1.3402	.0002
.0557	.0184	1.3401	.0002
.0611	.0153	1.3401	.0002
.0671	.0121	1.3401	.0002
.0736	.0092	1.3402	.0002
.0806	.0061	1.3403	.0002
.0848	.0031	1.3402	.0002

System: 2-propanol + sodium tartrate + water; phases: Liquid mixture 1, Liquid mixture 2
Fixed: Solvent: Amount ratio of component to other component of binary solvent of sodium tartrate = .00885
Fixed: Pressure, kPa = 101
Property: Mole fraction of sodium tartrate (Liquid mixture 1); method: Titration method
Temperature, K	Mole fraction of sodium tartrate	uncertainty
293.15	.144	.001
298.15	.148	.001
303.15	.15	.001
308.15	.151	.001
313.15	.154	.001
318.15	.153	.001
323.15	.151	.001
328.15	.148	.001

System: 2-propanol + sodium tartrate + water; phases: Liquid mixture 1, Liquid mixture 2
Property: Mass fraction of sodium tartrate (Liquid mixture 1); method: Titration method
Property: Mass fraction of 2-propanol (Liquid mixture 2); method: Titration method
Property: Mass fraction of sodium tartrate (Liquid mixture 2); method: Titration method
Temperature, K	Pressure, kPa	Mass fraction of 2-propanol	Mass fraction of sodium tartrate	uncertainty	Mass fraction of 2-propanol	uncertainty	Mass fraction of sodium tartrate	uncertainty
298.15	1	.4487	.0252	.002	.1131	.003	.1909	.002
298.15	1	.4893	.0193	.002	.0947	.003	.2074	.002
298.15	1	.5346	.0132	.002	.0799	.003	.2297	.002

System: 2-methyl-2-propanol + sodium tartrate + water; phases: Liquid mixture 1, Liquid mixture 2
Fixed: Pressure, kPa = 101
Fixed: Temperature, K = 298.15
Property: Mass fraction of sodium tartrate (Liquid mixture 1); method: Titration method
Mass fraction of 2-methyl-2-propanol	Mass fraction of sodium tartrate	uncertainty
.0717	.1474	.003
.0846	.1335	.003
.0992	.1209	.003
.1231	.103	.003
.1377	.0939	.003
.1534	.0855	.003
.1758	.0751	.003
.1964	.0676	.003
.2231	.0583	.003
.2474	.0517	.003
.2717	.0455	.003
.2979	.0401	.003
.3189	.0364	.003
.3377	.0332	.003
.3559	.0307	.003
.3782	.0277	.003
.3956	.025	.003
.4136	.0224	.003
.429	.0203	.003
.4483	.0177	.003
.4657	.016	.003

System: 2-methyl-2-propanol + sodium tartrate + water; phases: Liquid
Fixed: Pressure, kPa = 101
Fixed: Temperature, K = 298.15
Property: Refractive index (Na D-line) (Liquid); method: Standard Abbe refractometry
Mass fraction of 2-methyl-2-propanol	Mass fraction of sodium tartrate	Refractive index (Na D-line)	uncertainty
0	.0472	1.3403	.0002
.007	.0439	1.3404	.0002
.0131	.0407	1.3406	.0002
.0194	.0374	1.3408	.0002
.0258	.0341	1.3409	.0002
.0318	.0311	1.341	.0002
.0379	.0276	1.3411	.0002
.0447	.0248	1.3413	.0002
.051	.0215	1.3414	.0002
.0563	.0184	1.3415	.0002
.0613	.0154	1.3414	.0002
.067	.0122	1.3416	.0002
.0738	.0092	1.3419	.0002
.0796	.0061	1.3416	.0002
.0904	.0033	1.3426	.0002
.0909	.0021	1.3423	.0002
.0971	0	1.3426	.0002

System: 2-methyl-2-propanol + sodium tartrate + water; phases: Liquid mixture 1, Liquid mixture 2
Fixed: Solvent: Amount ratio of component to other component of binary solvent of sodium tartrate = .00886
Fixed: Pressure, kPa = 101
Property: Mole fraction of sodium tartrate (Liquid mixture 1); method: Titration method
Temperature, K	Mole fraction of sodium tartrate	uncertainty
293.15	.069	.001
298.15	.061	.001
303.15	.055	.001
308.15	.049	.001
313.15	.044	.001
318.15	.042	.001
323.15	.038	.001
328.15	.035	.001

System: 2-methyl-2-propanol + sodium tartrate + water; phases: Liquid mixture 1, Liquid mixture 2
Property: Mass fraction of sodium tartrate (Liquid mixture 1); method: Titration method
Property: Mass fraction of 2-methyl-2-propanol (Liquid mixture 2); method: Titration method
Property: Mass fraction of sodium tartrate (Liquid mixture 2); method: Titration method
Temperature, K	Pressure, kPa	Mass fraction of 2-methyl-2-propanol	Mass fraction of sodium tartrate	uncertainty	Mass fraction of 2-methyl-2-propanol	uncertainty	Mass fraction of sodium tartrate	uncertainty
298.15	1	.5508	.0083	.002	.1517	.003	.0835	.002
298.15	1	.5796	.0072	.002	.1395	.003	.0919	.002
298.15	1	.5942	.0067	.002	.121	.003	.1061	.002
298.15	1	.6193	.0055	.002	.0984	.003	.125	.002
298.15	1	.6428	.0043	.002	.0793	.003	.1415	.002
298.15	1	.6772	.0037	.002	.0562	.003	.1679	.002

System: butan-2-ol + sodium tartrate + water; phases: Liquid mixture 1, Liquid mixture 2
Fixed: Pressure, kPa = 101
Fixed: Temperature, K = 298.15
Property: Mass fraction of sodium tartrate (Liquid mixture 1); method: Titration method
Mass fraction of butan-2-ol	Mass fraction of sodium tartrate	uncertainty
.0314	.1698	.003
.0347	.1565	.003
.0393	.141	.003
.0433	.129	.003
.0484	.1158	.003
.0538	.1036	.003
.0611	.089	.003
.0676	.0782	.003
.0724	.0706	.003
.0794	.0611	.003
.0864	.0526	.003
.0906	.0484	.003
.1003	.0386	.003
.1083	.0315	.003
.1146	.0272	.003
.119	.0242	.003
.1281	.0183	.003
.1244	.0206	.003
.1329	.016	.003
.1354	.0141	.003
.1406	.0121	.003
.146	.0091	.003
.1487	.0083	.003

System: butan-2-ol + sodium tartrate + water; phases: Liquid
Fixed: Pressure, kPa = 101
Fixed: Temperature, K = 298.15
Property: Refractive index (Na D-line) (Liquid); method: Standard Abbe refractometry
Mass fraction of butan-2-ol	Mass fraction of sodium tartrate	Refractive index (Na D-line)	uncertainty
0	.0452	1.3404	.0002
.0062	.044	1.3407	.0002
.0128	.0407	1.3408	.0002
.019	.0373	1.3409	.0002
.0288	.0341	1.3416	.0002
.0318	.0311	1.3411	.0002
.0371	.0279	1.3412	.0002
.0438	.0248	1.3415	.0002
.0493	.0216	1.3417	.0002
.0561	.0185	1.3418	.0002
.0622	.0153	1.342	.0002
.08	.0061	1.3421	.0002
.0857	.0031	1.3422	.0002
.0909	.0015	1.3424	.0002
.0982	0	1.3431	.0002

System: butan-2-ol + sodium tartrate + water; phases: Liquid mixture 1, Liquid mixture 2
Fixed: Solvent: Amount ratio of component to other component of binary solvent of sodium tartrate = .00885
Fixed: Pressure, kPa = 101
Property: Mole fraction of sodium tartrate (Liquid mixture 1); method: Titration method
Temperature, K	Mole fraction of sodium tartrate	uncertainty
293.15	.027	.001
298.15	.024	.001
303.15	.024	.001
308.15	.022	.001
313.15	.021	.001
318.15	.02	.001
323.15	.02	.001
328.15	.02	.001

System: butan-2-ol + sodium tartrate + water; phases: Liquid mixture 1, Liquid mixture 2
Property: Mass fraction of sodium tartrate (Liquid mixture 1); method: Titration method
Property: Mass fraction of butan-2-ol (Liquid mixture 2); method: Titration method
Property: Mass fraction of sodium tartrate (Liquid mixture 2); method: Titration method
Temperature, K	Pressure, kPa	Mass fraction of butan-2-ol	Mass fraction of sodium tartrate	uncertainty	Mass fraction of butan-2-ol	uncertainty	Mass fraction of sodium tartrate	uncertainty
298.15	1	.732	.001	.002	.1196	.003	.0283	.002
298.15	1	.7566	.0005	.002	.0996	.003	.0488	.002
298.15	1	.779	.0006	.002	.0792	.003	.0673	.002
298.15	1	.7821	.0008	.002	.0704	.003	.0852	.002
298.15	1	.7948	.0006	.002	.0537	.003	.1167	.002
298.15	1	.803	.0007	.002	.0387	.003	.1428	.002

System: sodium tartrate + water; phases: Liquid
Property: Refractive index (Na D-line) (Liquid); method: Standard Abbe refractometry
Mass fraction of sodium tartrate	Pressure, kPa	Temperature, K	Refractive index (Na D-line)	uncertainty
.0401	101	298.15	1.3393	.0002
.0472	101	298.15	1.34	.0002
.0472	101	298.15	1.3403	.0002
.0452	101	298.15	1.3404	.0002

System: propyl alcohol + water; phases: Liquid
Property: Refractive index (Na D-line) (Liquid); method: Standard Abbe refractometry
Mass fraction of propyl alcohol	Pressure, kPa	Temperature, K	Refractive index (Na D-line)	uncertainty
.0949	101	298.15	1.3413	.0002

System: 2-methyl-2-propanol + water; phases: Liquid
Property: Refractive index (Na D-line) (Liquid); method: Standard Abbe refractometry
Mass fraction of 2-methyl-2-propanol	Pressure, kPa	Temperature, K	Refractive index (Na D-line)	uncertainty
.0971	101	298.15	1.3426	.0002

System: butan-2-ol + water; phases: Liquid
Property: Refractive index (Na D-line) (Liquid); method: Standard Abbe refractometry
Mass fraction of butan-2-ol	Pressure, kPa	Temperature, K	Refractive index (Na D-line)	uncertainty
.0982	101	298.15	1.3431	.0002
