Measured thermophysical data. Experiment and Correlation of Vapor Liquid Equilibrium of Aqueous Solutions of Hydrophilic Ionic Liquids: 1-Ethyl-3-methylimidazolium Acetate and 1-Hexyl-3-methylimidazolium Chloride
Source: J. Chem. Eng. Data, 2012, 10.1021/je3001987
Compound 1: 1-ethyl-3-methylimidazolium acetate, C8H14N2O2, purity 99.5%
Compound 2: 1-hexyl-3-methylimidazolium chloride, C10H19ClN2, purity 99.5%
Compound 3: water, H2O, purity 99.9%

System: water + 1-ethyl-3-methylimidazolium acetate; phases: Liquid, Gas
Property: Vapor or sublimation pressure, kPa (Liquid); method: Closed cell (Static) method
Temperature, K	Mole fraction of 1-ethyl-3-methylimidazolium acetate	Vapor or sublimation pressure, kPa	uncertainty
283.15	.768	.215	.04
293.13	.768	.236	.04
303.17	.768	.261	.04
313.19	.768	.319	.04
323.13	.768	.409	.04
333.15	.768	.556	.04
343.12	.768	.776	.04
353.11	.768	1.101	.04
363.09	.768	1.514	.04
373.12	.768	2.066	.04
383.15	.768	2.735	.04
393.14	.768	3.686	.04
403.17	.768	4.849	.04
283.18	.581	.287	.04
293.15	.581	.335	.04
303.17	.581	.398	.04
313.12	.581	.527	.04
323.18	.581	.758	.04
333.16	.581	1.092	.04
343.17	.581	1.579	.04
353.19	.581	2.35	.04
363.11	.581	3.29	.04
373.15	.581	4.929	.04
383.11	.581	6.864	.04
393.14	.581	9.724	.04
403.08	.581	13.309	.04
283.16	.39	.404	.04
293.14	.39	.529	.04
303.15	.39	.749	.04
313.12	.39	1.131	.04
323.17	.39	1.68	.04
333.13	.39	2.507	.04
343.11	.39	3.83	.04
353.1	.39	5.749	.04
363.14	.39	8.769	.04
373.17	.39	12.634	.04
383.17	.39	18.639	.04
393.11	.39	26.379	.04
403.15	.39	36.958	.04
283.1	.197	.732	.04
293.12	.197	1.348	.04
303.15	.197	2.138	.04
313.12	.197	3.597	.04
323.14	.197	5.718	.04
333.1	.197	9.131	.04
343.19	.197	13.585	.04
353.16	.197	20.164	.04
363.17	.197	29.576	.04
373.15	.197	42.523	.3
383.15	.197	59.886	.3
393.1	.197	78.591	.3
403.14	.197	104.804	.3

System: water + 1-hexyl-3-methylimidazolium chloride; phases: Liquid, Gas
Property: Vapor or sublimation pressure, kPa (Liquid); method: Closed cell (Static) method
Temperature, K	Mole fraction of 1-hexyl-3-methylimidazolium chloride	Vapor or sublimation pressure, kPa	uncertainty
283.15	.768	.298	.04
293.05	.768	.31	.04
303.16	.768	.332	.04
313.15	.768	.371	.04
323.19	.768	.447	.04
333.17	.768	.565	.04
343.11	.768	.749	.04
353.16	.768	1.02	.04
363.17	.768	1.444	.04
373.19	.768	2.049	.04
383.15	.768	2.953	.04
393.17	.768	4.08	.04
403.15	.768	5.778	.04
413.17	.768	7.927	.04
423.14	.768	11.759	.04
283.18	.581	.477	.04
293.11	.581	.529	.04
303.14	.581	.634	.04
313.16	.581	.773	.04
323.12	.581	1.013	.04
333.14	.581	1.357	.04
343.16	.581	2.024	.04
353.12	.581	2.976	.04
363.14	.581	4.31	.04
373.15	.581	6.34	.04
383.13	.581	9.202	.04
393.17	.581	12.913	.04
403.18	.581	17.553	.04
413.14	.581	24.542	.04
423.15	.581	33.622	.04
283.19	.391	.695	.04
293.11	.391	.903	.04
303.15	.391	1.297	.04
313.16	.391	1.865	.04
323.17	.391	2.883	.04
333.18	.391	4.382	.04
343.11	.391	6.717	.04
353.13	.391	10.303	.04
363.17	.391	15.348	.04
373.1	.391	21.865	.04
383.1	.391	31.293	.04
393.08	.391	43.318	.3
403.15	.391	59.763	.3
413.14	.391	83.081	.3
423.16	.391	114.734	.3
283.18	.197	1.052	.04
293.12	.197	1.807	.04
303.11	.197	3.067	.04
313.18	.197	4.863	.04
323.16	.197	7.824	.04
333.14	.197	12.084	.04
343.11	.197	18.772	.04
353.1	.197	28.465	.04
363.12	.197	41.169	.3
373.1	.197	59.168	.3
383.05	.197	84.574	.3
393.15	.197	116.316	.3
403.11	.197	158.814	.3
413.17	.197	204.098	.3
423.13	.197	262.796	.3
