Measured thermophysical data. Amoxicillin Solubility and Supercritical Carbon Dioxide
Source: J. Chem. Eng. Data, 2012, 10.1021/je3006826
Compound 1: amoxicillin, C16H19N3O5S, purity 96.8%
Compound 2: carbon dioxide, CO2, purity 99.8%

System: carbon dioxide + amoxicillin; phases: Fluid (supercritical or subcritical phases), Crystal
Property: Mole fraction of amoxicillin (Fluid (supercritical or subcritical phases)); method: Gravimetric plus Gas Volume
Pressure, kPa	Temperature, K	Mole fraction of amoxicillin	uncertainty
16000	308.15	.000011	
20000	308.15	.0000246	
24000	308.15	.0000425	
28000	308.15	.0000696	
32000	308.15	.000104	
36000	308.15	.000151	
40000	308.15	.000204	
16000	318.15	.0000152	
20000	318.15	.0000495	
24000	318.15	.000112	
28000	318.15	.000204	
32000	318.15	.000351	
36000	318.15	.000521	
40000	318.15	.000827	
16000	328.15	.0000147	
20000	328.15	.0000824	
24000	328.15	.000251	
28000	328.15	.000524	
32000	328.15	.001	
36000	328.15	.00162	
40000	328.15	.0025	
16000	338.15	.0000108	
20000	338.15	.000109	
24000	338.15	.000447	
28000	338.15	.00119	
32000	338.15	.00247	
36000	338.15	.00443	
40000	338.15	.00723	
