Measured thermophysical data. Experimental Measurement and Modeling of Ternary Vapor Liquid Equilibrium for Water + 1-Propanol + 1-Butyl-3-methylimidazolium Chloride
Source: J. Chem. Eng. Data, 2013, 10.1021/je3007502
Compound 1: water, H2O
Compound 2: propan-1-ol, C3H8O, purity 99.5%
Compound 3: 1-butyl-3-methylimidazolium chloride, C8H15ClN2

System: propan-1-ol + water + 1-butyl-3-methylimidazolium chloride; phases: Gas, Liquid
Property: Mole fraction of propan-1-ol (Gas); method: Chromatography
Solvent: Mole fraction of propan-1-ol	Mass fraction of 1-butyl-3-methylimidazolium chloride	Pressure, kPa	Mole fraction of propan-1-ol	uncertainty
.1001	.799	29.23	.3155	.003155
.0998	.7	30.18	.3163	.003163
.0998	.6	30.05	.3143	.003143
.0997	.5	41.13	.3227	.003227
.0999	.4	100.52	.3286	.003286
.0998	.3	100.48	.3399	.003399
.0998	.2	100.43	.3584	.003584
.1	.1	100.5	.3694	.003694
.2007	.799	29.49	.4872	.004872
.2005	.7	30.9	.4521	.004521
.2001	.6	30	.4328	.004328
.1998	.5	39.72	.4196	.004196
.1993	.4	100.09	.413	.00413
.2002	.3	100.04	.4054	.004054
.1999	.2	99.76	.395	.00395
.2	.1	99.6	.3864	.003864
.3999	.8	30.07	.6575	.006575
.3989	.7	29.95	.6065	.006065
.3996	.6	30.19	.5772	.005772
.3993	.5	39.95	.5367	.005367
.3999	.4	100.04	.5197	.005197
.4004	.3	99.94	.4941	.004941
.4001	.2	99.94	.4703	.004703
.4	.1	99.97	.4417	.004417
.5955	.801	29.77	.7966	.007966
.6001	.699	28.25	.7662	.007662
.6007	.6	29.47	.7195	.007195
.5994	.5	40.62	.6767	.006767
.5995	.4	100.22	.6318	.006318
.601	.3	100.03	.5946	.005946
.5998	.2	100	.5552	.005552
.5996	.1	99.67	.5185	.005185
.8008	.8	30.35	.9143	.009143
.7984	.7	29.75	.8868	.008868
.7994	.6	28.85	.8555	.008555
.7997	.5	39.47	.8258	.008258
.7999	.4	99.84	.7928	.007928
.7999	.3	99.76	.7631	.007631
.8002	.2	99.76	.7304	.007304
.8004	.1	99.76	.6868	.006868
.9723	.8	30.24	.9899	.009899
.9799	.7	29.99	.9902	.009902
.9802	.6	30	.9854	.009854
.9804	.5	40.64	.9814	.009814
.98	.4	100.06	.9746	.009746
.9802	.3	99.99	.9685	.009685
.98	.2	99.96	.9621	.009621
.9803	.1	99.98	.9522	.009522

System: propan-1-ol + water + 1-butyl-3-methylimidazolium chloride; phases: Liquid, Gas
Property: Boiling temperature at pressure P, K (Liquid); method: Closed cell (Static) method
Solvent: Mole fraction of propan-1-ol	Mass fraction of 1-butyl-3-methylimidazolium chloride	Pressure, kPa	Boiling temperature at pressure P, K	uncertainty
.1001	.799	29.23	366.11	
.0998	.7	30.18	352.67	
.0998	.6	30.05	346.77	
.0997	.5	41.13	347.77	
.0999	.4	100.52	367.12	
.0998	.3	100.48	364.71	
.0998	.2	100.43	362.94	
.1	.1	100.5	362	
.2007	.799	29.49	368.92	
.2005	.7	30.9	354.62	
.2001	.6	30	345.38	
.1998	.5	39.72	346.71	
.1993	.4	100.09	365.71	
.2002	.3	100.04	363.82	
.1999	.2	99.76	362.18	
.2	.1	99.6	361.16	
.3999	.8	30.07	375.44	
.3989	.7	29.95	358.8	
.3996	.6	30.19	348.84	
.3993	.5	39.95	349.24	
.3999	.4	100.04	367.01	
.4004	.3	99.94	364.46	
.4001	.2	99.94	362.44	
.4	.1	99.97	361.17	
.5955	.801	29.77	379.34	
.6001	.699	28.25	363.22	
.6007	.6	29.47	353.17	
.5994	.5	40.62	353.14	
.5995	.4	100.22	371.71	
.601	.3	100.03	367.4	
.5998	.2	100	364	
.5996	.1	99.67	362.06	
.8008	.8	30.35	386.15	
.7984	.7	29.75	368.4	
.7994	.6	28.85	358.91	
.7997	.5	39.47	357.58	
.7999	.4	99.84	376.76	
.7999	.3	99.76	371.21	
.8002	.2	99.76	368.08	
.8004	.1	99.76	365.07	
.9723	.8	30.24	390.94	
.9799	.7	29.99	374.84	
.9802	.6	30	363.23	
.9804	.5	40.64	363.2	
.98	.4	100.06	380.44	
.9802	.3	99.99	376.68	
.98	.2	99.96	373.28	
.9803	.1	99.98	371.21	
