Measured thermophysical data. Measurement and Correlation of ?-Bisabolol Solubility in Near-Critical Carbon Dioxide
Source: J. Chem. Eng. Data, 2013, 10.1021/je301221p
Compound 1: (R*,R*)-.alpha.,4-dimethyl-.alpha.-(4-methyl-3-pentenyl)-3-cyclohexene-1-methanol, C15H26O, purity 97%
Compound 2: carbon dioxide, CO2, purity 99.9%

System: carbon dioxide + (R*,R*)-.alpha.,4-dimethyl-.alpha.-(4-methyl-3-pentenyl)-3-cyclohexene-1-methanol; phases: Gas, Liquid
Property: Mole fraction of (R*,R*)-.alpha.,4-dimethyl-.alpha.-(4-methyl-3-pentenyl)-3-cyclohexene-1-methanol (Gas); method: solute mass and gas volume
Temperature, K	Pressure, kPa	Mole fraction of (R*,R*)-.alpha.,4-dimethyl-.alpha.-(4-methyl-3-pentenyl)-3-cyclohexene-1-methanol	uncertainty
313.2	7000	.000012	.00000084
313.2	7500	.000133	.00000931
313.2	7800	.00016	.0000112
313.2	8000	.000177	.00001239
313.2	8300	.000289	.00002023
313.2	8500	.0011	.000077
313.2	9000	.00276	.0001932
313.2	9500	.00466	.0003262
313.2	10000	.00602	.0004214
313.2	10500	.00745	.0005215
313.2	11000	.00855	.0005985
313.2	11500	.00899	.0006293
323.2	8500	.00012	.0000084
323.2	9000	.000193	.00001351
323.2	9500	.00025	.0000175
323.2	10000	.00065	.0000455
323.2	10500	.00139	.0000973
323.2	11000	.00221	.0001547
323.2	11500	.00362	.0002534
323.2	12000	.0055	.000385
323.2	12500	.00657	.0004599
333.2	10000	.000236	.00001652
333.2	10500	.000267	.00001869
333.2	11000	.000497	.00003479
333.2	11500	.000885	.00006195
333.2	12000	.00131	.0000917
333.2	12500	.00229	.0001603
333.2	13000	.00262	.0001834
333.2	13500	.00364	.0002548
333.2	14000	.00465	.0003255
333.2	14500	.00603	.0004221
