Measured thermophysical data. Building Blocks for Ionic Liquids: Vapor Pressures and Vaporization Enthalpies of 1-(n-Alkyl)-benzimidazoles
Source: J. Chem. Eng. Data, 2012, 10.1021/je300312c
Compound 1: 1-methylbenzimidazole, C8H8N2, purity 99%
Compound 2: 1H-benzimidazole, 1-ethyl-, C9H10N2, purity 99%
Compound 3: 1-propyl-1H-benzimidazole, C10H12N2, purity 99%
Compound 4: 1-butyl-1H-benzimidazole, C11H14N2, purity 99%
Compound 5: 1-pentyl-1H-benzimidazole, C12H16N2, purity 99%

System: 1-methylbenzimidazole; phases: Crystal, Liquid, Air at 1 atmosphere
Property: Normal melting temperature, K (Crystal); method: DSC/DTA
Normal melting temperature, K	uncertainty
333.2	.1

System: 1-methylbenzimidazole; phases: Crystal, Liquid
Property: Molar enthalpy of transition or fusion, kJ/mol (Crystal); method: DSC/DTA
Temperature, K	Molar enthalpy of transition or fusion, kJ/mol	uncertainty
333.2	13.5	.6

System: 1-methylbenzimidazole; phases: Crystal, Gas
Property: Vapor or sublimation pressure, kPa (Crystal); method: Transpiration method
Temperature, K	Vapor or sublimation pressure, kPa	uncertainty
300.7	.0002	.003
303.2	.00026	.00242
305.6	.00034	.00197
308.1	.00046	.00159
311	.00061	.00132
313.7	.00082	.00111
314.2	.00087	.00107
316.7	.00112	.00095
319.6	.00154	.00082
322.5	.00213	.00073
324.5	.00249	.0007
325.5	.0027	.00069
326.9	.00316	.00066

System: 1-methylbenzimidazole; phases: Liquid, Gas
Property: Vapor or sublimation pressure, kPa (Liquid); method: Transpiration method
Temperature, K	Vapor or sublimation pressure, kPa	uncertainty
314.2	.00115	.00093
316.6	.00139	.00086
319	.00172	.00079
321.5	.00209	.00074
324.5	.00278	.00068
326.9	.00332	.00065
329.5	.00402	.00062
331.5	.0046	.00061
334.5	.00598	.00058
335.9	.00673	.00057
336.9	.00709	.00057
337.5	.00742	.00057
339.6	.00868	.00056
341.6	.01014	.00055
344.4	.01267	.00054
347.2	.0155	.00053
349.4	.01858	.00053
351.8	.02168	.00052
354.1	.02462	.00052
354.4	.0258	.00052
356.5	.029	.00052
358.9	.03371	.00051
361.3	.0389	.00051
364	.04752	.00051
366.8	.0558	.00051
368.1	.06162	.00051
369.4	.06627	.00051
372.6	.07877	.00051
374.5	.08885	.00051
376	.09738	.00051

System: 1H-benzimidazole, 1-ethyl-; phases: Liquid, Gas
Property: Vapor or sublimation pressure, kPa (Liquid); method: Transpiration method
Temperature, K	Vapor or sublimation pressure, kPa	uncertainty
328.8	.00273	.00068
331.8	.00334	.00065
334.3	.0041	.00062
336.7	.00481	.0006
339.2	.00591	.00058
341.7	.00714	.00057
343.7	.00826	.00056
346.7	.01029	.00055
349.1	.01206	.00054
351.7	.01365	.00054
353.9	.01678	.00053
356.7	.01954	.00053
358.9	.02439	.00052
361.2	.02801	.00052
363.9	.03343	.00051
366.6	.03948	.00051
368.9	.04573	.00051
372.1	.05679	.00051
375.1	.06706	.00051

System: 1-propyl-1H-benzimidazole; phases: Liquid, Gas
Property: Vapor or sublimation pressure, kPa (Liquid); method: Transpiration method
Temperature, K	Vapor or sublimation pressure, kPa	uncertainty
326.7	.00166	.0008
329.1	.00202	.00075
331.7	.00262	.00069
333.9	.00298	.00067
334.3	.00312	.00066
336.6	.00377	.00063
339.2	.0047	.00061
341.4	.00546	.00059
344.2	.00671	.00057
346.9	.00797	.00056
349.3	.00969	.00055
351.8	.01262	.00054
354.3	.01444	.00053
356.8	.01719	.00053
359.3	.01949	.00053
361.8	.02422	.00052
364.3	.02965	.00052
366.6	.03507	.00051
369.3	.0417	.00051
372.4	.05004	.00051
375.9	.06251	.00051

System: 1-butyl-1H-benzimidazole; phases: Liquid, Gas
Property: Vapor or sublimation pressure, kPa (Liquid); method: Transpiration method
Temperature, K	Vapor or sublimation pressure, kPa	uncertainty
328.3	.00078	.00114
330.3	.00097	.00102
332.3	.00114	.00094
334.3	.0014	.00086
336.5	.00167	.0008
339.2	.00211	.00074
341.7	.00253	.0007
344.3	.00302	.00067
346.7	.00374	.00063
349.2	.00461	.00061
351.7	.00558	.00059
354.4	.00671	.00057
355.6	.00724	.00057
356.7	.00808	.00056
358.7	.00929	.00055
360.6	.01044	.00055
361.7	.01162	.00054
363.6	.01312	.00054
365.6	.01579	.00053
366.6	.01664	.00053
369.1	.01924	.00053
371.6	.02286	.00052
375	.02788	.00052

System: 1-pentyl-1H-benzimidazole; phases: Liquid, Gas
Property: Vapor or sublimation pressure, kPa (Liquid); method: Transpiration method
Temperature, K	Vapor or sublimation pressure, kPa	uncertainty
324.7	.00028	.00229
329.1	.00041	.00172
332	.00054	.00143
335.1	.00073	.00118
338.3	.0009	.00106
341.2	.00118	.00092
342.2	.00124	.0009
344	.00158	.00082
347.3	.00203	.00075
350.1	.00245	.0007
350.3	.00238	.00071
353.2	.00303	.00067
353.3	.00329	.00065
356.2	.00402	.00062
356.6	.00437	.00061
359.4	.00534	.00059
361.7	.00609	.00058
361.7	.0063	.00058
364.3	.00768	.00057
364.3	.0074	.00057
366.7	.00884	.00056
369.7	.0109	.00055
372.8	.0129	.00054
375.8	.01595	.00053
