Measured thermophysical data. Phase Equilibrium in the Aqueous Ternary System NaH2PO4 + CO(NH2)2 + H2O at 298.15 K
Source: J. Chem. Eng. Data, 2013, 10.1021/je3009478
Compound 1: urea, CH4N2O, purity 99%
Compound 2: sodium dihydrogen phosphate anhydrous, H2NaO4P, purity 99%
Compound 3: water, H2O, purity 99.9%

System: urea + sodium dihydrogen phosphate anhydrous + water; phases: Liquid, Crystal of intercomponent compound 1
Fixed: Temperature, K = 298.15
Fixed: Pressure, kPa = 101
Property: Mass fraction of urea (Liquid); method: Titration method
Mass fraction of sodium dihydrogen phosphate anhydrous	Mass fraction of urea	uncertainty
.4908	0	.01
.4648	.042	.01
.4317	.077	.01
.415	.1295	.01
.3931	.1714	.01
.3818	.2096	.01
.3542	.2716	.01
.3455	.3111	.01
.3254	.338	.01
.314	.3483	.01

System: urea + sodium dihydrogen phosphate anhydrous + water; phases: Liquid, Crystal of intercomponent compound 1, Crystal
Fixed: Pressure, kPa = 101
Property: Mass fraction of sodium dihydrogen phosphate anhydrous (Liquid); method: Titration method
Temperature, K	Mass fraction of sodium dihydrogen phosphate anhydrous	uncertainty
298.15	.3087	.01

System: urea + sodium dihydrogen phosphate anhydrous + water; phases: Liquid, Crystal of intercomponent compound 1, Crystal
Fixed: Pressure, kPa = 101
Property: Mass fraction of urea (Liquid); method: Titration method
Temperature, K	Mass fraction of urea	uncertainty
298.15	.3554	.01

System: urea + sodium dihydrogen phosphate anhydrous + water; phases: Liquid, Crystal
Fixed: Pressure, kPa = 101
Fixed: Temperature, K = 298.15
Property: Mass fraction of urea (Liquid); method: Titration method
Mass fraction of sodium dihydrogen phosphate anhydrous	Mass fraction of urea	uncertainty
.3087	.3554	.01
.2918	.378	.01
.2585	.3779	.01
.2222	.4182	.01
.1781	.4655	.01
.1351	.481	.01
.0801	.4935	.01
.0617	.5082	.01
.015	.5323	.01
0	.5387	.01

System: urea + sodium dihydrogen phosphate anhydrous + water; phases: Liquid, Crystal of intercomponent compound 1
Fixed: Pressure, kPa = 101
Fixed: Temperature, K = 298.15
Property: Mass density, kg/m3 (Liquid); method: Pycnometric method
Mass fraction of sodium dihydrogen phosphate anhydrous	Mass density, kg/m3	uncertainty
.4908	1380.7	10
.4648	1360.2	10
.4317	1350.7	10
.415	1354.1	10
.3931	1344.7	10
.3818	1337	10
.3542	1336.1	10
.3455	1333.5	10
.3254	1319	10
.314	1315.4	10

System: urea + sodium dihydrogen phosphate anhydrous + water; phases: Liquid, Crystal
Fixed: Pressure, kPa = 101
Fixed: Temperature, K = 298.15
Property: Mass density, kg/m3 (Liquid); method: Pycnometric method
Mass fraction of sodium dihydrogen phosphate anhydrous	Mass density, kg/m3	uncertainty
.2918	1304.4	10
.2585	1279.4	10
.2222	1248.4	10
.1781	1225.7	10
.1351	1196.4	10
.0801	1164.1	10
.0617	1147.1	10
.015	1122	10
0	1112.8	10

System: urea + sodium dihydrogen phosphate anhydrous + water; phases: Liquid, Crystal, Crystal of intercomponent compound 1
Fixed: Pressure, kPa = 101
Property: Mass density, kg/m3 (Liquid); method: Pycnometric method
Temperature, K	Mass density, kg/m3	uncertainty
298.15	1325.6	10
