Measured thermophysical data. Experimental Measurements of Vapor Liquid Equilibrium Data for the Binary Systems of Methanol + 2-Butyl Acetate, 2-Butyl Alcohol + 2-Butyl Acetate, and Methyl Acetate + 2-Butyl Acetate at 101.33 kPa
Source: J. Chem. Eng. Data, 2013, 10.1021/je400226q
Compound 1: methyl alcohol, CH4O, purity 99.7%
Compound 2: dl-2-butanol, C4H10O, purity 99.7%
Compound 3: methyl acetate, C3H6O2, purity 99.7%
Compound 4: acetic acid, 1-methylpropyl ester, C6H12O2, purity 98.6%

System: methyl alcohol; phases: Liquid, Gas
Property: Vapor or sublimation pressure, kPa (Liquid); method: Ebulliometric method (Recirculating still)
Temperature, K	Vapor or sublimation pressure, kPa	uncertainty
337.65	101.33	.02

System: dl-2-butanol; phases: Liquid, Gas
Property: Vapor or sublimation pressure, kPa (Liquid); method: Ebulliometric method (Recirculating still)
Temperature, K	Vapor or sublimation pressure, kPa	uncertainty
372.35	101.33	.02

System: methyl acetate; phases: Liquid, Gas
Property: Vapor or sublimation pressure, kPa (Liquid); method: Ebulliometric method (Recirculating still)
Temperature, K	Vapor or sublimation pressure, kPa	uncertainty
329.95	101.33	.02

System: acetic acid, 1-methylpropyl ester; phases: Liquid, Gas
Property: Vapor or sublimation pressure, kPa (Liquid); method: Ebulliometric method (Recirculating still)
Temperature, K	Vapor or sublimation pressure, kPa	uncertainty
385.25	101.33	.02

System: methyl alcohol + acetic acid, 1-methylpropyl ester; phases: Gas, Liquid
Fixed: Pressure, kPa = 101.33
Property: Mole fraction of methyl alcohol (Gas); method: Chromatography
Mole fraction of methyl alcohol	Mole fraction of methyl alcohol	uncertainty
0	0	.0002
.0079	.0898	.0002
.0101	.1299	.0002
.0153	.1785	.0002
.0285	.2905	.0002
.0481	.4089	.0002
.0731	.5257	.0002
.0897	.5783	.0002
.0989	.6125	.0002
.1555	.7085	.0002
.252	.7805	.0002
.2812	.7951	.0002
.342	.8163	.0002
.4395	.849	.0002
.5153	.8647	.0002
.572	.885	.0002
.645	.8936	.0002
.7339	.9075	.0002
.7706	.915	.0002
.8422	.9325	.0002
.8831	.9485	.0002
.9186	.9581	.0002
1	1	.0002

System: methyl alcohol + acetic acid, 1-methylpropyl ester; phases: Liquid, Gas
Fixed: Pressure, kPa = 101.33
Property: Boiling temperature at pressure P, K (Liquid); method: Ebulliometric method (Recirculating still)
Mole fraction of methyl alcohol	Boiling temperature at pressure P, K	uncertainty
0	385.25	.05
.0079	382.35	.05
.0101	381.45	.05
.0153	379.3	.05
.0285	375.05	.05
.0481	370.35	.05
.0731	365.6	.05
.0897	362.85	.05
.0989	361.3	.05
.1555	355.7	.05
.252	349.15	.05
.2812	348.05	.05
.342	346.25	.05
.4395	344.53	.05
.5153	343.33	.05
.572	342.03	.05
.645	341.1	.05
.7339	340.5	.05
.7706	339.8	.05
.8422	339.45	.05
.8831	338.97	.05
.9186	338.35	.05
1	337.65	.05

System: dl-2-butanol + acetic acid, 1-methylpropyl ester; phases: Gas, Liquid
Fixed: Pressure, kPa = 101.33
Property: Mole fraction of dl-2-butanol (Gas); method: Chromatography
Mole fraction of dl-2-butanol	Mole fraction of dl-2-butanol	uncertainty
0	0	.0002
.1023	.1867	.0002
.1305	.226	.0002
.2132	.3355	.0002
.2334	.3562	.0002
.2583	.3835	.0002
.3217	.452	.0002
.3363	.4638	.0002
.3768	.4979	.0002
.4116	.5291	.0002
.4485	.5603	.0002
.4974	.6015	.0002
.5743	.6623	.0002
.5973	.6788	.0002
.6499	.7221	.0002
.6914	.7516	.0002
.7431	.7902	.0002
.7701	.8109	.0002
.7996	.8316	.0002
.8377	.8641	.0002
.91	.9222	.0002
.927	.9361	.0002
.9561	.9611	.0002
.9766	.9794	.0002
1	1	.0002

System: dl-2-butanol + acetic acid, 1-methylpropyl ester; phases: Liquid, Gas
Fixed: Pressure, kPa = 101.33
Property: Boiling temperature at pressure P, K (Liquid); method: Ebulliometric method (Recirculating still)
Mole fraction of dl-2-butanol	Boiling temperature at pressure P, K	uncertainty
0	385.25	.05
.1023	382.05	.05
.1305	381.3	.05
.2132	379.45	.05
.2334	379.05	.05
.2583	378.55	.05
.3217	377.6	.05
.3363	377.45	.05
.3768	376.9	.05
.4116	376.5	.05
.4485	376.05	.05
.4974	375.55	.05
.5743	374.95	.05
.5973	374.7	.05
.6499	374.25	.05
.6914	373.95	.05
.7431	373.65	.05
.7701	373.6	.05
.7996	373.35	.05
.8377	373.1	.05
.91	372.9	.05
.927	372.8	.05
.9561	372.7	.05
.9766	372.65	.05
1	372.35	.05

System: methyl acetate + acetic acid, 1-methylpropyl ester; phases: Gas, Liquid
Fixed: Pressure, kPa = 101.33
Property: Mole fraction of methyl acetate (Gas); method: Chromatography
Mole fraction of methyl acetate	Mole fraction of methyl acetate	uncertainty
0	0	.0002
.0122	.0769	.0002
.015	.0955	.0002
.0183	.1135	.0002
.0263	.1578	.0002
.0635	.3215	.0002
.0923	.4135	.0002
.1713	.5911	.0002
.2266	.6795	.0002
.3246	.7792	.0002
.3275	.7828	.0002
.3571	.8035	.0002
.3767	.8175	.0002
.4029	.8286	.0002
.4196	.8392	.0002
.4292	.8485	.0002
.4814	.8755	.0002
.4953	.8805	.0002
.4976	.8828	.0002
.5588	.9065	.0002
.5886	.9179	.0002
.6886	.9455	.0002
.7438	.9565	.0002
.8078	.97	.0002
.8811	.9831	.0002
.9311	.9905	.0002
1	1	.0002

System: methyl acetate + acetic acid, 1-methylpropyl ester; phases: Liquid, Gas
Fixed: Pressure, kPa = 101.33
Property: Boiling temperature at pressure P, K (Liquid); method: Ebulliometric method (Recirculating still)
Mole fraction of methyl acetate	Boiling temperature at pressure P, K	uncertainty
0	385.25	.05
.0122	383.05	.05
.015	382.8	.05
.0183	382.1	.05
.0263	381.05	.05
.0635	376	.05
.0923	372.5	.05
.1713	364.95	.05
.2266	360.8	.05
.3246	354.75	.05
.3275	354.55	.05
.3571	353.1	.05
.3767	352.05	.05
.4029	350.75	.05
.4196	349.9	.05
.4292	349.3	.05
.4814	347.1	.05
.4953	346.3	.05
.4976	346.25	.05
.5588	343.65	.05
.5886	342.65	.05
.6886	338.9	.05
.7438	337.2	.05
.8078	335.25	.05
.8811	333.2	.05
.9311	331.7	.05
1	329.95	.05
