Measured thermophysical data. Fluid Phase Behavior of Nitrogen + Acetone and Oxygen + Acetone by Molecular Simulation, Experiment and the Peng Robinson Equation of State
Source: J. Chem. Eng. Data, 2014, 10.1021/je400691f
Compound 1: nitrogen, N2
Compound 2: acetone, C3H6O

System: acetone + nitrogen; phases: Liquid, Gas
Property: Vapor or sublimation pressure, kPa (Liquid); method: Ebulliometric method (Recirculating still)
Temperature, K	Mole fraction of nitrogen	Vapor or sublimation pressure, kPa	uncertainty
396	.111	11970	70
400	.13	13320	70
400	.34	39260	70
401	.28	32180	70
401	.36	41450	70
402	.13	14350	70
402	.27	30980	70
403	.23	26380	70
404	.32	34310	70
405	.2	22460	70
449	.102	8430	70
449	.13	11200	70
450	.15	12490	70
451	.28	21970	70
453	.24	17860	70
453	.44	18940	70
454	.35	24650	70
455	.38	23510	70
480	.116	9400	70
480	.16	11320	70
480	.19	12310	70
481	.16	11740	70
482	.3	13280	70
483	.22	12760	70
