Measured thermophysical data. Phase Equilibria in Systems with Levulinic Acid and Ethyl Levulinate
Source: J. Chem. Eng. Data, 2014, 10.1021/je400814n
Compound 1: 4-oxopentanoic acid, C5H8O3
Compound 2: water, H2O, purity 99%
Compound 3: ethyl levulinate, C7H12O3, purity 99%
Compound 4: ethanol, C2H6O, purity 99%

System: 4-oxopentanoic acid + water; phases: Liquid, Gas
Fixed: Temperature, K = 333.15
Property: Vapor or sublimation pressure, kPa (Liquid); method: Closed cell (Static) method
Mole fraction of water	Vapor or sublimation pressure, kPa	uncertainty
.038	.49	.25
.07	1.59	.25
.116	3.07	.25
.192	4.77	.25
.233	5.64	.25
.295	7.29	.25
.334	8.37	.25
.379	9.65	.25
.442	11.11	.25
.494	12.15	.25
.552	13.47	.25
.627	14.8	.25
.709	16.15	.25
.819	17.55	.25
.927	18.51	.25
.952	18.83	.25
.908	18.48	.25
.804	17.55	.25
.683	16	.25
.59	14.13	.25
.473	12.08	.25
.334	8.92	.25
.264	6.92	.25
.171	4.28	.25

System: ethyl levulinate + water; phases: Liquid, Gas
Fixed: Temperature, K = 333.15
Property: Vapor or sublimation pressure, kPa (Liquid); method: Closed cell (Static) method
Mole fraction of water	Vapor or sublimation pressure, kPa	uncertainty
.022	1.41	.25
.034	2.89	.25
.047	4.11	.25
.068	5.43	.25
.073	6.09	.25
.08	6.75	.25
.102	8.25	.25
.129	9.4	.25
.142	10.68	.25
.175	12	.25
.188	12.65	.25
.22	14.04	.25
.256	15.6	.25
.309	16.68	.25
.345	18.01	.25
.404	18.83	.25
.471	19.47	.25
.993	19.77	.25
.404	18.83	.25
.309	16.68	.25
.175	12	.25
.073	6.09	.25
.689	19.71	.25

System: ethyl levulinate + water; phases: Liquid mixture 1, Liquid mixture 2
Property: Mole fraction of ethyl levulinate (Liquid mixture 1); method: Chromatography
Pressure, kPa	Temperature, K	Mole fraction of ethyl levulinate	uncertainty
101.325	303.15	.02	.002
101.325	303.15	.021	.002

System: ethyl levulinate + water; phases: Liquid mixture 2, Liquid mixture 1
Property: Mole fraction of ethyl levulinate (Liquid mixture 2); method: Chromatography
Pressure, kPa	Temperature, K	Mole fraction of ethyl levulinate	uncertainty
101.325	303.15	.558	.002
101.325	303.15	.569	.002

System: ethyl levulinate + water; phases: Liquid mixture 1, Liquid mixture 2, Gas
Property: Vapor or sublimation pressure, kPa (Liquid mixture 1); method: Closed cell (Static) method
Temperature, K	Vapor or sublimation pressure, kPa	uncertainty
333.15	19.79	.25

System: ethanol + 4-oxopentanoic acid + water; phases: Liquid, Gas
Fixed: Temperature, K = 333.15
Property: Vapor or sublimation pressure, kPa (Liquid); method: Closed cell (Static) method
Mole fraction of water	Mole fraction of ethanol	Vapor or sublimation pressure, kPa	uncertainty
.041	.096	4.8	.25
.046	.171	9.2	.25
.043	.261	13.91	.25
.04	.358	18.75	.25
.037	.441	23.12	.25
.037	.539	27.61	.25
.035	.633	32.18	.25
.027	.732	36.5	.25
.02	.869	41.28	.25
.013	.938	44.24	.25
.024	.88	41.72	.25
.032	.754	37.14	.25
.039	.585	30.62	.25
.038	.489	25.72	.25
.035	.349	19	.25
.029	.234	12.51	.25
.028	.129	6.57	.25

System: 4-oxopentanoic acid + ethyl levulinate + water; phases: Liquid mixture 2, Liquid mixture 1
Fixed: Pressure, kPa = 1
Fixed: Temperature, K = 303.15
Property: Mole fraction of 4-oxopentanoic acid (Liquid mixture 2); method: Chromatography
Property: Mole fraction of ethyl levulinate (Liquid mixture 1); method: Chromatography
Property: Mole fraction of 4-oxopentanoic acid (Liquid mixture 1); method: Chromatography
Mole fraction of ethyl levulinate	Mole fraction of 4-oxopentanoic acid	uncertainty	Mole fraction of ethyl levulinate	uncertainty	Mole fraction of 4-oxopentanoic acid	uncertainty
.313	.05	.002	.034	.002	.012	.002
.477	.017	.002	.022	.002	.003	.002
.366	.038	.002	.028	.002	.007	.002
.322	.055	.002	.032	.002	.016	.002
.304	.055	.002	.037	.002	.019	.002
.318	.052	.002	.033	.002	.017	.002
.208	.055	.002	.047	.002	.025	.002
.43	.034	.002	.025	.002	.008	.002
.435	.037	.002	.026	.002	.009	.002
.297	.051	.002	.034	.002	.014	.002
.197	.057	.002	.054	.002	.026	.002
.252	.054	.002	.04	.002	.023	.002
.461	.029	.002	.022	.002	.004	.002
.517	.006	.002	.021	.002	.002	.002
.411	.033	.002	.027	.002	.008	.002
.558	0	.002	.02	.002	0	.002
.395	.045	.002	.028	.002	.01	.002

System: ethanol + ethyl levulinate + water; phases: Liquid, Gas
Fixed: Temperature, K = 333.15
Property: Vapor or sublimation pressure, kPa (Liquid); method: Closed cell (Static) method
Mole fraction of ethyl levulinate	Mole fraction of ethanol	Vapor or sublimation pressure, kPa	uncertainty
.956	.031	2.68	.25
.871	.114	9.51	.25
.828	.155	12.05	.25
.786	.193	14.95	.25
.743	.242	17.36	.25
.699	.286	19.96	.25
.652	.336	22.49	.25
.603	.382	25.08	.25
.532	.457	28.09	.25
.444	.544	31.44	.25
.38	.61	33.58	.25
.318	.671	36.12	.25
.222	.769	38.81	.25
.126	.868	41.93	.25
.051	.941	44.24	.25
.038	.955	45.58	.25
.979	.009	1.16	.25
.929	.055	5.04	.25
.906	.081	6.95	.25

System: ethanol + ethyl levulinate + water; phases: Liquid mixture 1, Liquid mixture 2
Fixed: Pressure, kPa = 1
Fixed: Temperature, K = 303.15
Property: Mole fraction of ethanol (Liquid mixture 1); method: Chromatography
Property: Mole fraction of ethyl levulinate (Liquid mixture 2); method: Chromatography
Property: Mole fraction of ethanol (Liquid mixture 2); method: Chromatography
Mole fraction of ethyl levulinate	Mole fraction of ethanol	uncertainty	Mole fraction of ethyl levulinate	uncertainty	Mole fraction of ethanol	uncertainty
.021	0	.002	.569	.002	0	.002
.04	.044	.002	.308	.002	.076	.002
.031	.036	.002	.351	.002	.068	.002
.034	.041	.002	.343	.002	.069	.002
.029	.034	.002	.386	.002	.062	.002
.029	.03	.002	.414	.002	.049	.002
.063	.056	.002	.189	.002	.078	.002
.052	.052	.002	.222	.002	.078	.002
.025	.018	.002	.485	.002	.037	.002
.026	.022	.002	.47	.002	.041	.002
