Measured thermophysical data. Solubilities and Thermodynamic Study of Carbon Tetrachloride in Imidazolium Ionic Liquids at Different Temperatures
Source: J. Chem. Eng. Data, 2014, 10.1021/je4006008
Compound 1: 1-butyl-3-methylimidazolium hexafluorophosphate, C8H15F6N2P
Compound 2: 1-butyl-3-methylimidazolium bis(trifluoromethylsulfonyl)imide, C10H15F6N3O4S2
Compound 3: 1-butyl-3-methylimidazolium dicyanamide, C10H15N5
Compound 4: 1-butyl-3-methylimidazolium tetrafluoroborate, C8H15BF4N2
Compound 5: carbon tetrachloride, CCl4, purity 99.8%

System: carbon tetrachloride + 1-butyl-3-methylimidazolium hexafluorophosphate; phases: Liquid mixture 1, Liquid mixture 2
Fixed: Pressure, kPa = 101
Property: Mole fraction of carbon tetrachloride (Liquid mixture 1); method: gravimetric
Temperature, K	Mole fraction of carbon tetrachloride	uncertainty
298.15	.1261	.0006305
303.15	.1344	.000672
308.15	.14	.0007
310.65	.1519	.0007595
313.15	.1579	.0007895
315.65	.1663	.0008315
318.15	.1723	.0008615

System: carbon tetrachloride + 1-butyl-3-methylimidazolium tetrafluoroborate; phases: Liquid mixture 1, Liquid mixture 2
Fixed: Pressure, kPa = 101
Property: Mole fraction of carbon tetrachloride (Liquid mixture 1); method: gravimetric
Temperature, K	Mole fraction of carbon tetrachloride	uncertainty
298.15	.1618	.000809
303.15	.1729	.0008645
308.15	.1853	.0009265
310.65	.1963	.0009815
313.15	.2042	.001021
315.65	.2123	.0010615
318.15	.2216	.001108

System: carbon tetrachloride + 1-butyl-3-methylimidazolium dicyanamide; phases: Liquid mixture 1, Liquid mixture 2
Fixed: Pressure, kPa = 101
Property: Mole fraction of carbon tetrachloride (Liquid mixture 1); method: gravimetric
Temperature, K	Mole fraction of carbon tetrachloride	uncertainty
298.15	.2792	.001396
303.15	.2888	.001444
308.15	.2955	.0014775
310.65	.3043	.0015215
313.15	.3082	.001541
315.65	.3155	.0015775
318.15	.323	.001615

System: carbon tetrachloride + 1-butyl-3-methylimidazolium bis(trifluoromethylsulfonyl)imide; phases: Liquid mixture 1, Liquid mixture 2
Fixed: Pressure, kPa = 101
Property: Mole fraction of carbon tetrachloride (Liquid mixture 1); method: gravimetric
Temperature, K	Mole fraction of carbon tetrachloride	uncertainty
298.15	.3517	.0017585
303.15	.365	.001825
308.15	.3764	.001882
310.65	.3826	.001913
313.15	.3903	.0019515
315.65	.4004	.002002
318.15	.4116	.002058
