Measured thermophysical data. Measurement of Vapor Liquid Equilibria for the Binary Mixture of Octafluoropropane and Hexafluoropropylene Oxide Containing Octafluorocyclobutane
Source: J. Chem. Eng. Data, 2014, 10.1021/je401123k
Compound 1: octafluoropropane, C3F8, purity 99.9%
Compound 2: octafluorocyclobutane, C4F8, purity 99.9%
Compound 3: hexafluoropropylene oxide, C3F6O, purity 99.8%

System: octafluoropropane; phases: Liquid, Gas
Property: Vapor or sublimation pressure, kPa (Liquid); method: Ebulliometric method (Recirculating still)
Temperature, K	Vapor or sublimation pressure, kPa	uncertainty
263.15	304.8	7
273.15	425.2	7
283.15	580.1	7
293.15	779.6	7
303.15	1026.3	7

System: octafluorocyclobutane; phases: Liquid, Gas
Property: Vapor or sublimation pressure, kPa (Liquid); method: Ebulliometric method (Recirculating still)
Temperature, K	Vapor or sublimation pressure, kPa	uncertainty
263.15	85.4	7
273.15	130.5	7
283.15	190.2	7
293.15	266.1	7
303.15	371.1	7

System: hexafluoropropylene oxide; phases: Liquid, Gas
Property: Vapor or sublimation pressure, kPa (Liquid); method: Ebulliometric method (Recirculating still)
Temperature, K	Vapor or sublimation pressure, kPa	uncertainty
263.15	215.1	7
273.15	309.4	7
283.15	430.1	7
293.15	580.8	7
303.15	771.2	7

System: octafluoropropane + octafluorocyclobutane; phases: Liquid, Gas
Property: Vapor or sublimation pressure, kPa (Liquid); method: Ebulliometric method (Recirculating still)
Mole fraction of octafluoropropane	Temperature, K	Vapor or sublimation pressure, kPa	uncertainty
0	263.15	85.4	7
.0907	263.15	101.1	7
.2468	263.15	123.4	7
.424	263.15	144.8	7
.5609	263.15	168.2	7
.5926	263.15	200.6	7
.7615	263.15	226.2	7
.8177	263.15	242	7
.9861	263.15	291.7	7
.9675	263.15	282.7	7
1	263.15	304.8	7
0	273.15	130.5	7
.1833	273.15	157.2	7
.329	273.15	177.2	7
.4334	273.15	204.1	7
.5296	273.15	224.8	7
.5296	273.15	265.5	7
.6726	273.15	291	7
.7509	273.15	318.5	7
.7979	273.15	345.4	7
.9012	273.15	388.2	7
1	273.15	425.2	7
0	283.15	190.2	7
.0992	283.15	195.1	7
.1808	283.15	213.7	7
.2827	283.15	247.5	7
.3677	283.15	282.7	7
.4658	283.15	314.4	7
.5755	283.15	355.8	7
.6628	283.15	400.6	7
.7129	283.15	439.2	7
.8249	283.15	476.4	7
.8831	283.15	519.2	7
.95	283.15	544.7	7
.9395	283.15	556.4	7
1	283.15	580.1	7
0	293.15	266.1	7
.154	293.15	276.5	7
.2298	293.15	297.2	7
.4024	293.15	339.2	7
.4846	293.15	386.1	7
.5682	293.15	423.4	7
.6245	293.15	477.8	7
.6838	293.15	529.5	7
.8522	293.15	639.9	7
.8954	293.15	697.8	7
1	293.15	779.6	7
0	303.15	371.1	7
.0783	303.15	375.1	7
.1294	303.15	399.2	7
.2669	303.15	452.3	7
.3671	303.15	505.4	7
.4625	303.15	560.6	7
.6307	303.15	700.5	7
.7042	303.15	769.5	7
.7716	303.15	837.1	7
.8507	303.15	890.8	7
1	303.15	1026.3	7

System: octafluoropropane + octafluorocyclobutane; phases: Gas, Liquid
Property: Mole fraction of octafluoropropane (Gas); method: Chromatography
Mole fraction of octafluoropropane	Temperature, K	Mole fraction of octafluoropropane	uncertainty
0	263.15	0	.01
.0907	263.15	.1357	.01
.2468	263.15	.4006	.01
.424	263.15	.56	.01
.5609	263.15	.6698	.01
.5926	263.15	.7632	.01
.7615	263.15	.8438	.01
.8177	263.15	.8914	.01
.9861	263.15	.9975	.01
.9675	263.15	.9849	.01
1	263.15	1	.01
0	273.15	0	.01
.1833	273.15	.3201	.01
.329	273.15	.525	.01
.4334	273.15	.6182	.01
.5296	273.15	.6869	.01
.5296	273.15	.7252	.01
.6726	273.15	.7911	.01
.7509	273.15	.8516	.01
.7979	273.15	.8761	.01
.9012	273.15	.9326	.01
1	273.15	1	.01
0	283.15	0	.01
.0992	283.15	.2315	.01
.1808	283.15	.3209	.01
.2827	283.15	.4913	.01
.3677	283.15	.5915	.01
.4658	283.15	.6735	.01
.5755	283.15	.7281	.01
.6628	283.15	.785	.01
.7129	283.15	.8368	.01
.8249	283.15	.8723	.01
.8831	283.15	.9174	.01
.95	283.15	.9516	.01
.9395	283.15	.96	.01
1	283.15	1	.01
0	293.15	0	.01
.154	293.15	.2032	.01
.2298	293.15	.2966	.01
.4024	293.15	.4602	.01
.4846	293.15	.5668	.01
.5682	293.15	.6528	.01
.6245	293.15	.7142	.01
.6838	293.15	.7671	.01
.8522	293.15	.873	.01
.8954	293.15	.9082	.01
1	293.15	1	.01
0	303.15	0	.01
.0783	303.15	.2507	.01
.1294	303.15	.3318	.01
.2669	303.15	.4394	.01
.3671	303.15	.546	.01
.4625	303.15	.6218	.01
.6307	303.15	.7583	.01
.7042	303.15	.8044	.01
.7716	303.15	.8812	.01
.8507	303.15	.9104	.01
1	303.15	1	.01

System: octafluorocyclobutane + hexafluoropropylene oxide; phases: Liquid, Gas
Property: Vapor or sublimation pressure, kPa (Liquid); method: Ebulliometric method (Recirculating still)
Mole fraction of hexafluoropropylene oxide	Temperature, K	Vapor or sublimation pressure, kPa	uncertainty
0	263.15	85.4	7
.0937	263.15	104.8	7
.1886	263.15	117.9	7
.3255	263.15	128.2	7
.4234	263.15	140	7
.7792	263.15	183.4	7
.8919	263.15	207.5	7
1	263.15	215.1	7
0	273.15	130.5	7
.129	273.15	151	7
.1807	273.15	158.6	7
.2932	273.15	173.1	7
.4377	273.15	204.1	7
.6503	273.15	243.4	7
.8414	273.15	284.8	7
1	273.15	309.4	7
0	283.15	190.2	7
.1331	283.15	214.4	7
.189	283.15	221.3	7
.3996	283.15	262	7
.4982	283.15	284.8	7
.5912	283.15	308.2	7
.8038	283.15	359.2	7
.9167	283.15	406.8	7
1	283.15	430.1	7
0	293.15	266.1	7
.1965	293.15	307.5	7
.3662	293.15	337.9	7
.4439	293.15	359.9	7
.508	293.15	392.3	7
.6652	293.15	424	7
.7059	293.15	458.5	7
.8559	293.15	529.2	7
1	293.15	580.8	7
0	303.15	371.1	7
.1381	303.15	406.1	7
.176	303.15	414.4	7
.3984	303.15	481.3	7
.4633	303.15	522.6	7
.5452	303.15	561.3	7
.7753	303.15	664.7	7
1	303.15	771.2	7

System: octafluorocyclobutane + hexafluoropropylene oxide; phases: Gas, Liquid
Property: Mole fraction of hexafluoropropylene oxide (Gas); method: Chromatography
Mole fraction of hexafluoropropylene oxide	Temperature, K	Mole fraction of hexafluoropropylene oxide	uncertainty
0	263.15	0	.01
.0937	263.15	.1301	.01
.1886	263.15	.2886	.01
.3255	263.15	.4459	.01
.4234	263.15	.5713	.01
.7792	263.15	.8559	.01
.8919	263.15	.9589	.01
1	263.15	1	.01
0	273.15	0	.01
.129	273.15	.2361	.01
.1807	273.15	.318	.01
.2932	273.15	.4526	.01
.4377	273.15	.6276	.01
.6503	273.15	.8033	.01
.8414	273.15	.9265	.01
1	273.15	1	.01
0	283.15	0	.01
.1331	283.15	.2578	.01
.189	283.15	.3521	.01
.3996	283.15	.5975	.01
.4982	283.15	.6847	.01
.5912	283.15	.7602	.01
.8038	283.15	.8845	.01
.9167	283.15	.9713	.01
1	283.15	1	.01
0	293.15	0	.01
.1965	293.15	.315	.01
.3662	293.15	.4639	.01
.4439	293.15	.5544	.01
.508	293.15	.6467	.01
.6652	293.15	.7204	.01
.7059	293.15	.8586	.01
.8559	293.15	.9339	.01
1	293.15	1	.01
0	303.15	0	.01
.1381	303.15	.2933	.01
.176	303.15	.3207	.01
.3984	303.15	.5389	.01
.4633	303.15	.6232	.01
.5452	303.15	.7114	.01
.7753	303.15	.8683	.01
1	303.15	1	.01
