Measured thermophysical data. Vapor Liquid Equilibrium for Ternary and Binary Mixtures of Tetrahydrofuran, Cyclohexane, and 1,2-Propanediol at 101.3 kPa
Source: J. Chem. Eng. Data, 2013, 10.1021/je4004993
Compound 1: tetrahydrofuran, C4H8O, purity 99.5%
Compound 2: cyclohexane, C6H12, purity 99.5%
Compound 3: 1,2-propanediol, C3H8O2, purity 99.5%

System: tetrahydrofuran; phases: Liquid
Fixed: Pressure, kPa = 101.325
Property: Refractive index (Na D-line) (Liquid); method: Standard Abbe refractometry
Temperature, K	Refractive index (Na D-line)	uncertainty
298.15	1.4061	.0002

System: tetrahydrofuran; phases: Liquid
Fixed: Pressure, kPa = 101.325
Property: Mass density, kg/m3 (Liquid); method: Vibrating tube method
Temperature, K	Mass density, kg/m3	uncertainty
298.15	888.6	.2

System: tetrahydrofuran; phases: Liquid, Gas
Property: Vapor or sublimation pressure, kPa (Liquid); method: Ebulliometric method (Recirculating still)
Temperature, K	Vapor or sublimation pressure, kPa	uncertainty
290.03	14.68	.3
292.45	16.28	.3
294.92	18.84	.3
297.35	20.89	.3
299.83	23.05	.3
302.25	25.92	.3
304.72	28.41	.3
307.15	31.35	.3
309.62	34.95	.3
312.05	38.73	.3
314.57	42.19	.3
316.95	46.56	.3
319.43	50.86	.3
321.85	55.6	.3
324.31	61.11	.3
326.75	66.49	.3
329.21	72.47	.3
331.65	78.78	.3
334.15	85.92	.3
336.55	93.33	.3
339.06	100.72	.3
339.15	101.3	.3

System: cyclohexane; phases: Liquid
Fixed: Pressure, kPa = 101.325
Property: Refractive index (Na D-line) (Liquid); method: Standard Abbe refractometry
Temperature, K	Refractive index (Na D-line)	uncertainty
298.15	1.4265	.0002

System: cyclohexane; phases: Liquid
Fixed: Pressure, kPa = 101.325
Property: Mass density, kg/m3 (Liquid); method: Vibrating tube method
Temperature, K	Mass density, kg/m3	uncertainty
298.15	777.9	.2

System: cyclohexane; phases: Liquid, Gas
Property: Vapor or sublimation pressure, kPa (Liquid); method: Ebulliometric method (Recirculating still)
Temperature, K	Vapor or sublimation pressure, kPa	uncertainty
290	8.85	.3
293.19	10.5	.3
296.37	12.14	.3
299.56	13.69	.3
302.74	15.76	.3
305.93	18.19	.3
309.12	20.79	.3
312.3	23.78	.3
315.49	26.79	.3
318.67	30.85	.3
321.86	34.27	.3
325.05	38.6	.3
328.23	43.35	.3
331.42	48.95	.3
334.6	54.55	.3
337.79	60.86	.3
340.98	67.63	.3
344.16	74.58	.3
347.35	82.34	.3
350.53	91.27	.3
353.72	100.58	.3
353.83	101.3	.3

System: 1,2-propanediol; phases: Liquid
Fixed: Pressure, kPa = 101.325
Property: Refractive index (Na D-line) (Liquid); method: Standard Abbe refractometry
Temperature, K	Refractive index (Na D-line)	uncertainty
298.15	1.4335	.0002

System: 1,2-propanediol; phases: Liquid
Fixed: Pressure, kPa = 101.325
Property: Mass density, kg/m3 (Liquid); method: Vibrating tube method
Temperature, K	Mass density, kg/m3	uncertainty
298.15	1042	.2

System: 1,2-propanediol; phases: Liquid, Gas
Property: Vapor or sublimation pressure, kPa (Liquid); method: Ebulliometric method (Recirculating still)
Temperature, K	Vapor or sublimation pressure, kPa	uncertainty
390.26	6.9	.3
393.53	8.3	.3
397.06	9.69	.3
400.59	11.37	.3
404.12	12.67	.3
407.65	14.62	.3
411.18	17.44	.3
414.71	19.97	.3
418.24	22.93	.3
421.77	26.36	.3
425.3	29.7	.3
428.83	34.19	.3
432.36	38.68	.3
435.89	43.9	.3
439.42	49.71	.3
442.95	56.37	.3
446.48	63.53	.3
450.01	71.46	.3
453.54	80.23	.3
457.07	89.6	.3
460.6	100.36	.3
460.87	101.3	.3

System: tetrahydrofuran + cyclohexane; phases: Liquid, Gas
Property: Boiling temperature at pressure P, K (Liquid); method: Ebulliometric method (Recirculating still)
Mole fraction of cyclohexane	Pressure, kPa	Boiling temperature at pressure P, K	uncertainty
0	101.3	339.15	.06
.021	101.3	339.11	.06
.043	101.3	339.08	.06
.058	101.3	339.05	.06
.07	101.3	339.04	.06
.081	101.3	339.04	.06
.111	101.3	339.07	.06
.128	101.3	339.15	.06
.158	101.3	339.19	.06
.22	101.3	339.35	.06
.272	101.3	339.65	.06
.309	101.3	339.81	.06
.339	101.3	340.15	.06
.419	101.3	340.71	.06
.5	101.3	341.51	.06
.579	101.3	342.44	.06
.639	101.3	343.55	.06
.732	101.3	345.51	.06
.799	101.3	346.42	.06
.851	101.3	348.44	.06
.944	101.3	351.31	.06
1	101.3	353.83	.06

System: tetrahydrofuran + cyclohexane; phases: Gas, Liquid
Property: Mole fraction of cyclohexane (Gas); method: Chromatography
Mole fraction of cyclohexane	Pressure, kPa	Mole fraction of cyclohexane	uncertainty
0	101.3	0	.005
.021	101.3	.023	.005
.043	101.3	.04	.005
.058	101.3	.062	.005
.07	101.3	.07	.005
.081	101.3	.078	.005
.111	101.3	.095	.005
.128	101.3	.125	.005
.158	101.3	.15	.005
.22	101.3	.184	.005
.272	101.3	.201	.005
.309	101.3	.245	.005
.339	101.3	.276	.005
.419	101.3	.319	.005
.5	101.3	.379	.005
.579	101.3	.438	.005
.639	101.3	.499	.005
.732	101.3	.577	.005
.799	101.3	.644	.005
.851	101.3	.729	.005
.944	101.3	.875	.005
1	101.3	1	.005

System: 1,2-propanediol + tetrahydrofuran; phases: Liquid, Gas
Property: Boiling temperature at pressure P, K (Liquid); method: Ebulliometric method (Recirculating still)
Mole fraction of tetrahydrofuran	Pressure, kPa	Boiling temperature at pressure P, K	uncertainty
0	101.3	460.87	1.5
.011	101.3	454.04	1.5
.022	101.3	449.32	1.5
.029	101.3	444.75	1.5
.04	101.3	440.35	1.5
.051	101.3	435.13	1.5
.06	101.3	431.1	1.5
.071	101.3	424.27	1.5
.09	101.3	420.18	1.5
.111	101.3	410.83	1.5
.161	101.3	403.69	1.5
.212	101.3	389.53	1.5
.252	101.3	386.94	1.5
.343	101.3	372.07	1.5
.403	101.3	368.31	1.5
.505	101.3	363.71	1.5
.653	101.3	353.1	1.5
.688	101.3	349.31	1.5
.788	101.3	344.63	1.5
.895	101.3	342.08	1.5
.953	101.3	340.39	1.5
1	101.3	339.15	1.5

System: 1,2-propanediol + tetrahydrofuran; phases: Gas, Liquid
Property: Mole fraction of tetrahydrofuran (Gas); method: Chromatography
Mole fraction of tetrahydrofuran	Pressure, kPa	Mole fraction of tetrahydrofuran	uncertainty
0	101.3	0	.007
.011	101.3	.233	.007
.022	101.3	.357	.007
.029	101.3	.457	.007
.04	101.3	.545	.007
.051	101.3	.601	.007
.06	101.3	.667	.007
.071	101.3	.738	.007
.09	101.3	.799	.007
.111	101.3	.853	.007
.161	101.3	.906	.007
.212	101.3	.948	.007
.252	101.3	.958	.007
.343	101.3	.979	.007
.403	101.3	.985	.007
.505	101.3	.99	.007
.653	101.3	.992	.007
.688	101.3	.993	.007
.788	101.3	.996	.007
.895	101.3	.998	.007
.953	101.3	.999	.007
1	101.3	1	.007

System: 1,2-propanediol + cyclohexane; phases: Liquid, Gas
Property: Boiling temperature at pressure P, K (Liquid); method: Ebulliometric method (Recirculating still)
Mole fraction of cyclohexane	Pressure, kPa	Boiling temperature at pressure P, K	uncertainty
0	101.3	460.87	.07
.019	101.3	455.62	.07
.041	101.3	449.62	.07
.062	101.3	443.81	.07
.083	101.3	438.34	.07
.101	101.3	433.2	.07
.124	101.3	428.39	.07
.141	101.3	423.92	.07
.161	101.3	418.76	.07
.181	101.3	414.89	.07
.202	101.3	411.3	.07
.232	101.3	406.37	.07
.262	101.3	401.93	.07
.303	101.3	396.66	.07
.353	101.3	390.92	.07
.478	101.3	385.95	.07
.564	101.3	380.78	.07
.645	101.3	374.92	.07
.712	101.3	369.96	.07
.858	101.3	363.75	.07
.915	101.3	358.62	.07
1	101.3	353.83	.07

System: 1,2-propanediol + cyclohexane; phases: Gas, Liquid
Property: Mole fraction of cyclohexane (Gas); method: Chromatography
Mole fraction of cyclohexane	Pressure, kPa	Mole fraction of cyclohexane	uncertainty
0	101.3	0	.006
.019	101.3	.115	.006
.041	101.3	.222	.006
.062	101.3	.318	.006
.083	101.3	.385	.006
.101	101.3	.471	.006
.124	101.3	.541	.006
.141	101.3	.632	.006
.161	101.3	.7	.006
.181	101.3	.741	.006
.202	101.3	.789	.006
.232	101.3	.809	.006
.262	101.3	.848	.006
.303	101.3	.89	.006
.353	101.3	.925	.006
.478	101.3	.957	.006
.564	101.3	.976	.006
.645	101.3	.985	.006
.712	101.3	.99	.006
.858	101.3	.996	.006
.915	101.3	.998	.006
1	101.3	1	.006

System: 1,2-propanediol + tetrahydrofuran + cyclohexane; phases: Liquid, Gas
Property: Mole fraction of cyclohexane (Liquid); method: Chromatography
Property: Mole fraction of tetrahydrofuran (Gas); method: Chromatography
Property: Mole fraction of cyclohexane (Gas); method: Chromatography
Temperature, K	Pressure, kPa	Mole fraction of tetrahydrofuran	Mole fraction of cyclohexane	uncertainty	Mole fraction of tetrahydrofuran	uncertainty	Mole fraction of cyclohexane	uncertainty
343.75	101.3	.733	.806	.009	.133	.009	.193	.009
349.48	101.3	.312	.373	.009	.504	.009	.621	.009
350.25	101.3	.547	.694	.009	.085	.009	.302	.009
344.29	101.3	.64	.703	.009	.224	.009	.296	.009
350.89	101.3	.252	.303	.009	.544	.009	.69	.009
351	101.3	.425	.52	.009	.1	.009	.475	.009
351.6	101.3	.094	.18	.009	.868	.009	.815	.009
352.24	101.3	.17	.172	.009	.489	.009	.818	.009
353.33	101.3	.148	.185	.009	.634	.009	.804	.009
353.36	101.3	.147	.168	.009	.581	.009	.821	.009
354.4	101.3	.598	.93	.009	.013	.009	.066	.009
347.87	101.3	.496	.548	.009	.213	.009	.449	.009
354.56	101.3	.086	.093	.009	.604	.009	.894	.009
355.27	101.3	.068	.095	.009	.74	.009	.89	.009
360.12	101.3	.463	.835	.009	.018	.009	.157	.009
345.01	101.3	.201	.158	.009	.204	.009	.837	.009
362.67	101.3	.435	.849	.009	.013	.009	.142	.009
345.25	101.3	.544	.609	.009	.318	.009	.39	.009
346.26	101.3	.231	.194	.009	.209	.009	.8	.009
346.68	101.3	.705	.846	.009	.068	.009	.152	.009
346.79	101.3	.585	.661	.009	.172	.009	.336	.009
347.44	101.3	.114	.083	.009	.342	.009	.91	.009
348.03	101.3	.736	.948	.009	.019	.009	.05	.009
347.54	101.3	.541	.61	.009	.181	.009	.387	.009
348.72	101.3	.366	.377	.009	.198	.009	.618	.009
349.02	101.3	.106	.08	.009	.384	.009	.912	.009
349.19	101.3	.36	.388	.009	.363	.009	.607	.009
349.23	101.3	.029	.02	.009	.428	.009	.971	.009
349.27	101.3	.337	.344	.009	.312	.009	.65	.009
349.39	101.3	.331	.362	.009	.117	.009	.633	.009
