Measured thermophysical data. Ideal Gas Heat Capacity Derived from Speed of Sound Measurements in the Gaseous Phase for trans-1,3,3,3-Tetrafluoropropene
Source: J. Chem. Eng. Data, 2013, 10.1021/je4004564
Compound 1: trans-1,3,3,3-tetrafluoropropene, C3H2F4, purity 99.96%

System: trans-1,3,3,3-tetrafluoropropene; phases: Gas
Property: Speed of sound, m/s (Gas); method: Spherical cavity resonance method
Temperature, K	Pressure, kPa	Speed of sound, m/s	uncertainty
278.15	25.29	148.092	.0148092
278.15	50.54	147.189	.0147189
278.15	75.59	146.277	.0146277
278.15	101.07	145.329	.0145329
278.15	201.5	141.397	.0141397
278.15	248.53	139.419	.0139419
293.15	25.34	151.962	.0151962
293.15	50.41	151.199	.0151199
293.15	76.01	150.407	.0150407
293.15	100.83	149.618	.0149618
293.15	201.65	146.316	.0146316
293.15	301.97	142.793	.0142793
293.15	397.84	139.157	.0139157
308.15	25.32	155.712	.0155712
308.15	50.42	155.05	.015505
308.15	75.99	154.37	.015437
308.15	100.45	153.7	.01537
308.15	199.82	150.941	.0150941
308.15	301.89	147.955	.0147955
308.15	399.59	144.929	.0144929
323.15	25.6	159.363	.0159363
323.15	50.42	158.779	.0158779
323.15	75.85	158.192	.0158192
323.15	100.84	157.599	.0157599
323.15	201.05	155.209	.0155209
323.15	301.37	152.716	.0152716
323.15	399.95	150.164	.0150164
338.15	25.35	162.917	.0162917
338.15	50.36	162.414	.0162414
338.15	75.28	161.911	.0161911
338.15	100.97	161.387	.0161387
338.15	199.59	159.336	.0159336
338.15	301.58	157.16	.015716
338.15	400.19	154.984	.0154984
353.15	25.39	166.414	.0166414
353.148	50.57	165.964	.0165964
353.149	75.57	165.492	.0165492
353.151	100.6	165.045	.0165045
353.15	200.56	163.239	.0163239
353.149	301.71	161.367	.0161367
353.15	402.92	159.447	.0159447

System: trans-1,3,3,3-tetrafluoropropene; phases: Gas
Fixed: Pressure, kPa = 101.325
Property: Molar heat capacity at constant pressure, J/K/mol (Gas); method: Derived with speed of sound
Temperature, K	Molar heat capacity at constant pressure, J/K/mol	uncertainty
278.15	96.46	.09646
293.15	99.54	.09954
308.15	102.46	.10246
323.15	105.28	.10528
338.15	108.14	.10814
353.15	110.52	.11052
