Measured thermophysical data. Solubility of Sodium Acetate in Binary Mixtures of Methanol, 1-Propanol, Acetonitrile, and Water at 298.2 K
Source: J. Chem. Eng. Data, 2013, 10.1021/je400625f
Compound 1: sodium acetate, C2H3NaO2, purity 99.5%
Compound 2: methanol, CH4O, purity 99.9%
Compound 3: 1-propanol, C3H8O, purity 99.9%
Compound 4: acetonitrile, C2H3N, purity 99.8%
Compound 5: water, H2O

System: methanol + sodium acetate + water; phases: Liquid, Crystal
Fixed: Pressure, kPa = 101
Fixed: Temperature, K = 298.2
Property: Mole fraction of sodium acetate (Liquid); method: flame photometer
Solvent: Mass fraction of water	Mole fraction of sodium acetate	uncertainty
1	.119	.0119
.92	.0871	.00871
.84	.081	.0081
.75	.075	.0075
.66	.0694	.00694
.56	.0746	.00746
.46	.0816	.00816
.35	.0812	.00812
.24	.0773	.00773
.12	.0767	.00767
0	.0637	.00637

System: methanol + sodium acetate + water; phases: Liquid, Crystal
Fixed: Pressure, kPa = 101
Fixed: Temperature, K = 298.2
Property: Mass density, kg/m3 (Liquid); method: Pycnometric method
Solvent: Mass fraction of water	Mass density, kg/m3	uncertainty
1	1192.1	5.9605
.92	1166.4	5.832
.84	1124.6	5.623
.75	1102.5	5.5125
.66	1100.7	5.5035
.56	1083.4	5.417
.46	1064.7	5.3235
.35	1046.7	5.2335
.24	1028	5.14
.12	950.2	4.751
0	873	4.365

System: 1-propanol + sodium acetate + water; phases: Liquid, Crystal
Fixed: Pressure, kPa = 101
Fixed: Temperature, K = 298.2
Property: Mole fraction of sodium acetate (Liquid); method: flame photometer
Solvent: Mass fraction of water	Mole fraction of sodium acetate	uncertainty
1	.119	.0119
.92	.0637	.00637
.83	.0409	.00409
.74	.0313	.00313
.65	.0319	.00319
.55	.0303	.00303
.45	.0334	.00334
.35	.0279	.00279
.24	.0142	.00142
.12	.00843	.000843
0	.00807	.000807

System: 1-propanol + sodium acetate + water; phases: Liquid, Crystal
Fixed: Pressure, kPa = 101
Fixed: Temperature, K = 298.2
Property: Mass density, kg/m3 (Liquid); method: Pycnometric method
Solvent: Mass fraction of water	Mass density, kg/m3	uncertainty
1	1192	5.96
.92	1147	5.735
.83	1118	5.59
.74	1076	5.38
.65	1056	5.28
.55	973.4	4.867
.45	885.2	4.426
.35	882	4.41
.24	838.9	4.1945
.12	818.3	4.0915
0	803.5	4.0175

System: acetonitrile + sodium acetate + water; phases: Liquid, Crystal
Fixed: Pressure, kPa = 101
Fixed: Temperature, K = 298.2
Property: Mole fraction of sodium acetate (Liquid); method: flame photometer
Solvent: Mass fraction of water	Mole fraction of sodium acetate	uncertainty
1	.119	.0119
.92	.0368	.00368
.46	.0157	.00157
.36	.0125	.00125
.24	.00668	.000668
.12	.00472	.000472
0	.00007	.000007

System: acetonitrile + sodium acetate + water; phases: Liquid, Crystal
Fixed: Pressure, kPa = 101
Fixed: Temperature, K = 298.2
Property: Mass density, kg/m3 (Liquid); method: Pycnometric method
Solvent: Mass fraction of water	Mass density, kg/m3	uncertainty
1	1192.1	5.9605
.92	1139.3	5.6965
.46	812.5	4.0625
.36	810.6	4.053
.24	796.5	3.9825
.12	784.9	3.9245
0	767.5	3.8375

System: methanol + 1-propanol + sodium acetate; phases: Liquid, Crystal
Fixed: Pressure, kPa = 101
Fixed: Temperature, K = 298.2
Property: Mole fraction of sodium acetate (Liquid); method: flame photometer
Solvent: Mass fraction of methanol	Mole fraction of sodium acetate	uncertainty
1	.0637	.00637
.9	.0427	.00427
.8	.0369	.00369
.7	.0358	.00358
.6	.0339	.00339
.5	.026	.0026
.4	.0224	.00224
.3	.016	.0016
.2	.00924	.000924
.1	.00786	.000786
0	.00807	.000807

System: methanol + 1-propanol + sodium acetate; phases: Liquid, Crystal
Fixed: Pressure, kPa = 101
Fixed: Temperature, K = 298.2
Property: Mass density, kg/m3 (Liquid); method: Pycnometric method
Solvent: Mass fraction of methanol	Mass density, kg/m3	uncertainty
1	873	4.365
.9	855.6	4.278
.8	847.9	4.2395
.7	835.1	4.1755
.6	819.6	4.098
.5	805.5	4.0275
.4	801.6	4.008
.3	802.9	4.0145
.2	801.6	4.008
.1	801.6	4.008
0	803.5	4.0175

System: methanol + acetonitrile + sodium acetate; phases: Liquid, Crystal
Fixed: Pressure, kPa = 101
Fixed: Temperature, K = 298.2
Property: Mole fraction of sodium acetate (Liquid); method: flame photometer
Solvent: Mass fraction of methanol	Mole fraction of sodium acetate	uncertainty
1	.0637	.00637
.9	.0393	.00393
.8	.0306	.00306
.7	.0228	.00228
.6	.0213	.00213
.5	.0151	.00151
.4	.00928	.000928
.3	.00536	.000536
.2	.00178	.000178
.1	.00034	.000034
0	.00007	.000007

System: methanol + acetonitrile + sodium acetate; phases: Liquid, Crystal
Fixed: Pressure, kPa = 101
Fixed: Temperature, K = 298.2
Property: Mass density, kg/m3 (Liquid); method: Pycnometric method
Solvent: Mass fraction of methanol	Mass density, kg/m3	uncertainty
1	873	4.365
.9	852.4	4.262
.8	838.9	4.1945
.7	829.3	4.1465
.6	815.1	4.0755
.5	802.2	4.011
.4	790.7	3.9535
.3	782.3	3.9115
.2	775.9	3.8795
.1	770.7	3.8535
0	767.5	3.8375

System: 1-propanol + acetonitrile + sodium acetate; phases: Liquid, Crystal
Fixed: Pressure, kPa = 101
Fixed: Temperature, K = 298.2
Property: Mole fraction of sodium acetate (Liquid); method: flame photometer
Solvent: Mass fraction of 1-propanol	Mole fraction of sodium acetate	uncertainty
1	.00807	.000807
.9	.00537	.000537
.8	.00374	.000374
.71	.00238	.000238
.61	.00171	.000171
.51	.00121	.000121
.41	.00077	.000077
.31	.00054	.000054
.2	.00021	.000021
.1	.00009	.000009
0	.00007	.000007

System: 1-propanol + acetonitrile + sodium acetate; phases: Liquid, Crystal
Fixed: Pressure, kPa = 101
Fixed: Temperature, K = 298.2
Property: Mass density, kg/m3 (Liquid); method: Pycnometric method
Solvent: Mass fraction of 1-propanol	Mass density, kg/m3	uncertainty
1	803.5	4.0175
.9	801	4.005
.8	790	3.95
.71	781	3.905
.61	775.2	3.876
.51	770.7	3.8535
.41	770.1	3.8505
.31	768.8	3.844
.2	770.1	3.8505
.1	768.8	3.844
0	767.5	3.8375

System: sodium acetate + water; phases: Liquid, Crystal
Property: Mole fraction of sodium acetate (Liquid); method: flame photometer
Temperature, K	Pressure, kPa	Mole fraction of sodium acetate	uncertainty
298.2	101	.119	.0119

System: sodium acetate + water; phases: Liquid, Crystal
Property: Mass density, kg/m3 (Liquid); method: Pycnometric method
Temperature, K	Pressure, kPa	Mass density, kg/m3	uncertainty
298.2	101	1192.1	5.9605
298.2	101	1192	5.96

System: methanol + sodium acetate; phases: Liquid, Crystal
Property: Mole fraction of sodium acetate (Liquid); method: flame photometer
Temperature, K	Pressure, kPa	Mole fraction of sodium acetate	uncertainty
298.2	101	.0637	.00637

System: methanol + sodium acetate; phases: Liquid, Crystal
Property: Mass density, kg/m3 (Liquid); method: Pycnometric method
Temperature, K	Pressure, kPa	Mass density, kg/m3	uncertainty
298.2	101	873	4.365

System: 1-propanol + sodium acetate; phases: Liquid, Crystal
Property: Mole fraction of sodium acetate (Liquid); method: flame photometer
Temperature, K	Pressure, kPa	Mole fraction of sodium acetate	uncertainty
298.2	101	.00807	.000807

System: 1-propanol + sodium acetate; phases: Liquid, Crystal
Property: Mass density, kg/m3 (Liquid); method: Pycnometric method
Temperature, K	Pressure, kPa	Mass density, kg/m3	uncertainty
298.2	101	803.5	4.0175

System: acetonitrile + sodium acetate; phases: Liquid, Crystal
Property: Mole fraction of sodium acetate (Liquid); method: flame photometer
Temperature, K	Pressure, kPa	Mole fraction of sodium acetate	uncertainty
298.2	101	.00007	.000007

System: acetonitrile + sodium acetate; phases: Liquid, Crystal
Property: Mass density, kg/m3 (Liquid); method: Pycnometric method
Temperature, K	Pressure, kPa	Mass density, kg/m3	uncertainty
298.2	101	767.5	3.8375
