Measured thermophysical data. Densities, Refractive Indices, Viscosities, and Spectroscopic Study of 1-Amino-2-propanol + 1-Butanol and + 2-Butanol Solutions at (288.15 to 333.15) K
Source: J. Chem. Eng. Data, 2014, 10.1021/je401036f
Compound 1: 1-amino-2-propanol, C3H9NO, purity 98%
Compound 2: 1-butanol, C4H10O, purity 99%
Compound 3: 2-butanol, C4H10O, purity 99%

System: 1-amino-2-propanol; phases: Liquid
Property: Mass density, kg/m3 (Liquid); method: Vibrating tube method
Temperature, K	Pressure, kPa	Mass density, kg/m3	uncertainty
288.15	101	964.544	.01
293.15	101	960.598	.01
298.15	101	956.618	.01
303.15	101	952.612	.01
308.15	101	948.577	.01
313.15	101	944.515	.01
318.15	101	940.423	.01
323.15	101	936.293	.01
328.15	101	932.13	.01
333.15	101	927.93	.01

System: 1-amino-2-propanol; phases: Liquid
Fixed: Pressure, kPa = 101.325
Property: Refractive index (Na D-line) (Liquid); method: Standard Abbe refractometry
Temperature, K	Refractive index (Na D-line)	uncertainty
288.15	1.45	.0001
293.15	1.448	.0001
298.15	1.446	.0001
303.15	1.444	.0001
308.15	1.4419	.0001
313.15	1.4399	.0001
318.15	1.4378	.0001
323.15	1.4358	.0001
328.15	1.4337	.0001
333.15	1.4315	.0001

System: 1-amino-2-propanol; phases: Liquid
Property: Viscosity, Pa*s (Liquid); method: Concentric cylinders viscometry
Temperature, K	Pressure, kPa	Viscosity, Pa*s	uncertainty
288.15	101	.0437	.0006555
293.15	101	.03168	.0004752
298.15	101	.02354	.0003531
303.15	101	.0179	.0002685
308.15	101	.01388	.0002082
313.15	101	.01096	.0001644
318.15	101	.008798	.00013197
323.15	101	.007166	.00010749
328.15	101	.005915	.000088725
333.15	101	.004986	.00007479
303.15	101	.01789	.00026835

System: 1-butanol; phases: Liquid
Property: Mass density, kg/m3 (Liquid); method: Vibrating tube method
Temperature, K	Pressure, kPa	Mass density, kg/m3	uncertainty
288.15	101	813.353	.01
293.15	101	809.564	.01
298.15	101	805.752	.01
303.15	101	801.912	.01
308.15	101	798.039	.01
313.15	101	794.13	.01
318.15	101	790.18	.01
323.15	101	786.179	.01
328.15	101	782.125	.01
333.15	101	778.012	.01

System: 1-butanol; phases: Liquid
Fixed: Pressure, kPa = 101.325
Property: Refractive index (Na D-line) (Liquid); method: Standard Abbe refractometry
Temperature, K	Refractive index (Na D-line)	uncertainty
288.15	1.4013	.0001
293.15	1.3992	.0001
298.15	1.3972	.0001
303.15	1.3951	.0001
308.15	1.393	.0001
313.15	1.391	.0001
318.15	1.3888	.0001
323.15	1.3867	.0001
328.15	1.3846	.0001
333.15	1.3824	.0001

System: 1-butanol; phases: Liquid
Property: Viscosity, Pa*s (Liquid); method: Concentric cylinders viscometry
Temperature, K	Pressure, kPa	Viscosity, Pa*s	uncertainty
288.15	101	.003367	.000050505
293.15	101	.002914	.00004371
298.15	101	.002539	.000038085
303.15	101	.002228	.00003342
308.15	101	.001962	.00002943
313.15	101	.001739	.000026085
318.15	101	.001547	.000023205
323.15	101	.001382	.00002073
328.15	101	.001239	.000018585
333.15	101	.001138	.00001707

System: 2-butanol; phases: Liquid
Property: Mass density, kg/m3 (Liquid); method: Vibrating tube method
Temperature, K	Pressure, kPa	Mass density, kg/m3	uncertainty
288.15	101	810.524	.01
293.15	101	806.487	.01
298.15	101	802.373	.01
303.15	101	798.174	.01
308.15	101	793.881	.01
313.15	101	789.487	.01
318.15	101	784.988	.01
323.15	101	780.38	.01
328.15	101	775.656	.01
333.15	101	770.82	.01

System: 2-butanol; phases: Liquid
Fixed: Pressure, kPa = 101.325
Property: Refractive index (Na D-line) (Liquid); method: Standard Abbe refractometry
Temperature, K	Refractive index (Na D-line)	uncertainty
288.15	1.3995	.0001
293.15	1.3974	.0001
298.15	1.3952	.0001
303.15	1.393	.0001
308.15	1.3907	.0001
313.15	1.3883	.0001
318.15	1.3859	.0001
323.15	1.3835	.0001
328.15	1.381	.0001
333.15	1.3784	.0001

System: 2-butanol; phases: Liquid
Property: Viscosity, Pa*s (Liquid); method: Concentric cylinders viscometry
Temperature, K	Pressure, kPa	Viscosity, Pa*s	uncertainty
288.15	101	.00459	.00006885
293.15	101	.003738	.00005607
298.15	101	.003074	.00004611
303.15	101	.002552	.00003828
308.15	101	.002144	.00003216
313.15	101	.001818	.00002727
318.15	101	.001558	.00002337
323.15	101	.001348	.00002022
328.15	101	.001179	.000017685
333.15	101	.001054	.00001581

System: 1-butanol + 1-amino-2-propanol; phases: Liquid
Fixed: Pressure, kPa = 101
Property: Mass density, kg/m3 (Liquid); method: Vibrating tube method
Temperature, K	Mole fraction of 1-amino-2-propanol	Mass density, kg/m3	uncertainty
288.15	0	813.353	.01
288.15	.1	827.167	.01
288.15	.2005	841.339	.01
288.15	.3	855.625	.01
288.15	.3999	870.246	.01
288.15	.5	885.14	.01
288.15	.6001	900.478	.01
288.15	.7	916.099	.01
288.15	.8	932.069	.01
288.15	.8997	948.249	.01
288.15	1	964.544	.01
293.15	0	809.564	.01
293.15	.1	823.338	.01
293.15	.2005	837.455	.01
293.15	.3	851.736	.01
293.15	.3999	866.053	.01
293.15	.5	881.2	.01
293.15	.6001	896.524	.01
293.15	.7	912.152	.01
293.15	.8	928.119	.01
293.15	.8997	944.296	.01
293.15	1	960.598	.01
298.15	0	805.752	.01
298.15	.1	819.488	.01
298.15	.2005	833.571	.01
298.15	.3	847.825	.01
298.15	.3999	862.123	.01
298.15	.5	877.169	.01
298.15	.6001	892.563	.01
298.15	.7	908.181	.01
298.15	.8	924.144	.01
298.15	.8997	940.31	.01
298.15	1	956.618	.01
303.15	0	801.912	.01
303.15	.1	815.611	.01
303.15	.2005	829.669	.01
303.15	.3	843.892	.01
303.15	.3999	858.167	.01
303.15	.5	873.195	.01
303.15	.6001	888.575	.01
303.15	.7	904.186	.01
303.15	.8	920.144	.01
303.15	.8997	936.303	.01
303.15	1	952.612	.01
308.15	0	798.039	.01
308.15	.1	811.706	.01
308.15	.2005	825.735	.01
308.15	.3	839.932	.01
308.15	.3999	854.42	.01
308.15	.5	869.288	.01
308.15	.6001	884.561	.01
308.15	.7	900.162	.01
308.15	.8	916.116	.01
308.15	.8997	932.266	.01
308.15	1	948.577	.01
313.15	0	794.13	.01
313.15	.1	807.768	.01
313.15	.2005	821.766	.01
313.15	.3	835.94	.01
313.15	.3999	850.406	.01
313.15	.5	865.257	.01
313.15	.6001	880.518	.01
313.15	.7	896.106	.01
313.15	.8	912.054	.01
313.15	.8997	928.196	.01
313.15	1	944.515	.01
318.15	0	790.18	.01
318.15	.1	803.791	.01
318.15	.2005	817.764	.01
318.15	.3	831.911	.01
318.15	.3999	846.355	.01
318.15	.5	861.194	.01
318.15	.6001	876.438	.01
318.15	.7	892.017	.01
318.15	.8	907.96	.01
318.15	.8997	924.096	.01
318.15	1	940.423	.01
323.15	0	786.179	.01
323.15	.1	799.764	.01
323.15	.2005	813.705	.01
323.15	.3	827.834	.01
323.15	.3999	842.264	.01
323.15	.5	857.087	.01
323.15	.6001	872.324	.01
323.15	.7	887.889	.01
323.15	.8	903.828	.01
323.15	.8997	919.961	.01
323.15	1	936.293	.01
328.15	0	782.125	.01
328.15	.1	795.685	.01
328.15	.2005	809.606	.01
328.15	.3	823.708	.01
328.15	.3999	838.127	.01
328.15	.5	852.936	.01
328.15	.6001	868.161	.01
328.15	.7	883.72	.01
328.15	.8	899.655	.01
328.15	.8997	915.789	.01
328.15	1	932.13	.01
333.15	0	778.012	.01
333.15	.1	791.549	.01
333.15	.2005	805.451	.01
333.15	.3	819.532	.01
333.15	.3999	833.936	.01
333.15	.5	848.734	.01
333.15	.6001	863.951	.01
333.15	.7	879.505	.01
333.15	.8	895.441	.01
333.15	.8997	911.577	.01
333.15	1	927.93	.01

System: 1-butanol + 1-amino-2-propanol; phases: Liquid
Fixed: Pressure, kPa = 101
Property: Refractive index (Na D-line) (Liquid); method: Standard Abbe refractometry
Temperature, K	Mole fraction of 1-amino-2-propanol	Refractive index (Na D-line)	uncertainty
288.15	0	1.4013	.0001
288.15	.1	1.4058	.0001
288.15	.2005	1.4104	.0001
288.15	.3	1.4151	.0001
288.15	.3999	1.4198	.0001
288.15	.5	1.4246	.0001
288.15	.6001	1.4295	.0001
288.15	.7	1.4345	.0001
288.15	.8	1.4395	.0001
288.15	.8997	1.4446	.0001
288.15	1	1.45	.0001
293.15	0	1.3992	.0001
293.15	.1	1.4038	.0001
293.15	.2005	1.4084	.0001
293.15	.3	1.413	.0001
293.15	.3999	1.4178	.0001
293.15	.5	1.4226	.0001
293.15	.6001	1.4275	.0001
293.15	.7	1.4324	.0001
293.15	.8	1.4375	.0001
293.15	.8997	1.4426	.0001
293.15	1	1.448	.0001
298.15	0	1.3972	.0001
298.15	.1	1.4018	.0001
298.15	.2005	1.4064	.0001
298.15	.3	1.411	.0001
298.15	.3999	1.4157	.0001
298.15	.5	1.4205	.0001
298.15	.6001	1.4254	.0001
298.15	.7	1.4304	.0001
298.15	.8	1.4354	.0001
298.15	.8997	1.4406	.0001
298.15	1	1.446	.0001
303.15	0	1.3951	.0001
303.15	.1	1.3998	.0001
303.15	.2005	1.4043	.0001
303.15	.3	1.4089	.0001
303.15	.3999	1.4136	.0001
303.15	.5	1.4184	.0001
303.15	.6001	1.4234	.0001
303.15	.7	1.4283	.0001
303.15	.8	1.4334	.0001
303.15	.8997	1.4385	.0001
303.15	1	1.444	.0001
308.15	0	1.393	.0001
308.15	.1	1.3977	.0001
308.15	.2005	1.4022	.0001
308.15	.3	1.4068	.0001
308.15	.3999	1.4115	.0001
308.15	.5	1.4163	.0001
308.15	.6001	1.4213	.0001
308.15	.7	1.4262	.0001
308.15	.8	1.4313	.0001
308.15	.8997	1.4365	.0001
308.15	1	1.4419	.0001
313.15	0	1.391	.0001
313.15	.1	1.3956	.0001
313.15	.2005	1.4001	.0001
313.15	.3	1.4047	.0001
313.15	.3999	1.4094	.0001
313.15	.5	1.4142	.0001
313.15	.6001	1.4191	.0001
313.15	.7	1.4242	.0001
313.15	.8	1.4292	.0001
313.15	.8997	1.4344	.0001
313.15	1	1.4399	.0001
318.15	0	1.3888	.0001
318.15	.1	1.3934	.0001
318.15	.2005	1.398	.0001
318.15	.3	1.4026	.0001
318.15	.3999	1.4073	.0001
318.15	.5	1.4121	.0001
318.15	.6001	1.417	.0001
318.15	.7	1.4221	.0001
318.15	.8	1.4272	.0001
318.15	.8997	1.4324	.0001
318.15	1	1.4378	.0001
323.15	0	1.3867	.0001
323.15	.1	1.3913	.0001
323.15	.2005	1.3958	.0001
323.15	.3	1.4005	.0001
323.15	.3999	1.4051	.0001
323.15	.5	1.4099	.0001
323.15	.6001	1.4149	.0001
323.15	.7	1.42	.0001
323.15	.8	1.425	.0001
323.15	.8997	1.4303	.0001
323.15	1	1.4358	.0001
328.15	0	1.3846	.0001
328.15	.1	1.3892	.0001
328.15	.2005	1.3937	.0001
328.15	.3	1.3983	.0001
328.15	.3999	1.403	.0001
328.15	.5	1.4078	.0001
328.15	.6001	1.4128	.0001
328.15	.7	1.4178	.0001
328.15	.8	1.4229	.0001
328.15	.8997	1.4282	.0001
328.15	1	1.4337	.0001
333.15	0	1.3824	.0001
333.15	.1	1.387	.0001
333.15	.2005	1.3915	.0001
333.15	.3	1.3961	.0001
333.15	.3999	1.4008	.0001
333.15	.5	1.4056	.0001
333.15	.6001	1.4106	.0001
333.15	.7	1.4156	.0001
333.15	.8	1.4208	.0001
333.15	.8997	1.426	.0001
333.15	1	1.4315	.0001

System: 1-butanol + 1-amino-2-propanol; phases: Liquid
Fixed: Pressure, kPa = 101
Property: Viscosity, Pa*s (Liquid); method: Concentric cylinders viscometry
Temperature, K	Mole fraction of 1-amino-2-propanol	Viscosity, Pa*s	uncertainty
288.15	0	.003367	.000050505
288.15	.1	.004019	.000060285
288.15	.2005	.004952	.00007428
288.15	.3	.006238	.00009357
288.15	.3999	.008046	.00012069
288.15	.5	.01048	.0001572
288.15	.6001	.01385	.00020775
288.15	.7	.0182	.000273
288.15	.8	.02434	.0003651
288.15	.8997	.03226	.0004839
288.15	1	.0437	.0006555
293.15	0	.002914	.00004371
293.15	.1	.003444	.00005166
293.15	.2005	.004218	.00006327
293.15	.3	.005202	.00007803
293.15	.3999	.006617	.000099255
293.15	.5	.008455	.000126825
293.15	.6001	.01088	.0001632
293.15	.7	.01408	.0002112
293.15	.8	.01834	.0002751
293.15	.8997	.02393	.00035895
293.15	1	.03168	.0004752
298.15	0	.002539	.000038085
298.15	.1	.002989	.000044835
298.15	.2005	.00362	.0000543
298.15	.3	.004398	.00006597
298.15	.3999	.005507	.000082605
298.15	.5	.006858	.00010287
298.15	.6001	.008782	.00013173
298.15	.7	.01103	.00016545
298.15	.8	.01418	.0002127
298.15	.8997	.01816	.0002724
298.15	1	.02354	.0003531
303.15	0	.002228	.00003342
303.15	.1	.002615	.000039225
303.15	.2005	.003129	.000046935
303.15	.3	.003756	.00005634
303.15	.3999	.004639	.000069585
303.15	.5	.005721	.000085815
303.15	.6001	.007156	.00010734
303.15	.7	.008892	.00013338
303.15	.8	.01117	.00016755
303.15	.8997	.01406	.0002109
303.15	1	.0179	.0002685
308.15	0	.001962	.00002943
308.15	.1	.002298	.00003447
308.15	.2005	.002726	.00004089
308.15	.3	.00323	.00004845
308.15	.3999	.003944	.00005916
308.15	.5	.004788	.00007182
308.15	.6001	.005904	.00008856
308.15	.7	.007231	.000108465
308.15	.8	.008949	.000134235
308.15	.8997	.0111	.0001665
308.15	1	.01388	.0002082
313.15	0	.001739	.000026085
313.15	.1	.00203	.00003045
313.15	.2005	.002389	.000035835
313.15	.3	.002801	.000042015
313.15	.3999	.003377	.000050655
313.15	.5	.004049	.000060735
313.15	.6001	.004929	.000073935
313.15	.7	.005957	.000089355
313.15	.8	.007272	.00010908
313.15	.8997	.0089	.0001335
313.15	1	.01096	.0001644
318.15	0	.001547	.000023205
318.15	.1	.001801	.000027015
318.15	.2005	.002104	.00003156
318.15	.3	.002445	.000036675
318.15	.3999	.002915	.000043725
318.15	.5	.003454	.00005181
318.15	.6001	.004159	.000062385
318.15	.7	.004969	.000074535
318.15	.8	.005989	.000089835
318.15	.8997	.007238	.00010857
318.15	1	.008798	.00013197
323.15	0	.001382	.00002073
323.15	.1	.001606	.00002409
323.15	.2005	.001865	.000027975
323.15	.3	.002144	.00003216
323.15	.3999	.002535	.000038025
323.15	.5	.002973	.000044595
323.15	.6001	.003541	.000053115
323.15	.7	.004192	.00006288
323.15	.8	.004994	.00007491
323.15	.8997	.00596	.0000894
323.15	1	.007166	.00010749
328.15	0	.001239	.000018585
328.15	.1	.001436	.00002154
328.15	.2005	.001662	.00002493
328.15	.3	.001887	.000028305
328.15	.3999	.002218	.00003327
328.15	.5	.002579	.000038685
328.15	.6001	.003047	.000045705
328.15	.7	.003568	.00005352
328.15	.8	.004211	.000063165
328.15	.8997	.004976	.00007464
328.15	1	.005915	.000088725
333.15	0	.001138	.00001707
333.15	.1	.001302	.00001953
333.15	.2005	.001499	.000022485
333.15	.3	.001699	.000025485
333.15	.3999	.001973	.000029595
333.15	.5	.002286	.00003429
333.15	.6001	.002663	.000039945
333.15	.7	.003099	.000046485
333.15	.8	.003618	.00005427
333.15	.8997	.004225	.000063375
333.15	1	.004986	.00007479

System: 2-butanol + 1-amino-2-propanol; phases: Liquid
Fixed: Pressure, kPa = 101
Property: Mass density, kg/m3 (Liquid); method: Vibrating tube method
Temperature, K	Mole fraction of 1-amino-2-propanol	Mass density, kg/m3	uncertainty
288.15	0	810.524	.01
288.15	.1003	823.697	.01
288.15	.2005	837.759	.01
288.15	.3	852.257	.01
288.15	.3999	867.392	.01
288.15	.5	882.695	.01
288.15	.6001	898.243	.01
288.15	.7	914.159	.01
288.15	.8	930.494	.01
288.15	.8999	947.198	.01
288.15	1	964.544	.01
293.15	0	806.487	.01
293.15	.1003	819.706	.01
293.15	.2005	833.763	.01
293.15	.3	848.265	.01
293.15	.3999	863.403	.01
293.15	.5	878.701	.01
293.15	.6001	894.252	.01
293.15	.7	910.183	.01
293.15	.8	926.524	.01
293.15	.8999	943.272	.01
293.15	1	960.598	.01
298.15	0	802.373	.01
298.15	.1003	815.665	.01
298.15	.2005	829.72	.01
298.15	.3	844.235	.01
298.15	.3999	859.38	.01
298.15	.5	874.691	.01
298.15	.6001	890.255	.01
298.15	.7	906.21	.01
298.15	.8	922.526	.01
298.15	.8999	939.29	.01
298.15	1	956.618	.01
303.15	0	798.174	.01
303.15	.1003	811.527	.01
303.15	.2005	825.623	.01
303.15	.3	840.158	.01
303.15	.3999	855.316	.01
303.15	.5	870.629	.01
303.15	.6001	886.197	.01
303.15	.7	902.141	.01
303.15	.8	918.502	.01
303.15	.8999	935.275	.01
303.15	1	952.612	.01
308.15	0	793.881	.01
308.15	.1003	807.298	.01
308.15	.2005	821.466	.01
308.15	.3	836.03	.01
308.15	.3999	851.209	.01
308.15	.5	866.532	.01
308.15	.6001	882.111	.01
308.15	.7	898.074	.01
308.15	.8	914.445	.01
308.15	.8999	931.229	.01
308.15	1	948.577	.01
313.15	0	789.487	.01
313.15	.1003	803.008	.01
313.15	.2005	817.246	.01
313.15	.3	831.847	.01
313.15	.3999	847.055	.01
313.15	.5	862.397	.01
313.15	.6001	877.993	.01
313.15	.7	893.97	.01
313.15	.8	910.355	.01
313.15	.8999	927.181	.01
313.15	1	944.515	.01
318.15	0	784.988	.01
318.15	.1003	798.619	.01
318.15	.2005	812.957	.01
318.15	.3	827.606	.01
318.15	.3999	842.848	.01
318.15	.5	858.232	.01
318.15	.6001	873.856	.01
318.15	.7	889.829	.01
318.15	.8	906.227	.01
318.15	.8999	923.11	.01
318.15	1	940.423	.01
323.15	0	780.38	.01
323.15	.1003	794.161	.01
323.15	.2005	808.592	.01
323.15	.3	823.3	.01
323.15	.3999	838.586	.01
323.15	.5	853.992	.01
323.15	.6001	869.642	.01
323.15	.7	885.646	.01
323.15	.8	902.064	.01
323.15	.8999	918.943	.01
323.15	1	936.293	.01
328.15	0	775.656	.01
328.15	.1003	789.608	.01
328.15	.2005	804.15	.01
328.15	.3	818.925	.01
328.15	.3999	834.264	.01
328.15	.5	849.702	.01
328.15	.6001	865.379	.01
328.15	.7	881.417	.01
328.15	.8	897.859	.01
328.15	.8999	914.764	.01
328.15	1	932.13	.01
333.15	0	770.82	.01
333.15	.1003	784.956	.01
333.15	.2005	799.616	.01
333.15	.3	814.474	.01
333.15	.3999	829.873	.01
333.15	.5	845.357	.01
333.15	.6001	861.071	.01
333.15	.7	877.143	.01
333.15	.8	893.609	.01
333.15	.8999	910.537	.01
333.15	1	927.93	.01

System: 2-butanol + 1-amino-2-propanol; phases: Liquid
Fixed: Pressure, kPa = 101
Property: Refractive index (Na D-line) (Liquid); method: Standard Abbe refractometry
Temperature, K	Mole fraction of 1-amino-2-propanol	Refractive index (Na D-line)	uncertainty
288.15	0	1.3995	.0001
293.15	0	1.3974	.0001
298.15	0	1.3952	.0001
303.15	0	1.393	.0001
308.15	0	1.3907	.0001
313.15	0	1.3883	.0001
318.15	0	1.3859	.0001
323.15	0	1.3835	.0001
328.15	0	1.381	.0001
333.15	0	1.3784	.0001
288.15	.1003	1.4039	.0001
293.15	.1003	1.4018	.0001
298.15	.1003	1.3996	.0001
303.15	.1003	1.3974	.0001
308.15	.1003	1.3952	.0001
313.15	.1003	1.3929	.0001
318.15	.1003	1.3905	.0001
323.15	.1003	1.3881	.0001
328.15	.1003	1.3857	.0001
333.15	.1003	1.3832	.0001
288.15	.2005	1.4082	.0001
298.15	.2005	1.404	.0001
293.15	.2005	1.4062	.0001
303.15	.2005	1.4019	.0001
308.15	.2005	1.3996	.0001
313.15	.2005	1.3974	.0001
318.15	.2005	1.3951	.0001
323.15	.2005	1.3928	.0001
328.15	.2005	1.3905	.0001
333.15	.2005	1.3881	.0001
288.15	.3	1.4128	.0001
303.15	.3	1.4065	.0001
293.15	.3	1.4107	.0001
308.15	.3	1.4043	.0001
298.15	.3	1.4086	.0001
313.15	.3	1.4021	.0001
318.15	.3	1.3999	.0001
323.15	.3	1.3977	.0001
328.15	.3	1.3955	.0001
333.15	.3	1.3932	.0001
288.15	.3999	1.4177	.0001
308.15	.3999	1.4093	.0001
293.15	.3999	1.4156	.0001
313.15	.3999	1.4071	.0001
298.15	.3999	1.4135	.0001
318.15	.3999	1.4049	.0001
303.15	.3999	1.4114	.0001
323.15	.3999	1.4028	.0001
328.15	.3999	1.4006	.0001
333.15	.3999	1.3983	.0001
288.15	.5	1.4228	.0001
313.15	.5	1.4123	.0001
293.15	.5	1.4207	.0001
318.15	.5	1.4102	.0001
298.15	.5	1.4186	.0001
323.15	.5	1.408	.0001
303.15	.5	1.4165	.0001
328.15	.5	1.4059	.0001
308.15	.5	1.4144	.0001
333.15	.5	1.4036	.0001
313.15	.6001	1.4176	.0001
288.15	.6001	1.428	.0001
318.15	.6001	1.4154	.0001
293.15	.6001	1.4259	.0001
308.15	.6001	1.4197	.0001
323.15	.6001	1.4133	.0001
298.15	.6001	1.4239	.0001
328.15	.6001	1.4112	.0001
303.15	.6001	1.4218	.0001
333.15	.6001	1.409	.0001
313.15	.7	1.4229	.0001
318.15	.7	1.4208	.0001
288.15	.7	1.4332	.0001
323.15	.7	1.4187	.0001
293.15	.7	1.4312	.0001
308.15	.7	1.425	.0001
328.15	.7	1.4166	.0001
298.15	.7	1.4292	.0001
303.15	.7	1.4271	.0001
333.15	.7	1.4144	.0001
298.15	.8	1.4345	.0001
323.15	.8	1.4242	.0001
288.15	.8	1.4386	.0001
318.15	.8	1.4263	.0001
303.15	.8	1.4325	.0001
308.15	.8	1.4304	.0001
328.15	.8	1.4221	.0001
293.15	.8	1.4366	.0001
313.15	.8	1.4284	.0001
333.15	.8	1.42	.0001
318.15	.8999	1.4322	.0001
303.15	.8999	1.4382	.0001
308.15	.8999	1.4362	.0001
293.15	.8999	1.4422	.0001
323.15	.8999	1.4302	.0001
328.15	.8999	1.4281	.0001
288.15	.8999	1.4442	.0001
313.15	.8999	1.4342	.0001
298.15	.8999	1.4402	.0001
333.15	.8999	1.426	.0001
323.15	1	1.4358	.0001
298.15	1	1.446	.0001
318.15	1	1.4378	.0001
288.15	1	1.45	.0001
303.15	1	1.444	.0001
328.15	1	1.4337	.0001
308.15	1	1.4419	.0001
313.15	1	1.4399	.0001
293.15	1	1.448	.0001
333.15	1	1.4315	.0001

System: 2-butanol + 1-amino-2-propanol; phases: Liquid
Fixed: Pressure, kPa = 101
Property: Viscosity, Pa*s (Liquid); method: Concentric cylinders viscometry
Temperature, K	Mole fraction of 1-amino-2-propanol	Viscosity, Pa*s	uncertainty
288.15	0	.00459	.00006885
288.15	.1003	.005068	.00007602
288.15	.2005	.00597	.00008955
288.15	.3	.007261	.000108915
288.15	.3999	.009219	.000138285
288.15	.5	.01168	.0001752
288.15	.6001	.01495	.00022425
288.15	.7	.01939	.00029085
288.15	.8	.02516	.0003774
288.15	.8999	.03294	.0004941
288.15	1	.0437	.0006555
293.15	0	.003738	.00005607
293.15	.1003	.00416	.0000624
293.15	.2005	.004888	.00007332
293.15	.3	.005949	.000089235
293.15	.3999	.007373	.000110595
293.15	.5	.009189	.000137835
293.15	.6001	.0116	.000174
293.15	.7	.0148	.000222
293.15	.8	.01877	.00028155
293.15	.8999	.0243	.0003645
293.15	1	.03168	.0004752
298.15	0	.003074	.00004611
298.15	.1003	.00345	.00005175
298.15	.2005	.004048	.00006072
298.15	.3	.004884	.00007326
298.15	.3999	.00596	.0000894
298.15	.5	.007338	.00011007
298.15	.6001	.009121	.000136815
298.15	.7	.01145	.00017175
298.15	.8	.01441	.00021615
298.15	.8999	.01835	.00027525
298.15	1	.02354	.0003531
303.15	0	.002552	.00003828
303.15	.1003	.002889	.000043335
303.15	.2005	.003378	.00005067
303.15	.3	.004059	.000060885
303.15	.3999	.004898	.00007347
303.15	.5	.005963	.000089445
303.15	.6001	.007316	.00010974
303.15	.7	.009136	.00013704
303.15	.8	.01131	.00016965
303.15	.8999	.01416	.0002124
303.15	1	.01789	.00026835
308.15	0	.002144	.00003216
308.15	.1003	.002444	.00003666
308.15	.2005	.00286	.0000429
308.15	.3	.003407	.000051105
308.15	.3999	.00408	.0000612
308.15	.5	.004929	.000073935
308.15	.6001	.005962	.00008943
308.15	.7	.007358	.00011037
308.15	.8	.009005	.000135075
308.15	.8999	.01112	.0001668
308.15	1	.01388	.0002082
313.15	0	.001818	.00002727
313.15	.1003	.002083	.000031245
313.15	.2005	.002436	.00003654
313.15	.3	.002887	.000043305
313.15	.3999	.003435	.000051525
313.15	.5	.004114	.00006171
313.15	.6001	.004924	.00007386
313.15	.7	.006014	.00009021
313.15	.8	.00728	.0001092
313.15	.8999	.008894	.00013341
313.15	1	.01096	.0001644
318.15	0	.001558	.00002337
318.15	.1003	.001795	.000026925
318.15	.2005	.002094	.00003141
318.15	.3	.002466	.00003699
318.15	.3999	.002917	.000043755
318.15	.5	.00347	.00005205
318.15	.6001	.004113	.000061695
318.15	.7	.004982	.00007473
318.15	.8	.005972	.00008958
318.15	.8999	.007219	.000108285
318.15	1	.008798	.00013197
323.15	0	.001348	.00002022
323.15	.1003	.001556	.00002334
323.15	.2005	.001814	.00002721
323.15	.3	.002124	.00003186
323.15	.3999	.002499	.000037485
323.15	.5	.002954	.00004431
323.15	.6001	.003477	.000052155
323.15	.7	.004164	.00006246
323.15	.8	.004955	.000074325
323.15	.8999	.005938	.00008907
323.15	1	.007166	.00010749
328.15	0	.001179	.000017685
328.15	.1003	.001358	.00002037
328.15	.2005	.001576	.00002364
328.15	.3	.001845	.000027675
328.15	.3999	.002154	.00003231
328.15	.5	.002529	.000037935
328.15	.6001	.002969	.000044535
328.15	.7	.003521	.000052815
328.15	.8	.004163	.000062445
328.15	.8999	.004947	.000074205
328.15	1	.005915	.000088725
333.15	0	.001054	.00001581
333.15	.1003	.001211	.000018165
333.15	.2005	.001398	.00002097
333.15	.3	.001637	.000024555
333.15	.3999	.001897	.000028455
333.15	.5	.002212	.00003318
333.15	.6001	.00259	.00003885
333.15	.7	.003042	.00004563
333.15	.8	.003571	.000053565
333.15	.8999	.00421	.00006315
333.15	1	.004986	.00007479
