Measured thermophysical data. Apparent Molar Volumes of 1-Alkyl (n = 2, 4, 6)-3-methylimidazolium Bromides in a Mixed-Solvent Medium of Acetonitrile + Water at Temperatures of (293.15, 303.15, and 313.15) K
Source: J. Chem. Eng. Data, 2014, 10.1021/je400473z
Compound 1: 1-hexyl-3-methylimidazolium bromide, C10H19BrN2
Compound 2: 1-butyl-3-methylimidazolium bromide, C8H15BrN2
Compound 3: 1-ethyl-3-methylimidazolium bromide, C6H11BrN2
Compound 4: acetonitrile, C2H3N, purity 99.9%
Compound 5: water, H2O

System: acetonitrile + water; phases: Liquid
Fixed: Pressure, kPa = 101
Property: Mass density, kg/m3 (Liquid); method: Vibrating tube method
Mass fraction of acetonitrile	Temperature, K	Mass density, kg/m3	uncertainty
.1	293.15	983.2	2
.2	293.15	964.2	2
.4	293.15	918.7	2
.1	303.15	978.7	2
.2	303.15	958.2	2
.4	303.15	910.9	2
.1	313.15	973.5	2
.2	313.15	951.6	2
.4	313.15	902.8	2

System: acetonitrile + water + 1-hexyl-3-methylimidazolium bromide; phases: Liquid
Fixed: Pressure, kPa = 101
Property: Mass density, kg/m3 (Liquid); method: Vibrating tube method
Solvent: Mole fraction of acetonitrile	Molality, mol/kg of 1-hexyl-3-methylimidazolium bromide	Temperature, K	Mass density, kg/m3	uncertainty
.1	.00817	293.15	983.6	2
.1	.01534	293.15	984	2
.1	.02047	293.15	984.2	2
.1	.02562	293.15	984.5	2
.1	.03077	293.15	984.7	2
.1	.03594	293.15	985	2
.1	.04111	293.15	985.3	2
.1	.0463	293.15	985.5	2
.1	.05143	293.15	985.7	2
.1	.00817	303.15	979.1	2
.1	.01534	303.15	979.5	2
.1	.02047	303.15	979.7	2
.1	.02562	303.15	980	2
.1	.03077	303.15	980.2	2
.1	.03594	303.15	980.4	2
.1	.04111	303.15	980.8	2
.1	.0463	303.15	980.9	2
.1	.05143	303.15	981.2	2
.1	.00817	313.15	974	2
.1	.01534	313.15	974.3	2
.1	.02047	313.15	974.5	2
.1	.02562	313.15	974.8	2
.1	.03077	313.15	975.1	2
.1	.03594	313.15	975.2	2
.1	.04111	313.15	975.6	2
.1	.0463	313.15	975.7	2
.1	.05143	313.15	976	2
.2	.00831	293.15	964.6	2
.2	.01558	293.15	965.1	2
.2	.02077	293.15	965.3	2
.2	.02595	293.15	965.5	2
.2	.03113	293.15	965.9	2
.2	.03631	293.15	966.1	2
.2	.04149	293.15	966.3	2
.2	.04666	293.15	966.6	2
.2	.05183	293.15	966.9	2
.2	.00831	303.15	958.6	2
.2	.01558	303.15	959	2
.2	.02077	303.15	959.3	2
.2	.02595	303.15	959.5	2
.2	.03113	303.15	959.9	2
.2	.03631	303.15	960.1	2
.2	.04149	303.15	960.3	2
.2	.04666	303.15	960.6	2
.2	.05183	303.15	960.8	2
.2	.00831	313.15	952.2	2
.2	.01558	313.15	952.6	2
.2	.02077	313.15	952.8	2
.2	.02595	313.15	953	2
.2	.03113	313.15	953.3	2
.2	.03631	313.15	953.6	2
.2	.04149	313.15	953.8	2
.2	.04666	313.15	954.1	2
.2	.05183	313.15	954.3	2
.4	.0091	293.15	919.5	2
.4	.01705	293.15	920.1	2
.4	.02273	293.15	920.3	2
.4	.0284	293.15	920.7	2
.4	.03407	293.15	921	2
.4	.03972	293.15	921.4	2
.4	.04538	293.15	921.7	2
.4	.05104	293.15	922	2
.4	.0575	293.15	922.3	2
.4	.0091	303.15	911.8	2
.4	.01705	303.15	912.3	2
.4	.02273	303.15	912.6	2
.4	.0284	303.15	912.9	2
.4	.03407	303.15	913.2	2
.4	.03972	303.15	913.7	2
.4	.04538	303.15	914	2
.4	.05104	303.15	914.3	2
.4	.0575	303.15	914.6	2
.4	.0091	313.15	903.7	2
.4	.01705	313.15	904.2	2
.4	.02273	313.15	904.6	2
.4	.0284	313.15	904.8	2
.4	.03407	313.15	905.2	2
.4	.03972	313.15	905.6	2
.4	.04538	313.15	905.9	2
.4	.05104	313.15	906.2	2
.4	.0575	313.15	906.5	2

System: acetonitrile + water + 1-butyl-3-methylimidazolium bromide; phases: Liquid
Fixed: Pressure, kPa = 101
Property: Mass density, kg/m3 (Liquid); method: Vibrating tube method
Solvent: Mole fraction of acetonitrile	Molality, mol/kg of 1-butyl-3-methylimidazolium bromide	Temperature, K	Mass density, kg/m3	uncertainty
.1	.01032	293.15	983.7	2
.1	.01938	293.15	984.2	2
.1	.02587	293.15	984.6	2
.1	.03238	293.15	985	2
.1	.03891	293.15	985.3	2
.1	.04545	293.15	985.6	2
.1	.05201	293.15	986	2
.1	.05858	293.15	986.3	2
.1	.06505	293.15	986.7	2
.1	.01032	303.15	979.2	2
.1	.01938	303.15	979.7	2
.1	.02587	303.15	980.1	2
.1	.03238	303.15	980.4	2
.1	.03891	303.15	980.8	2
.1	.04545	303.15	981.1	2
.1	.05201	303.15	981.4	2
.1	.05858	303.15	981.8	2
.1	.06505	303.15	982.1	2
.1	.01032	313.15	974.1	2
.1	.01938	313.15	974.6	2
.1	.02587	313.15	974.9	2
.1	.03238	313.15	975.3	2
.1	.03891	313.15	975.6	2
.1	.04545	313.15	975.9	2
.1	.05201	313.15	976.3	2
.1	.05858	313.15	976.6	2
.1	.06505	313.15	976.9	2
.2	.00876	293.15	964.8	2
.2	.01641	293.15	965.3	2
.2	.02187	293.15	965.6	2
.2	.02733	293.15	966	2
.2	.03278	293.15	966.2	2
.2	.03823	293.15	966.7	2
.2	.04368	293.15	966.9	2
.2	.04913	293.15	967.2	2
.2	.05457	293.15	967.5	2
.2	.00876	303.15	958.8	2
.2	.01641	303.15	959.3	2
.2	.02187	303.15	959.6	2
.2	.02733	303.15	959.9	2
.2	.03278	303.15	960.2	2
.2	.03823	303.15	960.7	2
.2	.04368	303.15	960.9	2
.2	.04913	303.15	961.2	2
.2	.05457	303.15	961.4	2
.2	.00876	313.15	952.3	2
.2	.01641	313.15	952.8	2
.2	.02187	313.15	953.1	2
.2	.02733	313.15	953.5	2
.2	.03278	313.15	953.6	2
.2	.03823	313.15	954.2	2
.2	.04368	313.15	954.4	2
.2	.04913	313.15	954.7	2
.2	.05457	313.15	954.9	2
.4	.00877	293.15	919.3	2
.4	.01646	293.15	919.8	2
.4	.02197	293.15	920.2	2
.4	.02748	293.15	920.5	2
.4	.03301	293.15	920.7	2
.4	.03854	293.15	921.2	2
.4	.04409	293.15	921.5	2
.4	.04964	293.15	921.8	2
.4	.05521	293.15	922.1	2
.4	.00877	303.15	911.5	2
.4	.01646	303.15	912.1	2
.4	.02197	303.15	912.4	2
.4	.02748	303.15	912.8	2
.4	.03301	303.15	913	2
.4	.03854	303.15	913.4	2
.4	.04409	303.15	913.7	2
.4	.04964	303.15	914	2
.4	.05521	303.15	914.3	2
.4	.00877	313.15	903.4	2
.4	.01646	313.15	904	2
.4	.02197	313.15	904.3	2
.4	.02748	313.15	904.6	2
.4	.03301	313.15	905.1	2
.4	.03854	313.15	905.3	2
.4	.04409	313.15	905.6	2
.4	.04964	313.15	905.9	2
.4	.05521	313.15	906.2	2

System: acetonitrile + water + 1-ethyl-3-methylimidazolium bromide; phases: Liquid
Fixed: Pressure, kPa = 101
Property: Mass density, kg/m3 (Liquid); method: Vibrating tube method
Solvent: Mole fraction of acetonitrile	Molality, mol/kg of 1-ethyl-3-methylimidazolium bromide	Temperature, K	Mass density, kg/m3	uncertainty
.1	.00849	293.15	983.7	2
.1	.01593	293.15	984.2	2
.1	.02126	293.15	984.5	2
.1	.02661	293.15	984.8	2
.1	.03196	293.15	985.1	2
.1	.03733	293.15	985.4	2
.1	.0427	293.15	985.7	2
.1	.04809	293.15	986	2
.1	.05341	293.15	986.2	2
.1	.00849	303.15	979.2	2
.1	.01593	303.15	979.7	2
.1	.02126	303.15	980	2
.1	.02661	303.15	980.3	2
.1	.03196	303.15	980.6	2
.1	.03733	303.15	980.9	2
.1	.0427	303.15	981.2	2
.1	.04809	303.15	981.5	2
.1	.05341	303.15	981.7	2
.1	.00849	313.15	974.1	2
.1	.01593	313.15	974.5	2
.1	.02126	313.15	974.9	2
.1	.02661	313.15	975.2	2
.1	.03196	313.15	975.4	2
.1	.03733	313.15	975.7	2
.1	.0427	313.15	976.1	2
.1	.04809	313.15	976.4	2
.1	.05341	313.15	976.6	2
.2	.00926	293.15	964.7	2
.2	.01735	293.15	965.3	2
.2	.02312	293.15	965.6	2
.2	.02889	293.15	966	2
.2	.03465	293.15	966.3	2
.2	.04041	293.15	966.7	2
.2	.04617	293.15	967.1	2
.2	.05192	293.15	967.5	2
.2	.05767	293.15	967.7	2
.2	.00926	303.15	958.7	2
.2	.01735	303.15	959.2	2
.2	.02312	303.15	959.6	2
.2	.02889	303.15	960	2
.2	.03465	303.15	960.3	2
.2	.04041	303.15	960.6	2
.2	.04617	303.15	961	2
.2	.05192	303.15	961.4	2
.2	.05767	303.15	961.6	2
.2	.00926	313.15	952.1	2
.2	.01735	313.15	952.6	2
.2	.02312	313.15	953	2
.2	.02889	313.15	953.4	2
.2	.03465	313.15	953.8	2
.2	.04041	313.15	954.1	2
.2	.04617	313.15	954.6	2
.2	.05192	313.15	954.9	2
.2	.05767	313.15	955.2	2
.4	.0084	293.15	919.2	2
.4	.01576	293.15	919.7	2
.4	.02102	293.15	920.1	2
.4	.02629	293.15	920.5	2
.4	.03157	293.15	920.8	2
.4	.03686	293.15	921.1	2
.4	.04215	293.15	921.5	2
.4	.04745	293.15	921.8	2
.4	.05276	293.15	922.1	2
.4	.0084	303.15	911.4	2
.4	.01576	303.15	912	2
.4	.02102	303.15	912.4	2
.4	.02629	303.15	912.7	2
.4	.03157	303.15	913	2
.4	.03686	303.15	913.4	2
.4	.04215	303.15	913.7	2
.4	.04745	303.15	914.1	2
.4	.05276	303.15	914.4	2
.4	.0084	313.15	903.3	2
.4	.01576	313.15	903.9	2
.4	.02102	313.15	904.3	2
.4	.02629	313.15	904.6	2
.4	.03157	313.15	904.9	2
.4	.03686	313.15	905.3	2
.4	.04215	313.15	905.6	2
.4	.04745	313.15	906	2
.4	.05276	313.15	906.2	2
