Measured thermophysical data. Solubility of Sodium Salts in Ammonium-Based Deep Eutectic Solvents
Source: J. Chem. Eng. Data, 2013, 10.1021/je400045d
Compound 1: choline hydrochloride, C5H14ClNO, purity 99%
Compound 2: 1,2-dihydroxyethane, C2H6O2, purity 99%
Compound 3: sodium chloride, ClNa, purity 99%
Compound 4: sodium carbonate, CNa2O3, purity 99%
Compound 5: sodium bromide, BrNa, purity 99%
Compound 6: glycerol, C3H8O3, purity 99%
Compound 7: 2-(diethylamino)ethanol hydrochloride, C6H16ClNO, purity 99%
Compound 8: zinc chloride, Cl2Zn, purity 99%
Compound 9: iron trichloride, Cl3Fe, purity 99%
Compound 10: tin dichloride, Cl2Sn, purity 99%

System: choline hydrochloride + 1,2-dihydroxyethane + sodium chloride; phases: Liquid, Crystal
Fixed: Pressure, kPa = 101
Property: Mass fraction of sodium chloride (Liquid); method: shake-flask method
Temperature, K	Solvent: Amount ratio of component to other component of binary solvent of choline hydrochloride	Mass fraction of sodium chloride	uncertainty
298.15	.57143	.0001	.000005
308.15	.57143	.0003	.000015
323.15	.57143	.0003	.000015
333.15	.57143	.0004	.00002
298.15	.5	.0001	.000005
308.15	.5	.0005	.000025
323.15	.5	.0004	.00002
333.15	.5	.0005	.000025
298.15	.44444	0	0
308.15	.44444	.0005	.000025
323.15	.44444	.0005	.000025
333.15	.44444	.0006	.00003
298.15	.4	.0001	.000005
308.15	.4	.0007	.000035
323.15	.4	.0006	.00003
333.15	.4	.0007	.000035

System: choline hydrochloride + 1,2-dihydroxyethane + sodium carbonate; phases: Liquid, Crystal
Fixed: Pressure, kPa = 101
Property: Mass fraction of sodium carbonate (Liquid); method: shake-flask method
Temperature, K	Solvent: Amount ratio of component to other component of binary solvent of choline hydrochloride	Mass fraction of sodium carbonate	uncertainty
298.15	.57143	.0003	.000015
308.15	.57143	.0022	.00011
323.15	.57143	.0022	.00011
333.15	.57143	.0025	.000125
298.15	.5	.0002	.00001
308.15	.5	.0016	.00008
323.15	.5	.0015	.000075
333.15	.5	.0018	.00009
298.15	.44444	.0001	.000005
308.15	.44444	.0015	.000075
323.15	.44444	.0014	.00007
333.15	.44444	.0016	.00008
298.15	.4	.0001	.000005
308.15	.4	.0018	.00009
323.15	.4	.0015	.000075
333.15	.4	.0018	.00009

System: choline hydrochloride + 1,2-dihydroxyethane + sodium bromide; phases: Liquid, Crystal
Fixed: Pressure, kPa = 101
Property: Mass fraction of sodium bromide (Liquid); method: shake-flask method
Temperature, K	Solvent: Amount ratio of component to other component of binary solvent of choline hydrochloride	Mass fraction of sodium bromide	uncertainty
298.15	.57143	0	0
308.15	.57143	.0003	.000015
323.15	.57143	.0003	.000015
333.15	.57143	.0003	.000015
298.15	.5	0	0
308.15	.5	.0004	.00002
323.15	.5	.0004	.00002
333.15	.5	.0005	.000025
298.15	.44444	0	0
308.15	.44444	.0004	.00002
323.15	.44444	.0004	.00002
333.15	.44444	.0004	.00002
298.15	.4	.0001	.000005
308.15	.4	.0015	.000075
323.15	.4	.0012	.00006
333.15	.4	.0014	.00007

System: glycerol + choline hydrochloride + sodium chloride; phases: Liquid, Crystal
Fixed: Pressure, kPa = 101
Property: Mass fraction of sodium chloride (Liquid); method: shake-flask method
Temperature, K	Solvent: Amount ratio of component to other component of binary solvent of choline hydrochloride	Mass fraction of sodium chloride	uncertainty
298.15	.66667	.0037	.000185
323.15	.66667	.0036	.00018
348.15	.66667	.0033	.000165
373.15	.66667	.0032	.00016
393.15	.66667	.0031	.000155
413.15	.66667	.0031	.000155
323.15	.5	.0043	.000215
348.15	.5	.0042	.00021
373.15	.5	.004	.0002
393.15	.5	.004	.0002
413.15	.5	.004	.0002
298.15	.4	.0087	.000435
323.15	.4	.0086	.00043
348.15	.4	.0084	.00042
373.15	.4	.008	.0004
393.15	.4	.008	.0004
413.15	.4	.0078	.00039
298.15	.33333	.0037	.000185
323.15	.33333	.0036	.00018
348.15	.33333	.0033	.000165
373.15	.33333	.0032	.00016
393.15	.33333	.0031	.000155
413.15	.33333	.0031	.000155

System: glycerol + choline hydrochloride + sodium bromide; phases: Liquid, Crystal
Fixed: Pressure, kPa = 101
Property: Mass fraction of sodium bromide (Liquid); method: shake-flask method
Temperature, K	Solvent: Amount ratio of component to other component of binary solvent of choline hydrochloride	Mass fraction of sodium bromide	uncertainty
298.15	.66667	.0033	.000165
323.15	.66667	.0032	.00016
348.15	.66667	.003	.00015
373.15	.66667	.0029	.000145
393.15	.66667	.0028	.00014
323.15	.5	.0038	.00019
348.15	.5	.0038	.00019
373.15	.5	.0036	.00018
393.15	.5	.0036	.00018
323.15	.4	.0078	.00039
348.15	.4	.0076	.00038
373.15	.4	.0072	.00036
393.15	.4	.0072	.00036
413.15	.4	.0066	.00033
323.15	.33333	.0098	.00049
348.15	.33333	.0097	.000485
373.15	.33333	.0094	.00047
393.15	.33333	.0088	.00044

System: 1,2-dihydroxyethane + sodium chloride + 2-(diethylamino)ethanol hydrochloride; phases: Liquid, Crystal
Fixed: Pressure, kPa = 101
Property: Mass fraction of sodium chloride (Liquid); method: shake-flask method
Temperature, K	Solvent: Amount ratio of component to other component of binary solvent of 2-(diethylamino)ethanol hydrochloride	Mass fraction of sodium chloride	uncertainty
298.15	.4	.0044	.00022
323.15	.4	.004	.0002
348.15	.4	.0037	.000185
373.15	.4	.0032	.00016
398.15	.4	.0028	.00014
423.15	.4	.0021	.000105
298.15	.33333	.0053	.000265
323.15	.33333	.0052	.00026
348.15	.33333	.0051	.000255
373.15	.33333	.0049	.000245
398.15	.33333	.0044	.00022
423.15	.33333	.0041	.000205
298.15	.25	.0104	.00052
323.15	.25	.0098	.00049
348.15	.25	.0095	.000475
373.15	.25	.0086	.00043
398.15	.25	.008	.0004
423.15	.25	.007	.00035
298.15	.22222	.0115	.000575
323.15	.22222	.0107	.000535
348.15	.22222	.0106	.00053
373.15	.22222	.0099	.000495
398.15	.22222	.0089	.000445
423.15	.22222	.008	.0004

System: glycerol + sodium chloride + 2-(diethylamino)ethanol hydrochloride; phases: Liquid, Crystal
Fixed: Pressure, kPa = 101
Property: Mass fraction of sodium chloride (Liquid); method: shake-flask method
Temperature, K	Solvent: Amount ratio of component to other component of binary solvent of 2-(diethylamino)ethanol hydrochloride	Mass fraction of sodium chloride	uncertainty
298.15	.4	.0105	.000525
323.15	.4	.011	.00055
348.15	.4	.0118	.00059
373.15	.4	.012	.0006
398.15	.4	.0127	.000635
423.15	.4	.0131	.000655
298.15	.33333	.0114	.00057
323.15	.33333	.012	.0006
348.15	.33333	.0126	.00063
373.15	.33333	.0133	.000665
398.15	.33333	.0137	.000685
423.15	.33333	.0143	.000715
298.15	.25	.0205	.001025
323.15	.25	.0223	.001115
348.15	.25	.0236	.00118
373.15	.25	.024	.0012
398.15	.25	.0245	.001225
423.15	.25	.0253	.001265

System: choline hydrochloride + zinc chloride + sodium chloride; phases: Liquid, Crystal
Fixed: Pressure, kPa = 101
Property: Mass fraction of sodium chloride (Liquid); method: shake-flask method
Temperature, K	Solvent: Amount ratio of component to other component of binary solvent of choline hydrochloride	Mass fraction of sodium chloride	uncertainty
323.15	1	.4256	.008512
333.15	1	.4368	.008736
348.15	1	.4485	.00897
383.15	1	.46	.0092
398.15	1	.4524	.009048
408.15	1	.4495	.00899
323.15	.5	.58	.0116
333.15	.5	.6	.012
343.15	.5	.62	.0124
348.15	.5	.63	.0126
383.15	.5	.656	.01312
398.15	.5	.63	.0126
408.15	.5	.625	.0125
323.15	.33333	.6	.012
333.15	.33333	.63	.0126
343.15	.33333	.65	.013
348.15	.33333	.66	.0132
383.15	.33333	.6815	.01363
398.15	.33333	.67	.0134
408.15	.33333	.66	.0132

System: choline hydrochloride + zinc chloride + sodium bromide; phases: Liquid, Crystal
Fixed: Pressure, kPa = 101
Property: Mass fraction of sodium bromide (Liquid); method: shake-flask method
Temperature, K	Solvent: Amount ratio of component to other component of binary solvent of choline hydrochloride	Mass fraction of sodium bromide	uncertainty
323.15	1	.415	.0083
328.15	1	.423	.00846
333.15	1	.43	.0086
343.15	1	.44	.0088
363.15	1	.447	.00894
393.15	1	.442	.00884
403.15	1	.441	.00882
323.15	.5	.504	.01008
328.15	.5	.512	.01024
333.15	.5	.523	.01046
343.15	.5	.536	.01072
363.15	.5	.549	.01098
393.15	.5	.54	.0108
403.15	.5	.538	.01076
323.15	.33333	.534	.01068
328.15	.33333	.54	.0108
333.15	.33333	.555	.0111
343.15	.33333	.567	.01134
363.15	.33333	.583	.01166
393.15	.33333	.57	.0114
403.15	.33333	.568	.01136

System: zinc chloride + sodium chloride + 2-(diethylamino)ethanol hydrochloride; phases: Liquid, Crystal
Fixed: Pressure, kPa = 101
Property: Mass fraction of sodium chloride (Liquid); method: shake-flask method
Temperature, K	Solvent: Amount ratio of component to other component of binary solvent of 2-(diethylamino)ethanol hydrochloride	Mass fraction of sodium chloride	uncertainty
323.15	1	.67	.0134
333.15	1	.676	.01352
348.15	1	.681	.01362
358.15	1	.688	.01376
363.15	1	.682	.01364
383.15	1	.6796	.013592
393.15	1	.673	.01346
323.15	.5	.76	.0152
333.15	.5	.767	.01534
348.15	.5	.772	.01544
358.15	.5	.7725	.01545
363.15	.5	.768	.01536
383.15	.5	.7497	.014994
393.15	.5	.743	.01486
323.15	.33333	.777	.01554
333.15	.33333	.784	.01568
348.15	.33333	.793	.01586
358.15	.33333	.8	.016
363.15	.33333	.793	.01586
383.15	.33333	.786	.01572
393.15	.33333	.779	.01558
323.15	.25	.5042	.010084
333.15	.25	.508	.01016
348.15	.25	.511	.01022
358.15	.25	.512	.01024
363.15	.25	.511	.01022
383.15	.25	.51	.0102
393.15	.25	.5087	.010174

System: sodium chloride + iron trichloride + 2-(diethylamino)ethanol hydrochloride; phases: Liquid, Crystal
Fixed: Pressure, kPa = 101
Fixed: Solvent: Amount ratio of component to other component of binary solvent of 2-(diethylamino)ethanol hydrochloride = .33333
Property: Mass fraction of sodium chloride (Liquid); method: shake-flask method
Temperature, K	Mass fraction of sodium chloride	uncertainty
317.15	.0357	.001785
328.15	.0472	.00236
350.15	.1021	.005105
368.15	.104	.0052

System: choline hydrochloride + sodium chloride + tin dichloride; phases: Liquid, Crystal
Property: Mass fraction of sodium chloride (Liquid); method: x
Solvent: Amount ratio of component to other component of binary solvent of tin dichloride	Temperature, K	Pressure, kPa	Mass fraction of sodium chloride	uncertainty
3	333.15	101	.0208	.00104
