Measured thermophysical data. Equilibrium Solubilities of 2-Cyanoguanidine in Water + (Ethane-1,2-diol or N,N-Dimethylformamide) Mixtures at Different Temperatures: An Experimental and Correlational Study
Source: J. Chem. Eng. Data, 2013, 10.1021/je400754e
Compound 1: cyanoguanidine, C2H4N4, purity 99%
Compound 2: 1,2-ethanediol, C2H6O2, purity 99.8%
Compound 3: N,N-dimethylformamide, C3H7NO, purity 99%
Compound 4: water, H2O, purity 99.9%

System: 1,2-ethanediol + cyanoguanidine + water; phases: Liquid, Crystal
Fixed: Pressure, kPa = 101
Property: Mole fraction of cyanoguanidine (Liquid); method: UV Spectra
Temperature, K	Solvent: Mole fraction of 1,2-ethanediol	Mole fraction of cyanoguanidine	uncertainty
278.15	.186	.005707	
283.15	.186	.007178	
288.15	.186	.009795	
293.15	.186	.012103	
298.15	.186	.015613	
303.15	.186	.019847	
308.15	.186	.023235	
313.15	.186	.02816	
318.15	.186	.033882	
323.15	.186	.041078	
278.15	.133	.004853	
283.15	.133	.006525	
288.15	.133	.008492	
293.15	.133	.010424	
298.15	.133	.013457	
303.15	.133	.01741	
308.15	.133	.02046	
313.15	.133	.025001	
318.15	.133	.030191	
323.15	.133	.03618	
278.15	.089	.004328	
283.15	.089	.00556	
288.15	.089	.007446	
293.15	.089	.009076	
298.15	.089	.011726	
303.15	.089	.015454	
308.15	.089	.018232	
313.15	.089	.022465	
318.15	.089	.027227	
323.15	.089	.033051	
278.15	.054	.003898	
283.15	.054	.004933	
288.15	.054	.006588	
293.15	.054	.008772	
298.15	.054	.010307	
303.15	.054	.01385	
308.15	.054	.016404	
313.15	.054	.020385	
318.15	.054	.024794	
323.15	.054	.030485	
278.15	.025	.003539	
283.15	.025	.00467	
288.15	.025	.005873	
293.15	.025	.00785	
298.15	.025	.009721	
303.15	.025	.012511	
308.15	.025	.014877	
313.15	.025	.018648	
318.15	.025	.022761	
323.15	.025	.028342	
278.15	0	.003034	
283.15	0	.003867	
288.15	0	.005265	
293.15	0	.007068	
298.15	0	.008915	
303.15	0	.011375	
308.15	0	.014112	
313.15	0	.017174	
318.15	0	.021035	
323.15	0	.026523	

System: N,N-dimethylformamide + cyanoguanidine + water; phases: Liquid, Crystal
Fixed: Pressure, kPa = 101
Property: Mole fraction of cyanoguanidine (Liquid); method: UV Spectra
Temperature, K	Solvent: Mole fraction of N,N-dimethylformamide	Mole fraction of cyanoguanidine	uncertainty
278.15	.189	.043711	
283.15	.189	.045732	
288.15	.189	.050641	
293.15	.189	.054697	
298.15	.189	.058663	
303.15	.189	.065435	
308.15	.189	.068271	
313.15	.189	.072901	
318.15	.189	.079049	
323.15	.189	.085102	
278.15	.135	.032402	
283.15	.135	.033987	
288.15	.135	.037996	
293.15	.135	.041494	
298.15	.135	.044886	
303.15	.135	.05045	
308.15	.135	.053113	
313.15	.135	.057464	
318.15	.135	.063003	
323.15	.135	.068904	
278.15	.091	.023135	
283.15	.091	.024358	
288.15	.091	.027616	
293.15	.091	.030648	
298.15	.091	.033559	
303.15	.091	.038103	
308.15	.091	.040622	
313.15	.091	.044738	
318.15	.091	.049761	
323.15	.091	.055535	
278.15	.055	.015403	
283.15	.055	.016321	
288.15	.055	.018941	
293.15	.055	.021578	
298.15	.055	.024081	
303.15	.055	.027753	
308.15	.055	.030151	
313.15	.055	.034067	
318.15	.055	.038648	
323.15	.055	.044313	
278.15	.025	.008553	
283.15	.025	.009511	
288.15	.025	.011585	
293.15	.025	.013882	
298.15	.025	.016034	
303.15	.025	.018952	
308.15	.025	.021247	
313.15	.025	.024991	
318.15	.025	.029188	
323.15	.025	.034758	
278.15	0	.003034	
283.15	0	.003867	
288.15	0	.005265	
293.15	0	.007068	
298.15	0	.008915	
303.15	0	.011375	
308.15	0	.014112	
313.15	0	.017174	
318.15	0	.021035	
323.15	0	.026523	

System: cyanoguanidine + water; phases: Liquid, Crystal
Property: Mole fraction of cyanoguanidine (Liquid); method: UV Spectra
Temperature, K	Pressure, kPa	Mole fraction of cyanoguanidine	uncertainty
278.15	101.325	.003034	
283.15	101.325	.003867	
288.15	101.325	.005265	
293.15	101.325	.007068	
298.15	101.325	.008915	
303.15	101.325	.011375	
308.15	101.325	.014112	
313.15	101.325	.017174	
318.15	101.325	.021035	
323.15	101.325	.026523	
