Measured thermophysical data. Experimental and Correlational Study of Phase Equilibria in Aqueous Solutions of Formic and Butyric Acids with Isoamyl Acetate and Methyl Isoamyl Ketone at T = 298.15 K
Source: J. Chem. Eng. Data, 2014, 10.1021/je401095k
Compound 1: formic acid, CH2O2, purity 99%
Compound 2: butyric acid, C4H8O2, purity 99%
Compound 3: isoamyl acetate, C7H14O2, purity 99%
Compound 4: isoamyl methyl ketone, C7H14O, purity 99%
Compound 5: water, H2O

System: formic acid; phases: Liquid
Fixed: Pressure, kPa = 101.325
Property: Refractive index (Na D-line) (Liquid); method: Standard Abbe refractometry
Temperature, K	Refractive index (Na D-line)	uncertainty
293.2	1.371	.0002

System: formic acid; phases: Liquid
Fixed: Pressure, kPa = 101.325
Property: Mass density, kg/m3 (Liquid); method: Vibrating tube method
Temperature, K	Mass density, kg/m3	uncertainty
293.2	1219.5	.03

System: butyric acid; phases: Liquid
Fixed: Pressure, kPa = 101.325
Property: Refractive index (Na D-line) (Liquid); method: Standard Abbe refractometry
Temperature, K	Refractive index (Na D-line)	uncertainty
293.2	1.3977	.0002

System: butyric acid; phases: Liquid
Fixed: Pressure, kPa = 101.325
Property: Mass density, kg/m3 (Liquid); method: Vibrating tube method
Temperature, K	Mass density, kg/m3	uncertainty
293.2	952.68	.03

System: isoamyl acetate; phases: Liquid
Fixed: Pressure, kPa = 101.325
Property: Refractive index (Na D-line) (Liquid); method: Standard Abbe refractometry
Temperature, K	Refractive index (Na D-line)	uncertainty
293.2	1.3976	.0002

System: isoamyl acetate; phases: Liquid
Fixed: Pressure, kPa = 101.325
Property: Mass density, kg/m3 (Liquid); method: Vibrating tube method
Temperature, K	Mass density, kg/m3	uncertainty
293.2	866.71	.03

System: isoamyl methyl ketone; phases: Liquid
Fixed: Pressure, kPa = 101.325
Property: Refractive index (Na D-line) (Liquid); method: Standard Abbe refractometry
Temperature, K	Refractive index (Na D-line)	uncertainty
293.2	1.4051	.0002

System: isoamyl methyl ketone; phases: Liquid
Fixed: Pressure, kPa = 101.325
Property: Mass density, kg/m3 (Liquid); method: Vibrating tube method
Temperature, K	Mass density, kg/m3	uncertainty
293.2	887.92	.03

System: water; phases: Liquid
Fixed: Pressure, kPa = 101.325
Property: Refractive index (Na D-line) (Liquid); method: Standard Abbe refractometry
Temperature, K	Refractive index (Na D-line)	uncertainty
293.2	1.3324	.0002

System: water; phases: Liquid
Fixed: Pressure, kPa = 101.325
Property: Mass density, kg/m3 (Liquid); method: Vibrating tube method
Temperature, K	Mass density, kg/m3	uncertainty
293.2	997.01	.03

System: formic acid + isoamyl acetate + water; phases: Liquid mixture 1, Liquid mixture 2
Fixed: Temperature, K = 298.15
Fixed: Pressure, kPa = 101.325
Property: Mass fraction of formic acid (Liquid mixture 1); method: Titration method
Mass fraction of water	Mass fraction of formic acid	uncertainty
.9477	.0501	.0007
.8967	.1	.0007
.8439	.1507	.0007
.794	.1995	.0007
.7375	.2539	.0007
.6938	.2955	.0007
.6407	.3465	.0007
.5904	.3946	.0007
.5394	.4413	.0007
.4816	.4931	.0007
.4265	.5217	.0007
.3719	.5559	.0007
.2755	.5423	.0007
.3169	.5881	.0007
.2561	.5207	.0007
.2351	.4984	.0007
.2149	.4705	.0007
.1899	.4406	.0007
.1695	.4192	.0007
.1485	.3831	.0007
.13	.3533	.0007
.1147	.3103	.0007
.1034	.2719	.0007
.0853	.2309	.0007
.0773	.193	.0007
.0632	.1406	.0007
.0473	.0984	.0007
.0361	.0485	.0007

System: formic acid + isoamyl acetate + water; phases: Liquid mixture 2, Liquid mixture 1
Property: Mass fraction of water (Liquid mixture 2); method: Titration method
Property: Mass fraction of water (Liquid mixture 1); method: Titration method
Property: Mass fraction of formic acid (Liquid mixture 1); method: Titration method
Temperature, K	Pressure, kPa	Mass fraction of formic acid	Mass fraction of water	uncertainty	Mass fraction of water	uncertainty	Mass fraction of formic acid	uncertainty
298.15	101.325	.057	.039	.001	.783	.001	.21	.001
298.15	101.325	.108	.053	.001	.645	.001	.343	.001
298.15	101.325	.169	.071	.001	.576	.001	.408	.001
298.15	101.325	.2	.08	.001	.502	.001	.476	.001
298.15	101.325	.262	.096	.001	.43	.001	.525	.001
298.15	101.325	.302	.113	.001	.397	.001	.541	.001

System: formic acid + isoamyl acetate + water; phases: Liquid mixture 1, Liquid mixture 2
Fixed: Pressure, kPa = 101
Fixed: Temperature, K = 298.15
Property: Refractive index (Na D-line) (Liquid mixture 1); method: Standard Abbe refractometry
Mass fraction of water	Refractive index (Na D-line)	uncertainty
.8439	1.3377	.0002
.794	1.3404	.0002
.7375	1.3424	.0002
.6407	1.3477	.0002
.5904	1.3492	.0002
.5394	1.3523	.0002
.4816	1.3543	.0002

System: formic acid + isoamyl acetate + water; phases: Liquid mixture 2, Liquid mixture 1
Fixed: Pressure, kPa = 101
Fixed: Temperature, K = 298.15
Property: Refractive index (Na D-line) (Liquid mixture 2); method: Standard Abbe refractometry
Mass fraction of isoamyl acetate	Refractive index (Na D-line)	uncertainty
.575	1.3815	.0002
.6246	1.3833	.0002
.6838	1.3848	.0002
.7296	1.3866	.0002
.7962	1.3887	.0002
.8543	1.3904	.0002
.9154	1.3918	.0002

System: formic acid + isoamyl methyl ketone + water; phases: Liquid mixture 1, Liquid mixture 2
Fixed: Temperature, K = 298.15
Fixed: Pressure, kPa = 101.325
Property: Mass fraction of formic acid (Liquid mixture 1); method: Titration method
Mass fraction of water	Mass fraction of formic acid	uncertainty
.9442	.0498	.0007
.8926	.0994	.0007
.8435	.1478	.0007
.7921	.1982	.0007
.7358	.2485	.0007
.6861	.2945	.0007
.6307	.346	.0007
.5822	.387	.0007
.5219	.4344	.0007
.336	.4663	.0007
.476	.4661	.0007
.3154	.4392	.0007
.4075	.495	.0007
.373	.4935	.0007
.2916	.4252	.0007
.2675	.4076	.0007
.2354	.3783	.0007
.2126	.3543	.0007
.1894	.3233	.0007
.1698	.2972	.0007
.1412	.2659	.0007
.1201	.2223	.0007
.0991	.1803	.0007
.0839	.1527	.0007
.0725	.1256	.0007
.0588	.0942	.0007
.0372	.05	.0007
.0265	.0341	.0007

System: formic acid + isoamyl methyl ketone + water; phases: Liquid mixture 2, Liquid mixture 1
Property: Mass fraction of water (Liquid mixture 2); method: Titration method
Property: Mass fraction of water (Liquid mixture 1); method: Titration method
Property: Mass fraction of formic acid (Liquid mixture 1); method: Titration method
Temperature, K	Pressure, kPa	Mass fraction of formic acid	Mass fraction of water	uncertainty	Mass fraction of water	uncertainty	Mass fraction of formic acid	uncertainty
298.15	101.325	.09	.055	.001	.844	.001	.148	.001
298.15	101.325	.145	.08	.001	.725	.001	.259	.001
298.15	101.325	.185	.1	.001	.634	.001	.343	.001
298.15	101.325	.214	.11	.001	.561	.001	.407	.001
298.15	101.325	.236	.125	.001	.502	.001	.451	.001
298.15	101.325	.265	.142	.001	.455	.001	.476	.001

System: formic acid + isoamyl methyl ketone + water; phases: Liquid mixture 1, Liquid mixture 2
Fixed: Pressure, kPa = 101
Fixed: Temperature, K = 298.15
Property: Refractive index (Na D-line) (Liquid mixture 1); method: Standard Abbe refractometry
Mass fraction of water	Refractive index (Na D-line)	uncertainty
.9442	1.3323	.0002
.8926	1.3354	.0002
.8435	1.3378	.0002
.7921	1.3398	.0002
.7358	1.3428	.0002
.6861	1.3454	.0002
.5822	1.3512	.0002

System: formic acid + isoamyl methyl ketone + water; phases: Liquid mixture 2, Liquid mixture 1
Fixed: Pressure, kPa = 101
Fixed: Temperature, K = 298.15
Property: Refractive index (Na D-line) (Liquid mixture 2); method: Standard Abbe refractometry
Mass fraction of isoamyl methyl ketone	Refractive index (Na D-line)	uncertainty
.593	1.3838	.0002
.6576	1.3896	.0002
.7207	1.393	.0002
.7633	1.3954	.0002
.847	1.4022	.0002
.9128	1.4056	.0002
.9394	1.4075	.0002

System: butyric acid + isoamyl acetate + water; phases: Liquid mixture 1, Liquid mixture 2
Fixed: Temperature, K = 298.15
Fixed: Pressure, kPa = 101.325
Property: Mass fraction of butyric acid (Liquid mixture 1); method: Titration method
Mass fraction of water	Mass fraction of butyric acid	uncertainty
.9418	.0571	.0007
.8914	.1065	.0007
.834	.1628	.0007
.7815	.2143	.0007
.7311	.2604	.0007
.6897	.2997	.0007
.6421	.343	.0007
.5856	.3937	.0007
.5288	.4445	.0007
.486	.483	.0007
.4335	.5242	.0007
.386	.562	.0007
.3262	.5984	.0007
.2734	.6144	.0007
.2106	.622	.0007
.1648	.6038	.0007
.154	.5927	.0007
.1316	.5696	.0007
.1085	.54	.0007
.0877	.497	.0007
.0706	.4155	.0007
.0615	.3842	.0007
.0542	.3315	.0007
.0468	.2867	.0007
.0347	.2056	.0007
.0303	.1556	.0007
.0261	.1074	.0007
.0218	.056	.0007

System: butyric acid + isoamyl acetate + water; phases: Liquid mixture 2, Liquid mixture 1
Property: Mass fraction of water (Liquid mixture 2); method: Titration method
Property: Mass fraction of water (Liquid mixture 1); method: Titration method
Property: Mass fraction of butyric acid (Liquid mixture 1); method: Titration method
Temperature, K	Pressure, kPa	Mass fraction of butyric acid	Mass fraction of water	uncertainty	Mass fraction of water	uncertainty	Mass fraction of butyric acid	uncertainty
298.15	101.325	.16	.035	.001	.966	.001	.033	.001
298.15	101.325	.219	.042	.001	.954	.001	.045	.001
298.15	101.325	.313	.053	.001	.934	.001	.065	.001
298.15	101.325	.363	.061	.001	.922	.001	.076	.001
298.15	101.325	.405	.07	.001	.906	.001	.092	.001
298.15	101.325	.425	.075	.001	.894	.001	.104	.001

System: butyric acid + isoamyl acetate + water; phases: Liquid mixture 1, Liquid mixture 2
Fixed: Pressure, kPa = 101
Fixed: Temperature, K = 298.15
Property: Refractive index (Na D-line) (Liquid mixture 1); method: Standard Abbe refractometry
Mass fraction of water	Refractive index (Na D-line)	uncertainty
.9418	1.3335	.0002
.8914	1.3362	.0002
.8339	1.3412	.0002
.7807	1.3441	.0002
.731	1.3486	.0002
.6899	1.3509	.0002
.6421	1.3538	.0002

System: butyric acid + isoamyl acetate + water; phases: Liquid mixture 2, Liquid mixture 1
Fixed: Pressure, kPa = 101
Fixed: Temperature, K = 298.15
Property: Refractive index (Na D-line) (Liquid mixture 2); method: Standard Abbe refractometry
Mass fraction of isoamyl acetate	Refractive index (Na D-line)	uncertainty
.6143	1.392	.0002
.6666	1.3924	.0002
.7098	1.3927	.0002
.7597	1.393	.0002
.8141	1.3934	.0002
.8665	1.3939	.0002
.9223	1.3942	.0002

System: butyric acid + isoamyl methyl ketone + water; phases: Liquid mixture 1, Liquid mixture 2
Fixed: Temperature, K = 298.15
Fixed: Pressure, kPa = 101.325
Property: Mass fraction of butyric acid (Liquid mixture 1); method: Titration method
Mass fraction of water	Mass fraction of butyric acid	uncertainty
.9472	.0499	.0007
.8832	.113	.0007
.8444	.1507	.0007
.7932	.2009	.0007
.742	.2492	.0007
.6902	.2981	.0007
.6346	.3488	.0007
.5868	.3927	.0007
.5326	.4404	.0007
.4839	.4841	.0007
.4338	.5262	.0007
.378	.5657	.0007
.3266	.5979	.0007
.2674	.6178	.0007
.2051	.6117	.0007
.1637	.5886	.0007
.1414	.5572	.0007
.1244	.5238	.0007
.1115	.4919	.0007
.1001	.4521	.0007
.0936	.4127	.0007
.0812	.3739	.0007
.0704	.3275	.0007
.0619	.291	.0007
.0558	.2431	.0007
.0471	.1991	.0007
.0385	.0962	.0007
.0333	.0522	.0007

System: butyric acid + isoamyl methyl ketone + water; phases: Liquid mixture 2, Liquid mixture 1
Property: Mass fraction of water (Liquid mixture 2); method: Titration method
Property: Mass fraction of water (Liquid mixture 1); method: Titration method
Property: Mass fraction of butyric acid (Liquid mixture 1); method: Titration method
Temperature, K	Pressure, kPa	Mass fraction of butyric acid	Mass fraction of water	uncertainty	Mass fraction of water	uncertainty	Mass fraction of butyric acid	uncertainty
298.15	101.325	.186	.046	.001	.972	.001	.025	.001
298.15	101.325	.297	.063	.001	.956	.001	.041	.001
298.15	101.325	.38	.084	.001	.944	.001	.053	.001
298.15	101.325	.439	.097	.001	.934	.001	.062	.001
298.15	101.325	.486	.109	.001	.925	.001	.072	.001
298.15	101.325	.524	.124	.001	.918	.001	.078	.001

System: butyric acid + isoamyl methyl ketone + water; phases: Liquid mixture 1, Liquid mixture 2
Fixed: Pressure, kPa = 101
Fixed: Temperature, K = 298.15
Property: Refractive index (Na D-line) (Liquid mixture 1); method: Standard Abbe refractometry
Mass fraction of water	Refractive index (Na D-line)	uncertainty
.9472	1.3337	.0002
.915	1.3368	.0002
.8832	1.3405	.0002
.8444	1.3441	.0002
.7932	1.3498	.0002
.742	1.3543	.0002
.6902	1.3606	.0002

System: butyric acid + isoamyl methyl ketone + water; phases: Liquid mixture 2, Liquid mixture 1
Fixed: Pressure, kPa = 101
Fixed: Temperature, K = 298.15
Property: Refractive index (Na D-line) (Liquid mixture 2); method: Standard Abbe refractometry
Mass fraction of isoamyl methyl ketone	Refractive index (Na D-line)	uncertainty
.6021	1.399	.0002
.6471	1.3996	.0002
.7011	1.4008	.0002
.775	1.4021	.0002
.7538	1.4015	.0002
.8087	1.4029	.0002
.8654	1.4037	.0002
