Measured thermophysical data. Enthalpies of .beta.-Alanine Dissolution in Some Water + Organic Mixtures at 298.15 K
Source: J. Chem. Eng. Data, 2014, 10.1021/je400966q
Compound 1: .beta.-alanine, C3H7NO2, purity 98%
Compound 2: acetonitrile, C2H3N, purity 99.8%
Compound 3: 1,4-dioxane, C4H8O2, purity 99.8%
Compound 4: acetone, C3H6O, purity 99.8%
Compound 5: formamide, CH3NO, purity 99.8%
Compound 6: N-methylformamide, C2H5NO, purity 99%
Compound 7: N,N-dimethylformamide, C3H7NO, purity 99%
Compound 8: N,N-dimethylacetamide, C4H9NO, purity 99.8%
Compound 9: dimethyl sulfoxide, C2H6OS, purity 99.5%
Compound 10: water, H2O

System: formamide + .beta.-alanine + water; phases: Liquid
Fixed: Pressure, kPa = 101
Fixed: Temperature, K = 298.15
Fixed: Mole fraction of .beta.-alanine = 0
Property: Molar enthalpy of solution, kJ/mol (Liquid); method: Isoperibol calorimetry
Solvent: Molality, mol/kg of formamide	Molar enthalpy of solution, kJ/mol	uncertainty
1.005	9.43	.02
2.326	9.03	.02
3.644	8.81	.02
5.146	8.68	.02
6.845	8.63	.02
8.944	8.62	.02
11.067	8.62	.02
13.54	8.62	.02
16.794	8.63	.02
19.168	8.64	.02
23.45	8.65	.02

System: .beta.-alanine + N-methylformamide + water; phases: Liquid
Fixed: Pressure, kPa = 101
Fixed: Temperature, K = 298.15
Fixed: Mole fraction of .beta.-alanine = 0
Property: Molar enthalpy of solution, kJ/mol (Liquid); method: Isoperibol calorimetry
Solvent: Molality, mol/kg of N-methylformamide	Molar enthalpy of solution, kJ/mol	uncertainty
.677	9.84	.02
1.539	10.22	.02
2.352	10.44	.02
3.365	10.85	.02
4.45	11.18	.02
5.632	11.51	.02
6.875	12.12	.02
8.451	12.44	.02
10.2	12.75	.02
12.267	13.34	.02
17.167	14.29	.02

System: N,N-dimethylformamide + .beta.-alanine + water; phases: Liquid
Fixed: Pressure, kPa = 101
Fixed: Temperature, K = 298.15
Fixed: Mole fraction of .beta.-alanine = 0
Property: Molar enthalpy of solution, kJ/mol (Liquid); method: Isoperibol calorimetry
Solvent: Molality, mol/kg of N,N-dimethylformamide	Molar enthalpy of solution, kJ/mol	uncertainty
.579	10.21	.02
1.192	10.79	.02
1.833	11.36	.02
2.56	11.99	.02
3.303	12.75	.02
4.202	13.29	.02
5.158	14.06	.02
6.233	14.68	.02
7.59	14.92	.02
9.044	15.35	.02
12.536	14.61	.02

System: .beta.-alanine + N,N-dimethylacetamide + water; phases: Liquid
Fixed: Pressure, kPa = 101
Fixed: Temperature, K = 298.15
Fixed: Mole fraction of .beta.-alanine = 0
Property: Molar enthalpy of solution, kJ/mol (Liquid); method: Isoperibol calorimetry
Solvent: Molality, mol/kg of N,N-dimethylacetamide	Molar enthalpy of solution, kJ/mol	uncertainty
.474	10.2	.02
1.009	10.93	.02
1.523	11.41	.02
2.129	12.08	.02
2.81	12.87	.02
3.581	13.88	.02
4.303	14.43	.02
5.237	15.43	.02
6.135	16.12	.02
7.256	16.88	.02
11.547	19.52	.02

System: acetonitrile + .beta.-alanine + water; phases: Liquid
Fixed: Pressure, kPa = 101
Fixed: Temperature, K = 298.15
Fixed: Mole fraction of .beta.-alanine = 0
Property: Molar enthalpy of solution, kJ/mol (Liquid); method: Isoperibol calorimetry
Solvent: Molality, mol/kg of acetonitrile	Molar enthalpy of solution, kJ/mol	uncertainty
.787	9.24	.02
1.81	8.86	.02
2.661	8.54	.02
3.634	8.27	.02
4.737	8.03	.02
5.856	7.81	.02
7.112	7.62	.02
8.499	7.45	.02
9.941	7.34	.02
11.21	7.15	.02
15.519	6.98	.02

System: .beta.-alanine + 1,4-dioxane + water; phases: Liquid
Fixed: Pressure, kPa = 101
Fixed: Temperature, K = 298.15
Fixed: Mole fraction of .beta.-alanine = 0
Property: Molar enthalpy of solution, kJ/mol (Liquid); method: Isoperibol calorimetry
Solvent: Molality, mol/kg of 1,4-dioxane	Molar enthalpy of solution, kJ/mol	uncertainty
.518	9.65	.02
1.111	9.78	.02
1.698	9.98	.02
2.352	10.08	.02
3.074	10.23	.02
3.97	10.35	.02
4.817	10.58	.02
5.938	10.76	.02
7.109	10.97	.02
8.579	11.06	.02
11.995	11.13	.02

System: acetone + .beta.-alanine + water; phases: Liquid
Fixed: Pressure, kPa = 101
Fixed: Temperature, K = 298.15
Fixed: Mole fraction of .beta.-alanine = 0
Property: Molar enthalpy of solution, kJ/mol (Liquid); method: Isoperibol calorimetry
Solvent: Molality, mol/kg of acetone	Molar enthalpy of solution, kJ/mol	uncertainty
.569	9.72	.02
1.219	9.95	.02
1.828	10.23	.02
2.572	10.52	.02
3.324	10.81	.02
4.113	11.01	.02
4.927	11.56	.02
6.028	12.19	.02
7.072	12.65	.02
8.283	12.98	.02
11.023	14.18	.02

System: dimethyl sulfoxide + .beta.-alanine + water; phases: Liquid
Fixed: Pressure, kPa = 101
Fixed: Temperature, K = 298.15
Fixed: Mole fraction of .beta.-alanine = 0
Property: Molar enthalpy of solution, kJ/mol (Liquid); method: Isoperibol calorimetry
Solvent: Molality, mol/kg of dimethyl sulfoxide	Molar enthalpy of solution, kJ/mol	uncertainty
.591	9.76	.02
1.255	10.17	.02
2.034	10.64	.02
2.854	11.02	.02
3.812	11.67	.02
4.83	12.07	.02
6.023	12.66	.02
7.367	13.56	.02
8.888	14.05	.02
10.764	15.38	.02
15.496	16.66	.02
