Measured thermophysical data. Solubilities of Octahydro-1,3,5,7-tetranitro-1,3,5,7-tetrazocine in ?-Butyrolactone + Water, Dimethylsulfoxide + Water, and N-Methyl pyrrolidone + Water
Source: J. Chem. Eng. Data, 2013, 10.1021/je400199m
Compound 1: water, H2O
Compound 2: methylsulfinylmethane, C2H6OS, purity 99%
Compound 3: 4-hydroxybutanoic acid lactone, C4H6O2, purity 99.9%
Compound 4: 1-methylpyrrolidone, C5H9NO, purity 99.9%
Compound 5: HMX, C4H8N8O8, purity 99.9%

System: methylsulfinylmethane + HMX + water; phases: Liquid, Crystal
Fixed: Pressure, kPa = 101
Property: Mole fraction of HMX (Liquid); method: Focused Beam Reflectance Method
Temperature, K	Solvent: Mass fraction of methylsulfinylmethane	Mole fraction of HMX	uncertainty
293.15	1	.13151	.013151
303.15	1	.1394	.01394
318.15	1	.14906	.014906
333.15	1	.15191	.015191
348.15	1	.16437	.016437
273.15	.8	.0028071	.00028071
293.15	.8	.0052857	.00052857
303.15	.8	.0065048	.00065048
318.15	.8	.011568	.0011568
333.15	.8	.016518	.0016518
348.15	.8	.02492	.002492
273.15	.6	.000289	.0000289
293.15	.6	.00036122	.000036122
303.15	.6	.0010378	.00010378
318.15	.6	.0016234	.00016234
333.15	.6	.005324	.0005324
348.15	.6	.0088641	.00088641
273.15	.4	.0000087809	.00000087809
293.15	.4	.000015806	.0000015806
303.15	.4	.000026342	.0000026342
318.15	.4	.000035123	.0000035123
333.15	.4	.000061463	.0000061463
348.15	.4	.00012292	.000012292
273.15	.2	.0000014367	.00000014367
293.15	.2	.0000035917	.00000035917
303.15	.2	.0000064651	.00000064651
318.15	.2	.000010775	.0000010775
333.15	.2	.000017958	.0000017958
348.15	.2	.000038071	.0000038071

System: 4-hydroxybutanoic acid lactone + HMX + water; phases: Liquid, Crystal
Fixed: Pressure, kPa = 101
Property: Mole fraction of HMX (Liquid); method: Focused Beam Reflectance Method
Temperature, K	Solvent: Mass fraction of 4-hydroxybutanoic acid lactone	Mole fraction of HMX	uncertainty
273.15	1	.021893	.0021893
288.15	1	.030602	.0030602
303.15	1	.038836	.0038836
318.15	1	.045079	.0045079
333.15	1	.054787	.0054787
348.15	1	.070217	.0070217
273.15	.8	.0030127	.00030127
288.15	.8	.0043826	.00043826
303.15	.8	.006053	.0006053
318.15	.8	.0088896	.00088896
333.15	.8	.012937	.0012937
348.15	.8	.01944	.001944
273.15	.6	.00028909	.000028909
288.15	.6	.00040467	.000040467
303.15	.6	.00063577	.000063577
318.15	.6	.0010515	.00010515
333.15	.6	.0020892	.00020892
348.15	.6	.0035729	.00035729
273.15	.4	.000072007	.0000072007
288.15	.4	.000080007	.0000080007
303.15	.4	.00011556	.000011556
318.15	.4	.00016	.000016
333.15	.4	.00019555	.000019555
348.15	.4	.00026664	.000026664
273.15	.2	.00001083	.000001083
288.15	.2	.000014439	.0000014439
303.15	.2	.000021659	.0000021659
318.15	.2	.000036098	.0000036098
333.15	.2	.000050536	.0000050536
348.15	.2	.000064974	.0000064974

System: 1-methylpyrrolidone + HMX + water; phases: Liquid, Crystal
Fixed: Pressure, kPa = 101
Property: Mole fraction of HMX (Liquid); method: Focused Beam Reflectance Method
Temperature, K	Solvent: Mole fraction of 1-methylpyrrolidone	Mole fraction of HMX	uncertainty
273.15	1	.021037	.0021037
288.15	1	.038863	.0038863
303.15	1	.055931	.0055931
318.15	1	.075733	.0075733
333.15	1	.094447	.0094447
348.15	1	.12403	.012403
273.15	.8	.0041665	.00041665
288.15	.8	.0072275	.00072275
303.15	.8	.016298	.0016298
318.15	.8	.026158	.0026158
333.15	.8	.039311	.0039311
348.15	.8	.057644	.0057644
273.15	.6	.0007247	.00007247
288.15	.6	.0015596	.00015596
303.15	.6	.0041112	.00041112
318.15	.6	.0078594	.00078594
333.15	.6	.019902	.0019902
348.15	.6	.035304	.0035304
273.15	.4	.00031788	.000031788
288.15	.4	.00054362	.000054362
303.15	.4	.00091963	.000091963
318.15	.4	.001504	.0001504
333.15	.4	.0019209	.00019209
348.15	.4	.002837	.0002837
273.15	.2	.00016733	.000016733
288.15	.2	.00025098	.000025098
303.15	.2	.00038478	.000038478
318.15	.2	.00063556	.000063556
333.15	.2	.00091963	.000091963
348.15	.2	.0012536	.00012536
