Measured thermophysical data. Role of Anions (Tetrafluoroborate, Perchlorate) of Tetrabutylammonium Salts in Determining Solvation Effects Prevailing in Industrially Essential Solvents Probed by Conductance and FT-IR Spectra
Source: J. Chem. Eng. Data, 2013, 10.1021/je400536f
Compound 1: tetrabutylammonium tetrafluoroborate, C16H36BF4N, purity 99%
Compound 2: tetrabutylammonium perchlorate, C16H36ClNO4, purity 98%
Compound 3: nitromethane, CH3NO2
Compound 4: N-methylformamide, C2H5NO
Compound 5: formamide, CH3NO

System: nitromethane; phases: Liquid
Property: Mass density, kg/m3 (Liquid); method: Vibrating tube method
Pressure, kPa	Temperature, K	Mass density, kg/m3	uncertainty
100	298.15	1130.15	.05

System: nitromethane; phases: Liquid
Property: Viscosity, Pa*s (Liquid); method: Concentric cylinders viscometry
Pressure, kPa	Temperature, K	Viscosity, Pa*s	uncertainty
100	298.15	.00062	.00003

System: N-methylformamide; phases: Liquid
Property: Mass density, kg/m3 (Liquid); method: Vibrating tube method
Pressure, kPa	Temperature, K	Mass density, kg/m3	uncertainty
100	298.15	997.61	.05

System: N-methylformamide; phases: Liquid
Property: Viscosity, Pa*s (Liquid); method: Concentric cylinders viscometry
Pressure, kPa	Temperature, K	Viscosity, Pa*s	uncertainty
100	298.15	.00165	.00003

System: formamide; phases: Liquid
Property: Mass density, kg/m3 (Liquid); method: Vibrating tube method
Pressure, kPa	Temperature, K	Mass density, kg/m3	uncertainty
100	298.15	1129.22	.05

System: formamide; phases: Liquid
Property: Viscosity, Pa*s (Liquid); method: Concentric cylinders viscometry
Pressure, kPa	Temperature, K	Viscosity, Pa*s	uncertainty
100	298.15	.0033	.00003

System: nitromethane + tetrabutylammonium tetrafluoroborate; phases: Liquid
Fixed: Pressure, kPa = 100
Fixed: Temperature, K = 298.15
Property: Molar conductivity, S*m2/mol (Liquid); method: dip-type immersion conductivity cell
Molality, mol/kg of tetrabutylammonium tetrafluoroborate	Molar conductivity, S*m2/mol	uncertainty
.000773	.008332	.00008332
.001303	.007943	.00007943
.001731	.007651	.00007651
.002372	.00735	.0000735
.002927	.007093	.00007093
.003576	.00684	.0000684
.004134	.006596	.00006596
.004914	.006397	.00006397
.005655	.006175	.00006175
.006577	.005935	.00005935
.007569	.005684	.00005684
.008556	.005433	.00005433

System: N-methylformamide + tetrabutylammonium tetrafluoroborate; phases: Liquid
Fixed: Pressure, kPa = 100
Fixed: Temperature, K = 298.15
Property: Molar conductivity, S*m2/mol (Liquid); method: dip-type immersion conductivity cell
Molality, mol/kg of tetrabutylammonium tetrafluoroborate	Molar conductivity, S*m2/mol	uncertainty
.000795	.003523	.00003523
.001513	.003307	.00003307
.002025	.003143	.00003143
.002735	.002993	.00002993
.003295	.002864	.00002864
.003956	.002752	.00002752
.004802	.002615	.00002615
.005388	.002528	.00002528
.006053	.002397	.00002397
.007327	.002234	.00002234
.007832	.002159	.00002159
.008798	.002045	.00002045

System: formamide + tetrabutylammonium tetrafluoroborate; phases: Liquid
Fixed: Pressure, kPa = 100
Fixed: Temperature, K = 298.15
Property: Molar conductivity, S*m2/mol (Liquid); method: dip-type immersion conductivity cell
Molality, mol/kg of tetrabutylammonium tetrafluoroborate	Molar conductivity, S*m2/mol	uncertainty
.000829	.00215	.0000215
.001452	.00203	.0000203
.002025	.00192	.0000192
.002632	.00183	.0000183
.003181	.00175	.0000175
.003782	.00167	.0000167
.00457	.00158	.0000158
.005291	.001502	.00001502
.006131	.00143	.0000143
.007056	.001344	.00001344
.007921	.001249	.00001249
.008482	.00119	.0000119

System: nitromethane + tetrabutylammonium perchlorate; phases: Liquid
Fixed: Pressure, kPa = 100
Fixed: Temperature, K = 298.15
Property: Molar conductivity, S*m2/mol (Liquid); method: dip-type immersion conductivity cell
Molality, mol/kg of tetrabutylammonium perchlorate	Molar conductivity, S*m2/mol	uncertainty
.000864	.010053	.00010053
.001347	.009803	.00009803
.001806	.009545	.00009545
.00243	.009271	.00009271
.002992	.008994	.00008994
.003528	.008793	.00008793
.004186	.008542	.00008542
.004998	.008308	.00008308
.005715	.008089	.00008089
.006642	.007767	.00007767
.007639	.007526	.00007526
.008668	.007306	.00007306

System: N-methylformamide + tetrabutylammonium perchlorate; phases: Liquid
Fixed: Pressure, kPa = 100
Fixed: Temperature, K = 298.15
Property: Molar conductivity, S*m2/mol (Liquid); method: dip-type immersion conductivity cell
Molality, mol/kg of tetrabutylammonium perchlorate	Molar conductivity, S*m2/mol	uncertainty
.000795	.004493	.00004493
.001513	.004234	.00004234
.002025	.004073	.00004073
.002735	.003888	.00003888
.003295	.003714	.00003714
.003956	.003577	.00003577
.004802	.003424	.00003424
.005388	.003334	.00003334
.006053	.003227	.00003227
.006823	.003086	.00003086
.007832	.002926	.00002926
.008798	.002794	.00002794

System: formamide + tetrabutylammonium perchlorate; phases: Liquid
Fixed: Pressure, kPa = 100
Fixed: Temperature, K = 298.15
Property: Molar conductivity, S*m2/mol (Liquid); method: dip-type immersion conductivity cell
Molality, mol/kg of tetrabutylammonium perchlorate	Molar conductivity, S*m2/mol	uncertainty
.000807	.003123	.00003123
.001498	.002901	.00002901
.002061	.002783	.00002783
.002673	.002643	.00002643
.003238	.002554	.00002554
.003856	.002444	.00002444
.004665	.002312	.00002312
.005242	.002239	.00002239
.006209	.002117	.00002117
.007157	.002024	.00002024
.00801	.001959	.00001959
.008612	.001895	.00001895
