Measured thermophysical data. Vapor Liquid Equilibrium Data for Carbon Dioxide + (R,S)-1,2-Isopropylidene Glycerol (Solketal) + Oleic Acid Systems at High Pressure
Source: J. Chem. Eng. Data, 2014, 10.1021/je401051d
Compound 1: oleic acid, C18H34O2, purity 99%
Compound 2: carbon dioxide, CO2, purity 99.9%
Compound 3: Solketal, C6H12O3

System: Solketal + carbon dioxide; phases: Liquid, Gas
Property: Vapor or sublimation pressure, kPa (Liquid); method: Closed cell (Static) method
Temperature, K	Mole fraction of carbon dioxide	Vapor or sublimation pressure, kPa	uncertainty
308	.351	2930	20
308	.4514	3670	10
308	.5503	4210	10
308	.6501	4850	30
308	.7502	5450	20
308	.8501	6260	10
318	.351	3450	10
318	.4514	4360	10
318	.5503	5240	20
318	.6501	6350	20
318	.7502	7650	20
318	.8501	8290	10
328	.351	3990	20
328	.4514	5140	10
328	.5503	6180	20
328	.6501	7500	20
328	.7502	9130	20
328	.8501	9930	10
338	.351	4400	10
338	.4514	6070	10
338	.5503	7130	10
338	.6501	8870	10
338	.7502	10340	30
338	.8501	12140	20

System: Solketal + oleic acid + carbon dioxide; phases: Liquid, Gas
Property: Vapor or sublimation pressure, kPa (Liquid); method: Closed cell (Static) method
Temperature, K	Mole fraction of carbon dioxide	Mole fraction of Solketal	Vapor or sublimation pressure, kPa	uncertainty
308	.5497	.3377	5270	10
308	.6499	.2626	5360	20
308	.6996	.2253	5490	20
308	.75	.1875	5840	20
308	.7999	.1501	6730	10
308	.8497	.1127	7230	30
318	.5497	.3377	5240	20
318	.6499	.2626	6030	20
318	.6996	.2253	6440	10
318	.75	.1875	7010	30
318	.7999	.1501	7850	10
318	.8497	.1127	8870	10
328	.5497	.3377	6120	30
328	.6499	.2626	7060	20
328	.6996	.2253	8240	20
328	.75	.1875	8730	10
328	.7999	.1501	9470	20
328	.8497	.1127	11090	10
338	.5497	.3377	6570	10
338	.6499	.2626	8050	20
338	.6996	.2253	8980	20
338	.75	.1875	10470	20
338	.7999	.1501	11800	10
338	.8497	.1127	13880	40

System: Solketal + oleic acid + carbon dioxide; phases: Gas, Liquid
Property: Vapor or sublimation pressure, kPa (Gas); method: Closed cell (Static) method
Temperature, K	Mole fraction of carbon dioxide	Mole fraction of Solketal	Vapor or sublimation pressure, kPa	uncertainty
308	.8998	.0751	9470	10
308	.9493	.038	13150	10
318	.8998	.0751	11830	20
318	.9493	.038	15500	10
328	.8998	.0751	14570	10
328	.9493	.038	17880	30
338	.8998	.0751	17370	30
338	.9493	.038	19760	20
