Measured thermophysical data. Solubility Measurement and Stability Study of Sodium Cefuroxime
Source: J. Chem. Eng. Data, 2014, 10.1021/je400938a
Compound 1: sodium cefuroxime, C16H15N4NaO8S
Compound 2: water, H2O
Compound 3: ethanol, C2H6O

System: ethanol + water + sodium cefuroxime; phases: Liquid, Crystal
Property: Mass fraction of sodium cefuroxime (Liquid); method: gravimetric
Pressure, kPa	Temperature, K	Solvent: Mass fraction of water	Mass fraction of sodium cefuroxime	uncertainty
700000	297.15	1	.2202	.004
700000	297.15	.8	.1125	.004
700000	297.15	.4	.0477	.004
700000	297.15	.2	.0083	.004
700000	298.15	1	.2227	.004
700000	298.15	.8	.1222	.004
700000	298.15	.4	.0488	.004
700000	298.15	.2	.0142	.004
700000	299.15	1	.2272	.004
700000	299.15	.8	.1282	.004
700000	299.15	.4	.0555	.004
700000	299.15	.2	.0158	.004
700000	300.15	1	.2343	.004
700000	300.15	.8	.1352	.004
700000	300.15	.4	.0571	.004
700000	300.15	.2	.0221	.004
700000	301.15	1	.2414	.004
700000	301.15	.8	.1404	.004
700000	301.15	.4	.0606	.004
700000	301.15	.2	.0223	.004
700000	302.15	1	.2519	.004
700000	302.15	.8	.1503	.004
700000	302.15	.4	.0644	.004
700000	302.15	.2	.0274	.004
700000	304.15	1	.2623	.004
700000	306.15	1	.2791	.004
700000	308.15	1	.293	.004
600000	297.15	1	.2111	.004
600000	297.15	.8	.1027	.004
600000	297.15	.4	.0443	.004
600000	297.15	.2	.0081	.004
600000	298.15	1	.2128	.004
600000	298.15	.8	.1209	.004
600000	298.15	.4	.0458	.004
600000	298.15	.2	.0138	.004
600000	299.15	1	.2141	.004
600000	299.15	.8	.1241	.004
600000	299.15	.4	.0549	.004
600000	299.15	.2	.0144	.004
600000	300.15	1	.2182	.004
600000	300.15	.8	.1295	.004
600000	300.15	.4	.0556	.004
600000	300.15	.2	.0187	.004
600000	301.15	1	.23	.004
600000	301.15	.8	.137	.004
600000	301.15	.4	.0587	.004
600000	301.15	.2	.0218	.004
600000	302.15	1	.2406	.004
600000	302.15	.8	.1455	.004
600000	302.15	.4	.0605	.004
600000	302.15	.2	.0256	.004
600000	304.15	1	.2501	.004
600000	306.15	1	.262	.004
600000	308.15	1	.2784	.004
500000	297.15	1	.1856	.004
500000	297.15	.8	.0967	.004
500000	297.15	.4	.0411	.004
500000	297.15	.2	.008	.004
500000	298.15	1	.1907	.004
500000	298.15	.8	.1086	.004
500000	298.15	.4	.0458	.004
500000	298.15	.2	.0122	.004
500000	299.15	1	.199	.004
500000	299.15	.8	.1188	.004
500000	299.15	.4	.0533	.004
500000	299.15	.2	.0126	.004
500000	300.15	1	.2089	.004
500000	300.15	.8	.1203	.004
500000	300.15	.4	.0542	.004
500000	300.15	.2	.0162	.004
500000	301.15	1	.2168	.004
500000	301.15	.8	.1293	.004
500000	301.15	.4	.0558	.004
500000	301.15	.2	.0187	.004
500000	302.15	1	.2268	.004
500000	302.15	.8	.1363	.004
500000	302.15	.4	.0579	.004
500000	302.15	.2	.0215	.004
500000	304.15	1	.2381	.004
500000	306.15	1	.243	.004
500000	308.15	1	.2577	.004

System: water + sodium cefuroxime; phases: Liquid, Crystal
Property: Mass fraction of sodium cefuroxime (Liquid); method: gravimetric
Pressure, kPa	Temperature, K	Mass fraction of sodium cefuroxime	uncertainty
700000	297.15	.2202	.004
700000	298.15	.2227	.004
700000	299.15	.2272	.004
700000	300.15	.2343	.004
700000	301.15	.2414	.004
700000	302.15	.2519	.004
700000	304.15	.2623	.004
700000	306.15	.2791	.004
700000	308.15	.293	.004
600000	297.15	.2111	.004
600000	298.15	.2128	.004
600000	299.15	.2141	.004
600000	300.15	.2182	.004
600000	301.15	.23	.004
600000	302.15	.2406	.004
600000	304.15	.2501	.004
600000	306.15	.262	.004
600000	308.15	.2784	.004
500000	297.15	.1856	.004
500000	298.15	.1907	.004
500000	299.15	.199	.004
500000	300.15	.2089	.004
500000	301.15	.2168	.004
500000	302.15	.2268	.004
500000	304.15	.2381	.004
500000	306.15	.243	.004
500000	308.15	.2577	.004
