Measured thermophysical data. Solubility of Parabens in Subcritical Water
Source: J. Chem. Eng. Data, 2014, 10.1021/je4010883
Compound 1: methyl 4-hydroxybenzoate, C8H8O3, purity 99%
Compound 2: ethyl 4-hydroxybenzoate, C9H10O3, purity 99.8%
Compound 3: butyl 4-hydroxybenzoate, C11H14O3, purity 99.8%
Compound 4: water, H2O, purity 99.8%

System: methyl 4-hydroxybenzoate + water; phases: Liquid, Crystal
Property: Mole fraction of methyl 4-hydroxybenzoate (Liquid); method: Spectroscopy
Temperature, K	Pressure, kPa	Mole fraction of methyl 4-hydroxybenzoate	uncertainty
298	500	.00025	.00001
373	1500	.0014	.0002

System: methyl 4-hydroxybenzoate + water; phases: Liquid mixture 1, Liquid mixture 2
Property: Mole fraction of methyl 4-hydroxybenzoate (Liquid mixture 1); method: Spectroscopy
Temperature, K	Pressure, kPa	Mole fraction of methyl 4-hydroxybenzoate	uncertainty
423	2500	.0027	.0004

System: ethyl 4-hydroxybenzoate + water; phases: Liquid, Crystal
Property: Mole fraction of ethyl 4-hydroxybenzoate (Liquid); method: Spectroscopy
Temperature, K	Pressure, kPa	Mole fraction of ethyl 4-hydroxybenzoate	uncertainty
298	500	.000074	.000007
373	1500	.00074	.00008

System: ethyl 4-hydroxybenzoate + water; phases: Liquid mixture 1, Liquid mixture 2
Property: Mole fraction of ethyl 4-hydroxybenzoate (Liquid mixture 1); method: Spectroscopy
Temperature, K	Pressure, kPa	Mole fraction of ethyl 4-hydroxybenzoate	uncertainty
423	2500	.0015	.0002

System: butyl 4-hydroxybenzoate + water; phases: Liquid, Crystal
Property: Mole fraction of butyl 4-hydroxybenzoate (Liquid); method: Spectroscopy
Temperature, K	Pressure, kPa	Mole fraction of butyl 4-hydroxybenzoate	uncertainty
298	500	.000018	.000001

System: butyl 4-hydroxybenzoate + water; phases: Liquid mixture 1, Liquid mixture 2
Property: Mole fraction of butyl 4-hydroxybenzoate (Liquid mixture 1); method: Spectroscopy
Temperature, K	Pressure, kPa	Mole fraction of butyl 4-hydroxybenzoate	uncertainty
373	1500	.00034	.00001
423	2500	.00065	.00008
