Measured thermophysical data. Effect of Solvent Composition and Temperature on the Solubility of Ibuprofen in Aqueous Ethanol
Source: J. Chem. Eng. Data, 2014, 10.1021/je400819z
Compound 1: ibuprofen, C13H18O2, purity 99%
Compound 2: water, H2O, purity 99.8%
Compound 3: ethanol, C2H6O, purity 95%

System: ethanol + ibuprofen; phases: Liquid, Crystal
Fixed: Pressure, kPa = 101
Property: Mass fraction of ibuprofen (Liquid); method: Gravimetric
Temperature, K	Mass fraction of ibuprofen	uncertainty
283.15	.37	.0037
288.15	.427	.00427
293.15	.476	.00476
298.15	.531	.00531
303.15	.588	.00588
313.15	.681	.00681

System: ethanol + water + ibuprofen; phases: Liquid, Crystal
Fixed: Pressure, kPa = 101
Property: Mass fraction of ibuprofen (Liquid); method: Gravimetric
Temperature, K	Solvent: Mass fraction of water	Mass fraction of ibuprofen	uncertainty
283.15	0	.37	.0111
283.15	.105	.301	.00903
283.15	.203	.217	.00651
283.15	.299	.122	.00366
283.15	.4	.059	.00177
283.15	.498	.019	.00057
283.15	.594	.003	.00009
283.15	.645	.001	.00003
298.15	0	.531	.01593
298.15	.092	.509	.01527
298.15	.118	.497	.01491
298.15	.135	.487	.01461
298.15	.223	.422	.01266
298.15	.248	.367	.01101
298.15	.352	.254	.00762
298.15	.372	.244	.00732
298.15	.418	.164	.00492
298.15	.46	.111	.00333
298.15	.48	.086	.00258
298.15	.568	.03	.0009
298.15	.572	.023	.00069
298.15	.673	.003	.00009
298.15	.685	.002	.00006
298.15	.744	.003	.00009
298.15	.83	.001	.00003
313.15	0	.681	.02043
313.15	.105	.676	.02028
313.15	.203	.649	.01947
313.15	.299	.606	.01818
313.15	.704	.006	.00018
