Measured thermophysical data. Physical Properties of Partially CO2 Loaded Aqueous Monoethanolamine (MEA)
Source: J. Chem. Eng. Data, 2014, 10.1021/je401081e
Compound 1: monoethanolamine, C2H7NO, purity 99%
Compound 2: carbon dioxide, CO2, purity 99.999%
Compound 3: water, H2O

System: carbon dioxide + monoethanolamine + water; phases: Liquid
Fixed: Pressure, kPa = 101
Property: Mass density, kg/m3 (Liquid); method: Vibrating tube method
Solvent: Mass fraction of monoethanolamine	Mole fraction of carbon dioxide	Temperature, K	Mass density, kg/m3	uncertainty
.062	0	293.15	1000.88	.02
.062	0	303.15	998.06	.02
.062	0	313.15	994.42	.02
.062	0	323.15	990.09	.02
.062	0	333.15	985.12	.02
.062	0	343.15	978.86	.02
.062	0	353.15	973.57	.02
.062	.0019	293.15	1004.95	.02
.062	.0019	303.15	1002.16	.02
.062	.0019	313.15	998.47	.02
.062	.0019	323.15	994.07	.02
.062	.0019	333.15	989.1	.02
.062	.0019	343.15	983.58	.02
.062	.0019	353.15	977.56	.02
.062	.0037	293.15	1009.77	.02
.062	.0037	303.15	1006.8	.02
.062	.0037	313.15	1003.09	.02
.062	.0037	323.15	998.72	.02
.062	.0037	333.15	993.75	.02
.062	.0037	343.15	988.22	.02
.062	.0037	353.15	981.76	.02
.062	.0068	293.15	1017.47	.02
.062	.0068	303.15	1014.52	.02
.062	.0068	313.15	1010.79	.02
.062	.0068	323.15	1006.21	.02
.062	.0068	333.15	1001.33	.02
.062	.0068	343.15	995.87	.02
.062	.0068	353.15	989.89	.02
.062	.0089	293.15	1022.17	.02
.062	.0089	303.15	1019	.02
.062	.0089	313.15	1015.13	.02
.062	.0089	323.15	1010.67	.02
.062	.0089	333.15	1005.6	.02
.062	.0089	343.15	1000.03	.02
.062	.0089	353.15	993.98	.02
.3	0	293.15	1012.68	.02
.3	0	298.15	1010.55	.02
.3	0	303.15	1008.31	.02
.3	0	313.15	1003.45	.02
.3	0	323.15	998.07	.02
.3	0	333.15	992.23	.02
.3	0	343.15	985.96	.02
.3	0	353.15	979.27	.02
.3	.013	293.15	1030.99	.02
.3	.013	298.15	1028.87	.02
.3	.013	303.15	1026.65	.02
.3	.013	313.15	1021.88	.02
.3	.013	323.15	1016.6	.02
.3	.013	333.15	1010.9	.02
.3	.013	343.15	1004.8	.02
.3	.013	353.15	998.31	.02
.3	.0215	293.15	1046.92	.02
.3	.0215	298.15	1044.8	.02
.3	.0215	303.15	1042.58	.02
.3	.0215	313.15	1037.84	.02
.3	.0215	323.15	1032.62	.02
.3	.0215	333.15	1027	.02
.3	.0215	343.15	1021.01	.02
.3	.0215	353.15	1014.66	.02
.3	.0328	293.15	1068.9	.02
.3	.0328	298.15	1066.76	.02
.3	.0328	303.15	1064.53	.02
.3	.0328	313.15	1059.81	.02
.3	.0328	323.15	1054.64	.02
.3	.0328	333.15	1049.12	.02
.3	.0328	343.15	1043.23	.02
.3	.0328	353.15	1037.04	.02
.3	.0431	293.15	1086.89	.02
.3	.0431	298.15	1084.7	.02
.3	.0431	303.15	1082.44	.02
.3	.0431	313.15	1077.75	.02
.3	.0431	323.15	1072.6	.02
.3	.0431	333.15	1067.11	.02
.3	.0431	343.15	1061.28	.02
.3	.0431	353.15	1055.16	.02
.3	.0544	293.15	1108.2	.02
.3	.0544	298.15	1105.88	.02
.3	.0544	303.15	1103.51	.02
.3	.0544	313.15	1098.66	.02
.3	.0544	323.15	1093.45	.02
.3	.0544	333.15	1087.88	.02
.3	.0544	343.15	1082	.02
.3	.0544	353.15	1075.85	.02

System: carbon dioxide + monoethanolamine + water; phases: Liquid
Fixed: Pressure, kPa = 101
Property: Viscosity, Pa*s (Liquid); method: Concentric cylinders viscometry
Solvent: Mass fraction of monoethanolamine	Mole fraction of carbon dioxide	Temperature, K	Viscosity, Pa*s	uncertainty
.062	0	293.15	.001228	.000007
.062	0	293.15	.001226	.000007
.062	0	303.15	.00096	.000007
.062	0	303.15	.00096	.000007
.062	0	313.15	.00079	.000007
.062	0	313.15	.00079	.000007
.062	0	323.15	.000668	.000007
.062	0	323.15	.000668	.000007
.062	0	333.15	.00056	.000007
.062	0	333.15	.00056	.000007
.062	.0068	293.15	.001236	.000007
.062	.0068	293.15	.001236	.000007
.062	.0068	303.15	.000975	.000007
.062	.0068	303.15	.000975	.000007
.062	.0068	313.15	.000799	.000007
.062	.0068	313.15	.000799	.000007
.062	.0068	323.15	.000669	.000007
.062	.0068	323.15	.000669	.000007
.062	.0068	333.15	.00056	.000007
.062	.0068	333.15	.00056	.000007
.062	.0091	293.15	.001286	.000007
.062	.0091	293.15	.001285	.000007
.062	.0091	303.15	.001016	.000007
.062	.0091	303.15	.001016	.000007
.062	.0091	313.15	.000822	.000007
.062	.0091	313.15	.000822	.000007
.062	.0091	323.15	.000697	.000007
.062	.0091	323.15	.000697	.000007
.062	.0091	333.15	.000581	.000007
.062	.0091	333.15	.000581	.000007
.3	0	293.15	.002874	.000007
.3	0	293.15	.002879	.000007
.3	0	298.15	.00245	.000007
.3	0	298.15	.002457	.000007
.3	0	303.15	.002133	.000007
.3	0	303.15	.00213	.000007
.3	0	313.15	.001628	.000007
.3	0	313.15	.001638	.000007
.3	0	323.15	.001305	.000007
.3	0	323.15	.001318	.000007
.3	0	333.15	.001055	.000007
.3	0	333.15	.001067	.000007
.3	0	343.15	.000878	.000007
.3	0	343.15	.000874	.000007
.3	0	353.15	.000742	.000007
.3	0	353.15	.00074	.000007
.3	.013	293.15	.003112	.000007
.3	.013	293.15	.003107	.000007
.3	.013	298.15	.002662	.000007
.3	.013	298.15	.002648	.000007
.3	.013	303.15	.00229	.000007
.3	.013	303.15	.002284	.000007
.3	.013	313.15	.001765	.000007
.3	.013	313.15	.001757	.000007
.3	.013	323.15	.001405	.000007
.3	.013	323.15	.0014	.000007
.3	.013	333.15	.001148	.000007
.3	.013	333.15	.001148	.000007
.3	.013	343.15	.000967	.000007
.3	.013	343.15	.000962	.000007
.3	.013	353.15	.000818	.000007
.3	.013	353.15	.000816	.000007
.3	.0215	293.15	.003309	.000007
.3	.0215	293.15	.003291	.000007
.3	.0215	298.15	.00282	.000007
.3	.0215	298.15	.002816	.000007
.3	.0215	303.15	.002425	.000007
.3	.0215	303.15	.00242	.000007
.3	.0215	313.15	.001875	.000007
.3	.0215	313.15	.001874	.000007
.3	.0215	323.15	.001486	.000007
.3	.0215	323.15	.001482	.000007
.3	.0215	333.15	.001235	.000007
.3	.0215	333.15	.001224	.000007
.3	.0215	343.15	.001031	.000007
.3	.0215	343.15	.001027	.000007
.3	.0215	353.15	.000879	.000007
.3	.0215	353.15	.000873	.000007
.3	.0328	293.15	.003597	.000007
.3	.0328	293.15	.003581	.000007
.3	.0328	298.15	.003086	.000007
.3	.0328	298.15	.003077	.000007
.3	.0328	303.15	.002702	.000007
.3	.0328	303.15	.002696	.000007
.3	.0328	313.15	.002101	.000007
.3	.0328	313.15	.0021	.000007
.3	.0328	323.15	.001669	.000007
.3	.0328	323.15	.001668	.000007
.3	.0328	333.15	.001369	.000007
.3	.0328	333.15	.001366	.000007
.3	.0328	343.15	.001144	.000007
.3	.0328	343.15	.001154	.000007
.3	.0328	353.15	.000987	.000007
.3	.0328	353.15	.000986	.000007
.3	.0431	293.15	.003899	.000007
.3	.0431	293.15	.003872	.000007
.3	.0431	298.15	.003339	.000007
.3	.0431	298.15	.003321	.000007
.3	.0431	303.15	.002887	.000007
.3	.0431	303.15	.002886	.000007
.3	.0431	313.15	.002246	.000007
.3	.0431	313.15	.00223	.000007
.3	.0431	323.15	.001804	.000007
.3	.0431	323.15	.0018	.000007
.3	.0431	333.15	.001492	.000007
.3	.0431	333.15	.001487	.000007
.3	.0431	343.15	.001262	.000007
.3	.0431	343.15	.001255	.000007
.3	.0431	353.15	.001075	.000007
.3	.0431	353.15	.001071	.000007
.3	.0544	293.15	.004251	.000007
.3	.0544	293.15	.00425	.000007
.3	.0544	298.15	.003663	.000007
.3	.0544	298.15	.003665	.000007
.3	.0544	303.15	.003184	.000007
.3	.0544	303.15	.003183	.000007
.3	.0544	313.15	.00247	.000007
.3	.0544	313.15	.002452	.000007
.3	.0544	323.15	.001988	.000007
.3	.0544	323.15	.001999	.000007
.3	.0544	333.15	.00163	.000007
.3	.0544	333.15	.001635	.000007
.3	.0544	343.15	.001343	.000007
.3	.0544	343.15	.001351	.000007
.3	.0544	353.15	.001143	.000007
.3	.0544	353.15	.001136	.000007
