Measured thermophysical data. Liquid Liquid Equilibria for the Ternary System 2-Methoxy-2-methylpropane + Phenol + Water
Source: J. Chem. Eng. Data, 2013, 10.1021/je400295z
Compound 1: 1,1-dimethyl-1-methoxyethane, C5H12O, purity 99%
Compound 2: benzenol, C6H6O, purity 99.5%
Compound 3: methyl alcohol, CH4O, purity 99.9%
Compound 4: 1-octanol, C8H18O, purity 99.5%
Compound 5: water, H2O

System: benzenol + 1,1-dimethyl-1-methoxyethane + water; phases: Liquid mixture 1, Liquid mixture 2
Fixed: Pressure, kPa = 101
Property: Mass fraction of benzenol (Liquid mixture 1); method: Chromatography
Property: Mass fraction of 1,1-dimethyl-1-methoxyethane (Liquid mixture 2); method: Chromatography
Property: Mass fraction of benzenol (Liquid mixture 2); method: Chromatography
Temperature, K	Mass fraction of 1,1-dimethyl-1-methoxyethane	Mass fraction of benzenol	uncertainty	Mass fraction of 1,1-dimethyl-1-methoxyethane	uncertainty	Mass fraction of benzenol	uncertainty
298.15	.899062	.0588	.0019	.025091	.0019	.001085	.0019
298.15	.925163	.044137	.0019	.025333	.0019	.000925	.0019
298.15	.93338	.039882	.0019	.025788	.0019	.000673	.0019
298.15	.943459	.033194	.0019	.026201	.0019	.000602	.0019
298.15	.947898	.031339	.0019	.026213	.0019	.000564	.0019
298.15	.952325	.028353	.0019	.026535	.0019	.000553	.0019
298.15	.955085	.026593	.0019	.026712	.0019	.000533	.0019
298.15	.960075	.022899	.0019	.027509	.0019	.000433	.0019
298.15	.964525	.020206	.0019	.029113	.0019	.000383	.0019
298.15	.966073	.019417	.0019	.029934	.0019	.00033	.0019
298.15	.969241	.017496	.0019	.030255	.0019	.000275	.0019
298.15	.97975	.006998	.0019	.030402	.0019	.000131	.0019
298.15	.9826	.004728	.0019	.0315	.0019	.000076	.0019
298.15	.98745	0	.0019	.032906	.0019	0	.0019
313.15	.826316	.124193	.0019	.018146	.0019	.002521	.0019
313.15	.848179	.10873	.0019	.0192	.0019	.002384	.0019
313.15	.86348	.097855	.0019	.019308	.0019	.001916	.0019
313.15	.884214	.079007	.0019	.020718	.0019	.001551	.0019
313.15	.889632	.074668	.0019	.020839	.0019	.001491	.0019
313.15	.895459	.069793	.0019	.020971	.0019	.001404	.0019
313.15	.928051	.045649	.0019	.021545	.0019	.000852	.0019
313.15	.932464	.041993	.0019	.023352	.0019	.000816	.0019
313.15	.949825	.029327	.0019	.023969	.0019	.000678	.0019
313.15	.958355	.024115	.0019	.024127	.0019	.000415	.0019
313.15	.967305	.016341	.0019	.024504	.0019	.000291	.0019
313.15	.98073	.003779	.0019	.024751	.0019	.00011	.0019
313.15	.981854	.002664	.0019	.024847	.0019	.000053	.0019
313.15	.9853	0	.0019	.025	.0019	0	.0019
323.15	.893503	.068453	.0019	.012435	.0019	.001711	.0019
323.15	.90123	.063375	.0019	.013177	.0019	.001665	.0019
323.15	.931592	.039306	.0019	.014344	.0019	.001037	.0019
323.15	.936545	.035212	.0019	.014671	.0019	.00089	.0019
323.15	.950582	.026394	.0019	.014874	.0019	.000626	.0019
323.15	.955787	.021375	.0019	.014966	.0019	.000523	.0019
323.15	.957841	.02015	.0019	.01516	.0019	.000492	.0019
323.15	.963599	.015957	.0019	.01525	.0019	.00039	.0019
323.15	.96655	.013874	.0019	.01612	.0019	.000367	.0019
323.15	.96897	.012295	.0019	.016328	.0019	.00031	.0019
323.15	.973767	.00894	.0019	.016413	.0019	.000218	.0019
323.15	.975389	.008346	.0019	.017002	.0019	.00019	.0019
323.15	.980776	.003239	.0019	.01757	.0019	.000118	.0019
323.15	.9842	0	.0019	.019	.0019	0	.0019

System: 1,1-dimethyl-1-methoxyethane + water; phases: Liquid mixture 1, Liquid mixture 2
Property: Mass fraction of 1,1-dimethyl-1-methoxyethane (Liquid mixture 1); method: Chromatography
Temperature, K	Pressure, kPa	Mass fraction of 1,1-dimethyl-1-methoxyethane	uncertainty
298.15	101	.98745	.0019
313.15	101	.9853	.0019
323.15	101	.9842	.0019

System: 1,1-dimethyl-1-methoxyethane + water; phases: Liquid mixture 2, Liquid mixture 1
Property: Mass fraction of 1,1-dimethyl-1-methoxyethane (Liquid mixture 2); method: Chromatography
Temperature, K	Pressure, kPa	Mass fraction of 1,1-dimethyl-1-methoxyethane	uncertainty
298.15	101	.032906	.0019
313.15	101	.025	.0019
323.15	101	.019	.0019
