Measured thermophysical data. Excess Heat Capacities of Binary and Ternary Mixtures Containing 1-Ethyl-3-methylimidazolium Tetrafluoroborate and Anilines
Source: J. Chem. Eng. Data, 2014, 10.1021/je401098b
Compound 1: 1-ethyl-3-methylimidazolium tetrafluoroborate, C6H11BF4N2, purity 98%
Compound 2: aniline, C6H7N, purity 97%
Compound 3: 2-methylaniline, C7H9N, purity 98%
Compound 4: N-methylaniline, C7H9N, purity 97%
Compound 5: benzene, C6H6, purity 98%
Compound 6: cyclohexane, C6H12, purity 97%

System: 1-ethyl-3-methylimidazolium tetrafluoroborate; phases: Liquid
Fixed: Pressure, kPa = 101.325
Property: Mass density, kg/m3 (Liquid); method: Vibrating tube method
Temperature, K	Mass density, kg/m3	uncertainty
293.15	1283.9	.5
298.15	1279.9	.5
303.15	1276.3	.5
308.15	1272.1	.5

System: 1-ethyl-3-methylimidazolium tetrafluoroborate; phases: Liquid
Fixed: Pressure, kPa = 101.325
Property: Speed of sound, m/s (Liquid); method: Sing-around technique in a fixed-path interferometer
Temperature, K	Speed of sound, m/s	uncertainty
293.15	1631.1	.1
298.15	1619.4	.1
303.15	1607.6	.1
308.15	1596.3	.1

System: 1-ethyl-3-methylimidazolium tetrafluoroborate; phases: Liquid
Fixed: Pressure, kPa = 101.325
Property: Molar heat capacity at constant pressure, J/K/mol (Liquid); method: Small sample (50 mg) DSC
Temperature, K	Molar heat capacity at constant pressure, J/K/mol	uncertainty
293.15	303.73	.91119
298.15	305.35	.91605
303.15	306.16	.91848
308.15	308.94	.92682

System: aniline; phases: Liquid
Fixed: Pressure, kPa = 101.325
Property: Mass density, kg/m3 (Liquid); method: Vibrating tube method
Temperature, K	Mass density, kg/m3	uncertainty
293.15	1021.7	.5
298.15	1017.5	.5
303.15	1013.1	.5
308.15	1008.7	.5

System: aniline; phases: Liquid
Fixed: Pressure, kPa = 101.325
Property: Speed of sound, m/s (Liquid); method: Sing-around technique in a fixed-path interferometer
Temperature, K	Speed of sound, m/s	uncertainty
293.15	1656.2	.1
298.15	1637.3	.1
303.15	1618.2	.1
308.15	1603	.1

System: aniline; phases: Liquid
Fixed: Pressure, kPa = 101.325
Property: Molar heat capacity at constant pressure, J/K/mol (Liquid); method: Small sample (50 mg) DSC
Temperature, K	Molar heat capacity at constant pressure, J/K/mol	uncertainty
293.15	189.19	.56757
298.15	191.33	.57399
303.15	192.87	.57861
308.15	194.51	.58353

System: 2-methylaniline; phases: Liquid
Fixed: Pressure, kPa = 101.325
Property: Mass density, kg/m3 (Liquid); method: Vibrating tube method
Temperature, K	Mass density, kg/m3	uncertainty
293.15	998.4	.5
298.15	994.4	.5
303.15	990.2	.5
308.15	986.1	.5

System: 2-methylaniline; phases: Liquid
Fixed: Pressure, kPa = 101.325
Property: Speed of sound, m/s (Liquid); method: Sing-around technique in a fixed-path interferometer
Temperature, K	Speed of sound, m/s	uncertainty
293.15	1622.2	.1
298.15	1602.4	.1
303.15	1577.7	.1
308.15	1558.2	.1

System: 2-methylaniline; phases: Liquid
Fixed: Pressure, kPa = 101.325
Property: Molar heat capacity at constant pressure, J/K/mol (Liquid); method: Small sample (50 mg) DSC
Temperature, K	Molar heat capacity at constant pressure, J/K/mol	uncertainty
293.15	215.96	.64788
298.15	217.16	.65148
303.15	218.43	.65529
308.15	219.52	.65856

System: N-methylaniline; phases: Liquid
Fixed: Pressure, kPa = 101.325
Property: Mass density, kg/m3 (Liquid); method: Vibrating tube method
Temperature, K	Mass density, kg/m3	uncertainty
293.15	986.2	.5
298.15	982.2	.5
303.15	978.2	.5
308.15	974.2	.5

System: N-methylaniline; phases: Liquid
Fixed: Pressure, kPa = 101.325
Property: Speed of sound, m/s (Liquid); method: Sing-around technique in a fixed-path interferometer
Temperature, K	Speed of sound, m/s	uncertainty
293.15	1582.3	.1
298.15	1564.7	.1
303.15	1546.9	.1
308.15	1528.2	.1

System: N-methylaniline; phases: Liquid
Fixed: Pressure, kPa = 101.325
Property: Molar heat capacity at constant pressure, J/K/mol (Liquid); method: Small sample (50 mg) DSC
Temperature, K	Molar heat capacity at constant pressure, J/K/mol	uncertainty
293.15	203.29	.60987
298.15	206.86	.62058
303.15	211.24	.63372
308.15	214.43	.64329

System: benzene; phases: Liquid
Fixed: Pressure, kPa = 101.325
Property: Molar heat capacity at constant pressure, J/K/mol (Liquid); method: Small sample (50 mg) DSC
Temperature, K	Molar heat capacity at constant pressure, J/K/mol	uncertainty
293.15	133.63	.40089
298.15	135.32	.40596
303.15	136.62	.40986

System: cyclohexane; phases: Liquid
Fixed: Pressure, kPa = 101.325
Property: Molar heat capacity at constant pressure, J/K/mol (Liquid); method: Small sample (50 mg) DSC
Temperature, K	Molar heat capacity at constant pressure, J/K/mol	uncertainty
293.15	153.75	.46125
298.15	156.2	.4686
303.15	158.95	.47685

System: aniline + 1-ethyl-3-methylimidazolium tetrafluoroborate; phases: Liquid
Fixed: Pressure, kPa = 101
Property: Molar heat capacity at constant pressure, J/K/mol (Liquid); method: Small sample (50 mg) DSC
Temperature, K	Mole fraction of 1-ethyl-3-methylimidazolium tetrafluoroborate	Molar heat capacity at constant pressure, J/K/mol	uncertainty
293.15	.1023	198.08	.59424
293.15	.1658	203.95	.61185
293.15	.2153	208.71	.62613
293.15	.2789	215.1	.6453
293.15	.3254	219.94	.65982
293.15	.3898	226.91	.68073
293.15	.4258	230.92	.69276
293.15	.4712	236.11	.70833
293.15	.5145	241.19	.72357
293.15	.5636	247.07	.74121
293.15	.6133	253.18	.75954
293.15	.6789	261.42	.78426
293.15	.7242	267.23	.80169
293.15	.7735	273.65	.82095
293.15	.8153	279.13	.83739
293.15	.8672	286.01	.85803
293.15	.8988	290.22	.87066
293.15	.9235	293.52	.88056
298.15	.1023	199.66	.59898
298.15	.1658	205.34	.61602
298.15	.2153	210.03	.63009
298.15	.2789	216.35	.64905
298.15	.3254	221.18	.66354
298.15	.3898	228.13	.68439
298.15	.4258	232.16	.69648
298.15	.4712	237.36	.71208
298.15	.5145	242.43	.72729
298.15	.5636	248.32	.74496
298.15	.6133	254.42	.76326
298.15	.6789	262.66	.78798
298.15	.7242	268.47	.80541
298.15	.7735	274.88	.82464
298.15	.8153	280.39	.84117
298.15	.8672	287.32	.86196
298.15	.8988	291.57	.87471
298.15	.9235	294.91	.88473
303.15	.1023	200.72	.60216
303.15	.1658	206.18	.61854
303.15	.2153	210.73	.63219
303.15	.2789	216.92	.65076
303.15	.3254	221.67	.66501
303.15	.3898	228.55	.68565
303.15	.4258	232.54	.69762
303.15	.4712	237.7	.7131
303.15	.5145	242.76	.72828
303.15	.5636	248.64	.74592
303.15	.6133	254.74	.76422
303.15	.6789	263	.789
303.15	.7242	268.83	.80649
303.15	.7735	275.29	.82587
303.15	.8153	280.85	.84255
303.15	.8672	287.85	.86355
303.15	.8988	292.15	.87645
303.15	.9235	295.54	.88662
308.15	.1023	202.22	.60666
308.15	.1658	207.6	.6228
308.15	.2153	212.1	.6363
308.15	.2789	218.22	.65466
308.15	.3254	222.95	.66885
308.15	.3898	229.8	.6894
308.15	.4258	233.79	.70137
308.15	.4712	238.96	.71688
308.15	.5145	244.04	.73212
308.15	.5636	249.96	.74988
308.15	.6133	256.12	.76836
308.15	.6789	264.48	.79344
308.15	.7242	270.4	.8112
308.15	.7735	276.97	.83091
308.15	.8153	282.64	.84792
308.15	.8672	289.79	.86937
308.15	.8988	294.2	.8826
308.15	.9235	297.67	.89301

System: 2-methylaniline + 1-ethyl-3-methylimidazolium tetrafluoroborate; phases: Liquid
Fixed: Pressure, kPa = 101
Property: Molar heat capacity at constant pressure, J/K/mol (Liquid); method: Small sample (50 mg) DSC
Temperature, K	Mole fraction of 1-ethyl-3-methylimidazolium tetrafluoroborate	Molar heat capacity at constant pressure, J/K/mol	uncertainty
293.15	.0955	222.93	.66879
293.15	.1524	227.26	.68178
293.15	.2065	231.48	.69444
293.15	.2645	236.13	.70839
293.15	.3011	239.12	.71736
293.15	.3458	242.84	.72852
293.15	.3931	246.86	.74058
293.15	.4325	250.26	.75078
293.15	.4919	255.48	.76644
293.15	.5342	259.27	.77781
293.15	.5834	263.74	.79122
293.15	.6329	268.3	.8049
293.15	.6978	274.39	.82317
293.15	.7237	276.84	.83052
293.15	.7862	282.81	.84843
293.15	.8335	287.39	.86217
293.15	.8804	291.96	.87588
293.15	.9156	295.41	.88623
298.15	.0955	223.97	.67191
298.15	.1524	228.21	.68463
298.15	.2065	232.36	.69708
298.15	.2645	236.95	.71085
298.15	.3011	239.9	.7197
298.15	.3458	243.6	.7308
298.15	.3931	247.59	.74277
298.15	.4325	250.98	.75294
298.15	.4919	256.21	.76863
298.15	.5342	260.01	.78003
298.15	.5834	264.52	.79356
298.15	.6329	269.13	.80739
298.15	.6978	275.29	.82587
298.15	.7237	277.78	.83334
298.15	.7862	283.88	.85164
298.15	.8335	288.56	.86568
298.15	.8804	293.24	.87972
298.15	.9156	296.79	.89037
303.15	.0955	225.01	.67503
303.15	.1524	229.11	.68733
303.15	.2065	233.14	.69942
303.15	.2645	237.6	.7128
303.15	.3011	240.5	.7215
303.15	.3458	244.11	.73233
303.15	.3931	248.03	.74409
303.15	.4325	251.37	.75411
303.15	.4919	256.53	.76959
303.15	.5342	260.31	.78093
303.15	.5834	264.79	.79437
303.15	.6329	269.39	.80817
303.15	.6978	275.58	.82674
303.15	.7237	278.09	.83427
303.15	.7862	284.25	.85275
303.15	.8335	288.99	.86697
303.15	.8804	293.76	.88128
303.15	.9156	297.38	.89214
308.15	.0955	226.04	.67812
308.15	.1524	230.14	.69042
308.15	.2065	234.18	.70254
308.15	.2645	238.67	.71601
308.15	.3011	241.58	.72474
308.15	.3458	245.22	.73566
308.15	.3931	249.16	.74748
308.15	.4325	252.53	.75759
308.15	.4919	257.73	.77319
308.15	.5342	261.53	.78459
308.15	.5834	266.05	.79815
308.15	.6329	270.7	.8121
308.15	.6978	276.96	.83088
308.15	.7237	279.51	.83853
308.15	.7862	285.78	.85734
308.15	.8335	290.65	.87195
308.15	.8804	295.57	.88671
308.15	.9156	299.33	.89799

System: N-methylaniline + 1-ethyl-3-methylimidazolium tetrafluoroborate; phases: Liquid
Fixed: Pressure, kPa = 101
Property: Molar heat capacity at constant pressure, J/K/mol (Liquid); method: Small sample (50 mg) DSC
Temperature, K	Mole fraction of 1-ethyl-3-methylimidazolium tetrafluoroborate	Molar heat capacity at constant pressure, J/K/mol	uncertainty
293.15	.1121	212.91	.63873
293.15	.1653	217.57	.65271
293.15	.2232	222.74	.66822
293.15	.2742	227.36	.68208
293.15	.3089	230.55	.69165
293.15	.3578	235.1	.7053
293.15	.3981	238.91	.71673
293.15	.4325	242.2	.7266
293.15	.4875	247.56	.74268
293.15	.5133	250.12	.75036
293.15	.5789	256.72	.77016
293.15	.6229	261.24	.78372
293.15	.6946	268.81	.80643
293.15	.7366	273.33	.81999
293.15	.7898	279.2	.8376
293.15	.8421	285.08	.85524
293.15	.8988	291.63	.87489
293.15	.9213	294.28	.88284
298.15	.1121	216.12	.64836
298.15	.1653	220.61	.66183
298.15	.2232	225.57	.67671
298.15	.2742	230.02	.69006
298.15	.3089	233.08	.69924
298.15	.3578	237.48	.71244
298.15	.3981	241.16	.72348
298.15	.4325	244.35	.73305
298.15	.4875	249.54	.74862
298.15	.5133	252.02	.75606
298.15	.5789	258.46	.77538
298.15	.6229	262.89	.78867
298.15	.6946	270.31	.81093
298.15	.7366	274.79	.82437
298.15	.7898	280.61	.84183
298.15	.8421	286.49	.85947
298.15	.8988	293.06	.87918
298.15	.9213	295.74	.88722
303.15	.1121	219.97	.65991
303.15	.1653	224.21	.67263
303.15	.2232	228.91	.68673
303.15	.2742	233.11	.69933
303.15	.3089	236	.708
303.15	.3578	240.15	.72045
303.15	.3981	243.63	.73089
303.15	.4325	246.63	.73989
303.15	.4875	251.54	.75462
303.15	.5133	253.89	.76167
303.15	.5789	260	.78
303.15	.6229	264.23	.79269
303.15	.6946	271.34	.81402
303.15	.7366	275.67	.82701
303.15	.7898	281.33	.84399
303.15	.8421	287.11	.86133
303.15	.8988	293.66	.88098
303.15	.9213	296.35	.88905
308.15	.1121	222.88	.66864
308.15	.1653	227	.681
308.15	.2232	231.56	.69468
308.15	.2742	235.67	.70701
308.15	.3089	238.49	.71547
308.15	.3578	242.56	.72768
308.15	.3981	245.96	.73788
308.15	.4325	248.92	.74676
308.15	.4875	253.75	.76125
308.15	.5133	256.07	.76821
308.15	.5789	262.1	.7863
308.15	.6229	266.29	.79887
308.15	.6946	273.38	.82014
308.15	.7366	277.7	.8331
308.15	.7898	283.38	.85014
308.15	.8421	289.21	.86763
308.15	.8988	295.84	.88752
308.15	.9213	298.57	.89571

System: aniline + 2-methylaniline; phases: Liquid
Fixed: Pressure, kPa = 101
Property: Molar heat capacity at constant pressure, J/K/mol (Liquid); method: Small sample (50 mg) DSC
Temperature, K	Mole fraction of 2-methylaniline	Molar heat capacity at constant pressure, J/K/mol	uncertainty
293.15	.1153	193.25	.57975
293.15	.1725	195.2	.5856
293.15	.2184	196.73	.59019
293.15	.2811	198.76	.59628
293.15	.3242	200.1	.6003
293.15	.3933	202.18	.60654
293.15	.4229	203.03	.60909
293.15	.4736	204.45	.61335
293.15	.5098	205.42	.61626
293.15	.5642	206.82	.62046
293.15	.6133	208.03	.62409
293.15	.6789	209.56	.62868
293.15	.7078	210.21	.63063
293.15	.7428	210.96	.63288
293.15	.7963	212.08	.63624
293.15	.8421	212.99	.63897
293.15	.8981	214.07	.64221
293.15	.9232	214.54	.64362
298.15	.1153	195.45	.58635
298.15	.1725	197.39	.59217
298.15	.2184	198.88	.59664
298.15	.2811	200.85	.60255
298.15	.3242	202.14	.60642
298.15	.3933	204.14	.61242
298.15	.4229	204.95	.61485
298.15	.4736	206.3	.6189
298.15	.5098	207.23	.62169
298.15	.5642	208.56	.62568
298.15	.6133	209.71	.62913
298.15	.6789	211.17	.63351
298.15	.7078	211.78	.63534
298.15	.7428	212.51	.63753
298.15	.7963	213.56	.64068
298.15	.8421	214.42	.64326
298.15	.8981	215.43	.64629
298.15	.9232	215.87	.64761
303.15	.1153	197.15	.59145
303.15	.1725	199.11	.59733
303.15	.2184	200.6	.6018
303.15	.2811	202.54	.60762
303.15	.3242	203.82	.61146
303.15	.3933	205.76	.61728
303.15	.4229	206.56	.61968
303.15	.4736	207.89	.62367
303.15	.5098	208.79	.62637
303.15	.5642	210.1	.6303
303.15	.6133	211.24	.63372
303.15	.6789	212.67	.63801
303.15	.7078	213.28	.63984
303.15	.7428	213.99	.64197
303.15	.7963	215.03	.64509
303.15	.8421	215.87	.64761
303.15	.8981	216.85	.65055
303.15	.9232	217.26	.65178
308.15	.1153	198.85	.59655
308.15	.1725	200.81	.60243
308.15	.2184	202.31	.60693
308.15	.2811	204.24	.61272
308.15	.3242	205.5	.6165
308.15	.3933	207.41	.62223
308.15	.4229	208.18	.62454
308.15	.4736	209.46	.62838
308.15	.5098	210.35	.63105
308.15	.5642	211.61	.63483
308.15	.6133	212.7	.6381
308.15	.6789	214.08	.64224
308.15	.7078	214.66	.64398
308.15	.7428	215.34	.64602
308.15	.7963	216.33	.64899
308.15	.8421	217.12	.65136
308.15	.8981	218.03	.65409
308.15	.9232	218.42	.65526

System: 2-methylaniline + N-methylaniline; phases: Liquid
Fixed: Pressure, kPa = 101
Property: Molar heat capacity at constant pressure, J/K/mol (Liquid); method: Small sample (50 mg) DSC
Temperature, K	Mole fraction of 2-methylaniline	Molar heat capacity at constant pressure, J/K/mol	uncertainty
293.15	.0823	205.14	.61542
293.15	.1462	206.6	.6198
293.15	.2051	207.94	.62382
293.15	.2645	209.25	.62775
293.15	.3122	210.27	.63081
293.15	.3736	211.49	.63447
293.15	.4229	212.42	.63726
293.15	.4821	213.43	.64029
293.15	.5342	214.23	.64269
293.15	.5864	214.92	.64476
293.15	.6243	215.35	.64605
293.15	.6789	215.86	.64758
293.15	.7154	216.13	.64839
293.15	.7587	216.37	.64911
293.15	.8024	216.53	.64959
293.15	.8422	216.57	.64971
293.15	.8971	216.52	.64956
293.15	.9256	216.42	.64926
298.15	.0823	208.7	.6261
298.15	.1462	210.1	.6303
298.15	.2051	211.34	.63402
298.15	.2645	212.54	.63762
298.15	.3122	213.46	.64038
298.15	.3736	214.55	.64365
298.15	.4229	215.35	.64605
298.15	.4821	216.21	.64863
298.15	.5342	216.85	.65055
298.15	.5864	217.4	.6522
298.15	.6243	217.72	.65316
298.15	.6789	218.08	.65424
298.15	.7154	218.24	.65472
298.15	.7587	218.35	.65505
298.15	.8024	218.36	.65508
298.15	.8422	218.29	.65487
298.15	.8971	218.06	.65418
298.15	.9256	217.87	.65361
303.15	.0823	212.99	.63897
303.15	.1462	214.28	.64284
303.15	.2051	215.38	.64614
303.15	.2645	216.43	.64929
303.15	.3122	217.2	.6516
303.15	.3736	218.12	.65436
303.15	.4229	218.76	.65628
303.15	.4821	219.43	.65829
303.15	.5342	219.91	.65973
303.15	.5864	220.29	.66087
303.15	.6243	220.49	.66147
303.15	.6789	220.66	.66198
303.15	.7154	220.7	.6621
303.15	.7587	220.66	.66198
303.15	.8024	220.52	.66156
303.15	.8422	220.29	.66087
303.15	.8971	219.82	.65946
303.15	.9256	219.51	.65853
308.15	.0823	216.16	.64848
308.15	.1462	217.38	.65214
308.15	.2051	218.42	.65526
308.15	.2645	219.38	.65814
308.15	.3122	220.07	.66021
308.15	.3736	220.86	.66258
308.15	.4229	221.4	.6642
308.15	.4821	221.93	.66579
308.15	.5342	222.3	.6669
308.15	.5864	222.54	.66762
308.15	.6243	222.65	.66795
308.15	.6789	222.69	.66807
308.15	.7154	222.62	.66786
308.15	.7587	222.46	.66738
308.15	.8024	222.19	.66657
308.15	.8422	221.86	.66558
308.15	.8971	221.24	.66372
308.15	.9256	220.83	.66249

System: aniline + 2-methylaniline + 1-ethyl-3-methylimidazolium tetrafluoroborate; phases: Liquid
Fixed: Pressure, kPa = 101
Property: Molar heat capacity at constant pressure, J/K/mol (Liquid); method: Small sample (50 mg) DSC
Temperature, K	Mole fraction of 1-ethyl-3-methylimidazolium tetrafluoroborate	Mole fraction of 2-methylaniline	Molar heat capacity at constant pressure, J/K/mol	uncertainty
293.15	.1089	.7818	221.42	.66426
293.15	.1231	.7609	222.24	.66672
293.15	.1402	.7362	223.23	.66969
293.15	.1614	.7076	224.5	.6735
293.15	.1821	.6804	225.76	.67728
293.15	.2032	.6541	227.09	.68127
293.15	.2219	.6279	228.23	.68469
293.15	.2435	.6045	229.71	.68913
293.15	.2623	.5832	231.01	.69303
293.15	.2834	.5611	232.54	.69762
293.15	.3012	.5432	233.87	.70161
293.15	.3228	.5214	235.53	.70659
293.15	.3418	.5021	237.02	.71106
293.15	.3631	.4807	238.73	.71619
293.15	.3814	.4621	240.23	.72069
293.15	.4149	.4213	242.92	.72876
293.15	.4321	.4009	244.35	.73305
293.15	.4512	.3823	246.05	.73815
293.15	.4732	.3607	248.04	.74412
293.15	.4929	.3388	249.79	.74937
293.15	.5078	.3187	251.07	.75321
293.15	.5242	.2979	252.5	.7575
293.15	.5435	.2761	254.23	.76269
293.15	.5641	.2552	256.14	.76842
293.15	.5851	.2362	258.15	.77445
293.15	.6152	.2132	261.14	.78342
293.15	.6353	.1924	263	.789
293.15	.6567	.1749	265.11	.79533
293.15	.6789	.1574	267.31	.80193
293.15	.7062	.1371	270.08	.81024
293.15	.7256	.1248	272.12	.81636
293.15	.7423	.1121	273.81	.82143
298.15	.1089	.7818	222.29	.66687
298.15	.1231	.7609	223.01	.66903
298.15	.1402	.7362	223.86	.67158
298.15	.1614	.7076	224.96	.67488
298.15	.1821	.6804	226.05	.67815
298.15	.2032	.6541	227.21	.68163
298.15	.2219	.6279	228.2	.6846
298.15	.2435	.6045	229.53	.68859
298.15	.2623	.5832	230.7	.6921
298.15	.2834	.5611	232.12	.69636
298.15	.3012	.5432	233.35	.70005
298.15	.3228	.5214	234.93	.70479
298.15	.3418	.5021	236.36	.70908
298.15	.3631	.4807	238.05	.71415
298.15	.3814	.4621	239.54	.71862
298.15	.4149	.4213	242.37	.72711
298.15	.4321	.4009	243.9	.7317
298.15	.4512	.3823	245.67	.73701
298.15	.4732	.3607	247.76	.74328
298.15	.4929	.3388	249.67	.74901
298.15	.5078	.3187	251.11	.75333
298.15	.5242	.2979	252.72	.75816
298.15	.5435	.2761	254.63	.76389
298.15	.5641	.2552	256.68	.77004
298.15	.5851	.2362	258.79	.77637
298.15	.6152	.2132	261.89	.78567
298.15	.6353	.1924	263.88	.79164
298.15	.6567	.1749	266.05	.79815
298.15	.6789	.1574	268.32	.80496
298.15	.7062	.1371	271.14	.81342
298.15	.7256	.1248	273.22	.81966
298.15	.7423	.1121	274.94	.82482
303.15	.1089	.7818	222.99	.66897
303.15	.1231	.7609	223.54	.67062
303.15	.1402	.7362	224.2	.6726
303.15	.1614	.7076	225.04	.67512
303.15	.1821	.6804	225.86	.67758
303.15	.2032	.6541	226.75	.68025
303.15	.2219	.6279	227.52	.68256
303.15	.2435	.6045	228.6	.6858
303.15	.2623	.5832	229.58	.68874
303.15	.2834	.5611	230.8	.6924
303.15	.3012	.5432	231.9	.6957
303.15	.3228	.5214	233.33	.69999
303.15	.3418	.5021	234.68	.70404
303.15	.3631	.4807	236.29	.70887
303.15	.3814	.4621	237.77	.71331
303.15	.4149	.4213	240.74	.72222
303.15	.4321	.4009	242.39	.72717
303.15	.4512	.3823	244.25	.73275
303.15	.4732	.3607	246.48	.73944
303.15	.4929	.3388	248.57	.74571
303.15	.5078	.3187	250.24	.75072
303.15	.5242	.2979	252.07	.75621
303.15	.5435	.2761	254.18	.76254
303.15	.5641	.2552	256.41	.76923
303.15	.5851	.2362	258.66	.77598
303.15	.6152	.2132	261.89	.78567
303.15	.6353	.1924	264	.792
303.15	.6567	.1749	266.25	.79875
303.15	.6789	.1574	268.59	.80577
303.15	.7062	.1371	271.46	.81438
303.15	.7256	.1248	273.55	.82065
303.15	.7423	.1121	275.31	.82593
308.15	.1089	.7818	223.81	.67143
308.15	.1231	.7609	224.28	.67284
308.15	.1402	.7362	224.83	.67449
308.15	.1614	.7076	225.53	.67659
308.15	.1821	.6804	226.21	.67863
308.15	.2032	.6541	226.96	.68088
308.15	.2219	.6279	227.6	.6828
308.15	.2435	.6045	228.55	.68565
308.15	.2623	.5832	229.45	.68835
308.15	.2834	.5611	230.56	.69168
308.15	.3012	.5432	231.59	.69477
308.15	.3228	.5214	232.96	.69888
308.15	.3418	.5021	234.28	.70284
308.15	.3631	.4807	235.87	.70761
308.15	.3814	.4621	237.36	.71208
308.15	.4149	.4213	240.44	.72132
308.15	.4321	.4009	242.18	.72654
308.15	.4512	.3823	244.12	.73236
308.15	.4732	.3607	246.45	.73935
308.15	.4929	.3388	248.69	.74607
308.15	.5078	.3187	250.52	.75156
308.15	.5242	.2979	252.51	.75753
308.15	.5435	.2761	254.79	.76437
308.15	.5641	.2552	257.17	.77151
308.15	.5851	.2362	259.55	.77865
308.15	.6152	.2132	262.91	.78873
308.15	.6353	.1924	265.16	.79548
308.15	.6567	.1749	267.51	.80253
308.15	.6789	.1574	269.93	.80979
308.15	.7062	.1371	272.91	.81873
308.15	.7256	.1248	275.05	.82515
308.15	.7423	.1121	276.86	.83058

System: 2-methylaniline + N-methylaniline + 1-ethyl-3-methylimidazolium tetrafluoroborate; phases: Liquid
Fixed: Pressure, kPa = 101
Property: Molar heat capacity at constant pressure, J/K/mol (Liquid); method: Small sample (50 mg) DSC
Temperature, K	Mole fraction of 1-ethyl-3-methylimidazolium tetrafluoroborate	Mole fraction of 2-methylaniline	Molar heat capacity at constant pressure, J/K/mol	uncertainty
293.15	.1146	.7949	224.32	.67296
293.15	.1304	.7705	225.45	.67635
293.15	.1481	.7434	226.71	.68013
293.15	.1671	.7154	228.09	.68427
293.15	.1892	.6823	229.69	.68907
293.15	.2094	.6549	231.17	.69351
293.15	.2306	.6274	232.75	.69825
293.15	.2521	.5996	234.35	.70305
293.15	.2735	.5743	235.98	.70794
293.15	.2912	.5541	237.33	.71199
293.15	.3042	.5411	238.36	.71508
293.15	.3206	.5232	239.63	.71889
293.15	.3415	.5017	241.28	.72384
293.15	.3623	.4821	242.96	.72888
293.15	.3821	.4633	244.56	.73368
293.15	.4036	.4473	246.4	.7392
293.15	.4123	.4244	246.73	.74019
293.15	.4241	.4042	247.45	.74235
293.15	.4421	.3823	248.77	.74631
293.15	.4612	.3621	250.27	.75081
293.15	.4839	.3404	252.13	.75639
293.15	.4918	.3223	252.52	.75756
293.15	.5021	.3133	253.4	.7602
293.15	.5242	.2924	255.28	.76584
293.15	.5462	.2732	257.2	.7716
293.15	.5623	.2498	258.46	.77538
293.15	.5835	.2304	260.38	.78114
293.15	.6123	.2112	263.13	.78939
293.15	.6365	.1904	265.41	.79623
293.15	.6604	.1694	267.69	.80307
293.15	.6816	.1471	269.71	.80913
293.15	.7078	.1271	272.3	.8169
298.15	.1146	.7949	225.46	.67638
298.15	.1304	.7705	226.59	.67977
298.15	.1481	.7434	227.86	.68358
298.15	.1671	.7154	229.26	.68778
298.15	.1892	.6823	230.87	.69261
298.15	.2094	.6549	232.39	.69717
298.15	.2306	.6274	233.99	.70197
298.15	.2521	.5996	235.61	.70683
298.15	.2735	.5743	237.24	.71172
298.15	.2912	.5541	238.6	.7158
298.15	.3042	.5411	239.63	.71889
298.15	.3206	.5232	240.9	.7227
298.15	.3415	.5017	242.53	.72759
298.15	.3623	.4821	244.21	.73263
298.15	.3821	.4633	245.79	.73737
298.15	.4036	.4473	247.66	.74298
298.15	.4123	.4244	247.79	.74337
298.15	.4241	.4042	248.37	.74511
298.15	.4421	.3823	249.6	.7488
298.15	.4612	.3621	251.02	.75306
298.15	.4839	.3404	252.82	.75846
298.15	.4918	.3223	253.1	.7593
298.15	.5021	.3133	253.97	.76191
298.15	.5242	.2924	255.8	.7674
298.15	.5462	.2732	257.72	.77316
298.15	.5623	.2498	258.95	.77685
298.15	.5835	.2304	260.9	.7827
298.15	.6123	.2112	263.7	.7911
298.15	.6365	.1904	266.05	.79815
298.15	.6604	.1694	268.42	.80526
298.15	.6816	.1471	270.57	.81171
298.15	.7078	.1271	273.27	.81981
303.15	.1146	.7949	226.69	.68007
303.15	.1304	.7705	227.78	.68334
303.15	.1481	.7434	229.02	.68706
303.15	.1671	.7154	230.37	.69111
303.15	.1892	.6823	231.95	.69585
303.15	.2094	.6549	233.42	.70026
303.15	.2306	.6274	234.98	.70494
303.15	.2521	.5996	236.55	.70965
303.15	.2735	.5743	238.14	.71442
303.15	.2912	.5541	239.45	.71835
303.15	.3042	.5411	240.47	.72141
303.15	.3206	.5232	241.68	.72504
303.15	.3415	.5017	243.27	.72981
303.15	.3623	.4821	244.9	.7347
303.15	.3821	.4633	246.42	.73926
303.15	.4036	.4473	248.26	.74478
303.15	.4123	.4244	248.3	.7449
303.15	.4241	.4042	248.8	.7464
303.15	.4421	.3823	249.95	.74985
303.15	.4612	.3621	251.31	.75393
303.15	.4839	.3404	253.05	.75915
303.15	.4918	.3223	253.29	.75987
303.15	.5021	.3133	254.13	.76239
303.15	.5242	.2924	255.94	.76782
303.15	.5462	.2732	257.84	.77352
303.15	.5623	.2498	259.09	.77727
303.15	.5835	.2304	261.04	.78312
303.15	.6123	.2112	263.85	.79155
303.15	.6365	.1904	266.24	.79872
303.15	.6604	.1694	268.66	.80598
303.15	.6816	.1471	270.9	.8127
303.15	.7078	.1271	273.66	.82098
308.15	.1146	.7949	227.9	.6837
308.15	.1304	.7705	229	.687
308.15	.1481	.7434	230.24	.69072
308.15	.1671	.7154	231.6	.6948
308.15	.1892	.6823	233.19	.69957
308.15	.2094	.6549	234.66	.70398
308.15	.2306	.6274	236.22	.70866
308.15	.2521	.5996	237.8	.7134
308.15	.2735	.5743	239.38	.71814
308.15	.2912	.5541	240.7	.7221
308.15	.3042	.5411	241.7	.7251
308.15	.3206	.5232	242.93	.72879
308.15	.3415	.5017	244.51	.73353
308.15	.3623	.4821	246.12	.73836
308.15	.3821	.4633	247.65	.74295
308.15	.4036	.4473	249.49	.74847
308.15	.4123	.4244	249.52	.74856
308.15	.4241	.4042	250.02	.75006
308.15	.4421	.3823	251.16	.75348
308.15	.4612	.3621	252.53	.75759
308.15	.4839	.3404	254.26	.76278
308.15	.4918	.3223	254.51	.76353
308.15	.5021	.3133	255.37	.76611
308.15	.5242	.2924	257.19	.77157
308.15	.5462	.2732	259.11	.77733
308.15	.5623	.2498	260.4	.7812
308.15	.5835	.2304	262.39	.78717
308.15	.6123	.2112	265.23	.79569
308.15	.6365	.1904	267.67	.80301
308.15	.6604	.1694	270.16	.81048
308.15	.6816	.1471	272.47	.81741
308.15	.7078	.1271	275.3	.8259
