Measured thermophysical data. The Vaporization Enthalpy and Vapor Pressure of (d)-Amphetamine and of Several Primary Amines Used as Standards at T/K = 298 As Evaluated by Correlation Gas Chromatography and Transpiration
Source: J. Chem. Eng. Data, 2013, 10.1021/je400212t
Compound 1: benzene, aminomethyl-, C7H9N, purity 99%
Compound 2: (S)-1-phenyl-2-propanamine, C9H13N, purity 99%
Compound 3: 2-phenylethylamine, C8H11N, purity 99%
Compound 4: 1-phenylethanamine, C8H11N, purity 73.5%
Compound 5: decylamine, C10H23N, purity 99%
Compound 6: heptylamine, C7H17N, purity 98%
Compound 7: octylamine, C8H19N, purity 98%

System: benzene, aminomethyl-; phases: Liquid, Gas
Property: Vapor or sublimation pressure, kPa (Liquid); method: Transpiration method
Temperature, K	Vapor or sublimation pressure, kPa	uncertainty
275.5	.01437	.0004311
278.6	.01828	.0005484
281.5	.02307	.0006921
284.5	.03135	.0009405
287.6	.03874	.0011622
290.5	.04695	.0014085
293.5	.06098	.0018294
296.5	.07884	.0023652
298.4	.0869	.002607
301.3	.11371	.0034113
303.4	.12769	.0038307
303.4	.12634	.0037902
304.3	.13629	.0040887
307.4	.16927	.0050781
308.3	.17808	.0053424
308.4	.17671	.0053013
310.3	.20816	.0062448
313.4	.24907	.0074721
276.7	.01472	.0004416
276.7	.01525	.0004575
279.6	.01912	.0005736
279.6	.02004	.0006012
282.3	.02534	.0007602
282.3	.02615	.0007845
285.7	.03458	.0010374
285.7	.03341	.0010023
288	.03934	.0011802
288	.03934	.0011802
291.6	.05362	.0016086
291.6	.05362	.0016086
294.2	.06487	.0019461
294.2	.06487	.0019461
297.7	.08247	.0024741
297.7	.08247	.0024741
300.3	.10148	.0030444
300.3	.10148	.0030444
303.3	.12831	.0038493
303.5	.126	.00378
306.1	.14686	.0044058
306.3	.15135	.0045405
309.4	.1871	.005613
309.5	.19507	.0058521
312.2	.22839	.0068517
312.3	.22718	.0068154
312.3	.23388	.0070164
315.6	.30164	.0090492

System: (S)-1-phenyl-2-propanamine; phases: Liquid, Gas
Property: Molar enthalpy of vaporization or sublimation, kJ/mol (Liquid); method: Correlation gas chromatography
Temperature, K	Molar enthalpy of vaporization or sublimation, kJ/mol	uncertainty
298.15	58.2	2.7

System: (S)-1-phenyl-2-propanamine; phases: Liquid, Gas
Property: Vapor or sublimation pressure, kPa (Liquid); method: Correlation GC
Temperature, K	Vapor or sublimation pressure, kPa	uncertainty
298.15	.038	.012

System: 2-phenylethylamine; phases: Liquid, Gas
Property: Vapor or sublimation pressure, kPa (Liquid); method: Transpiration method
Temperature, K	Vapor or sublimation pressure, kPa	uncertainty
285.2	.01545	.0004635
287.4	.01817	.0005451
288.2	.01989	.0005967
288.2	.01942	.0005826
290.1	.02316	.0006948
293.1	.02888	.0008664
293.2	.03129	.0009387
298.2	.04648	.0013944
298.2	.04334	.0013002
298.3	.0443	.001329
300.1	.05196	.0015588
302	.06007	.0018021
303.2	.06532	.0019596
303.3	.06414	.0019242
303.3	.06328	.0018984
304.2	.06955	.0020865
305.1	.07177	.0021531
305.1	.0755	.002265
306.4	.08176	.0024528
308.2	.09258	.0027774
308.2	.0878	.002634
310.4	.10674	.0032022
311.2	.12007	.0036021
313.2	.13312	.0039936
313.4	.13106	.0039318
314.2	.1374	.004122
317.2	.18178	.0054534
318.2	.1891	.005673
318.4	.18778	.0056334
320.2	.21866	.0065598
323.2	.26545	.0079635

System: 1-phenylethanamine; phases: Liquid, Gas
Property: Vapor or sublimation pressure, kPa (Liquid); method: Transpiration method
Temperature, K	Vapor or sublimation pressure, kPa	uncertainty
283.6	.02509	.0007527
287.8	.03534	.0010602
291.3	.04928	.0014784
291.3	.04951	.0014853
295.3	.06595	.0019785
299.2	.08866	.0026598
303.1	.11831	.0035493
307.1	.15516	.0046548
311	.20243	.0060729
314.9	.26021	.0078063
318.9	.33907	.0101721
322.8	.43907	.0131721

System: decylamine; phases: Liquid, Gas
Property: Vapor or sublimation pressure, kPa (Liquid); method: Transpiration method
Temperature, K	Vapor or sublimation pressure, kPa	uncertainty
299.1	.013	.00039
300.2	.014	.00042
301.3	.0158	.000474
304	.0195	.000585
306.2	.0228	.000684
307.3	.0262	.000786
308.6	.0291	.000873
310.2	.0321	.000963
312.2	.036	.00108
313.2	.0426	.001278
315.1	.046	.00138
316.2	.0512	.001536
317.2	.0553	.001659
320	.0655	.001965
320.9	.0722	.002166
323.2	.0805	.002415
324.3	.0911	.002733
324.3	.0914	.002742
327.2	.106	.00318
330.1	.135	.00405
330.1	.1356	.004068
332.8	.1661	.004983
332.8	.1645	.004935
333.1	.1628	.004884
333.1	.1635	.004905
335.9	.1979	.005937
335.9	.2119	.006357
338.9	.2519	.007557
338.9	.2628	.007884
341.9	.3064	.009192
341.9	.3025	.009075
343	.3357	.010071

System: heptylamine; phases: Liquid, Gas
Property: Vapor or sublimation pressure, kPa (Liquid); method: Transpiration method
Temperature, K	Vapor or sublimation pressure, kPa	uncertainty
280.2	.07823	.0023469
282.2	.09451	.0028353
284.2	.10883	.0032649
286.2	.12319	.0036957
288.2	.14076	.0042228
290.2	.16413	.0049239
292.2	.19074	.0057222
294.2	.22191	.0066573
296.2	.24884	.0074652
298.3	.28848	.0086544
300.3	.32882	.0098646
302.2	.37997	.0113991
303.2	.40978	.0122934
306.2	.50265	.0150795

System: octylamine; phases: Liquid, Gas
Property: Vapor or sublimation pressure, kPa (Liquid); method: Transpiration method
Temperature, K	Vapor or sublimation pressure, kPa	uncertainty
274.2	.0157	.000471
277.7	.0208	.000624
281	.0274	.000822
283.2	.0325	.000975
283.6	.0347	.001041
285.9	.0428	.001284
286.5	.0428	.001284
289.2	.0517	.001551
289.6	.0545	.001635
292.4	.0677	.002031
292.4	.069	.00207
295.2	.084	.00252
295.3	.0856	.002568
295.3	.0834	.002502
298.1	.1047	.003141
298.5	.1064	.003192
301.1	.1353	.004059
301.2	.1294	.003882
301.2	.1369	.004107
301.2	.1341	.004023
301.3	.1312	.003936
301.3	.1328	.003984
304	.1653	.004959
304.1	.1667	.005001
307.1	.2113	.006339
307.3	.2102	.006306
310.2	.2494	.007482
310.3	.2578	.007734
312.3	.3051	.009153
313	.3121	.009363
313.3	.3238	.009714
