Measured thermophysical data. Isobaric Vapor Liquid Equilibrium for Binary Systems of 2,2,4-Trimethylpentane with o-Xylene, m-Xylene, p-Xylene, and Ethylbenzene at 250 kPa
Source: J. Chem. Eng. Data, 2014, 10.1021/je401057z
Compound 1: 2,2,4-trimethylpentane, C8H18
Compound 2: o-xylene, C8H10
Compound 3: m-xylene, C8H10
Compound 4: p-xylene, C8H10
Compound 5: ethylbenzene, C8H10

System: 2,2,4-trimethylpentane; phases: Liquid, Gas
Property: Vapor or sublimation pressure, kPa (Liquid); method: Ebulliometric method (Recirculating still)
Temperature, K	Vapor or sublimation pressure, kPa	uncertainty
371.55	100.05	.2
373.4	104.94	.2
379.8	124.9	.2
386.94	149.96	.2
393.14	174.7	.2
398.64	199.94	.2
403.68	224.91	.2
408.28	249.95	.2
408.3	250	.2

System: o-xylene; phases: Liquid, Gas
Property: Vapor or sublimation pressure, kPa (Liquid); method: Ebulliometric method (Recirculating still)
Temperature, K	Vapor or sublimation pressure, kPa	uncertainty
456.1	250	.2

System: m-xylene; phases: Liquid, Gas
Property: Vapor or sublimation pressure, kPa (Liquid); method: Ebulliometric method (Recirculating still)
Temperature, K	Vapor or sublimation pressure, kPa	uncertainty
450.1	250	.2

System: p-xylene; phases: Liquid, Gas
Property: Vapor or sublimation pressure, kPa (Liquid); method: Ebulliometric method (Recirculating still)
Temperature, K	Vapor or sublimation pressure, kPa	uncertainty
410.78	100.04	.2
412.63	105	.2
419.48	124.93	.2
433.57	174.88	.2
439.37	199.86	.2
444.66	224.86	.2
449.56	250.04	.2
449.6	250	.2

System: ethylbenzene; phases: Liquid, Gas
Property: Vapor or sublimation pressure, kPa (Liquid); method: Ebulliometric method (Recirculating still)
Temperature, K	Vapor or sublimation pressure, kPa	uncertainty
447.2	250	.2

System: ethylbenzene + 2,2,4-trimethylpentane; phases: Liquid, Gas
Fixed: Pressure, kPa = 250
Property: Boiling temperature at pressure P, K (Liquid); method: Ebulliometric method (Recirculating still)
Mole fraction of 2,2,4-trimethylpentane	Boiling temperature at pressure P, K	uncertainty
1	408.3	.1
.99	408.8	.1
.961	409.7	.1
.917	410.9	.1
.866	412	.1
.793	414.3	.1
.688	417	.1
.648	418.5	.1
.581	420.6	.1
.525	422.5	.1
.427	425.8	.1
.366	428	.1
.321	430.1	.1
.269	432.3	.1
.206	435.5	.1
.136	438.9	.1
.094	441	.1
.037	444.4	.1
0	447.2	.1

System: ethylbenzene + 2,2,4-trimethylpentane; phases: Gas, Liquid
Fixed: Pressure, kPa = 250
Property: Mole fraction of 2,2,4-trimethylpentane (Gas); method: Chromatography
Mole fraction of 2,2,4-trimethylpentane	Mole fraction of 2,2,4-trimethylpentane	uncertainty
1	1	.005
.99	.995	.005
.961	.979	.005
.917	.957	.005
.866	.934	.005
.793	.896	.005
.688	.839	.005
.648	.812	.005
.581	.768	.005
.525	.731	.005
.427	.662	.005
.366	.61	.005
.321	.565	.005
.269	.504	.005
.206	.423	.005
.136	.311	.005
.094	.246	.005
.037	.101	.005
0	0	.005

System: p-xylene + 2,2,4-trimethylpentane; phases: Liquid, Gas
Fixed: Pressure, kPa = 250
Property: Boiling temperature at pressure P, K (Liquid); method: Ebulliometric method (Recirculating still)
Mole fraction of 2,2,4-trimethylpentane	Boiling temperature at pressure P, K	uncertainty
1	408.3	.1
.901	411.6	.1
.845	413.1	.1
.742	416.8	.1
.618	420.5	.1
.488	425.2	.1
.352	430.3	.1
.288	433.6	.1
.211	437.1	.1
.115	441.9	.1
.092	443.3	.1
.05	446	.1
.03	447.5	.1
0	449.6	.1

System: p-xylene + 2,2,4-trimethylpentane; phases: Gas, Liquid
Fixed: Pressure, kPa = 250
Property: Mole fraction of 2,2,4-trimethylpentane (Gas); method: Chromatography
Mole fraction of 2,2,4-trimethylpentane	Mole fraction of 2,2,4-trimethylpentane	uncertainty
1	1	.005
.901	.953	.005
.845	.926	.005
.742	.871	.005
.618	.788	.005
.488	.716	.005
.352	.604	.005
.288	.539	.005
.211	.435	.005
.115	.281	.005
.092	.233	.005
.05	.142	.005
.03	.09	.005
0	0	.005

System: m-xylene + 2,2,4-trimethylpentane; phases: Liquid, Gas
Fixed: Pressure, kPa = 250
Property: Boiling temperature at pressure P, K (Liquid); method: Ebulliometric method (Recirculating still)
Mole fraction of 2,2,4-trimethylpentane	Boiling temperature at pressure P, K	uncertainty
1	408.3	.1
.954	409.8	.1
.94	410.4	.1
.892	412.1	.1
.847	413.4	.1
.735	416.6	.1
.595	421.5	.1
.546	423.4	.1
.481	425.9	.1
.433	427.6	.1
.359	430.6	.1
.251	435.2	.1
.159	440.3	.1
.11	443.1	.1
.082	444.7	.1
.057	446.1	.1
.025	448.2	.1
0	450.1	.1

System: m-xylene + 2,2,4-trimethylpentane; phases: Gas, Liquid
Fixed: Pressure, kPa = 250
Property: Mole fraction of 2,2,4-trimethylpentane (Gas); method: Chromatography
Mole fraction of 2,2,4-trimethylpentane	Mole fraction of 2,2,4-trimethylpentane	uncertainty
1	1	.005
.954	.979	.005
.94	.973	.005
.892	.951	.005
.847	.928	.005
.735	.874	.005
.595	.793	.005
.546	.761	.005
.481	.716	.005
.433	.676	.005
.359	.603	.005
.251	.498	.005
.159	.355	.005
.11	.262	.005
.082	.209	.005
.057	.159	.005
.025	.079	.005
0	0	.005

System: o-xylene + 2,2,4-trimethylpentane; phases: Liquid, Gas
Fixed: Pressure, kPa = 250
Property: Boiling temperature at pressure P, K (Liquid); method: Ebulliometric method (Recirculating still)
Mole fraction of 2,2,4-trimethylpentane	Boiling temperature at pressure P, K	uncertainty
1	408.3	.1
.932	410.6	.1
.874	412.9	.1
.822	414.5	.1
.745	417.2	.1
.706	418.6	.1
.631	421.7	.1
.566	423.7	.1
.494	426.7	.1
.391	431.2	.1
.326	434.5	.1
.273	437.3	.1
.204	441.4	.1
.155	444.5	.1
.123	446.6	.1
.094	448.6	.1
.068	450.4	.1
.038	452.5	.1
.022	454.2	.1
.012	455	.1
0	456.1	.1

System: o-xylene + 2,2,4-trimethylpentane; phases: Gas, Liquid
Fixed: Pressure, kPa = 250
Property: Mole fraction of 2,2,4-trimethylpentane (Gas); method: Chromatography
Mole fraction of 2,2,4-trimethylpentane	Mole fraction of 2,2,4-trimethylpentane	uncertainty
1	1	.005
.932	.974	.005
.874	.949	.005
.822	.929	.005
.745	.894	.005
.706	.871	.005
.631	.834	.005
.566	.803	.005
.494	.757	.005
.391	.68	.005
.326	.614	.005
.273	.554	.005
.204	.463	.005
.155	.393	.005
.123	.324	.005
.094	.263	.005
.068	.205	.005
.038	.131	.005
.022	.08	.005
.012	.043	.005
0	0	.005
