Measured thermophysical data. Solubility Measurement and Modeling for 2-Benzoyl-3-chlorobenzoic Acid and 1-Chloroanthraquinone in Organic Solvents
Source: J. Chem. Eng. Data, 2013, 10.1021/je400246s
Compound 1: 1-chloroanthraquinone, C14H7ClO2, purity 99.9%
Compound 2: 2-benzoyl-3-chlorobenzoic acid, C14H9ClO3, purity 99.3%
Compound 3: ethyl ethanoate, C4H8O2, purity 99.8%
Compound 4: acetone, C3H6O, purity 99.7%
Compound 5: p-dioxane, C4H8O2, purity 99.4%
Compound 6: methylbenzene, C7H8, purity 99.8%

System: 1-chloroanthraquinone; phases: Crystal, Liquid, Air at 1 atmosphere
Property: Normal melting temperature, K (Crystal); method: DSC/DTA
Normal melting temperature, K	uncertainty
435.2	.5

System: 1-chloroanthraquinone; phases: Crystal, Liquid, Air at 1 atmosphere
Property: Molar enthalpy of transition or fusion, kJ/mol (Crystal); method: DSC/DTA
Molar enthalpy of transition or fusion, kJ/mol	uncertainty
29.2405	.877215

System: 2-benzoyl-3-chlorobenzoic acid; phases: Crystal, Liquid, Air at 1 atmosphere
Property: Normal melting temperature, K (Crystal); method: DSC/DTA
Normal melting temperature, K	uncertainty
506.3	.5

System: 2-benzoyl-3-chlorobenzoic acid; phases: Crystal, Liquid, Air at 1 atmosphere
Property: Molar enthalpy of transition or fusion, kJ/mol (Crystal); method: DSC/DTA
Molar enthalpy of transition or fusion, kJ/mol	uncertainty
35.5033	1.065099

System: ethyl ethanoate + 2-benzoyl-3-chlorobenzoic acid; phases: Liquid, Crystal
Fixed: Pressure, kPa = 101
Property: Mole fraction of 2-benzoyl-3-chlorobenzoic acid (Liquid); method: gravimetric method
Temperature, K	Mole fraction of 2-benzoyl-3-chlorobenzoic acid	uncertainty
273.15	.005446	.000114366
278.15	.005994	.000125874
283.15	.006921	.000145341
288.15	.008113	.000170373
293.15	.009595	.000201495
298.15	.01097	.00023037
303.15	.01283	.00026943
308.15	.01461	.00030681
313.15	.0172	.0003612
318.15	.01973	.00041433

System: acetone + 2-benzoyl-3-chlorobenzoic acid; phases: Liquid, Crystal
Fixed: Pressure, kPa = 101
Property: Mole fraction of 2-benzoyl-3-chlorobenzoic acid (Liquid); method: gravimetric method
Temperature, K	Mole fraction of 2-benzoyl-3-chlorobenzoic acid	uncertainty
273.15	.001692	.000035532
278.15	.00183	.00003843
283.15	.00204	.00004284
288.15	.00225	.00004725
293.15	.002577	.000054117
298.15	.002812	.000059052
303.15	.003084	.000064764
308.15	.003494	.000073374
313.15	.003853	.000080913
318.15	.004319	.000090699

System: p-dioxane + 2-benzoyl-3-chlorobenzoic acid; phases: Liquid, Crystal
Fixed: Pressure, kPa = 101
Property: Mole fraction of 2-benzoyl-3-chlorobenzoic acid (Liquid); method: gravimetric method
Temperature, K	Mole fraction of 2-benzoyl-3-chlorobenzoic acid	uncertainty
273.15	.01922	.00040362
278.15	.02099	.00044079
283.15	.02313	.00048573
288.15	.02542	.00053382
293.15	.02807	.00058947
298.15	.03092	.00064932
303.15	.03396	.00071316
308.15	.0373	.0007833
313.15	.04129	.00086709
318.15	.0462	.0009702

System: methylbenzene + 2-benzoyl-3-chlorobenzoic acid; phases: Liquid, Crystal
Fixed: Pressure, kPa = 101
Property: Mole fraction of 2-benzoyl-3-chlorobenzoic acid (Liquid); method: gravimetric method
Temperature, K	Mole fraction of 2-benzoyl-3-chlorobenzoic acid	uncertainty
273.15	.2812	.0059052
278.15	.3034	.0063714
283.15	.3257	.0068397
288.15	.3501	.0073521
293.15	.3795	.0079695
298.15	.4114	.0086394
303.15	.4492	.0094332
308.15	.4869	.0102249
313.15	.5297	.0111237
318.15	.5763	.0121023

System: 1-chloroanthraquinone + ethyl ethanoate; phases: Liquid, Crystal
Fixed: Pressure, kPa = 101
Property: Mole fraction of 1-chloroanthraquinone (Liquid); method: gravimetric method
Temperature, K	Mole fraction of 1-chloroanthraquinone	uncertainty
273.15	.003351	.000070371
278.15	.00387	.00008127
283.15	.004586	.000096306
288.15	.005311	.000111531
293.15	.006052	.000127092
298.15	.006903	.000144963
303.15	.007953	.000167013
308.15	.009131	.000191751
313.15	.01057	.00022197

System: acetone + 1-chloroanthraquinone; phases: Liquid, Crystal
Fixed: Pressure, kPa = 101
Property: Mole fraction of 1-chloroanthraquinone (Liquid); method: gravimetric method
Temperature, K	Mole fraction of 1-chloroanthraquinone	uncertainty
273.15	.2717	.0057057
278.15	.3076	.0064596
283.15	.3358	.0070518
288.15	.3876	.0081396
293.15	.4482	.0094122
298.15	.5314	.0111594
303.15	.6111	.0128331
308.15	.6922	.0145362
313.15	.7669	.0161049

System: 1-chloroanthraquinone + p-dioxane; phases: Liquid, Crystal
Fixed: Pressure, kPa = 101
Property: Mole fraction of 1-chloroanthraquinone (Liquid); method: gravimetric method
Temperature, K	Mole fraction of 1-chloroanthraquinone	uncertainty
273.15	.003225	.000067725
278.15	.003733	.000078393
283.15	.004123	.000086583
288.15	.004693	.000098553
293.15	.005474	.000114954
298.15	.006072	.000127512
303.15	.006911	.000145131
308.15	.007751	.000162771
313.15	.008963	.000188223

System: 1-chloroanthraquinone + methylbenzene; phases: Liquid, Crystal
Fixed: Pressure, kPa = 101
Property: Mole fraction of 1-chloroanthraquinone (Liquid); method: gravimetric method
Temperature, K	Mole fraction of 1-chloroanthraquinone	uncertainty
273.15	.009179	.000192759
278.15	.01001	.00021021
283.15	.01119	.00023499
288.15	.01216	.00025536
293.15	.01323	.00027783
298.15	.01462	.00030702
303.15	.01598	.00033558
308.15	.01751	.00036771
313.15	.01896	.00039816
