Measured thermophysical data. Excess Molar Volumes and Viscosities of Binary Systems of Butylcyclohexane with n-Alkanes (C7 to C14) at T = 293.15 K to 313.15 K
Source: J. Chem. Eng. Data, 2014, 10.1021/je400835u
Compound 1: n-heptane, C7H16, purity 99%
Compound 2: n-octane, C8H18, purity 99%
Compound 3: n-nonane, C9H20, purity 99%
Compound 4: n-decane, C10H22, purity 99%
Compound 5: n-dodecane, C12H26, purity 99%
Compound 6: n-tetradecane, C14H30, purity 99%
Compound 7: butylcyclohexane, C10H20, purity 99%

System: n-heptane; phases: Liquid
Property: Mass density, kg/m3 (Liquid); method: Vibrating tube method
Temperature, K	Pressure, kPa	Mass density, kg/m3	uncertainty
293.15	100	683.99	.05
298.15	100	679.74	.05
303.15	100	675.41	.05
308.15	100	671.12	.05
313.15	100	666.92	.05

System: n-heptane; phases: Liquid
Property: Viscosity, Pa*s (Liquid); method: Falling or rolling sphere viscometry
Temperature, K	Pressure, kPa	Viscosity, Pa*s	uncertainty
293.15	100	.000421	.000005
298.15	100	.000398	.000005
303.15	100	.000378	.000005
308.15	100	.000352	.000005
313.15	100	.000337	.000005

System: n-octane; phases: Liquid
Property: Mass density, kg/m3 (Liquid); method: Vibrating tube method
Temperature, K	Pressure, kPa	Mass density, kg/m3	uncertainty
293.15	100	702.86	.05
298.15	100	698.85	.05
303.15	100	694.8	.05
308.15	100	690.73	.05
313.15	100	686.63	.05

System: n-octane; phases: Liquid
Property: Viscosity, Pa*s (Liquid); method: Falling or rolling sphere viscometry
Temperature, K	Pressure, kPa	Viscosity, Pa*s	uncertainty
293.15	100	.000546	.000005
298.15	100	.000521	.000005
303.15	100	.00049	.000005
308.15	100	.000467	.000005
313.15	100	.000442	.000005

System: n-nonane; phases: Liquid
Property: Mass density, kg/m3 (Liquid); method: Vibrating tube method
Temperature, K	Pressure, kPa	Mass density, kg/m3	uncertainty
293.15	100	717.88	.05
298.15	100	714	.05
303.15	100	710.1	.05
308.15	100	706.19	.05
313.15	100	702.26	.05

System: n-nonane; phases: Liquid
Property: Viscosity, Pa*s (Liquid); method: Falling or rolling sphere viscometry
Temperature, K	Pressure, kPa	Viscosity, Pa*s	uncertainty
293.15	100	.000725	.000005
298.15	100	.000679	.000005
303.15	100	.000639	.000005
308.15	100	.000604	.000005
313.15	100	.000572	.000005

System: n-decane; phases: Liquid
Property: Mass density, kg/m3 (Liquid); method: Vibrating tube method
Temperature, K	Pressure, kPa	Mass density, kg/m3	uncertainty
293.15	100	730.52	.05
298.15	100	726.76	.05
303.15	100	722.97	.05
308.15	100	719.17	.05
313.15	100	715.36	.05

System: n-decane; phases: Liquid
Property: Viscosity, Pa*s (Liquid); method: Falling or rolling sphere viscometry
Temperature, K	Pressure, kPa	Viscosity, Pa*s	uncertainty
293.15	100	.00093	.000005
298.15	100	.000864	.000005
303.15	100	.000806	.000005
308.15	100	.000755	.000005
313.15	100	.000709	.000005

System: n-dodecane; phases: Liquid
Property: Mass density, kg/m3 (Liquid); method: Vibrating tube method
Temperature, K	Pressure, kPa	Mass density, kg/m3	uncertainty
293.15	100	749	.05
298.15	100	745.38	.05
303.15	100	741.75	.05
308.15	100	738.12	.05
313.15	100	734.48	.05

System: n-dodecane; phases: Liquid
Property: Viscosity, Pa*s (Liquid); method: Falling or rolling sphere viscometry
Temperature, K	Pressure, kPa	Viscosity, Pa*s	uncertainty
293.15	100	.0015	.000005
298.15	100	.001376	.000005
303.15	100	.001265	.000005
308.15	100	.001167	.000005
313.15	100	.001081	.000005

System: n-tetradecane; phases: Liquid
Property: Mass density, kg/m3 (Liquid); method: Vibrating tube method
Temperature, K	Pressure, kPa	Mass density, kg/m3	uncertainty
293.15	100	763.09	.05
298.15	100	759.57	.05
303.15	100	756.03	.05
308.15	100	752.51	.05
313.15	100	748.98	.05

System: n-tetradecane; phases: Liquid
Property: Viscosity, Pa*s (Liquid); method: Falling or rolling sphere viscometry
Temperature, K	Pressure, kPa	Viscosity, Pa*s	uncertainty
293.15	100	.002329	.000005
298.15	100	.002096	.000005
303.15	100	.001898	.000005
308.15	100	.001729	.000005
313.15	100	.001584	.000005

System: butylcyclohexane; phases: Liquid
Property: Mass density, kg/m3 (Liquid); method: Vibrating tube method
Temperature, K	Pressure, kPa	Mass density, kg/m3	uncertainty
293.15	100	799.44	.05
298.15	100	795.7	.05
303.15	100	791.95	.05
308.15	100	788.19	.05
313.15	100	784.41	.05

System: butylcyclohexane; phases: Liquid
Property: Viscosity, Pa*s (Liquid); method: Falling or rolling sphere viscometry
Temperature, K	Pressure, kPa	Viscosity, Pa*s	uncertainty
293.15	100	.001296	.000005
298.15	100	.001196	.000005
303.15	100	.001107	.000005
308.15	100	.001027	.000005
313.15	100	.000958	.000005

System: n-heptane + butylcyclohexane; phases: Liquid
Fixed: Pressure, kPa = 100
Property: Mass density, kg/m3 (Liquid); method: Vibrating tube method
Temperature, K	Mole fraction of butylcyclohexane	Mass density, kg/m3	uncertainty
293.15	0	683.99	.05
293.15	.0499	691.14	.05
293.15	.0991	698.01	.05
293.15	.2001	711.59	.05
293.15	.2995	724.33	.05
293.15	.4006	736.73	.05
293.15	.4984	748.17	.05
293.15	.6015	759.68	.05
293.15	.6993	770.09	.05
293.15	.7999	780.33	.05
293.15	.8999	790.07	.05
293.15	.9501	794.82	.05
293.15	1	799.44	.05
298.15	0	679.74	.05
298.15	.0499	686.96	.05
298.15	.0991	693.86	.05
298.15	.2001	707.49	.05
298.15	.2995	720.29	.05
298.15	.4006	732.74	.05
298.15	.4984	744.24	.05
298.15	.6015	755.81	.05
298.15	.6993	766.25	.05
298.15	.7999	776.52	.05
298.15	.8999	786.3	.05
298.15	.9501	791.06	.05
298.15	1	795.7	.05
303.15	0	675.41	.05
303.15	.0499	682.7	.05
303.15	.0991	689.65	.05
303.15	.2001	703.36	.05
303.15	.2995	716.21	.05
303.15	.4006	728.7	.05
303.15	.4984	740.26	.05
303.15	.6015	751.86	.05
303.15	.6993	762.36	.05
303.15	.7999	772.68	.05
303.15	.8999	782.5	.05
303.15	.9501	787.29	.05
303.15	1	791.95	.05
308.15	0	671.12	.05
308.15	.0499	678.43	.05
308.15	.0991	685.41	.05
308.15	.2001	699.21	.05
308.15	.2995	712.12	.05
308.15	.4006	724.68	.05
308.15	.4984	736.29	.05
308.15	.6015	747.93	.05
308.15	.6993	758.5	.05
308.15	.7999	768.84	.05
308.15	.8999	778.7	.05
308.15	.9501	783.51	.05
308.15	1	788.19	.05
313.15	0	666.92	.05
313.15	.0499	674.27	.05
313.15	.0991	681.26	.05
313.15	.2001	695.08	.05
313.15	.2995	708.05	.05
313.15	.4006	720.66	.05
313.15	.4984	732.29	.05
313.15	.6015	744	.05
313.15	.6993	754.58	.05
313.15	.7999	764.98	.05
313.15	.8999	774.89	.05
313.15	.9501	779.72	.05
313.15	1	784.41	.05

System: n-heptane + butylcyclohexane; phases: Liquid
Fixed: Pressure, kPa = 100
Property: Viscosity, Pa*s (Liquid); method: Falling or rolling sphere viscometry
Temperature, K	Mole fraction of butylcyclohexane	Viscosity, Pa*s	uncertainty
293.15	0	.000421	.000005
293.15	.0499	.000445	.000005
293.15	.0991	.000477	.000005
293.15	.2001	.000537	.000005
293.15	.2995	.000597	.000005
293.15	.4006	.000665	.000005
293.15	.4984	.000741	.000005
293.15	.6015	.000832	.000005
293.15	.6993	.000929	.000005
293.15	.7999	.001042	.000005
293.15	.8999	.001172	.000005
293.15	.9501	.001242	.000005
293.15	1	.001296	.000005
298.15	0	.000398	.000005
298.15	.0499	.000422	.000005
298.15	.0991	.000453	.000005
298.15	.2001	.00051	.000005
298.15	.2995	.000564	.000005
298.15	.4006	.000623	.000005
298.15	.4984	.000694	.000005
298.15	.6015	.000776	.000005
298.15	.6993	.000865	.000005
298.15	.7999	.000966	.000005
298.15	.8999	.001083	.000005
298.15	.9501	.001146	.000005
298.15	1	.001196	.000005
303.15	0	.000378	.000005
303.15	.0499	.000404	.000005
303.15	.0991	.000432	.000005
303.15	.2001	.000485	.000005
303.15	.2995	.000533	.000005
303.15	.4006	.00059	.000005
303.15	.4984	.000652	.000005
303.15	.6015	.000727	.000005
303.15	.6993	.000808	.000005
303.15	.7999	.0009	.000005
303.15	.8999	.001005	.000005
303.15	.9501	.001059	.000005
303.15	1	.001107	.000005
308.15	0	.000352	.000005
308.15	.0499	.00038	.000005
308.15	.0991	.000408	.000005
308.15	.2001	.000463	.000005
308.15	.2995	.000508	.000005
308.15	.4006	.00056	.000005
308.15	.4984	.000617	.000005
308.15	.6015	.000685	.000005
308.15	.6993	.000758	.000005
308.15	.7999	.000842	.000005
308.15	.8999	.000936	.000005
308.15	.9501	.000988	.000005
308.15	1	.001027	.000005
313.15	0	.000337	.000005
313.15	.0499	.000365	.000005
313.15	.0991	.00039	.000005
313.15	.2001	.00044	.000005
313.15	.2995	.000484	.000005
313.15	.4006	.000531	.000005
313.15	.4984	.000584	.000005
313.15	.6015	.000646	.000005
313.15	.6993	.000713	.000005
313.15	.7999	.000789	.000005
313.15	.8999	.000875	.000005
313.15	.9501	.000922	.000005
313.15	1	.000958	.000005

System: n-octane + butylcyclohexane; phases: Liquid
Fixed: Pressure, kPa = 100
Property: Mass density, kg/m3 (Liquid); method: Vibrating tube method
Temperature, K	Mole fraction of butylcyclohexane	Mass density, kg/m3	uncertainty
293.15	0	702.86	.05
293.15	.0495	708.15	.05
293.15	.1008	713.59	.05
293.15	.198	723.69	.05
293.15	.3011	734.16	.05
293.15	.4008	744.07	.05
293.15	.4982	753.55	.05
293.15	.5985	763.12	.05
293.15	.6997	772.58	.05
293.15	.7997	781.72	.05
293.15	.9001	790.72	.05
293.15	.951	795.17	.05
293.15	1	799.44	.05
298.15	0	698.85	.05
298.15	.0495	704.15	.05
298.15	.1008	709.59	.05
298.15	.198	719.73	.05
298.15	.3011	730.24	.05
298.15	.4008	740.18	.05
298.15	.4982	749.7	.05
298.15	.5985	759.29	.05
298.15	.6997	768.77	.05
298.15	.7997	777.93	.05
298.15	.9001	786.95	.05
298.15	.951	791.42	.05
298.15	1	795.7	.05
303.15	0	694.8	.05
303.15	.0495	700.12	.05
303.15	.1008	705.57	.05
303.15	.198	715.74	.05
303.15	.3011	726.28	.05
303.15	.4008	736.26	.05
303.15	.4982	745.81	.05
303.15	.5985	755.43	.05
303.15	.6997	764.94	.05
303.15	.7997	774.13	.05
303.15	.9001	783.18	.05
303.15	.951	787.66	.05
303.15	1	791.95	.05
308.15	0	690.73	.05
308.15	.0495	696.06	.05
308.15	.1008	701.55	.05
308.15	.198	711.75	.05
308.15	.3011	722.33	.05
308.15	.4008	732.33	.05
308.15	.4982	741.91	.05
308.15	.5985	751.56	.05
308.15	.6997	761.1	.05
308.15	.7997	770.31	.05
308.15	.9001	779.39	.05
308.15	.951	783.88	.05
308.15	1	788.19	.05
313.15	0	686.63	.05
313.15	.0495	691.99	.05
313.15	.1008	697.5	.05
313.15	.198	707.72	.05
313.15	.3011	718.33	.05
313.15	.4008	728.38	.05
313.15	.4982	737.98	.05
313.15	.5985	747.67	.05
313.15	.6997	757.24	.05
313.15	.7997	766.48	.05
313.15	.9001	775.59	.05
313.15	.951	780.1	.05
313.15	1	784.41	.05

System: n-octane + butylcyclohexane; phases: Liquid
Fixed: Pressure, kPa = 100
Property: Viscosity, Pa*s (Liquid); method: Falling or rolling sphere viscometry
Temperature, K	Mole fraction of butylcyclohexane	Viscosity, Pa*s	uncertainty
293.15	0	.000546	.000005
293.15	.0495	.000569	.000005
293.15	.1008	.000596	.000005
293.15	.198	.000647	.000005
293.15	.3011	.000707	.000005
293.15	.4008	.000771	.000005
293.15	.4982	.000839	.000005
293.15	.5985	.000918	.000005
293.15	.6997	.001004	.000005
293.15	.7997	.001097	.000005
293.15	.9001	.0012	.000005
293.15	.951	.00125	.000005
293.15	1	.001296	.000005
298.15	0	.000521	.000005
298.15	.0495	.000547	.000005
298.15	.1008	.000573	.000005
298.15	.198	.000619	.000005
298.15	.3011	.000671	.000005
298.15	.4008	.000726	.000005
298.15	.4982	.000784	.000005
298.15	.5985	.000854	.000005
298.15	.6997	.000931	.000005
298.15	.7997	.001014	.000005
298.15	.9001	.001108	.000005
298.15	.951	.001156	.000005
298.15	1	.001196	.000005
303.15	0	.00049	.000005
303.15	.0495	.000515	.000005
303.15	.1008	.00054	.000005
303.15	.198	.000582	.000005
303.15	.3011	.00063	.000005
303.15	.4008	.00068	.000005
303.15	.4982	.000735	.000005
303.15	.5985	.000799	.000005
303.15	.6997	.00087	.000005
303.15	.7997	.000945	.000005
303.15	.9001	.001029	.000005
303.15	.951	.00107	.000005
303.15	1	.001107	.000005
308.15	0	.000467	.000005
308.15	.0495	.00049	.000005
308.15	.1008	.000512	.000005
308.15	.198	.000552	.000005
308.15	.3011	.000592	.000005
308.15	.4008	.000638	.000005
308.15	.4982	.000687	.000005
308.15	.5985	.000747	.000005
308.15	.6997	.000814	.000005
308.15	.7997	.000886	.000005
308.15	.9001	.000962	.000005
308.15	.951	.000996	.000005
308.15	1	.001027	.000005
313.15	0	.000442	.000005
313.15	.0495	.000464	.000005
313.15	.1008	.000486	.000005
313.15	.198	.000524	.000005
313.15	.3011	.000565	.000005
313.15	.4008	.000606	.000005
313.15	.4982	.000652	.000005
313.15	.5985	.000705	.000005
313.15	.6997	.000765	.000005
313.15	.7997	.00083	.000005
313.15	.9001	.000898	.000005
313.15	.951	.00093	.000005
313.15	1	.000958	.000005

System: n-nonane + butylcyclohexane; phases: Liquid
Fixed: Pressure, kPa = 100
Property: Mass density, kg/m3 (Liquid); method: Vibrating tube method
Temperature, K	Mole fraction of butylcyclohexane	Mass density, kg/m3	uncertainty
293.15	0	717.88	.05
293.15	.0496	721.95	.05
293.15	.1008	726.12	.05
293.15	.2011	734.29	.05
293.15	.3005	742.39	.05
293.15	.3997	750.46	.05
293.15	.4999	758.62	.05
293.15	.5987	766.67	.05
293.15	.7011	775.04	.05
293.15	.8001	783.13	.05
293.15	.8996	791.25	.05
293.15	.9504	795.39	.05
293.15	1	799.44	.05
298.15	0	714	.05
298.15	.0496	718.07	.05
298.15	.1008	722.26	.05
298.15	.2011	730.45	.05
298.15	.3005	738.56	.05
298.15	.3997	746.65	.05
298.15	.4999	754.82	.05
298.15	.5987	762.89	.05
298.15	.7011	771.26	.05
298.15	.8001	779.35	.05
298.15	.8996	787.5	.05
298.15	.9504	791.64	.05
298.15	1	795.7	.05
303.15	0	710.1	.05
303.15	.0496	714.19	.05
303.15	.1008	718.38	.05
303.15	.2011	726.59	.05
303.15	.3005	734.71	.05
303.15	.3997	742.81	.05
303.15	.4999	751	.05
303.15	.5987	759.08	.05
303.15	.7011	767.46	.05
303.15	.8001	775.57	.05
303.15	.8996	783.73	.05
303.15	.9504	787.88	.05
303.15	1	791.95	.05
308.15	0	706.19	.05
308.15	.0496	710.29	.05
308.15	.1008	714.48	.05
308.15	.2011	722.71	.05
308.15	.3005	730.85	.05
308.15	.3997	738.96	.05
308.15	.4999	747.17	.05
308.15	.5987	755.26	.05
308.15	.7011	763.66	.05
308.15	.8001	771.78	.05
308.15	.8996	779.96	.05
308.15	.9504	784.11	.05
308.15	1	788.19	.05
313.15	0	702.26	.05
313.15	.0496	706.36	.05
313.15	.1008	710.57	.05
313.15	.2011	718.81	.05
313.15	.3005	726.97	.05
313.15	.3997	735.1	.05
313.15	.4999	743.32	.05
313.15	.5987	751.43	.05
313.15	.7011	759.85	.05
313.15	.8001	767.98	.05
313.15	.8996	776.17	.05
313.15	.9504	780.33	.05
313.15	1	784.41	.05

System: n-nonane + butylcyclohexane; phases: Liquid
Fixed: Pressure, kPa = 100
Property: Viscosity, Pa*s (Liquid); method: Falling or rolling sphere viscometry
Temperature, K	Mole fraction of butylcyclohexane	Viscosity, Pa*s	uncertainty
293.15	0	.000725	.000005
293.15	.0496	.000745	.000005
293.15	.1008	.000764	.000005
293.15	.2011	.000807	.000005
293.15	.3005	.000852	.000005
293.15	.3997	.000901	.000005
293.15	.4999	.000956	.000005
293.15	.5987	.001015	.000005
293.15	.7011	.001081	.000005
293.15	.8001	.001152	.000005
293.15	.8996	.001223	.000005
293.15	.9504	.001262	.000005
293.15	1	.001296	.000005
298.15	0	.000679	.000005
298.15	.0496	.000698	.000005
298.15	.1008	.000718	.000005
298.15	.2011	.000754	.000005
298.15	.3005	.000794	.000005
298.15	.3997	.000836	.000005
298.15	.4999	.000885	.000005
298.15	.5987	.00094	.000005
298.15	.7011	.001002	.000005
298.15	.8001	.001068	.000005
298.15	.8996	.001135	.000005
298.15	.9504	.001166	.000005
298.15	1	.001196	.000005
303.15	0	.000639	.000005
303.15	.0496	.000659	.000005
303.15	.1008	.000677	.000005
303.15	.2011	.000712	.000005
303.15	.3005	.000745	.000005
303.15	.3997	.000783	.000005
303.15	.4999	.000827	.000005
303.15	.5987	.000876	.000005
303.15	.7011	.000934	.000005
303.15	.8001	.000996	.000005
303.15	.8996	.001052	.000005
303.15	.9504	.00108	.000005
303.15	1	.001107	.000005
308.15	0	.000604	.000005
308.15	.0496	.000621	.000005
308.15	.1008	.000638	.000005
308.15	.2011	.000668	.000005
308.15	.3005	.000698	.000005
308.15	.3997	.000733	.000005
308.15	.4999	.000774	.000005
308.15	.5987	.00082	.000005
308.15	.7011	.000873	.000005
308.15	.8001	.000927	.000005
308.15	.8996	.00098	.000005
308.15	.9504	.001005	.000005
308.15	1	.001027	.000005
313.15	0	.000572	.000005
313.15	.0496	.000588	.000005
313.15	.1008	.000603	.000005
313.15	.2011	.00063	.000005
313.15	.3005	.000659	.000005
313.15	.3997	.000692	.000005
313.15	.4999	.000729	.000005
313.15	.5987	.00077	.000005
313.15	.7011	.000817	.000005
313.15	.8001	.000866	.000005
313.15	.8996	.000915	.000005
313.15	.9504	.000938	.000005
313.15	1	.000958	.000005

System: n-decane + butylcyclohexane; phases: Liquid
Fixed: Pressure, kPa = 100
Property: Mass density, kg/m3 (Liquid); method: Vibrating tube method
Temperature, K	Mole fraction of butylcyclohexane	Mass density, kg/m3	uncertainty
293.15	0	730.52	.05
293.15	.0508	733.71	.05
293.15	.1001	736.83	.05
293.15	.1992	743.19	.05
293.15	.2994	749.74	.05
293.15	.3996	756.42	.05
293.15	.5002	763.27	.05
293.15	.5955	769.88	.05
293.15	.6988	777.19	.05
293.15	.8012	784.6	.05
293.15	.8998	791.88	.05
293.15	.9497	795.63	.05
293.15	1	799.44	.05
298.15	0	726.76	.05
298.15	.0508	729.95	.05
298.15	.1001	733.07	.05
298.15	.1992	739.43	.05
298.15	.2994	745.99	.05
298.15	.3996	752.67	.05
298.15	.5002	759.53	.05
298.15	.5955	766.14	.05
298.15	.6988	773.45	.05
298.15	.8012	780.86	.05
298.15	.8998	788.15	.05
298.15	.9497	791.89	.05
298.15	1	795.7	.05
303.15	0	722.97	.05
303.15	.0508	726.17	.05
303.15	.1001	729.29	.05
303.15	.1992	735.66	.05
303.15	.2994	742.22	.05
303.15	.3996	748.91	.05
303.15	.5002	755.76	.05
303.15	.5955	762.38	.05
303.15	.6988	769.7	.05
303.15	.8012	777.11	.05
303.15	.8998	784.4	.05
303.15	.9497	788.14	.05
303.15	1	791.95	.05
308.15	0	719.17	.05
308.15	.0508	722.37	.05
308.15	.1001	725.5	.05
308.15	.1992	731.87	.05
308.15	.2994	738.44	.05
308.15	.3996	745.13	.05
308.15	.5002	751.99	.05
308.15	.5955	758.61	.05
308.15	.6988	765.93	.05
308.15	.8012	773.34	.05
308.15	.8998	780.63	.05
308.15	.9497	784.37	.05
308.15	1	788.19	.05
313.15	0	715.36	.05
313.15	.0508	718.56	.05
313.15	.1001	721.69	.05
313.15	.1992	728.07	.05
313.15	.2994	734.64	.05
313.15	.3996	741.34	.05
313.15	.5002	748.2	.05
313.15	.5955	754.83	.05
313.15	.6988	762.15	.05
313.15	.8012	769.57	.05
313.15	.8998	776.86	.05
313.15	.9497	780.61	.05
313.15	1	784.41	.05

System: n-decane + butylcyclohexane; phases: Liquid
Fixed: Pressure, kPa = 100
Property: Viscosity, Pa*s (Liquid); method: Falling or rolling sphere viscometry
Temperature, K	Mole fraction of butylcyclohexane	Viscosity, Pa*s	uncertainty
293.15	0	.00093	.000005
293.15	.0508	.000944	.000005
293.15	.1001	.000956	.000005
293.15	.1992	.000984	.000005
293.15	.2994	.001014	.000005
293.15	.3996	.001047	.000005
293.15	.5002	.001084	.000005
293.15	.5955	.001122	.000005
293.15	.6988	.001166	.000005
293.15	.8012	.00121	.000005
293.15	.8998	.001253	.000005
293.15	.9497	.001275	.000005
293.15	1	.001296	.000005
298.15	0	.000864	.000005
298.15	.0508	.000879	.000005
298.15	.1001	.00089	.000005
298.15	.1992	.000914	.000005
298.15	.2994	.00094	.000005
298.15	.3996	.000969	.000005
298.15	.5002	.001003	.000005
298.15	.5955	.001037	.000005
298.15	.6988	.001078	.000005
298.15	.8012	.001121	.000005
298.15	.8998	.001159	.000005
298.15	.9497	.001178	.000005
298.15	1	.001196	.000005
303.15	0	.000806	.000005
303.15	.0508	.00082	.000005
303.15	.1001	.000831	.000005
303.15	.1992	.000853	.000005
303.15	.2994	.000877	.000005
303.15	.3996	.000903	.000005
303.15	.5002	.000932	.000005
303.15	.5955	.000963	.000005
303.15	.6988	.001001	.000005
303.15	.8012	.001039	.000005
303.15	.8998	.001074	.000005
303.15	.9497	.001091	.000005
303.15	1	.001107	.000005
308.15	0	.000755	.000005
308.15	.0508	.000767	.000005
308.15	.1001	.000778	.000005
308.15	.1992	.000798	.000005
308.15	.2994	.000819	.000005
308.15	.3996	.000842	.000005
308.15	.5002	.000869	.000005
308.15	.5955	.000897	.000005
308.15	.6988	.000931	.000005
308.15	.8012	.000966	.000005
308.15	.8998	.000998	.000005
308.15	.9497	.001013	.000005
308.15	1	.001027	.000005
313.15	0	.000709	.000005
313.15	.0508	.00072	.000005
313.15	.1001	.00073	.000005
313.15	.1992	.000748	.000005
313.15	.2994	.000768	.000005
313.15	.3996	.000789	.000005
313.15	.5002	.000813	.000005
313.15	.5955	.00084	.000005
313.15	.6988	.000871	.000005
313.15	.8012	.000902	.000005
313.15	.8998	.000932	.000005
313.15	.9497	.000946	.000005
313.15	1	.000958	.000005

System: n-dodecane + butylcyclohexane; phases: Liquid
Fixed: Pressure, kPa = 100
Property: Mass density, kg/m3 (Liquid); method: Vibrating tube method
Temperature, K	Mole fraction of butylcyclohexane	Mass density, kg/m3	uncertainty
293.15	0	749	.05
293.15	.0511	750.97	.05
293.15	.0989	752.88	.05
293.15	.2004	757.06	.05
293.15	.3002	761.38	.05
293.15	.4012	765.97	.05
293.15	.5005	770.74	.05
293.15	.6006	775.82	.05
293.15	.7008	781.21	.05
293.15	.7998	786.85	.05
293.15	.8996	792.92	.05
293.15	.9494	796.1	.05
293.15	1	799.44	.05
298.15	0	745.38	.05
298.15	.0511	747.36	.05
298.15	.0989	749.26	.05
298.15	.2004	753.44	.05
298.15	.3002	757.75	.05
298.15	.4012	762.34	.05
298.15	.5005	767.1	.05
298.15	.6006	772.16	.05
298.15	.7008	777.53	.05
298.15	.7998	783.16	.05
298.15	.8996	789.21	.05
298.15	.9494	792.38	.05
298.15	1	795.7	.05
303.15	0	741.75	.05
303.15	.0511	743.73	.05
303.15	.0989	745.63	.05
303.15	.2004	749.8	.05
303.15	.3002	754.1	.05
303.15	.4012	758.68	.05
303.15	.5005	763.43	.05
303.15	.6006	768.48	.05
303.15	.7008	773.83	.05
303.15	.7998	779.45	.05
303.15	.8996	785.47	.05
303.15	.9494	788.64	.05
303.15	1	791.95	.05
308.15	0	738.12	.05
308.15	.0511	740.1	.05
308.15	.0989	741.99	.05
308.15	.2004	746.15	.05
308.15	.3002	750.45	.05
308.15	.4012	755.02	.05
308.15	.5005	759.76	.05
308.15	.6006	764.8	.05
308.15	.7008	770.13	.05
308.15	.7998	775.73	.05
308.15	.8996	781.73	.05
308.15	.9494	784.9	.05
308.15	1	788.19	.05
313.15	0	734.48	.05
313.15	.0511	736.45	.05
313.15	.0989	738.34	.05
313.15	.2004	742.5	.05
313.15	.3002	746.78	.05
313.15	.4012	751.35	.05
313.15	.5005	756.07	.05
313.15	.6006	761.1	.05
313.15	.7008	766.43	.05
313.15	.7998	771.99	.05
313.15	.8996	777.98	.05
313.15	.9494	781.13	.05
313.15	1	784.41	.05

System: n-dodecane + butylcyclohexane; phases: Liquid
Fixed: Pressure, kPa = 100
Property: Viscosity, Pa*s (Liquid); method: Falling or rolling sphere viscometry
Temperature, K	Mole fraction of butylcyclohexane	Viscosity, Pa*s	uncertainty
293.15	0	.0015	.000005
293.15	.0511	.001492	.000005
293.15	.0989	.001486	.000005
293.15	.2004	.001467	.000005
293.15	.3002	.00145	.000005
293.15	.4012	.001431	.000005
293.15	.5005	.001415	.000005
293.15	.6006	.001393	.000005
293.15	.7008	.001373	.000005
293.15	.7998	.001351	.000005
293.15	.8996	.001331	.000005
293.15	.9494	.00132	.000005
293.15	1	.001296	.000005
298.15	0	.001376	.000005
298.15	.0511	.001369	.000005
298.15	.0989	.001363	.000005
298.15	.2004	.001346	.000005
298.15	.3002	.001331	.000005
298.15	.4012	.001314	.000005
298.15	.5005	.001298	.000005
298.15	.6006	.001279	.000005
298.15	.7008	.001262	.000005
298.15	.7998	.001244	.000005
298.15	.8996	.001226	.000005
298.15	.9494	.001216	.000005
298.15	1	.001196	.000005
303.15	0	.001265	.000005
303.15	.0511	.001258	.000005
303.15	.0989	.001251	.000005
303.15	.2004	.001238	.000005
303.15	.3002	.001224	.000005
303.15	.4012	.00121	.000005
303.15	.5005	.001196	.000005
303.15	.6006	.00118	.000005
303.15	.7008	.001165	.000005
303.15	.7998	.00115	.000005
303.15	.8996	.001134	.000005
303.15	.9494	.001126	.000005
303.15	1	.001107	.000005
308.15	0	.001167	.000005
308.15	.0511	.001157	.000005
308.15	.0989	.001152	.000005
308.15	.2004	.00114	.000005
308.15	.3002	.001128	.000005
308.15	.4012	.001117	.000005
308.15	.5005	.001106	.000005
308.15	.6006	.001091	.000005
308.15	.7008	.001078	.000005
308.15	.7998	.001064	.000005
308.15	.8996	.001049	.000005
308.15	.9494	.00104	.000005
308.15	1	.001027	.000005
313.15	0	.001081	.000005
313.15	.0511	.00107	.000005
313.15	.0989	.001067	.000005
313.15	.2004	.001056	.000005
313.15	.3002	.001047	.000005
313.15	.4012	.001036	.000005
313.15	.5005	.001026	.000005
313.15	.6006	.001013	.000005
313.15	.7008	.001002	.000005
313.15	.7998	.00099	.000005
313.15	.8996	.000978	.000005
313.15	.9494	.000969	.000005
313.15	1	.000958	.000005

System: n-tetradecane + butylcyclohexane; phases: Liquid
Fixed: Pressure, kPa = 100
Property: Mass density, kg/m3 (Liquid); method: Vibrating tube method
Temperature, K	Mole fraction of butylcyclohexane	Mass density, kg/m3	uncertainty
293.15	0	763.09	.05
293.15	.0516	764.33	.05
293.15	.1	765.53	.05
293.15	.2001	768.14	.05
293.15	.2988	770.93	.05
293.15	.4001	774.02	.05
293.15	.498	777.26	.05
293.15	.6006	780.95	.05
293.15	.7005	784.9	.05
293.15	.7999	789.23	.05
293.15	.9002	794.07	.05
293.15	.95	796.66	.05
293.15	1	799.44	.05
298.15	0	759.57	.05
298.15	.0516	760.8	.05
298.15	.1	762	.05
298.15	.2001	764.6	.05
298.15	.2988	767.38	.05
298.15	.4001	770.46	.05
298.15	.498	773.68	.05
298.15	.6006	777.36	.05
298.15	.7005	781.27	.05
298.15	.7999	785.57	.05
298.15	.9002	790.38	.05
298.15	.95	792.94	.05
298.15	1	795.7	.05
303.15	0	756.03	.05
303.15	.0516	757.26	.05
303.15	.1	758.46	.05
303.15	.2001	761.06	.05
303.15	.2988	763.83	.05
303.15	.4001	766.89	.05
303.15	.498	770.08	.05
303.15	.6006	773.74	.05
303.15	.7005	777.63	.05
303.15	.7999	781.9	.05
303.15	.9002	786.66	.05
303.15	.95	789.21	.05
303.15	1	791.95	.05
308.15	0	752.51	.05
308.15	.0516	753.73	.05
308.15	.1	754.92	.05
308.15	.2001	757.51	.05
308.15	.2988	760.27	.05
308.15	.4001	763.31	.05
308.15	.498	766.49	.05
308.15	.6006	770.12	.05
308.15	.7005	773.98	.05
308.15	.7999	778.21	.05
308.15	.9002	782.94	.05
308.15	.95	785.48	.05
308.15	1	788.19	.05
313.15	0	748.98	.05
313.15	.0516	750.2	.05
313.15	.1	751.38	.05
313.15	.2001	753.96	.05
313.15	.2988	756.69	.05
313.15	.4001	759.72	.05
313.15	.498	762.88	.05
313.15	.6006	766.49	.05
313.15	.7005	770.33	.05
313.15	.7999	774.53	.05
313.15	.9002	779.22	.05
313.15	.95	781.73	.05
313.15	1	784.41	.05

System: n-tetradecane + butylcyclohexane; phases: Liquid
Fixed: Pressure, kPa = 100
Property: Viscosity, Pa*s (Liquid); method: Falling or rolling sphere viscometry
Temperature, K	Mole fraction of butylcyclohexane	Viscosity, Pa*s	uncertainty
293.15	0	.002329	.000005
293.15	.0516	.00228	.000005
293.15	.1	.002234	.000005
293.15	.2001	.002135	.000005
293.15	.2988	.002037	.000005
293.15	.4001	.001934	.000005
293.15	.498	.001834	.000005
293.15	.6006	.001728	.000005
293.15	.7005	.001625	.000005
293.15	.7999	.001521	.000005
293.15	.9002	.001416	.000005
293.15	.95	.001363	.000005
293.15	1	.001296	.000005
298.15	0	.002096	.000005
298.15	.0516	.002052	.000005
298.15	.1	.002011	.000005
298.15	.2001	.001924	.000005
298.15	.2988	.001838	.000005
298.15	.4001	.001749	.000005
298.15	.498	.001662	.000005
298.15	.6006	.001571	.000005
298.15	.7005	.001481	.000005
298.15	.7999	.001391	.000005
298.15	.9002	.001299	.000005
298.15	.95	.001254	.000005
298.15	1	.001196	.000005
303.15	0	.001898	.000005
303.15	.0516	.00186	.000005
303.15	.1	.001823	.000005
303.15	.2001	.001746	.000005
303.15	.2988	.00167	.000005
303.15	.4001	.001592	.000005
303.15	.498	.001517	.000005
303.15	.6006	.001436	.000005
303.15	.7005	.001358	.000005
303.15	.7999	.001279	.000005
303.15	.9002	.001199	.000005
303.15	.95	.001159	.000005
303.15	1	.001107	.000005
308.15	0	.001729	.000005
308.15	.0516	.001694	.000005
308.15	.1	.001662	.000005
308.15	.2001	.001593	.000005
308.15	.2988	.001526	.000005
308.15	.4001	.001457	.000005
308.15	.498	.001391	.000005
308.15	.6006	.00132	.000005
308.15	.7005	.00125	.000005
308.15	.7999	.00118	.000005
308.15	.9002	.001109	.000005
308.15	.95	.001073	.000005
308.15	1	.001027	.000005
313.15	0	.001584	.000005
313.15	.0516	.001553	.000005
313.15	.1	.001523	.000005
313.15	.2001	.001463	.000005
313.15	.2988	.001401	.000005
313.15	.4001	.001341	.000005
313.15	.498	.001282	.000005
313.15	.6006	.001218	.000005
313.15	.7005	.001155	.000005
313.15	.7999	.001092	.000005
313.15	.9002	.001029	.000005
313.15	.95	.000998	.000005
313.15	1	.000958	.000005
