Measured thermophysical data. Transport Properties and Ionic Association in Pure Imidazolium-Based Ionic Liquids as a Function of Temperature
Source: J. Chem. Eng. Data, 2014, 10.1021/je400841s
Compound 1: 1-ethyl-3-methylimidazolium methylsulfate, C7H14N2O4S, purity 99.5%
Compound 2: 1-butyl-3-methylimidazolium methylsulfate, C9H18N2O4S, purity 99.5%
Compound 3: 1-ethyl-3-methylimidazolium triflate, C7H11F3N2O3S, purity 99.5%
Compound 4: 1-butyl-3-methylimidazolium triflate, C9H15F3N2O3S, purity 99.5%

System: 1-ethyl-3-methylimidazolium methylsulfate; phases: Liquid
Fixed: Pressure, kPa = 101.325
Property: Viscosity, Pa*s (Liquid); method: Concentric cylinders viscometry
Temperature, K	Viscosity, Pa*s	uncertainty
298.15	.0743	.0011145
313.15	.0406	.000609
323.15	.0288	.000432
333.15	.0212	.000318
343.15	.0161	.0002415

System: 1-ethyl-3-methylimidazolium methylsulfate; phases: Liquid
Fixed: Pressure, kPa = 101.325
Property: Electrical conductivity, S/m (Liquid); method: impedancemetry (AC impedance bridge)
Temperature, K	Electrical conductivity, S/m	uncertainty
298.15	.602	.01204
303.15	.723	.01446
313.15	1.019	.02038
323.15	1.389	.02778
333.15	1.839	.03678
343.15	2.336	.04672

System: 1-ethyl-3-methylimidazolium methylsulfate; phases: Liquid
Fixed: Pressure, kPa = 101.325
Property: Mass density, kg/m3 (Liquid); method: Vibrating tube method
Temperature, K	Mass density, kg/m3	uncertainty
298.03	1282.1	.1
312.67	1272.2	.1
322.6	1265.8	.1
332.35	1259.4	.1
342.22	1252.9	.1

System: 1-butyl-3-methylimidazolium methylsulfate; phases: Liquid
Fixed: Pressure, kPa = 101.325
Property: Viscosity, Pa*s (Liquid); method: Concentric cylinders viscometry
Temperature, K	Viscosity, Pa*s	uncertainty
298.15	.223	.003345
313.15	.101	.001515
323.15	.0643	.0009645
333.15	.0436	.000654
343.15	.0311	.0004665

System: 1-butyl-3-methylimidazolium methylsulfate; phases: Liquid
Fixed: Pressure, kPa = 101.325
Property: Electrical conductivity, S/m (Liquid); method: impedancemetry (AC impedance bridge)
Temperature, K	Electrical conductivity, S/m	uncertainty
298.15	.126	.00252
303.15	.16	.0032
313.15	.254	.00508
323.15	.382	.00764
333.15	.551	.01102
343.15	.757	.01514

System: 1-butyl-3-methylimidazolium methylsulfate; phases: Liquid
Fixed: Pressure, kPa = 101.325
Property: Mass density, kg/m3 (Liquid); method: Vibrating tube method
Temperature, K	Mass density, kg/m3	uncertainty
298.08	1210.5	.1
302.78	1207.6	.1
312.49	1201.4	.1
322.23	1195	.1
332.16	1188.7	.1
341.68	1182.9	.1

System: 1-ethyl-3-methylimidazolium triflate; phases: Liquid
Fixed: Pressure, kPa = 101.325
Property: Viscosity, Pa*s (Liquid); method: Concentric cylinders viscometry
Temperature, K	Viscosity, Pa*s	uncertainty
298.15	.0459	.0006885
313.15	.0276	.000414
323.15	.0202	.000303
333.15	.0155	.0002325
343.15	.0123	.0001845

System: 1-ethyl-3-methylimidazolium triflate; phases: Liquid
Fixed: Pressure, kPa = 101.325
Property: Electrical conductivity, S/m (Liquid); method: impedancemetry (AC impedance bridge)
Temperature, K	Electrical conductivity, S/m	uncertainty
298.15	.913	.01826
313.15	1.448	.02896
323.15	1.742	.03484
333.15	2.189	.04378
343.15	2.595	.0519

System: 1-ethyl-3-methylimidazolium triflate; phases: Liquid
Fixed: Pressure, kPa = 101.325
Property: Mass density, kg/m3 (Liquid); method: Vibrating tube method
Temperature, K	Mass density, kg/m3	uncertainty
293.15	1382.9	.1
303.14	1374.6	.1
313.14	1366.3	.1
323.14	1358	.1
333.14	1349.8	.1
343.14	1341.7	.1
353.14	1333.7	.1

System: 1-butyl-3-methylimidazolium triflate; phases: Liquid
Fixed: Pressure, kPa = 101.325
Property: Viscosity, Pa*s (Liquid); method: Concentric cylinders viscometry
Temperature, K	Viscosity, Pa*s	uncertainty
298.15	.0866	.001299
313.15	.0456	.000684
323.15	.0316	.000474
333.15	.023	.000345
343.15	.0172	.000258

System: 1-butyl-3-methylimidazolium triflate; phases: Liquid
Fixed: Pressure, kPa = 101.325
Property: Electrical conductivity, S/m (Liquid); method: impedancemetry (AC impedance bridge)
Temperature, K	Electrical conductivity, S/m	uncertainty
298.15	.301	.00602
303.15	.378	.00756
313.15	.553	.01106
323.15	.763	.01526
333.15	1.01	.0202
343.15	1.29	.0258

System: 1-butyl-3-methylimidazolium triflate; phases: Liquid
Fixed: Pressure, kPa = 101.325
Property: Mass density, kg/m3 (Liquid); method: Vibrating tube method
Temperature, K	Mass density, kg/m3	uncertainty
297.98	1294.7	.1
302.79	1291.3	.1
313	1283.1	.1
323.12	1275.2	.1
333.12	1267.4	.1
343.12	1259.8	.1
