Measured thermophysical data. Isobaric Vapor Liquid Equilibrium for the Binary System (Ethane-1,2-diol + Butan-1,2-diol) at (20, 30, and 40) kPa
Source: J. Chem. Eng. Data, 2014, 10.1021/je400980w
Compound 1: 1,2-ethanediol, C2H6O2, purity 99.9%
Compound 2: 1,2-butanediol, C4H10O2, purity 98%

System: 1,2-ethanediol; phases: Liquid, Gas
Property: Vapor or sublimation pressure, kPa (Liquid); method: Ebulliometric method (Recirculating still)
Temperature, K	Vapor or sublimation pressure, kPa	uncertainty
440.15	40	.05
432.29	30	.05
420.74	20	.05

System: 1,2-butanediol; phases: Liquid, Gas
Property: Vapor or sublimation pressure, kPa (Liquid); method: Ebulliometric method (Recirculating still)
Temperature, K	Vapor or sublimation pressure, kPa	uncertainty
439.8	40	.05
431.49	30	.05
420.46	20	.05

System: 1,2-ethanediol + 1,2-butanediol; phases: Liquid, Gas
Property: Boiling temperature at pressure P, K (Liquid); method: Ebulliometric method (Recirculating still)
Mole fraction of 1,2-ethanediol	Pressure, kPa	Boiling temperature at pressure P, K	uncertainty
1	40	440.15	.02
.9752	40	439.95	.02
.9083	40	439.47	.02
.8223	40	438.95	.02
.7377	40	438.45	.02
.6928	40	438.2	.02
.5824	40	437.7	.02
.5434	40	437.6	.02
.4995	40	437.5	.02
.4819	40	437.55	.02
.4678	40	437.7	.02
.4266	40	438	.02
.3991	40	438.2	.02
.3484	40	438.45	.02
.3022	40	438.65	.02
0	40	439.8	.02
.1663	30	430.55	.02
.2803	30	430.25	.02
.3721	30	430.05	.02
.4056	30	429.97	.02
.4919	30	429.7	.02
.5365	30	429.75	.02
.5636	30	429.85	.02
.6224	30	429.95	.02
.6442	30	430.07	.02
.7095	30	430.25	.02
.7498	30	430.35	.02
.8039	30	430.65	.02
.8687	30	431.1	.02
.2228	20	419.48	.02
.2596	20	419.38	.02
.2914	20	419.23	.02
.3754	20	418.78	.02
.4363	20	418.28	.02
.465	20	417.68	.02
.4909	20	417.78	.02
.5313	20	418.03	.02
.5734	20	418.21	.02
.6418	20	418.48	.02
.677	20	418.68	.02
.7819	20	419.18	.02
1	30	432.29	.02
0	30	431.49	.02
1	20	420.74	.02
0	20	420.46	.02

System: 1,2-ethanediol + 1,2-butanediol; phases: Gas, Liquid
Property: Mole fraction of 1,2-ethanediol (Gas); method: Chromatography
Mole fraction of 1,2-ethanediol	Pressure, kPa	Mole fraction of 1,2-ethanediol	uncertainty
1	40	1	.002
.9752	40	.9645	.002
.9083	40	.8786	.002
.8223	40	.7835	.002
.7377	40	.7036	.002
.6928	40	.6643	.002
.5824	40	.5676	.002
.5434	40	.5353	.002
.4995	40	.4995	.002
.4819	40	.4843	.002
.4678	40	.4705	.002
.4266	40	.434	.002
.3991	40	.4094	.002
.3484	40	.3664	.002
.3022	40	.3256	.002
0	40	0	.002
.1663	30	.1881	.002
.2803	30	.3054	.002
.3721	30	.3855	.002
.4056	30	.4161	.002
.4919	30	.4899	.002
.5365	30	.5302	.002
.5636	30	.553	.002
.6224	30	.6018	.002
.6442	30	.6203	.002
.7095	30	.677	.002
.7498	30	.7189	.002
.8039	30	.7698	.002
.8687	30	.8371	.002
.2228	20	.2502	.002
.2596	20	.2858	.002
.2914	20	.3197	.002
.3754	20	.3944	.002
.4363	20	.444	.002
.465	20	.465	.002
.4909	20	.4871	.002
.5313	20	.526	.002
.5734	20	.5683	.002
.6418	20	.6224	.002
.677	20	.6515	.002
.7819	20	.748	.002

System: 1,2-ethanediol + 1,2-butanediol; phases: Liquid, Gas
Property: Azeotropic temperature, K (Liquid); method: By X=Y
Pressure, kPa	Azeotropic temperature, K	uncertainty
40	437.55	
30	429.74	
20	417.68	

System: 1,2-ethanediol + 1,2-butanediol; phases: Liquid, Gas
Property: Azeotropic composition: mole fraction of 1,2-ethanediol (Liquid); method: By X=Y
Pressure, kPa	Azeotropic composition: mole fraction of 1,2-ethanediol	uncertainty
40	.5013	.002
30	.5221	.002
20	.4809	.002
