Measured thermophysical data. Vapor Liquid Equilibrium of Methane with Water and Methanol. Measurements and Modeling
Source: J. Chem. Eng. Data, 2014, 10.1021/je400684k
Compound 1: methane, CH4, purity 99%
Compound 2: methanol, CH4O, purity 99%
Compound 3: water, H2O, purity 99.8%

System: methane + water; phases: Liquid, Gas
Property: Vapor or sublimation pressure, kPa (Liquid); method: Closed cell (Static) method
Mole fraction of methane	Temperature, K	Vapor or sublimation pressure, kPa	uncertainty
.00134	283.89	5010	50
.00154	283.89	5870	50
.00128	283.89	4780	50
.00168	283.89	6470	50
.0019	283.89	7410	50
.00183	283.89	7110	50
.00119	298.31	5110	50
.0014	298.31	6410	50
.00165	298.31	8450	50
.00193	298.31	11460	50
.0024	298.31	15480	50
.00261	298.31	19490	50
.000671	313.11	5480	50
.000915	313.11	6780	50
.00123	313.11	8150	50
.00189	313.11	12460	50
.00235	313.11	16780	50
.000604	323.56	4980	50
.000823	323.56	6490	50
.00111	323.56	8480	50
.00169	323.56	11490	50
.00198	323.56	18480	50

System: methane + water; phases: Gas, Liquid
Property: Mole fraction of methane (Gas); method: Chromatography
Mole fraction of methane	Temperature, K	Mole fraction of methane	uncertainty
.00134	283.89	.000298	.00000894
.00154	283.89	.000262	.00000786
.00128	283.89	.000441	.00001323
.00168	283.89	.000238	.00000714
.0019	283.89	.000225	.00000675
.00183	283.89	.000222	.00000666
.00119	298.31	.000985	.00002955
.0014	298.31	.000837	.00002511
.00165	298.31	.000687	.00002061
.00193	298.31	.000552	.00001656
.0024	298.31	.000445	.00001335
.00261	298.31	.000378	.00001134
.000671	313.11	.00169	.0000507
.000915	313.11	.00136	.0000408
.00123	313.11	.00118	.0000354
.00189	313.11	.000855	.00002565
.00235	313.11	.000682	.00002046
.000604	323.56	.00387	.0001161
.000823	323.56	.00335	.0001005
.00111	323.56	.00265	.0000795
.00169	323.56	.00224	.0000672
.00211	323.56	.00197	.0000591
.00198	323.56	.00173	.0000519

System: methanol + methane; phases: Liquid, Gas
Property: Vapor or sublimation pressure, kPa (Liquid); method: Closed cell (Static) method
Mole fraction of methane	Temperature, K	Vapor or sublimation pressure, kPa	uncertainty
.04126	298.87	5240	50
.04747	298.87	6140	50
.04995	298.87	6470	50
.06329	298.87	8100	50
.08032	298.87	10050	50
.09749	298.87	12070	50
.11941	298.87	15070	50
.12525	298.87	16040	50
.13483	298.87	18010	50

System: methanol + methane; phases: Gas, Liquid
Property: Mole fraction of methanol (Gas); method: Chromatography
Mole fraction of methane	Temperature, K	Mole fraction of methanol	uncertainty
.04126	298.87	.00538	.0001614
.04747	298.87	.00508	.0001524
.04995	298.87	.00498	.0001494
.06329	298.87	.00365	.0001095
.08032	298.87	.00388	.0001164
.09749	298.87	.00423	.0001269
.11941	298.87	.00463	.0001389
.12525	298.87	.00483	.0001449
.13483	298.87	.00534	.0001602

System: methanol + methane + water; phases: Liquid, Gas
Property: Mole fraction of water (Liquid); method: Chromatography
Property: Mole fraction of methanol (Gas); method: Chromatography
Property: Mole fraction of water (Gas); method: Chromatography
Temperature, K	Pressure, kPa	Mole fraction of methane	Mole fraction of water	uncertainty	Mole fraction of methanol	uncertainty	Mole fraction of water	uncertainty
280.25	5140	.00514	.613	.03065	.000892	.0000446	.000225	.00001125
280.25	9810	.0085	.61	.0305	.00073	.0000365	.00015	.0000075
280.25	13120	.0103	.608	.0304	.000751	.00003755	.000134	.0000067
298.77	5330	.00517	.613	.03065	.00225	.0001125	.000679	.00003395
298.77	8540	.0076	.611	.03055	.00182	.000091	.000491	.00002455
298.77	11160	.00934	.609	.03045	.00172	.000086	.000423	.00002115
313.45	5650	.00537	.613	.03065	.00437	.0002185	.0015	.000075
313.45	8110	.00737	.611	.03055	.00361	.0001805	.00115	.0000575
313.45	12130	.0101	.609	.03045	.00322	.000161	.000908	.0000454
