Measured thermophysical data. Determination and Correlation of Liquid Liquid Equilibrium Data for the Ternary Dichloromethane + Water + N,N-Dimethylacetamide System
Source: J. Chem. Eng. Data, 2014, 10.1021/je401001z
Compound 1: dichloromethane, CH2Cl2, purity 99.5%
Compound 2: water, H2O, purity 99.9%
Compound 3: N,N-dimethylacetamide, C4H9NO, purity 99.8%

System: dichloromethane + N,N-dimethylacetamide + water; phases: Liquid mixture 1, Liquid mixture 2
Fixed: Pressure, kPa = 101
Property: Mass fraction of water (Liquid mixture 1); method: Titration method
Temperature, K	Mass fraction of dichloromethane	Mass fraction of water	uncertainty
298.15	.1	.9	.002
298.15	.084	.738	.002
298.15	.076	.692	.002
298.15	.101	.491	.002
298.15	.166	.38	.002
298.15	.32	.23	.002
298.15	.43	.169	.002
298.15	.546	.115	.002
298.15	.609	.094	.002
298.15	.867	.06	.002
298.15	.91	.053	.002
298.15	.946	.054	.002
308.15	.092	.908	.002
308.15	.091	.786	.002
308.15	.095	.682	.002
308.15	.128	.509	.002
308.15	.182	.385	.002
308.15	.315	.256	.002
308.15	.474	.187	.002
308.15	.516	.179	.002
308.15	.614	.158	.002
308.15	.769	.137	.002
308.15	.861	.118	.002
308.15	.889	.111	.002

System: dichloromethane + N,N-dimethylacetamide + water; phases: Liquid mixture 2, Liquid mixture 1
Property: Mass fraction of dichloromethane (Liquid mixture 2); method: Chromatography
Property: Mass fraction of dichloromethane (Liquid mixture 1); method: Chromatography
Property: Mass fraction of water (Liquid mixture 1); method: Chromatography
Temperature, K	Pressure, kPa	Mass fraction of water	Mass fraction of dichloromethane	uncertainty	Mass fraction of dichloromethane	uncertainty	Mass fraction of water	uncertainty
298.15	101.325	.5852	.0997	.0018	.5023	.0018	.1329	.0018
298.15	101.325	.7108	.0795	.0018	.6684	.0018	.0845	.0018
298.15	101.325	.7813	.0872	.0018	.7562	.0018	.0741	.0018
298.15	101.325	.8139	.0917	.0018	.8272	.0018	.0626	.0018
308.15	101.325	.5603	.1197	.0018	.3793	.0018	.2313	.0018
308.15	101.325	.6154	.1082	.0018	.4016	.0018	.2231	.0018
308.15	101.325	.7121	.1003	.0018	.5483	.0018	.1773	.0018
308.15	101.325	.7442	.0972	.0018	.5998	.0018	.1599	.0018
308.15	101.325	.7902	.0916	.0018	.6528	.0018	.1509	.0018
308.15	101.325	.831	.089	.0018	.7312	.0018	.1395	.0018
298.15	101.325	.6416	.0901	.0018	.5995	.0018	.1017	.0018
298.15	101.325	.6633	.0839	.0018	.6384	.0018	.0921	.0018
