Measured thermophysical data. Solid Liquid Equilibrium (SLE) of the N,N-Dimethylacetamide (DMA) + MCl (M = Na, K, Rb, and Cs) + Water Ternary Systems at Multiple Temperatures
Source: J. Chem. Eng. Data, 2014, 10.1021/je400959n
Compound 1: sodium chloride, ClNa, purity 99.5%
Compound 2: potassium chloride, ClK, purity 99.5%
Compound 3: rubidium chloride, ClRb, purity 99.5%
Compound 4: cesium chloride, ClCs, purity 99.5%
Compound 5: N,N-dimethylacetamide, C4H9NO, purity 99.5%
Compound 6: water, H2O, purity 99.9%

System: N,N-dimethylacetamide + sodium chloride + water; phases: Liquid, Crystal
Fixed: Pressure, kPa = 101
Property: Mass fraction of sodium chloride (Liquid); method: Titration method
Temperature, K	Solvent: Mass fraction of N,N-dimethylacetamide	Mass fraction of sodium chloride	uncertainty
298.15	0	.2681	.0022
298.15	.1	.2313	.0022
298.15	.1999	.1971	.0022
298.15	.3	.1594	.0022
298.15	.4	.1239	.0022
298.15	.5	.0869	.0022
308.15	0	.2669	.0022
308.15	.1	.2314	.0022
308.15	.1999	.1965	.0022
308.15	.3	.1616	.0022
308.15	.4	.1257	.0022
308.15	.5	.0893	.0022
318.15	0	.266	.0022
318.15	.1	.2338	.0022
318.15	.1999	.2	.0022
318.15	.3	.1636	.0022
318.15	.4	.1279	.0022
318.15	.5	.0914	.0022
298.15	.6	.0537	.0022
298.15	.6999	.0269	.0022
298.15	.8	.0107	.0022
298.15	.9	.0032	.0022
298.15	1	.0007	.0022
308.15	.6	.0552	.0022
308.15	.6999	.0284	.0022
308.15	.8	.0116	.0022
308.15	.9	.0036	.0022
308.15	1	.0005	.0022
318.15	.6	.0579	.0022
318.15	.6999	.0307	.0022
318.15	.8	.0125	.0022
318.15	.9	.0036	.0022
318.15	1	.0006	.0022

System: N,N-dimethylacetamide + sodium chloride + water; phases: Liquid
Fixed: Pressure, kPa = 101
Property: Refractive index (Na D-line) (Liquid); method: Standard Abbe refractometry
Temperature, K	Solvent: Mass fraction of N,N-dimethylacetamide	Mass fraction of sodium chloride	Refractive index (Na D-line)	uncertainty
298.15	0	.2681	1.37996	.00004
298.15	.1	.2313	1.38445	.00004
298.15	.1999	.1971	1.39018	.00004
298.15	.3	.1594	1.39659	.00004
298.15	.4	.1239	1.40331	.00004
298.15	.5	.0869	1.41034	.00004
308.15	0	.2669	1.37793	.00004
308.15	.1	.2314	1.38354	.00004
308.15	.1999	.1965	1.38816	.00004
308.15	.3	.1616	1.39414	.00004
308.15	.4	.1257	1.40051	.00004
308.15	.5	.0893	1.40713	.00004
318.15	0	.266	1.37637	.00004
318.15	.1	.2338	1.38067	.00004
318.15	.1999	.2	1.38593	.00004
318.15	.3	.1636	1.39184	.00004
318.15	.4	.1279	1.39779	.00004
318.15	.5	.0914	1.40401	.00004
298.15	.6	.0537	1.41743	.00004
298.15	.6999	.0269	1.42455	.00004
298.15	.8	.0107	1.43086	.00004
298.15	.9	.0032	1.43519	.00004
298.15	1	.0007	1.43698	.00004
308.15	.6	.0552	1.41377	.00004
308.15	.6999	.0284	1.42039	.00004
308.15	.8	.0116	1.42629	.00004
308.15	.9	.0036	1.43046	.00004
308.15	1	.0005	1.43213	.00004
318.15	.6	.0579	1.41028	.00004
318.15	.6999	.0307	1.41635	.00004
318.15	.8	.0125	1.42194	.00004
318.15	.9	.0036	1.42588	.00004
318.15	1	.0006	1.42753	.00004

System: N,N-dimethylacetamide + sodium chloride + water; phases: Liquid
Fixed: Pressure, kPa = 101
Property: Mass density, kg/m3 (Liquid); method: Vibrating tube method
Temperature, K	Solvent: Mass fraction of N,N-dimethylacetamide	Mass fraction of sodium chloride	Mass density, kg/m3	uncertainty
298.15	0	.2681	1198.15	.1
298.15	.1	.2313	1166.64	.1
298.15	.1999	.1971	1137.47	.1
298.15	.3	.1594	1109.57	.1
298.15	.4	.1239	1082.12	.1
298.15	.5	.0869	1054.89	.1
308.15	0	.2669	1193.03	.1
308.15	.1	.2314	1161.8	.1
308.15	.1999	.1965	1132.56	.1
308.15	.3	.1616	1104.25	.1
308.15	.4	.1257	1076.24	.1
308.15	.5	.0893	1048.38	.1
318.15	0	.266	1189.59	.1
318.15	.1	.2338	1157.99	.1
318.15	.1999	.2	1128	.1
318.15	.3	.1636	1099.44	.1
318.15	.4	.1279	1070.69	.1
318.15	.5	.0914	1041.85	.1
298.15	.6	.0537	1028.93	.1
298.15	.6999	.0269	1005.48	.1
298.15	.8	.0107	984.37	.1
298.15	.9	.0032	962.28	.1
298.15	1	.0007	941.89	.1
308.15	.6	.0552	1021.66	.1
308.15	.6999	.0284	997.23	.1
308.15	.8	.0116	975.28	.1
308.15	.9	.0036	952.96	.1
308.15	1	.0005	929.66	.1
318.15	.6	.0579	1014.62	.1
318.15	.6999	.0307	989.27	.1
318.15	.8	.0125	966.46	.1
318.15	.9	.0036	944.06	.1
318.15	1	.0006	921.6	.1

System: N,N-dimethylacetamide + potassium chloride + water; phases: Liquid, Crystal
Fixed: Pressure, kPa = 101
Property: Mass fraction of potassium chloride (Liquid); method: Titration method
Temperature, K	Solvent: Mass fraction of N,N-dimethylacetamide	Mass fraction of potassium chloride	uncertainty
298.15	0	.2628	.0022
298.15	.1001	.2181	.0022
298.15	.2	.1734	.0022
298.15	.3	.1298	.0022
298.15	.4	.0904	.0022
298.15	.5001	.0558	.0022
308.15	0	.2788	.0022
308.15	.1001	.2352	.0022
308.15	.2	.1887	.0022
308.15	.3	.1442	.0022
308.15	.4	.1024	.0022
308.15	.5001	.0641	.0022
318.15	0	.2918	.0022
318.15	.1001	.246	.0022
318.15	.2	.2014	.0022
318.15	.3	.1542	.0022
318.15	.4	.1119	.0022
318.15	.5001	.0724	.0022
298.15	.5999	.0283	.0022
298.15	.7	.0131	.0022
298.15	.8	.0052	.0022
298.15	.9	.0009	.0022
298.15	1	.0005	.0022
308.15	.5999	.0345	.0022
308.15	.7	.0154	.0022
308.15	.8	.0056	.0022
308.15	.9	.0017	.0022
308.15	1	.0005	.0022
318.15	.5999	.0394	.0022
318.15	.7	.0167	.0022
318.15	.8	.0064	.0022
318.15	.9	.0017	.0022
318.15	1	.0019	.0022

System: N,N-dimethylacetamide + potassium chloride + water; phases: Liquid
Fixed: Pressure, kPa = 101
Property: Refractive index (Na D-line) (Liquid); method: Standard Abbe refractometry
Temperature, K	Solvent: Mass fraction of N,N-dimethylacetamide	Mass fraction of potassium chloride	Refractive index (Na D-line)	uncertainty
298.15	0	.2628	1.36822	.00004
298.15	.1001	.2181	1.37314	.00004
298.15	.2	.1734	1.37934	.00004
298.15	.3	.1298	1.38656	.00004
298.15	.4	.0904	1.39483	.00004
298.15	.5001	.0558	1.40377	.00004
308.15	0	.2788	1.36927	.00004
308.15	.1001	.2352	1.37373	.00004
308.15	.2	.1887	1.37936	.00004
308.15	.3	.1442	1.38586	.00004
308.15	.4	.1024	1.39304	.00004
308.15	.5001	.0641	1.40119	.00004
318.15	0	.2918	1.3691	.00004
318.15	.1001	.246	1.37298	.00004
318.15	.2	.2014	1.37848	.00004
318.15	.3	.1542	1.38426	.00004
318.15	.4	.1119	1.39136	.00004
318.15	.5001	.0724	1.39876	.00004
298.15	.5999	.0283	1.41316	.00004
298.15	.7	.0131	1.42219	.00004
298.15	.8	.0052	1.42944	.00004
298.15	.9	.0009	1.43426	.00004
298.15	1	.0005	1.43624	.00004
308.15	.5999	.0345	1.4097	.00004
308.15	.7	.0154	1.41811	.00004
308.15	.8	.0056	1.42512	.00004
308.15	.9	.0017	1.42982	.00004
308.15	1	.0005	1.43188	.00004
318.15	.5999	.0394	1.40632	.00004
318.15	.7	.0167	1.41431	.00004
318.15	.8	.0064	1.4208	.00004
318.15	.9	.0017	1.4251	.00004
318.15	1	.0019	1.42755	.00004

System: N,N-dimethylacetamide + potassium chloride + water; phases: Liquid
Fixed: Pressure, kPa = 101
Property: Mass density, kg/m3 (Liquid); method: Vibrating tube method
Temperature, K	Solvent: Mass fraction of N,N-dimethylacetamide	Mass fraction of potassium chloride	Mass density, kg/m3	uncertainty
298.15	0	.2628	1174.71	.1
298.15	.1001	.2181	1139.52	.1
298.15	.2	.1734	1107.59	.1
298.15	.3	.1298	1078.87	.1
298.15	.4	.0904	1052.87	.1
298.15	.5001	.0558	1030.58	.1
308.15	0	.2788	1183.7	.1
308.15	.1001	.2352	1147.47	.1
308.15	.2	.1887	1114.05	.1
308.15	.3	.1442	1082.73	.1
308.15	.4	.1024	1053.63	.1
308.15	.5001	.0641	1028.3	.1
318.15	0	.2918	1186.18	.1
318.15	.1001	.246	1147.86	.1
318.15	.2	.2014	1115.05	.1
318.15	.3	.1542	1081.8	.1
318.15	.4	.1119	1052.07	.1
318.15	.5001	.0724	1024.52	.1
298.15	.5999	.0283	1011.86	.1
298.15	.7	.0131	996.23	.1
298.15	.8	.0052	980.35	.1
298.15	.9	.0009	961	.1
298.15	1	.0005	937.14	.1
308.15	.5999	.0345	1006.55	.1
308.15	.7	.0154	988.53	.1
308.15	.8	.0056	971.42	.1
308.15	.9	.0017	951.74	.1
308.15	1	.0005	928.28	.1
318.15	.5999	.0394	1000.44	.1
318.15	.7	.0167	980.32	.1
318.15	.8	.0064	962.32	.1
318.15	.9	.0017	945.15	.1
318.15	1	.0019	919.42	.1

System: N,N-dimethylacetamide + water + rubidium chloride; phases: Liquid, Crystal
Fixed: Pressure, kPa = 101
Property: Mass fraction of rubidium chloride (Liquid); method: Titration method
Temperature, K	Solvent: Mass fraction of N,N-dimethylacetamide	Mass fraction of rubidium chloride	uncertainty
298.15	0	.4798	.0022
298.15	.1001	.4136	.0022
298.15	.2	.3506	.0022
298.15	.3	.2887	.0022
298.15	.4	.2183	.0022
298.15	.5	.1427	.0022
308.15	0	.4967	.0022
308.15	.1001	.4442	.0022
308.15	.2	.3731	.0022
308.15	.3	.3171	.0022
308.15	.4	.2467	.0022
308.15	.5	.1691	.0022
318.15	0	.5184	.0022
318.15	.1001	.4605	.0022
318.15	.2	.4167	.0022
318.15	.3	.3387	.0022
318.15	.4	.2609	.0022
318.15	.5	.1835	.0022
298.15	.6	.0881	.0022
298.15	.7	.0397	.0022
298.15	.8	.0119	.0022
298.15	.9001	.0046	.0022
298.15	1	.0017	.0022
308.15	.6	.0984	.0022
308.15	.7	.046	.0022
308.15	.7999	.015	.0022
308.15	.9001	.0045	.0022
308.15	1	.0011	.0022
318.15	.6	.1094	.0022
318.15	.7	.0511	.0022
318.15	.8	.0182	.0022
318.15	.9001	.0053	.0022
318.15	1	.0012	.0022

System: N,N-dimethylacetamide + water + rubidium chloride; phases: Liquid
Fixed: Pressure, kPa = 101
Property: Refractive index (Na D-line) (Liquid); method: Standard Abbe refractometry
Temperature, K	Solvent: Mass fraction of N,N-dimethylacetamide	Mass fraction of rubidium chloride	Refractive index (Na D-line)	uncertainty
298.15	0	.4798	1.38798	.00004
298.15	.1001	.4136	1.38967	.00004
298.15	.2	.3506	1.39271	.00004
298.15	.3	.2887	1.39702	.00004
298.15	.4	.2183	1.40233	.00004
298.15	.5	.1427	1.40874	.00004
308.15	0	.4967	1.38931	.00004
308.15	.1001	.4442	1.39058	.00004
308.15	.2	.3731	1.3921	.00004
308.15	.3	.3171	1.39666	.00004
308.15	.4	.2467	1.40107	.00004
308.15	.5	.1691	1.40639	.00004
318.15	0	.5184	1.38975	.00004
318.15	.1001	.4605	1.39103	.00004
318.15	.2	.4167	1.39288	.00004
318.15	.3	.3387	1.39643	.00004
318.15	.4	.2609	1.4001	.00004
318.15	.5	.1835	1.40472	.00004
298.15	.6	.0881	1.41601	.00004
298.15	.7	.0397	1.4236	.00004
298.15	.8	.0119	1.43027	.00004
298.15	.9001	.0046	1.43476	.00004
298.15	1	.0017	1.4366	.00004
308.15	.6	.0984	1.41263	.00004
308.15	.7	.046	1.41918	.00004
308.15	.7999	.015	1.42548	.00004
308.15	.9001	.0045	1.42952	.00004
308.15	1	.0011	1.43212	.00004
318.15	.6	.1094	1.4102	.00004
318.15	.7	.0511	1.41594	.00004
318.15	.8	.0182	1.42167	.00004
318.15	.9001	.0053	1.42565	.00004
318.15	1	.0012	1.42806	.00004

System: N,N-dimethylacetamide + water + rubidium chloride; phases: Liquid
Fixed: Pressure, kPa = 101
Property: Mass density, kg/m3 (Liquid); method: Vibrating tube method
Temperature, K	Solvent: Mass fraction of N,N-dimethylacetamide	Mass fraction of rubidium chloride	Mass density, kg/m3	uncertainty
298.15	0	.4798	1495.37	.1
298.15	.1001	.4136	1410.39	.1
298.15	.2	.3506	1329.89	.1
298.15	.3	.2887	1252.11	.1
298.15	.4	.2183	1177.76	.1
298.15	.5	.1427	1111.2	.1
308.15	0	.4967	1519.14	.1
308.15	.1001	.4442	1436.68	.1
308.15	.2	.3731	1343.58	.1
308.15	.3	.3171	1273.97	.1
308.15	.4	.2467	1196.37	.1
308.15	.5	.1691	1123.41	.1
318.15	0	.5184	1533.71	.1
318.15	.1001	.4605	1450.37	.1
318.15	.2	.4167	1361.98	.1
318.15	.3	.3387	1286.12	.1
318.15	.4	.2609	1203.49	.1
318.15	.5	.1835	1126.24	.1
298.15	.6	.0881	1055.75	.1
298.15	.7	.0397	1014.89	.1
298.15	.8	.0119	986.37	.1
298.15	.9001	.0046	962.14	.1
298.15	1	.0017	937.08	.1
308.15	.6	.0984	1060.03	.1
308.15	.7	.046	1013.26	.1
308.15	.7999	.015	978.04	.1
308.15	.9001	.0045	957.71	.1
308.15	1	.0011	932.28	.1
318.15	.6	.1094	1060.68	.1
318.15	.7	.0511	1007.47	.1
318.15	.8	.0182	974.3	.1
318.15	.9001	.0053	948.11	.1
318.15	1	.0012	922.2	.1

System: N,N-dimethylacetamide + cesium chloride + water; phases: Liquid, Crystal
Fixed: Pressure, kPa = 101
Property: Mass fraction of cesium chloride (Liquid); method: Titration method
Temperature, K	Solvent: Mass fraction of N,N-dimethylacetamide	Mass fraction of cesium chloride	uncertainty
298.15	0	.6596	.0022
298.15	.1	.6135	.0022
298.15	.2	.5616	.0022
298.15	.3	.4762	.0022
298.15	.4	.3908	.0022
298.15	.5	.2935	.0022
308.15	0	.6661	.0022
308.15	.1	.6234	.0022
308.15	.2	.5664	.0022
308.15	.3	.5013	.0022
308.15	.4	.4173	.0022
308.15	.5	.324	.0022
318.15	0	.6718	.0022
318.15	.1	.6399	.0022
318.15	.2	.5966	.0022
318.15	.3	.5238	.0022
318.15	.4	.4434	.0022
318.15	.5	.3488	.0022
298.15	.6	.185	.0022
298.15	.7	.0875	.0022
298.15	.7999	.0269	.0022
298.15	.8999	.0047	.0022
298.15	1	.0006	.0022
308.15	.6	.2067	.0022
308.15	.7	.1034	.0022
308.15	.7999	.0345	.0022
308.15	.8999	.0073	.0022
308.15	1	.004	.0022
318.15	.6	.2322	.0022
318.15	.7	.1219	.0022
318.15	.7999	.0406	.0022
318.15	.8999	.008	.0022
318.15	1	.0013	.0022

System: N,N-dimethylacetamide + cesium chloride + water; phases: Liquid
Fixed: Pressure, kPa = 101
Property: Refractive index (Na D-line) (Liquid); method: Standard Abbe refractometry
Temperature, K	Solvent: Mass fraction of N,N-dimethylacetamide	Mass fraction of cesium chloride	Refractive index (Na D-line)	uncertainty
298.15	0	.6596	1.4197	.00004
298.15	.1	.6135	1.41795	.00004
298.15	.2	.5616	1.41702	.00004
298.15	.3	.4762	1.41654	.00004
298.15	.4	.3908	1.41718	.00004
298.15	.5	.2935	1.4188	.00004
308.15	0	.6661	1.42044	.00004
308.15	.1	.6234	1.41902	.00004
308.15	.2	.5664	1.41783	.00004
308.15	.3	.5013	1.41694	.00004
308.15	.4	.4173	1.41696	.00004
308.15	.5	.324	1.41777	.00004
318.15	0	.6718	1.42113	.00004
318.15	.1	.6399	1.41949	.00004
318.15	.2	.5966	1.41858	.00004
318.15	.3	.5238	1.41801	.00004
318.15	.4	.4434	1.41731	.00004
318.15	.5	.3488	1.41715	.00004
298.15	.6	.185	1.4219	.00004
298.15	.7	.0875	1.42619	.00004
298.15	.7999	.0269	1.43085	.00004
298.15	.8999	.0047	1.43477	.00004
298.15	1	.0006	1.43663	.00004
308.15	.6	.2067	1.42004	.00004
308.15	.7	.1034	1.42271	.00004
308.15	.7999	.0345	1.42668	.00004
308.15	.8999	.0073	1.43016	.00004
308.15	1	.004	1.43237	.00004
318.15	.6	.2322	1.41825	.00004
318.15	.7	.1219	1.42023	.00004
318.15	.7999	.0406	1.42314	.00004
318.15	.8999	.008	1.42631	.00004
318.15	1	.0013	1.42844	.00004

System: N,N-dimethylacetamide + cesium chloride + water; phases: Liquid
Fixed: Pressure, kPa = 101
Property: Mass density, kg/m3 (Liquid); method: Vibrating tube method
Temperature, K	Solvent: Mass fraction of N,N-dimethylacetamide	Mass fraction of cesium chloride	Mass density, kg/m3	uncertainty
298.15	0	.6596	1922.06	.1
298.15	.1	.6135	1801.08	.1
298.15	.2	.5616	1674.04	.1
298.15	.3	.4762	1540.6	.1
298.15	.4	.3908	1404.15	.1
298.15	.5	.2935	1270.55	.1
308.15	0	.6661	1947.48	.1
308.15	.1	.6234	1827.15	.1
308.15	.2	.5664	1703.28	.1
308.15	.3	.5013	1571.6	.1
308.15	.4	.4173	1431.42	.1
308.15	.5	.324	1294.94	.1
318.15	0	.6718	1984.35	.1
318.15	.1	.6399	1848.86	.1
318.15	.2	.5966	1725.62	.1
318.15	.3	.5238	1601.28	.1
318.15	.4	.4434	1457.1	.1
318.15	.5	.3488	1318.96	.1
298.15	.6	.185	1150.4	.1
298.15	.7	.0875	1057.03	.1
298.15	.7999	.0269	997.56	.1
298.15	.8999	.0047	963.45	.1
298.15	1	.0006	936.76	.1
308.15	.6	.2067	1165.18	.1
308.15	.7	.1034	1061.81	.1
308.15	.7999	.0345	993	.1
308.15	.8999	.0073	955.62	.1
308.15	1	.004	929.58	.1
318.15	.6	.2322	1180.6	.1
318.15	.7	.1219	1066.79	.1
318.15	.7999	.0406	988.48	.1
318.15	.8999	.008	947.53	.1
318.15	1	.0013	921.07	.1

System: sodium chloride + water; phases: Liquid, Crystal
Property: Mass fraction of sodium chloride (Liquid); method: Titration method
Temperature, K	Pressure, kPa	Mass fraction of sodium chloride	uncertainty
298.15	101	.2681	.0022
308.15	101	.2669	.0022
318.15	101	.266	.0022

System: sodium chloride + water; phases: Liquid
Property: Refractive index (Na D-line) (Liquid); method: Standard Abbe refractometry
Temperature, K	Mass fraction of sodium chloride	Pressure, kPa	Refractive index (Na D-line)	uncertainty
298.15	.2681	101	1.37996	.00004
308.15	.2669	101	1.37793	.00004
318.15	.266	101	1.37637	.00004

System: sodium chloride + water; phases: Liquid
Property: Mass density, kg/m3 (Liquid); method: Vibrating tube method
Temperature, K	Mass fraction of sodium chloride	Pressure, kPa	Mass density, kg/m3	uncertainty
298.15	.2681	101	1198.15	.1
308.15	.2669	101	1193.03	.1
318.15	.266	101	1189.59	.1

System: N,N-dimethylacetamide + sodium chloride; phases: Liquid, Crystal
Property: Mass fraction of sodium chloride (Liquid); method: Titration method
Temperature, K	Pressure, kPa	Mass fraction of sodium chloride	uncertainty
298.15	101	.0007	.0022
308.15	101	.0005	.0022
318.15	101	.0006	.0022

System: N,N-dimethylacetamide + sodium chloride; phases: Liquid
Property: Refractive index (Na D-line) (Liquid); method: Standard Abbe refractometry
Temperature, K	Mass fraction of sodium chloride	Pressure, kPa	Refractive index (Na D-line)	uncertainty
298.15	.0007	101	1.43698	.00004
308.15	.0005	101	1.43213	.00004
318.15	.0006	101	1.42753	.00004

System: N,N-dimethylacetamide + sodium chloride; phases: Liquid
Property: Mass density, kg/m3 (Liquid); method: Vibrating tube method
Temperature, K	Mass fraction of sodium chloride	Pressure, kPa	Mass density, kg/m3	uncertainty
298.15	.0007	101	941.89	.1
308.15	.0005	101	929.66	.1
318.15	.0006	101	921.6	.1

System: potassium chloride + water; phases: Liquid, Crystal
Property: Mass fraction of potassium chloride (Liquid); method: Titration method
Temperature, K	Pressure, kPa	Mass fraction of potassium chloride	uncertainty
298.15	101	.2628	.0022
308.15	101	.2788	.0022
318.15	101	.2918	.0022

System: potassium chloride + water; phases: Liquid
Property: Refractive index (Na D-line) (Liquid); method: Standard Abbe refractometry
Temperature, K	Mass fraction of potassium chloride	Pressure, kPa	Refractive index (Na D-line)	uncertainty
298.15	.2628	101	1.36822	.00004
308.15	.2788	101	1.36927	.00004
318.15	.2918	101	1.3691	.00004

System: potassium chloride + water; phases: Liquid
Property: Mass density, kg/m3 (Liquid); method: Vibrating tube method
Temperature, K	Mass fraction of potassium chloride	Pressure, kPa	Mass density, kg/m3	uncertainty
298.15	.2628	101	1174.71	.1
308.15	.2788	101	1183.7	.1
318.15	.2918	101	1186.18	.1

System: N,N-dimethylacetamide + potassium chloride; phases: Liquid, Crystal
Property: Mass fraction of potassium chloride (Liquid); method: Titration method
Temperature, K	Pressure, kPa	Mass fraction of potassium chloride	uncertainty
298.15	101	.0005	.0022
308.15	101	.0005	.0022
318.15	101	.0019	.0022

System: N,N-dimethylacetamide + potassium chloride; phases: Liquid
Property: Refractive index (Na D-line) (Liquid); method: Standard Abbe refractometry
Temperature, K	Mass fraction of potassium chloride	Pressure, kPa	Refractive index (Na D-line)	uncertainty
298.15	.0005	101	1.43624	.00004
308.15	.0005	101	1.43188	.00004
318.15	.0019	101	1.42755	.00004

System: N,N-dimethylacetamide + potassium chloride; phases: Liquid
Property: Mass density, kg/m3 (Liquid); method: Vibrating tube method
Temperature, K	Mass fraction of potassium chloride	Pressure, kPa	Mass density, kg/m3	uncertainty
298.15	.0005	101	937.14	.1
308.15	.0005	101	928.28	.1
318.15	.0019	101	919.42	.1

System: water + rubidium chloride; phases: Liquid, Crystal
Property: Mass fraction of rubidium chloride (Liquid); method: Titration method
Temperature, K	Pressure, kPa	Mass fraction of rubidium chloride	uncertainty
298.15	101	.4798	.0022
308.15	101	.4967	.0022
318.15	101	.5184	.0022

System: water + rubidium chloride; phases: Liquid
Property: Refractive index (Na D-line) (Liquid); method: Standard Abbe refractometry
Temperature, K	Mass fraction of rubidium chloride	Pressure, kPa	Refractive index (Na D-line)	uncertainty
298.15	.4798	101	1.38798	.00004
308.15	.4967	101	1.38931	.00004
318.15	.5184	101	1.38975	.00004

System: water + rubidium chloride; phases: Liquid
Property: Mass density, kg/m3 (Liquid); method: Vibrating tube method
Temperature, K	Mass fraction of rubidium chloride	Pressure, kPa	Mass density, kg/m3	uncertainty
298.15	.4798	101	1495.37	.1
308.15	.4967	101	1519.14	.1
318.15	.5184	101	1533.71	.1

System: N,N-dimethylacetamide + rubidium chloride; phases: Liquid, Crystal
Property: Mass fraction of rubidium chloride (Liquid); method: Titration method
Temperature, K	Pressure, kPa	Mass fraction of rubidium chloride	uncertainty
298.15	101	.0017	.0022
308.15	101	.0011	.0022
318.15	101	.0012	.0022

System: N,N-dimethylacetamide + rubidium chloride; phases: Liquid
Property: Refractive index (Na D-line) (Liquid); method: Standard Abbe refractometry
Temperature, K	Mass fraction of rubidium chloride	Pressure, kPa	Refractive index (Na D-line)	uncertainty
298.15	.0017	101	1.4366	.00004
308.15	.0011	101	1.43212	.00004
318.15	.0012	101	1.42806	.00004

System: N,N-dimethylacetamide + rubidium chloride; phases: Liquid
Property: Mass density, kg/m3 (Liquid); method: Vibrating tube method
Temperature, K	Mass fraction of rubidium chloride	Pressure, kPa	Mass density, kg/m3	uncertainty
298.15	.0017	101	937.08	.1
308.15	.0011	101	932.28	.1
318.15	.0012	101	922.2	.1

System: cesium chloride + water; phases: Liquid, Crystal
Property: Mass fraction of cesium chloride (Liquid); method: Titration method
Temperature, K	Pressure, kPa	Mass fraction of cesium chloride	uncertainty
298.15	101	.6596	.0022
308.15	101	.6661	.0022
318.15	101	.6718	.0022

System: cesium chloride + water; phases: Liquid
Property: Refractive index (Na D-line) (Liquid); method: Standard Abbe refractometry
Temperature, K	Mass fraction of cesium chloride	Pressure, kPa	Refractive index (Na D-line)	uncertainty
298.15	.6596	101	1.4197	.00004
308.15	.6661	101	1.42044	.00004
318.15	.6718	101	1.42113	.00004

System: cesium chloride + water; phases: Liquid
Property: Mass density, kg/m3 (Liquid); method: Vibrating tube method
Temperature, K	Mass fraction of cesium chloride	Pressure, kPa	Mass density, kg/m3	uncertainty
298.15	.6596	101	1922.06	.1
308.15	.6661	101	1947.48	.1
318.15	.6718	101	1984.35	.1

System: N,N-dimethylacetamide + cesium chloride; phases: Liquid, Crystal
Property: Mass fraction of cesium chloride (Liquid); method: Titration method
Temperature, K	Pressure, kPa	Mass fraction of cesium chloride	uncertainty
298.15	101	.0006	.0022
308.15	101	.004	.0022
318.15	101	.0013	.0022

System: N,N-dimethylacetamide + cesium chloride; phases: Liquid
Property: Refractive index (Na D-line) (Liquid); method: Standard Abbe refractometry
Temperature, K	Mass fraction of cesium chloride	Pressure, kPa	Refractive index (Na D-line)	uncertainty
298.15	.0006	101	1.43663	.00004
308.15	.004	101	1.43237	.00004
318.15	.0013	101	1.42844	.00004

System: N,N-dimethylacetamide + cesium chloride; phases: Liquid
Property: Mass density, kg/m3 (Liquid); method: Vibrating tube method
Temperature, K	Mass fraction of cesium chloride	Pressure, kPa	Mass density, kg/m3	uncertainty
298.15	.0006	101	936.76	.1
308.15	.004	101	929.58	.1
318.15	.0013	101	921.07	.1
