Measured thermophysical data. Volumetric and Transport Properties of Binary Mixtures of n-Octane + Ethanol, + 1-Propanol, + 1-Butanol, and + 1-Pentanol from (293.15 to 323.15) K at Atmospheric Pressure
Source: J. Chem. Eng. Data, 2013, 10.1021/je4004806
Compound 1: n-octane, C8H18, purity 99.8%
Compound 2: ethanol, C2H6O, purity 99.9%
Compound 3: 1-propanol, C3H8O, purity 99.8%
Compound 4: 1-butanol, C4H10O, purity 99.8%
Compound 5: 1-pentanol, C5H12O, purity 99.9%

System: n-octane; phases: Liquid
Property: Mass density, kg/m3 (Liquid); method: Vibrating tube method
Temperature, K	Pressure, kPa	Mass density, kg/m3	uncertainty
293.15	101	702.54	.03
298.15	101	698.49	.03
303.15	101	694.44	.03
308.15	101	690.37	.03
313.15	101	686.29	.03
318.15	101	682.19	.03
323.15	101	678.08	.03

System: n-octane; phases: Liquid
Property: Viscosity, Pa*s (Liquid); method: Capillary tube (Ostwald; Ubbelohde) method
Temperature, K	Pressure, kPa	Viscosity, Pa*s	uncertainty
293.15	101	.000545	.000004
298.15	101	.000513	.000004
303.15	101	.000485	.000004
308.15	101	.000459	.000004
313.15	101	.000433	.000004
318.15	101	.000412	.000004
323.15	101	.000392	.000004

System: ethanol; phases: Liquid
Property: Mass density, kg/m3 (Liquid); method: Vibrating tube method
Temperature, K	Pressure, kPa	Mass density, kg/m3	uncertainty
293.15	101	790.91	.03
298.15	101	786.6	.03
303.15	101	782.28	.03
308.15	101	777.94	.03
313.15	101	773.56	.03
318.15	101	769.15	.03
323.15	101	764.69	.03

System: 1-propanol; phases: Liquid
Property: Mass density, kg/m3 (Liquid); method: Vibrating tube method
Temperature, K	Pressure, kPa	Mass density, kg/m3	uncertainty
293.15	101	803.84	.03
298.15	101	799.85	.03
303.15	101	795.81	.03
308.15	101	791.74	.03
313.15	101	787.64	.03
318.15	101	783.55	.03
323.15	101	779.32	.03

System: 1-propanol; phases: Liquid
Property: Viscosity, Pa*s (Liquid); method: Capillary tube (Ostwald; Ubbelohde) method
Temperature, K	Pressure, kPa	Viscosity, Pa*s	uncertainty
293.15	101	.00221	.000004
298.15	101	.001962	.000004
303.15	101	.001746	.000004
308.15	101	.001556	.000004
313.15	101	.001386	.000004
318.15	101	.001242	.000004
323.15	101	.001115	.000004

System: 1-butanol; phases: Liquid
Property: Mass density, kg/m3 (Liquid); method: Vibrating tube method
Temperature, K	Pressure, kPa	Mass density, kg/m3	uncertainty
293.15	101	809.53	.03
298.15	101	805.7	.03
303.15	101	801.86	.03
308.15	101	797.99	.03
313.15	101	794.1	.03
318.15	101	790.18	.03
323.15	101	786.21	.03

System: 1-butanol; phases: Liquid
Property: Viscosity, Pa*s (Liquid); method: Capillary tube (Ostwald; Ubbelohde) method
Temperature, K	Pressure, kPa	Viscosity, Pa*s	uncertainty
293.15	101	.002968	.000004
298.15	101	.002602	.000004
303.15	101	.002292	.000004
308.15	101	.002025	.000004
313.15	101	.001796	.000004
318.15	101	.00159	.000004
323.15	101	.001414	.000004

System: 1-pentanol; phases: Liquid
Property: Mass density, kg/m3 (Liquid); method: Vibrating tube method
Temperature, K	Pressure, kPa	Mass density, kg/m3	uncertainty
293.15	101	814.59	.03
298.15	101	810.93	.03
303.15	101	807.24	.03
308.15	101	803.53	.03
313.15	101	799.79	.03
318.15	101	796.03	.03
323.15	101	792.23	.03

System: 1-pentanol; phases: Liquid
Property: Viscosity, Pa*s (Liquid); method: Capillary tube (Ostwald; Ubbelohde) method
Temperature, K	Pressure, kPa	Viscosity, Pa*s	uncertainty
293.15	101	.004042	.000004
298.15	101	.003518	.000004
303.15	101	.00306	.000004
308.15	101	.002659	.000004
313.15	101	.002334	.000004
318.15	101	.002042	.000004
323.15	101	.001805	.000004

System: ethanol + n-octane; phases: Liquid
Fixed: Pressure, kPa = 101
Property: Mass density, kg/m3 (Liquid); method: Vibrating tube method
Temperature, K	Mole fraction of n-octane	Mass density, kg/m3	uncertainty
293.15	1	702.54	.03
293.15	.9031	704.73	.03
293.15	.7931	708.31	.03
293.15	.6991	712.03	.03
293.15	.6008	716.77	.03
293.15	.4663	724.97	.03
293.15	.4008	729.83	.03
293.15	.2998	738.83	.03
293.15	.2015	750.57	.03
293.15	.1008	766.88	.03
293.15	0	790.91	.03
298.15	1	698.49	.03
298.15	.9031	700.59	.03
298.15	.7931	704.12	.03
298.15	.6991	707.81	.03
298.15	.6008	712.52	.03
298.15	.4663	720.68	.03
298.15	.4008	725.55	.03
298.15	.2998	734.53	.03
298.15	.2015	746.27	.03
298.15	.1008	762.56	.03
298.15	0	786.6	.03
303.15	1	694.44	.03
303.15	.9031	696.43	.03
303.15	.7931	699.9	.03
303.15	.6991	703.55	.03
303.15	.6008	708.23	.03
303.15	.4663	716.37	.03
303.15	.4008	721.22	.03
303.15	.2998	730.2	.03
303.15	.2015	741.94	.03
303.15	.1008	758.23	.03
303.15	0	782.28	.03
308.15	1	690.37	.03
308.15	.9031	692.24	.03
308.15	.7931	695.65	.03
308.15	.6991	699.27	.03
308.15	.6008	703.91	.03
308.15	.4663	712.02	.03
308.15	.4008	716.86	.03
308.15	.2998	725.83	.03
308.15	.2015	737.57	.03
308.15	.1008	753.87	.03
308.15	0	777.94	.03
313.15	1	686.29	.03
313.15	.9031	688.03	.03
313.15	.7931	691.37	.03
313.15	.6991	694.94	.03
313.15	.6008	699.56	.03
313.15	.4663	707.63	.03
313.15	.4008	712.46	.03
313.15	.2998	721.42	.03
313.15	.2015	733.15	.03
313.15	.1008	749.47	.03
313.15	0	773.56	.03
318.15	1	682.19	.03
318.15	.9031	683.78	.03
318.15	.7931	687.05	.03
318.15	.6991	690.58	.03
318.15	.6008	695.15	.03
318.15	.4663	703.19	.03
318.15	.4008	708	.03
318.15	.2998	716.96	.03
318.15	.2015	728.69	.03
318.15	.1008	745.03	.03
318.15	0	769.15	.03
323.15	1	678.08	.03
323.15	.9031	679.51	.03
323.15	.7931	682.7	.03
323.15	.6991	686.17	.03
323.15	.6008	690.7	.03
323.15	.4663	698.69	.03
323.15	.4008	703.5	.03
323.15	.2998	712.45	.03
323.15	.2015	724.18	.03
323.15	.1008	740.54	.03
323.15	0	764.69	.03

System: 1-propanol + n-octane; phases: Liquid
Fixed: Pressure, kPa = 101
Property: Mass density, kg/m3 (Liquid); method: Vibrating tube method
Temperature, K	Mole fraction of n-octane	Mass density, kg/m3	uncertainty
293.15	1	702.54	.03
293.15	.9	706.48	.03
293.15	.7994	711.55	.03
293.15	.6991	717.48	.03
293.15	.602	724.19	.03
293.15	.4993	732.43	.03
293.15	.3997	741.8	.03
293.15	.3	752.87	.03
293.15	.1999	766.37	.03
293.15	.0997	782.97	.03
293.15	0	803.84	.03
298.15	1	698.49	.03
298.15	.9	702.35	.03
298.15	.7994	707.39	.03
298.15	.6991	713.3	.03
298.15	.602	719.99	.03
298.15	.4993	728.24	.03
298.15	.3997	737.62	.03
298.15	.3	748.72	.03
298.15	.1999	762.25	.03
298.15	.0997	778.9	.03
298.15	0	799.85	.03
303.15	1	694.44	.03
303.15	.9	698.19	.03
303.15	.7994	703.2	.03
303.15	.6991	709.09	.03
303.15	.602	715.77	.03
303.15	.4993	724.01	.03
303.15	.3997	733.4	.03
303.15	.3	744.53	.03
303.15	.1999	758.1	.03
303.15	.0997	774.8	.03
303.15	0	795.81	.03
308.15	1	690.37	.03
308.15	.9	694.02	.03
308.15	.7994	698.98	.03
308.15	.6991	704.85	.03
308.15	.602	711.51	.03
308.15	.4993	719.75	.03
308.15	.3997	729.15	.03
308.15	.3	740.3	.03
308.15	.1999	753.91	.03
308.15	.0997	770.67	.03
308.15	0	791.74	.03
313.15	1	686.29	.03
313.15	.9	689.81	.03
313.15	.7994	694.73	.03
313.15	.6991	700.57	.03
313.15	.602	707.21	.03
313.15	.4993	715.44	.03
313.15	.3997	724.85	.03
313.15	.3	736.04	.03
313.15	.1999	749.69	.03
313.15	.0997	766.5	.03
313.15	0	787.64	.03
318.15	1	682.19	.03
318.15	.9	685.58	.03
318.15	.7994	690.45	.03
318.15	.6991	696.25	.03
318.15	.602	702.87	.03
318.15	.4993	711.09	.03
318.15	.3997	720.51	.03
318.15	.3	731.72	.03
318.15	.1999	745.41	.03
318.15	.0997	762.28	.03
318.15	0	783.55	.03
323.15	1	678.08	.03
323.15	.9	681.32	.03
323.15	.7994	686.13	.03
323.15	.6991	691.9	.03
323.15	.602	698.49	.03
323.15	.4993	706.7	.03
323.15	.3997	716.12	.03
323.15	.3	727.35	.03
323.15	.1999	741.08	.03
323.15	.0997	758.02	.03
323.15	0	779.32	.03

System: 1-propanol + n-octane; phases: Liquid
Fixed: Pressure, kPa = 101
Property: Viscosity, Pa*s (Liquid); method: Capillary tube (Ostwald; Ubbelohde) method
Temperature, K	Mole fraction of n-octane	Viscosity, Pa*s	uncertainty
293.15	1	.000545	.000004
293.15	.9	.000556	.000004
293.15	.7994	.000587	.000004
293.15	.6991	.000632	.000004
293.15	.602	.000703	.000004
293.15	.4993	.000798	.000004
293.15	.3997	.000934	.000004
293.15	.3	.001092	.000004
293.15	.1999	.001356	.000004
293.15	.0997	.001692	.000004
293.15	0	.00221	.000004
298.15	1	.000513	.000004
298.15	.9	.000523	.000004
298.15	.7994	.00055	.000004
298.15	.6991	.000589	.000004
298.15	.602	.00065	.000004
298.15	.4993	.000734	.000004
298.15	.3997	.000854	.000004
298.15	.3	.000991	.000004
298.15	.1999	.001216	.000004
298.15	.0997	.001508	.000004
298.15	0	.001962	.000004
303.15	1	.000485	.000004
303.15	.9	.000491	.000004
303.15	.7994	.000515	.000004
303.15	.6991	.00055	.000004
303.15	.602	.000603	.000004
303.15	.4993	.000675	.000004
303.15	.3997	.000777	.000004
303.15	.3	.000899	.000004
303.15	.1999	.001097	.000004
303.15	.0997	.001352	.000004
303.15	0	.001746	.000004
308.15	1	.000459	.000004
308.15	.9	.000463	.000004
308.15	.7994	.000484	.000004
308.15	.6991	.000514	.000004
308.15	.602	.00056	.000004
308.15	.4993	.000623	.000004
308.15	.3997	.000712	.000004
308.15	.3	.000817	.000004
308.15	.1999	.000992	.000004
308.15	.0997	.001211	.000004
308.15	0	.001556	.000004
313.15	1	.000433	.000004
313.15	.9	.000436	.000004
313.15	.7994	.000455	.000004
313.15	.6991	.000481	.000004
313.15	.602	.00052	.000004
313.15	.4993	.000576	.000004
313.15	.3997	.000653	.000004
313.15	.3	.000745	.000004
313.15	.1999	.000898	.000004
313.15	.0997	.00109	.000004
313.15	0	.001386	.000004
318.15	1	.000412	.000004
318.15	.9	.000412	.000004
318.15	.7994	.000427	.000004
318.15	.6991	.000451	.000004
318.15	.602	.000485	.000004
318.15	.4993	.000534	.000004
318.15	.3997	.000605	.000004
318.15	.3	.00068	.000004
318.15	.1999	.000817	.000004
318.15	.0997	.000984	.000004
318.15	0	.001242	.000004
323.15	1	.000392	.000004
323.15	.9	.000389	.000004
323.15	.7994	.000403	.000004
323.15	.6991	.000423	.000004
323.15	.602	.000452	.000004
323.15	.4993	.000496	.000004
323.15	.3997	.000554	.000004
323.15	.3	.000623	.000004
323.15	.1999	.000742	.000004
323.15	.0997	.00089	.000004
323.15	0	.001115	.000004

System: 1-butanol + n-octane; phases: Liquid
Fixed: Pressure, kPa = 101
Property: Mass density, kg/m3 (Liquid); method: Vibrating tube method
Temperature, K	Mole fraction of n-octane	Mass density, kg/m3	uncertainty
293.15	1	702.54	.03
293.15	.8991	708.11	.03
293.15	.7999	714.61	.03
293.15	.7002	721.95	.03
293.15	.6004	730.23	.03
293.15	.4995	739.67	.03
293.15	.4064	749.45	.03
293.15	.3022	761.86	.03
293.15	.1999	775.92	.03
293.15	.0967	792	.03
293.15	0	809.53	.03
298.15	1	698.49	.03
298.15	.8991	704	.03
298.15	.7999	710.5	.03
298.15	.7002	717.8	.03
298.15	.6004	726.12	.03
298.15	.4995	735.56	.03
298.15	.4064	745.37	.03
298.15	.3022	757.83	.03
298.15	.1999	771.93	.03
298.15	.0967	788.1	.03
298.15	0	805.7	.03
303.15	1	694.44	.03
303.15	.8991	699.87	.03
303.15	.7999	706.35	.03
303.15	.7002	713.65	.03
303.15	.6004	721.97	.03
303.15	.4995	731.43	.03
303.15	.4064	741.27	.03
303.15	.3022	753.77	.03
303.15	.1999	767.92	.03
303.15	.0967	784.17	.03
303.15	0	801.86	.03
308.15	1	690.37	.03
308.15	.8991	695.72	.03
308.15	.7999	702.18	.03
308.15	.7002	709.47	.03
308.15	.6004	717.79	.03
308.15	.4995	727.27	.03
308.15	.4064	737.13	.03
308.15	.3022	749.68	.03
308.15	.1999	763.9	.03
308.15	.0967	780.22	.03
308.15	0	797.99	.03
313.15	1	686.29	.03
313.15	.8991	691.54	.03
313.15	.7999	697.97	.03
313.15	.7002	705.27	.03
313.15	.6004	713.59	.03
313.15	.4995	723.07	.03
313.15	.4064	732.96	.03
313.15	.3022	745.56	.03
313.15	.1999	759.83	.03
313.15	.0967	776.24	.03
313.15	0	794.1	.03
318.15	1	682.19	.03
318.15	.8991	687.33	.03
318.15	.7999	693.72	.03
318.15	.7002	701.03	.03
318.15	.6004	709.35	.03
318.15	.4995	718.84	.03
318.15	.4064	728.75	.03
318.15	.3022	741.39	.03
318.15	.1999	755.73	.03
318.15	.0967	772.22	.03
318.15	0	790.18	.03
323.15	1	678.08	.03
323.15	.8991	683.1	.03
323.15	.7999	689.48	.03
323.15	.7002	696.75	.03
323.15	.6004	705.07	.03
323.15	.4995	714.57	.03
323.15	.4064	724.5	.03
323.15	.3022	737.18	.03
323.15	.1999	751.58	.03
323.15	.0967	768.16	.03
323.15	0	786.21	.03

System: 1-butanol + n-octane; phases: Liquid
Fixed: Pressure, kPa = 101
Property: Viscosity, Pa*s (Liquid); method: Capillary tube (Ostwald; Ubbelohde) method
Temperature, K	Mole fraction of n-octane	Viscosity, Pa*s	uncertainty
293.15	1	.000545	.000004
293.15	.8991	.000571	.000004
293.15	.7999	.000603	.000004
293.15	.7002	.000672	.000004
293.15	.6004	.000766	.000004
293.15	.4995	.000903	.000004
293.15	.4064	.001078	.000004
293.15	.3022	.001363	.000004
293.15	.1999	.001722	.000004
293.15	.0967	.002243	.000004
293.15	0	.002968	.000004
298.15	1	.000513	.000004
298.15	.8991	.000537	.000004
298.15	.7999	.000565	.000004
298.15	.7002	.000626	.000004
298.15	.6004	.000709	.000004
298.15	.4995	.000826	.000004
298.15	.4064	.000974	.000004
298.15	.3022	.001223	.000004
298.15	.1999	.001537	.000004
298.15	.0967	.001983	.000004
298.15	0	.002602	.000004
303.15	1	.000485	.000004
303.15	.8991	.000503	.000004
303.15	.7999	.000529	.000004
303.15	.7002	.000584	.000004
303.15	.6004	.000655	.000004
303.15	.4995	.000758	.000004
303.15	.4064	.000885	.000004
303.15	.3022	.001102	.000004
303.15	.1999	.001375	.000004
303.15	.0967	.001762	.000004
303.15	0	.002292	.000004
308.15	1	.000459	.000004
308.15	.8991	.000473	.000004
308.15	.7999	.000497	.000004
308.15	.7002	.000546	.000004
308.15	.6004	.000609	.000004
308.15	.4995	.000698	.000004
308.15	.4064	.000809	.000004
308.15	.3022	.000996	.000004
308.15	.1999	.001232	.000004
308.15	.0967	.001577	.000004
308.15	0	.002025	.000004
313.15	1	.000433	.000004
313.15	.8991	.000447	.000004
313.15	.7999	.000467	.000004
313.15	.7002	.000511	.000004
313.15	.6004	.000566	.000004
313.15	.4995	.000644	.000004
313.15	.4064	.00074	.000004
313.15	.3022	.000904	.000004
313.15	.1999	.00111	.000004
313.15	.0967	.0014	.000004
313.15	0	.001796	.000004
318.15	1	.000412	.000004
318.15	.8991	.00042	.000004
318.15	.7999	.00044	.000004
318.15	.7002	.000479	.000004
318.15	.6004	.000527	.000004
318.15	.4995	.000595	.000004
318.15	.4064	.000679	.000004
318.15	.3022	.000821	.000004
318.15	.1999	.001	.000004
318.15	.0967	.001258	.000004
318.15	0	.00159	.000004
323.15	1	.000392	.000004
323.15	.8991	.000397	.000004
323.15	.7999	.000415	.000004
323.15	.7002	.00045	.000004
323.15	.6004	.000493	.000004
323.15	.4995	.000552	.000004
323.15	.4064	.000625	.000004
323.15	.3022	.000751	.000004
323.15	.1999	.000907	.000004
323.15	.0967	.001134	.000004
323.15	0	.001414	.000004

System: 1-pentanol + n-octane; phases: Liquid
Fixed: Pressure, kPa = 101
Property: Mass density, kg/m3 (Liquid); method: Vibrating tube method
Temperature, K	Mole fraction of n-octane	Mass density, kg/m3	uncertainty
293.15	1	702.54	.03
293.15	.8998	709.68	.03
293.15	.7983	717.79	.03
293.15	.6976	726.7	.03
293.15	.5967	736.39	.03
293.15	.4984	746.71	.03
293.15	.4	757.91	.03
293.15	.3001	770.3	.03
293.15	.201	783.65	.03
293.15	.1004	798.43	.03
293.15	0	814.59	.03
298.15	1	698.49	.03
298.15	.8998	705.59	.03
298.15	.7983	713.72	.03
298.15	.6976	722.64	.03
298.15	.5967	732.34	.03
298.15	.4984	742.7	.03
298.15	.4	753.94	.03
298.15	.3001	766.39	.03
298.15	.201	779.81	.03
298.15	.1004	794.68	.03
298.15	0	810.93	.03
303.15	1	694.44	.03
303.15	.8998	701.48	.03
303.15	.7983	709.62	.03
303.15	.6976	718.55	.03
303.15	.5967	728.27	.03
303.15	.4984	738.67	.03
303.15	.4	749.95	.03
303.15	.3001	762.45	.03
303.15	.201	775.94	.03
303.15	.1004	790.89	.03
303.15	0	807.24	.03
308.15	1	690.37	.03
308.15	.8998	697.35	.03
308.15	.7983	705.49	.03
308.15	.6976	714.44	.03
308.15	.5967	724.18	.03
308.15	.4984	734.6	.03
308.15	.4	745.93	.03
308.15	.3001	758.49	.03
308.15	.201	772.05	.03
308.15	.1004	787.09	.03
308.15	0	803.53	.03
313.15	1	686.29	.03
313.15	.8998	693.2	.03
313.15	.7983	701.34	.03
313.15	.6976	710.3	.03
313.15	.5967	720.07	.03
313.15	.4984	730.52	.03
313.15	.4	741.88	.03
313.15	.3001	754.5	.03
313.15	.201	768.13	.03
313.15	.1004	783.26	.03
313.15	0	799.79	.03
318.15	1	682.19	.03
318.15	.8998	689.02	.03
318.15	.7983	697.16	.03
318.15	.6976	706.14	.03
318.15	.5967	715.92	.03
318.15	.4984	726.4	.03
318.15	.4	737.81	.03
318.15	.3001	750.47	.03
318.15	.201	764.17	.03
318.15	.1004	779.4	.03
318.15	0	796.03	.03
323.15	1	678.08	.03
323.15	.8998	684.81	.03
323.15	.7983	692.95	.03
323.15	.6976	701.94	.03
323.15	.5967	711.74	.03
323.15	.4984	722.24	.03
323.15	.4	733.69	.03
323.15	.3001	746.41	.03
323.15	.201	760.18	.03
323.15	.1004	775.5	.03
323.15	0	792.23	.03

System: 1-pentanol + n-octane; phases: Liquid
Fixed: Pressure, kPa = 101
Property: Viscosity, Pa*s (Liquid); method: Capillary tube (Ostwald; Ubbelohde) method
Temperature, K	Mole fraction of n-octane	Viscosity, Pa*s	uncertainty
293.15	1	.000545	.000004
293.15	.8998	.000588	.000004
293.15	.7983	.000652	.000004
293.15	.6976	.000737	.000004
293.15	.5967	.000863	.000004
293.15	.4984	.001046	.000004
293.15	.4	.001311	.000004
293.15	.3001	.001695	.000004
293.15	.201	.002237	.000004
293.15	.1004	.002938	.000004
293.15	0	.004042	.000004
298.15	1	.000513	.000004
298.15	.8998	.00055	.000004
298.15	.7983	.000605	.000004
298.15	.6976	.000685	.000004
298.15	.5967	.000796	.000004
298.15	.4984	.000953	.000004
298.15	.4	.00118	.000004
298.15	.3001	.001509	.000004
298.15	.201	.001972	.000004
298.15	.1004	.002568	.000004
298.15	0	.003518	.000004
303.15	1	.000485	.000004
303.15	.8998	.000516	.000004
303.15	.7983	.000567	.000004
303.15	.6976	.000638	.000004
303.15	.5967	.000736	.000004
303.15	.4984	.000873	.000004
303.15	.4	.001068	.000004
303.15	.3001	.001349	.000004
303.15	.201	.001747	.000004
303.15	.1004	.002254	.000004
303.15	0	.00306	.000004
308.15	1	.000459	.000004
308.15	.8998	.000486	.000004
308.15	.7983	.000532	.000004
308.15	.6976	.000596	.000004
308.15	.5967	.000682	.000004
308.15	.4984	.000802	.000004
308.15	.4	.000971	.000004
308.15	.3001	.001219	.000004
308.15	.201	.001564	.000004
308.15	.1004	.001984	.000004
308.15	0	.002659	.000004
313.15	1	.000433	.000004
313.15	.8998	.000457	.000004
313.15	.7983	.000499	.000004
313.15	.6976	.000557	.000004
313.15	.5967	.000636	.000004
313.15	.4984	.000738	.000004
313.15	.4	.000882	.000004
313.15	.3001	.00111	.000004
313.15	.201	.001393	.000004
313.15	.1004	.001755	.000004
313.15	0	.002334	.000004
318.15	1	.000412	.000004
318.15	.8998	.000431	.000004
318.15	.7983	.00047	.000004
318.15	.6976	.000521	.000004
318.15	.5967	.000589	.000004
318.15	.4984	.000681	.000004
318.15	.4	.000807	.000004
318.15	.3001	.00101	.000004
318.15	.201	.001249	.000004
318.15	.1004	.001557	.000004
318.15	0	.002042	.000004
323.15	1	.000392	.000004
323.15	.8998	.000406	.000004
323.15	.7983	.000442	.000004
323.15	.6976	.000488	.000004
323.15	.5967	.000549	.000004
323.15	.4984	.00063	.000004
323.15	.4	.00074	.000004
323.15	.3001	.000911	.000004
323.15	.201	.001117	.000004
323.15	.1004	.001389	.000004
323.15	0	.001805	.000004
