Measured thermophysical data. Vapor Liquid Equilibrium of Mixtures Containing the Following Higher Alcohols: 2-Propanol, 2-Methyl-1-propanol, and 3-Methyl-1-butanol
Source: J. Chem. Eng. Data, 2014, 10.1021/je400581e
Compound 1: 2-propanol, C3H8O, purity 99.5%
Compound 2: 2-methyl-1-propanol, C4H10O, purity 99.5%
Compound 3: 3-methyl-1-butanol, C5H12O, purity 99.9%

System: 2-propanol; phases: Liquid
Fixed: Pressure, kPa = 101.325
Property: Mass density, kg/m3 (Liquid); method: Vibrating tube method
Temperature, K	Mass density, kg/m3	uncertainty
298.15	779.36	.01

System: 2-propanol; phases: Liquid
Fixed: Pressure, kPa = 101.325
Property: Refractive index (Na D-line) (Liquid); method: Standard Abbe refractometry
Temperature, K	Refractive index (Na D-line)	uncertainty
298.15	1.374	

System: 2-propanol; phases: Liquid, Gas
Property: Vapor or sublimation pressure, kPa (Liquid); method: Ebulliometric method (Recirculating still)
Temperature, K	Vapor or sublimation pressure, kPa	uncertainty
325.2	26.21	.04
328	30.195	.04
335.73	43.655	.04
338.88	50.434	.04
343.99	63.239	.04
347.25	72.737	.04
347.86	74.654	.04
349.98	81.589	.04
352.84	91.802	.04
355.37	101.303	.04
356.56	106.516	.04

System: 2-methyl-1-propanol; phases: Liquid
Fixed: Pressure, kPa = 101.325
Property: Mass density, kg/m3 (Liquid); method: Vibrating tube method
Temperature, K	Mass density, kg/m3	uncertainty
298.15	795.35	.01

System: 2-methyl-1-propanol; phases: Liquid
Fixed: Pressure, kPa = 101.325
Property: Refractive index (Na D-line) (Liquid); method: Standard Abbe refractometry
Temperature, K	Refractive index (Na D-line)	uncertainty
298.15	1.3927	

System: 2-methyl-1-propanol; phases: Liquid, Gas
Property: Vapor or sublimation pressure, kPa (Liquid); method: Ebulliometric method (Recirculating still)
Temperature, K	Vapor or sublimation pressure, kPa	uncertainty
347.84	26.2	.04
351.07	30.189	.04
359.54	43.665	.04
362.99	50.447	.04
368.56	63.252	.04
372.09	72.733	.04
372.56	74.66	.04
375.06	81.581	.04
378.19	91.798	.04
380.73	101.321	.04
382.25	106.503	.04

System: 3-methyl-1-butanol; phases: Liquid
Fixed: Pressure, kPa = 101.325
Property: Mass density, kg/m3 (Liquid); method: Vibrating tube method
Temperature, K	Mass density, kg/m3	uncertainty
298.15	806.21	.01

System: 3-methyl-1-butanol; phases: Liquid
Fixed: Pressure, kPa = 101.325
Property: Refractive index (Na D-line) (Liquid); method: Standard Abbe refractometry
Temperature, K	Refractive index (Na D-line)	uncertainty
298.15	1.4035	

System: 3-methyl-1-butanol; phases: Liquid, Gas
Property: Vapor or sublimation pressure, kPa (Liquid); method: Ebulliometric method (Recirculating still)
Temperature, K	Vapor or sublimation pressure, kPa	uncertainty
404.71	101.3	.04
404.7	101.3	.04
395.68	74.7	.04

System: 2-methyl-1-propanol + 3-methyl-1-butanol; phases: Liquid, Gas
Property: Boiling temperature at pressure P, K (Liquid); method: Ebulliometric method (Recirculating still)
Mole fraction of 2-methyl-1-propanol	Pressure, kPa	Boiling temperature at pressure P, K	uncertainty
1	101.3	380.73	.06
.8847	101.3	382.81	.06
.7892	101.3	384.37	.06
.7146	101.3	385.84	.06
.5666	101.3	388.66	.06
.508	101.3	389.69	.06
.4355	101.3	391.58	.06
.3892	101.3	392.6	.06
.2163	101.3	396.56	.06
.1822	101.3	397.96	.06
.1404	101.3	399.22	.06
.1034	101.3	400.2	.06
.0295	101.3	403.17	.06
0	101.3	404.71	.06

System: 2-methyl-1-propanol + 3-methyl-1-butanol; phases: Gas, Liquid
Property: Mole fraction of 2-methyl-1-propanol (Gas); method: Chromatography
Mole fraction of 2-methyl-1-propanol	Pressure, kPa	Mole fraction of 2-methyl-1-propanol	uncertainty
1	101.3	1	.0009
.8847	101.3	.9378	.0009
.7892	101.3	.8952	.0009
.7146	101.3	.8477	.0009
.5666	101.3	.7488	.0009
.508	101.3	.7113	.0009
.4355	101.3	.6408	.0009
.3892	101.3	.5964	.0009
.2163	101.3	.4107	.0009
.1822	101.3	.3527	.0009
.1404	101.3	.2861	.0009
.1034	101.3	.2235	.0009
.0295	101.3	.0692	.0009
0	101.3	0	.0009

System: 2-propanol + 3-methyl-1-butanol; phases: Liquid, Gas
Property: Boiling temperature at pressure P, K (Liquid); method: Ebulliometric method (Recirculating still)
Mole fraction of 2-propanol	Pressure, kPa	Boiling temperature at pressure P, K	uncertainty
1	101.3	355.37	.06
.9131	101.3	357.12	.06
.8218	101.3	359.31	.06
.7394	101.3	361.76	.06
.5578	101.3	367.72	.06
.4497	101.3	374.15	.06
.3358	101.3	378.95	.06
.2621	101.3	382.14	.06
.2082	101.3	385.25	.06
.1275	101.3	391.25	.06
.084	101.3	395.33	.06
.0222	101.3	401.67	.06
.0095	101.3	403.71	.06
0	101.3	404.7	.06
1	74.7	347.86	.06
.95	74.7	348.86	.06
.6651	74.7	356.01	.06
.5799	74.7	358.83	.06
.4745	74.7	362.8	.06
.366	74.7	367.6	.06
.2723	74.7	372.98	.06
.1232	74.7	382.73	.06
.0825	74.7	386.72	.06
.0443	74.7	390.6	.06
.0297	74.7	392.06	.06
.0133	74.7	394.6	.06
0	74.7	395.68	.06

System: 2-propanol + 3-methyl-1-butanol; phases: Gas, Liquid
Property: Mole fraction of 2-propanol (Gas); method: Chromatography
Mole fraction of 2-propanol	Pressure, kPa	Mole fraction of 2-propanol	uncertainty
1	101.3	1	.0009
.9131	101.3	.9861	.0009
.8218	101.3	.9739	.0009
.7394	101.3	.9555	.0009
.5578	101.3	.8739	.0009
.4497	101.3	.8053	.0009
.3358	101.3	.7277	.0009
.2621	101.3	.6583	.0009
.2082	101.3	.5627	.0009
.1275	101.3	.429	.0009
.084	101.3	.3202	.0009
.0222	101.3	.1172	.0009
.0095	101.3	.0452	.0009
0	101.3	0	.0009
1	74.7	1	.0009
.95	74.7	.9911	.0009
.6651	74.7	.941	.0009
.5799	74.7	.9124	.0009
.4745	74.7	.865	.0009
.366	74.7	.7972	.0009
.2723	74.7	.7078	.0009
.1232	74.7	.434	.0009
.0825	74.7	.3329	.0009
.0443	74.7	.1997	.0009
.0297	74.7	.1433	.0009
.0133	74.7	.0574	.0009
0	74.7	0	.0009

System: 2-propanol + 2-methyl-1-propanol + 3-methyl-1-butanol; phases: Liquid, Gas
Property: Mole fraction of 2-methyl-1-propanol (Liquid); method: Chromatography
Property: Mole fraction of 2-propanol (Gas); method: Chromatography
Property: Mole fraction of 2-methyl-1-propanol (Gas); method: Chromatography
Temperature, K	Pressure, kPa	Mole fraction of 2-propanol	Mole fraction of 2-methyl-1-propanol	uncertainty	Mole fraction of 2-propanol	uncertainty	Mole fraction of 2-methyl-1-propanol	uncertainty
355.37	101.3	1	0	.0009	1	.0009	0	.0009
368.39	74.7	.1878	.5767	.0009	.4252	.0009	.5034	.0009
369.13	74.7	.1374	.6924	.0009	.3342	.0009	.6134	.0009
378.28	101.3	.1986	.3592	.0009	.444	.0009	.3643	.0009
370.22	74.7	.0824	.8264	.0009	.2094	.0009	.7626	.0009
371.91	74.7	.1816	.3688	.0009	.4733	.0009	.3624	.0009
372.56	74.7	0	1	.0009	0	.0009	1	.0009
357.99	101.3	.8052	.0986	.0009	.9309	.0009	.0471	.0009
375.2	74.7	.1823	.1768	.0009	.5142	.0009	.1949	.0009
375.54	74.7	.1016	.4325	.0009	.3061	.0009	.4886	.0009
377.52	74.7	.1575	.1414	.0009	.4819	.0009	.1698	.0009
347.86	74.7	1	0	.0009	1	.0009	0	.0009
378.16	74.7	.1589	.1216	.0009	.4756	.0009	.1504	.0009
379.48	74.7	.1402	.1071	.0009	.4523	.0009	.1382	.0009
385.56	101.3	.1039	.3332	.0009	.2784	.0009	.394	.0009
380.2	101.3	.0558	.7853	.0009	.1246	.0009	.7984	.0009
386.87	101.3	.109	.2542	.0009	.3025	.0009	.3194	.0009
391.51	101.3	.0874	.1805	.0009	.256	.0009	.2442	.0009
396.68	101.3	.0501	.0759	.0009	.1396	.0009	.1365	.0009
398.35	101.3	.0393	.0412	.0009	.114	.0009	.0655	.0009
359.86	101.3	.7101	.1445	.0009	.895	.0009	.073	.0009
398.96	101.3	.0503	.0564	.0009	.1135	.0009	.0867	.0009
349.01	74.7	.9434	.031	.0009	.9889	.0009	.0091	.0009
404.7	101.3	0	0	.0009	0	.0009	0	.0009
381.71	74.7	.1177	.0861	.0009	.4125	.0009	.1202	.0009
386.05	74.7	.0702	.0506	.0009	.3014	.0009	.0855	.0009
387.07	74.7	.0603	.0444	.0009	.269	.0009	.0778	.0009
380.34	101.3	.0365	.9151	.0009	.0429	.0009	.9317	.0009
387.99	74.7	.0534	.0392	.0009	.247	.0009	.072	.0009
389.07	74.7	.0422	.0316	.0009	.2114	.0009	.062	.0009
390.31	74.7	.0335	.0246	.0009	.1797	.0009	.0514	.0009
395.68	74.7	0	0	.0009	0	.0009	0	.0009
361.56	101.3	.6331	.1857	.0009	.8564	.0009	.1026	.0009
356.22	101.3	.8951	.0571	.0009	.9574	.0009	.0272	.0009
363.77	101.3	.5431	.2204	.0009	.8134	.0009	.1308	.0009
367.52	101.3	.436	.2677	.0009	.7251	.0009	.19	.0009
371.26	101.3	.3432	.3053	.0009	.6334	.0009	.2485	.0009
374.55	101.3	.2738	.3321	.0009	.5499	.0009	.2995	.0009
380.39	101.3	.0436	.8617	.0009	.0814	.0009	.8674	.0009
380.73	101.3	0	1	.0009	0	.0009	1	.0009
382.93	101.3	.0602	.6237	.0009	.1435	.0009	.7035	.0009
384.19	101.3	.0711	.5157	.0009	.1822	.0009	.599	.0009
385	101.3	.0835	.4254	.0009	.2215	.0009	.5046	.0009
350.15	74.7	.8838	.0618	.0009	.9765	.0009	.0191	.0009
353.25	74.7	.7356	.1396	.0009	.9299	.0009	.0565	.0009
355.31	74.7	.65	.1847	.0009	.8913	.0009	.0866	.0009
366.96	74.7	.2867	.3519	.0009	.6112	.0009	.2845	.0009
367.63	74.7	.2332	.4767	.0009	.5105	.0009	.4007	.0009
