Measured thermophysical data. Thermal Behavior of Potassium C1-C12 n-Alkanoates and Its Relevance to Fischer Tropsch
Source: J. Chem. Eng. Data, 2014, 10.1021/je400874d
Compound 1: potassium formate, CHKO2, purity 99%
Compound 2: potassium acetate, C2H3KO2, purity 99.7%
Compound 3: potassium propanoate, C3H5KO2, purity 99.5%
Compound 4: potassium butanoate, C4H7KO2, purity 99%
Compound 5: potassium pentanoate, C5H9KO2, purity 99%
Compound 6: potassium hexanoate, C6H11KO2, purity 99%
Compound 7: potassium heptanoate, C7H13KO2, purity 97%
Compound 8: potassium octanoate, C8H15KO2, purity 99%
Compound 9: potassium nonanoate, C9H17KO2, purity 97%
Compound 10: potassium decanoate, C10H19KO2, purity 96%
Compound 11: potassium undecanoate, C11H21KO2, purity 99%
Compound 12: potassium dodecanoate, C12H23KO2, purity 99%

System: potassium formate; phases: Crystal 1, Liquid, Air at 1 atmosphere
Property: Normal melting temperature, K (Crystal 1); method: DSC/DTA
Normal melting temperature, K	uncertainty
442.2	

System: potassium formate; phases: Crystal 2, Crystal 1, Air at 1 atmosphere
Property: Triple point temperature, K (Crystal 2); method: DSC/DTA
Triple point temperature, K	uncertainty
415.8	

System: potassium formate; phases: Crystal 1, Liquid, Air at 1 atmosphere
Property: Molar enthalpy of transition or fusion, kJ/mol (Crystal 1); method: DSC/DTA
Molar enthalpy of transition or fusion, kJ/mol	uncertainty
11.69208786	

System: potassium formate; phases: Crystal 2, Crystal 1, Air at 1 atmosphere
Property: Molar enthalpy of transition or fusion, kJ/mol (Crystal 2); method: DSC/DTA
Molar enthalpy of transition or fusion, kJ/mol	uncertainty
.571987032	

System: potassium acetate; phases: Crystal 1, Liquid, Air at 1 atmosphere
Property: Normal melting temperature, K (Crystal 1); method: DSC/DTA
Normal melting temperature, K	uncertainty
578.6	

System: potassium acetate; phases: Crystal 2, Crystal 1, Air at 1 atmosphere
Property: Triple point temperature, K (Crystal 2); method: DSC/DTA
Triple point temperature, K	uncertainty
425	

System: potassium acetate; phases: Crystal 3, Crystal 2, Air at 1 atmosphere
Property: Triple point temperature, K (Crystal 3); method: DSC/DTA
Triple point temperature, K	uncertainty
331.8	

System: potassium acetate; phases: Crystal 1, Liquid, Air at 1 atmosphere
Property: Molar enthalpy of transition or fusion, kJ/mol (Crystal 1); method: DSC/DTA
Molar enthalpy of transition or fusion, kJ/mol	uncertainty
16.38976744	

System: potassium acetate; phases: Crystal 2, Crystal 1, Air at 1 atmosphere
Property: Molar enthalpy of transition or fusion, kJ/mol (Crystal 2); method: DSC/DTA
Molar enthalpy of transition or fusion, kJ/mol	uncertainty
.29442696	

System: potassium acetate; phases: Crystal 3, Crystal 2, Air at 1 atmosphere
Property: Molar enthalpy of transition or fusion, kJ/mol (Crystal 3); method: DSC/DTA
Molar enthalpy of transition or fusion, kJ/mol	uncertainty
.068699624	

System: potassium propanoate; phases: Crystal 1, Liquid, Air at 1 atmosphere
Property: Normal melting temperature, K (Crystal 1); method: DSC/DTA
Normal melting temperature, K	uncertainty
636.9	

System: potassium propanoate; phases: Crystal 2, Crystal 1, Air at 1 atmosphere
Property: Triple point temperature, K (Crystal 2); method: DSC/DTA
Triple point temperature, K	uncertainty
352.1	

System: potassium propanoate; phases: Crystal 1, Liquid, Air at 1 atmosphere
Property: Molar enthalpy of transition or fusion, kJ/mol (Crystal 1); method: DSC/DTA
Molar enthalpy of transition or fusion, kJ/mol	uncertainty
20.4147398	

System: potassium propanoate; phases: Crystal 2, Crystal 1, Air at 1 atmosphere
Property: Molar enthalpy of transition or fusion, kJ/mol (Crystal 2); method: DSC/DTA
Molar enthalpy of transition or fusion, kJ/mol	uncertainty
1.7947024	

System: potassium butanoate; phases: Crystal 1, Liquid, Air at 1 atmosphere
Property: Normal melting temperature, K (Crystal 1); method: DSC/DTA
Normal melting temperature, K	uncertainty
667	

System: potassium butanoate; phases: Crystal 2, Crystal 1, Air at 1 atmosphere
Property: Triple point temperature, K (Crystal 2); method: DSC/DTA
Triple point temperature, K	uncertainty
623.1	

System: potassium butanoate; phases: Crystal 3, Crystal 2, Air at 1 atmosphere
Property: Triple point temperature, K (Crystal 3); method: DSC/DTA
Triple point temperature, K	uncertainty
550	

System: potassium butanoate; phases: Crystal 4, Crystal 3, Air at 1 atmosphere
Property: Triple point temperature, K (Crystal 4); method: DSC/DTA
Triple point temperature, K	uncertainty
454.7	

System: potassium butanoate; phases: Crystal 1, Liquid, Air at 1 atmosphere
Property: Molar enthalpy of transition or fusion, kJ/mol (Crystal 1); method: DSC/DTA
Molar enthalpy of transition or fusion, kJ/mol	uncertainty
4.92162372	

System: potassium butanoate; phases: Crystal 2, Crystal 1, Air at 1 atmosphere
Property: Molar enthalpy of transition or fusion, kJ/mol (Crystal 2); method: DSC/DTA
Molar enthalpy of transition or fusion, kJ/mol	uncertainty
10.7266158	

System: potassium butanoate; phases: Crystal 3, Crystal 2, Air at 1 atmosphere
Property: Molar enthalpy of transition or fusion, kJ/mol (Crystal 3); method: DSC/DTA
Molar enthalpy of transition or fusion, kJ/mol	uncertainty
3.40727796	

System: potassium butanoate; phases: Crystal 4, Crystal 3, Air at 1 atmosphere
Property: Molar enthalpy of transition or fusion, kJ/mol (Crystal 4); method: DSC/DTA
Molar enthalpy of transition or fusion, kJ/mol	uncertainty
.69407514	

System: potassium pentanoate; phases: Crystal 1, Liquid, Air at 1 atmosphere
Property: Normal melting temperature, K (Crystal 1); method: DSC/DTA
Normal melting temperature, K	uncertainty
716.7	.34

System: potassium pentanoate; phases: Crystal 2, Crystal 1, Air at 1 atmosphere
Property: Triple point temperature, K (Crystal 2); method: DSC/DTA
Triple point temperature, K	uncertainty
585.4	

System: potassium pentanoate; phases: Crystal 3, Crystal 2, Air at 1 atmosphere
Property: Triple point temperature, K (Crystal 3); method: DSC/DTA
Triple point temperature, K	uncertainty
397.6	

System: potassium pentanoate; phases: Crystal 1, Liquid, Air at 1 atmosphere
Property: Molar enthalpy of transition or fusion, kJ/mol (Crystal 1); method: DSC/DTA
Molar enthalpy of transition or fusion, kJ/mol	uncertainty
4.76755004	

System: potassium pentanoate; phases: Crystal 2, Crystal 1, Air at 1 atmosphere
Property: Molar enthalpy of transition or fusion, kJ/mol (Crystal 2); method: DSC/DTA
Molar enthalpy of transition or fusion, kJ/mol	uncertainty
17.38753544	

System: potassium pentanoate; phases: Crystal 3, Crystal 2, Air at 1 atmosphere
Property: Molar enthalpy of transition or fusion, kJ/mol (Crystal 3); method: DSC/DTA
Molar enthalpy of transition or fusion, kJ/mol	uncertainty
.392621768	

System: potassium hexanoate; phases: Crystal 2, Crystal 1, Air at 1 atmosphere
Property: Triple point temperature, K (Crystal 2); method: DSC/DTA
Triple point temperature, K	uncertainty
582.4	

System: potassium hexanoate; phases: Crystal 1, Liquid, Air at 1 atmosphere
Property: Molar enthalpy of transition or fusion, kJ/mol (Crystal 1); method: DSC/DTA
Molar enthalpy of transition or fusion, kJ/mol	uncertainty
3.856216	

System: potassium hexanoate; phases: Crystal 2, Crystal 1, Air at 1 atmosphere
Property: Molar enthalpy of transition or fusion, kJ/mol (Crystal 2); method: DSC/DTA
Molar enthalpy of transition or fusion, kJ/mol	uncertainty
16.65885312	

System: potassium hexanoate; phases: Crystal 1, Liquid, Air at 1 atmosphere
Property: Normal melting temperature, K (Crystal 1); method: DSC/DTA
Normal melting temperature, K	uncertainty
723.6	.34

System: potassium heptanoate; phases: Crystal 1, Liquid, Air at 1 atmosphere
Property: Normal melting temperature, K (Crystal 1); method: DSC/DTA
Normal melting temperature, K	uncertainty
722	.34

System: potassium heptanoate; phases: Crystal 2, Crystal 1, Air at 1 atmosphere
Property: Triple point temperature, K (Crystal 2); method: DSC/DTA
Triple point temperature, K	uncertainty
571	

System: potassium heptanoate; phases: Crystal 3, Crystal 2, Air at 1 atmosphere
Property: Triple point temperature, K (Crystal 3); method: DSC/DTA
Triple point temperature, K	uncertainty
333.7	

System: potassium heptanoate; phases: Crystal 1, Liquid, Air at 1 atmosphere
Property: Molar enthalpy of transition or fusion, kJ/mol (Crystal 1); method: DSC/DTA
Molar enthalpy of transition or fusion, kJ/mol	uncertainty
3.3655044	

System: potassium heptanoate; phases: Crystal 2, Crystal 1, Air at 1 atmosphere
Property: Molar enthalpy of transition or fusion, kJ/mol (Crystal 2); method: DSC/DTA
Molar enthalpy of transition or fusion, kJ/mol	uncertainty
17.6688981	

System: potassium heptanoate; phases: Crystal 3, Crystal 2, Air at 1 atmosphere
Property: Molar enthalpy of transition or fusion, kJ/mol (Crystal 3); method: DSC/DTA
Molar enthalpy of transition or fusion, kJ/mol	uncertainty
13.12546716	

System: potassium octanoate; phases: Crystal 1, Liquid, Air at 1 atmosphere
Property: Normal melting temperature, K (Crystal 1); method: DSC/DTA
Normal melting temperature, K	uncertainty
708.6	.34

System: potassium octanoate; phases: Crystal 2, Crystal 1, Air at 1 atmosphere
Property: Triple point temperature, K (Crystal 2); method: DSC/DTA
Triple point temperature, K	uncertainty
562.8	

System: potassium octanoate; phases: Crystal 3, Crystal 2, Air at 1 atmosphere
Property: Triple point temperature, K (Crystal 3); method: DSC/DTA
Triple point temperature, K	uncertainty
327.8	

System: potassium octanoate; phases: Crystal 1, Liquid, Air at 1 atmosphere
Property: Molar enthalpy of transition or fusion, kJ/mol (Crystal 1); method: DSC/DTA
Molar enthalpy of transition or fusion, kJ/mol	uncertainty
2.1876216	

System: potassium octanoate; phases: Crystal 2, Crystal 1, Air at 1 atmosphere
Property: Molar enthalpy of transition or fusion, kJ/mol (Crystal 2); method: DSC/DTA
Molar enthalpy of transition or fusion, kJ/mol	uncertainty
16.7717656	

System: potassium octanoate; phases: Crystal 3, Crystal 2, Air at 1 atmosphere
Property: Molar enthalpy of transition or fusion, kJ/mol (Crystal 3); method: DSC/DTA
Molar enthalpy of transition or fusion, kJ/mol	uncertainty
10.026599	

System: potassium nonanoate; phases: Crystal 1, Liquid, Air at 1 atmosphere
Property: Normal melting temperature, K (Crystal 1); method: DSC/DTA
Normal melting temperature, K	uncertainty
704.5	.34

System: potassium nonanoate; phases: Crystal 2, Crystal 1, Air at 1 atmosphere
Property: Triple point temperature, K (Crystal 2); method: DSC/DTA
Triple point temperature, K	uncertainty
544.9	

System: potassium nonanoate; phases: Crystal 3, Crystal 2, Air at 1 atmosphere
Property: Triple point temperature, K (Crystal 3); method: DSC/DTA
Triple point temperature, K	uncertainty
367.6	

System: potassium nonanoate; phases: Crystal 1, Liquid, Air at 1 atmosphere
Property: Molar enthalpy of transition or fusion, kJ/mol (Crystal 1); method: DSC/DTA
Molar enthalpy of transition or fusion, kJ/mol	uncertainty
1.9632838	

System: potassium nonanoate; phases: Crystal 2, Crystal 1, Air at 1 atmosphere
Property: Molar enthalpy of transition or fusion, kJ/mol (Crystal 2); method: DSC/DTA
Molar enthalpy of transition or fusion, kJ/mol	uncertainty
14.52830012	

System: potassium nonanoate; phases: Crystal 3, Crystal 2, Air at 1 atmosphere
Property: Molar enthalpy of transition or fusion, kJ/mol (Crystal 3); method: DSC/DTA
Molar enthalpy of transition or fusion, kJ/mol	uncertainty
15.7062704	

System: potassium decanoate; phases: Crystal 1, Liquid, Air at 1 atmosphere
Property: Normal melting temperature, K (Crystal 1); method: DSC/DTA
Normal melting temperature, K	uncertainty
691.5	

System: potassium decanoate; phases: Crystal 2, Crystal 1, Air at 1 atmosphere
Property: Triple point temperature, K (Crystal 2); method: DSC/DTA
Triple point temperature, K	uncertainty
546.5	

System: potassium decanoate; phases: Crystal 3, Crystal 2, Air at 1 atmosphere
Property: Triple point temperature, K (Crystal 3); method: DSC/DTA
Triple point temperature, K	uncertainty
528	

System: potassium decanoate; phases: Crystal 4, Crystal 3, Air at 1 atmosphere
Property: Triple point temperature, K (Crystal 4); method: DSC/DTA
Triple point temperature, K	uncertainty
383	

System: potassium decanoate; phases: Crystal 5, Crystal 4, Air at 1 atmosphere
Property: Triple point temperature, K (Crystal 5); method: DSC/DTA
Triple point temperature, K	uncertainty
346.3	

System: potassium decanoate; phases: Crystal 1, Liquid, Air at 1 atmosphere
Property: Molar enthalpy of transition or fusion, kJ/mol (Crystal 1); method: DSC/DTA
Molar enthalpy of transition or fusion, kJ/mol	uncertainty
1.68283968	

System: potassium decanoate; phases: Crystal 2, Crystal 1, Air at 1 atmosphere
Property: Molar enthalpy of transition or fusion, kJ/mol (Crystal 2); method: DSC/DTA
Molar enthalpy of transition or fusion, kJ/mol	uncertainty
0	

System: potassium decanoate; phases: Crystal 3, Crystal 2, Air at 1 atmosphere
Property: Molar enthalpy of transition or fusion, kJ/mol (Crystal 3); method: DSC/DTA
Molar enthalpy of transition or fusion, kJ/mol	uncertainty
0	

System: potassium decanoate; phases: Crystal 4, Crystal 3, Air at 1 atmosphere
Property: Molar enthalpy of transition or fusion, kJ/mol (Crystal 4); method: DSC/DTA
Molar enthalpy of transition or fusion, kJ/mol	uncertainty
3.57603432	

System: potassium decanoate; phases: Crystal 5, Crystal 4, Air at 1 atmosphere
Property: Molar enthalpy of transition or fusion, kJ/mol (Crystal 5); method: DSC/DTA
Molar enthalpy of transition or fusion, kJ/mol	uncertainty
5.67958392	

System: potassium undecanoate; phases: Crystal 1, Liquid, Air at 1 atmosphere
Property: Normal melting temperature, K (Crystal 1); method: DSC/DTA
Normal melting temperature, K	uncertainty
680.8	

System: potassium undecanoate; phases: Crystal 2, Crystal 1, Air at 1 atmosphere
Property: Triple point temperature, K (Crystal 2); method: DSC/DTA
Triple point temperature, K	uncertainty
542.5	

System: potassium undecanoate; phases: Crystal 3, Crystal 2, Air at 1 atmosphere
Property: Triple point temperature, K (Crystal 3); method: DSC/DTA
Triple point temperature, K	uncertainty
410	

System: potassium undecanoate; phases: Crystal 4, Crystal 3, Air at 1 atmosphere
Property: Triple point temperature, K (Crystal 4); method: DSC/DTA
Triple point temperature, K	uncertainty
354.6	

System: potassium undecanoate; phases: Crystal 1, Liquid, Air at 1 atmosphere
Property: Molar enthalpy of transition or fusion, kJ/mol (Crystal 1); method: DSC/DTA
Molar enthalpy of transition or fusion, kJ/mol	uncertainty
1.57067078	

System: potassium undecanoate; phases: Crystal 2, Crystal 1, Air at 1 atmosphere
Property: Molar enthalpy of transition or fusion, kJ/mol (Crystal 2); method: DSC/DTA
Molar enthalpy of transition or fusion, kJ/mol	uncertainty
12.11660316	

System: potassium undecanoate; phases: Crystal 3, Crystal 2, Air at 1 atmosphere
Property: Molar enthalpy of transition or fusion, kJ/mol (Crystal 3); method: DSC/DTA
Molar enthalpy of transition or fusion, kJ/mol	uncertainty
8.9752616	

System: potassium undecanoate; phases: Crystal 4, Crystal 3, Air at 1 atmosphere
Property: Molar enthalpy of transition or fusion, kJ/mol (Crystal 4); method: DSC/DTA
Molar enthalpy of transition or fusion, kJ/mol	uncertainty
12.3409847	

System: potassium dodecanoate; phases: Crystal 1, Liquid, Air at 1 atmosphere
Property: Normal melting temperature, K (Crystal 1); method: DSC/DTA
Normal melting temperature, K	uncertainty
672	

System: potassium dodecanoate; phases: Crystal 2, Crystal 1, Air at 1 atmosphere
Property: Triple point temperature, K (Crystal 2); method: DSC/DTA
Triple point temperature, K	uncertainty
543.4	

System: potassium dodecanoate; phases: Crystal 3, Crystal 2, Air at 1 atmosphere
Property: Triple point temperature, K (Crystal 3); method: DSC/DTA
Triple point temperature, K	uncertainty
489	

System: potassium dodecanoate; phases: Crystal 4, Crystal 3, Air at 1 atmosphere
Property: Triple point temperature, K (Crystal 4); method: DSC/DTA
Triple point temperature, K	uncertainty
405.5	

System: potassium dodecanoate; phases: Crystal 5, Crystal 4, Air at 1 atmosphere
Property: Triple point temperature, K (Crystal 5); method: DSC/DTA
Triple point temperature, K	uncertainty
328.1	

System: potassium dodecanoate; phases: Crystal 1, Liquid, Air at 1 atmosphere
Property: Molar enthalpy of transition or fusion, kJ/mol (Crystal 1); method: DSC/DTA
Molar enthalpy of transition or fusion, kJ/mol	uncertainty
1.43044872	

System: potassium dodecanoate; phases: Crystal 2, Crystal 1, Air at 1 atmosphere
Property: Molar enthalpy of transition or fusion, kJ/mol (Crystal 2); method: DSC/DTA
Molar enthalpy of transition or fusion, kJ/mol	uncertainty
11.68199788	

System: potassium dodecanoate; phases: Crystal 3, Crystal 2, Air at 1 atmosphere
Property: Molar enthalpy of transition or fusion, kJ/mol (Crystal 3); method: DSC/DTA
Molar enthalpy of transition or fusion, kJ/mol	uncertainty
5.48338676	

System: potassium dodecanoate; phases: Crystal 4, Crystal 3, Air at 1 atmosphere
Property: Molar enthalpy of transition or fusion, kJ/mol (Crystal 4); method: DSC/DTA
Molar enthalpy of transition or fusion, kJ/mol	uncertainty
9.5363248	

System: potassium dodecanoate; phases: Crystal 5, Crystal 4, Air at 1 atmosphere
Property: Molar enthalpy of transition or fusion, kJ/mol (Crystal 5); method: DSC/DTA
Molar enthalpy of transition or fusion, kJ/mol	uncertainty
12.39722224	
