Measured thermophysical data. Thermophysical Properties of the Liquid Ga-In-Sn Eutectic Alloy
Source: J. Chem. Eng. Data, 2014, 10.1021/je400882q
Compound 1: gallium, Ga, purity 99.999%
Compound 2: indium, In, purity 99.999%
Compound 3: tin, Sn, purity 99.999%

System: tin + gallium + indium; phases: Liquid
Fixed: Pressure, kPa = 101
Fixed: Mole fraction of gallium = .772
Fixed: Mole fraction of indium = .144
Property: Thermal conductivity, W/m/K (Liquid); method: Coaxial cylinder method
Temperature, K	Thermal conductivity, W/m/K	uncertainty
292	23.9	2.3
299	24.4	2.3
305	24.7	2.3
312	25.1	2.3
319	25.5	2.3
325	25.9	2.3
335	26.4	2.3
350	27.3	2.3
363	27.9	2.3
370	28.2	2.3
384	29.4	2.3
401	29.8	2.3
416	30.7	2.3
424	31.1	2.3
431	31.4	2.3
439	32	2.3
450	32.2	2.3
460	32.4	2.3
468	33.5	2.3
479	33.6	2.3
488	34.1	2.3
499	34.4	2.3
508	34.9	2.3
517	35.2	2.3
527	35.5	2.3
537	35.9	2.3
549	36.2	2.3
558	36.5	2.3
568	36.8	2.3
577	37.2	2.3
588	37.5	2.3
598	38	2.3

System: tin + gallium + indium; phases: Liquid
Fixed: Pressure, kPa = 101
Fixed: Mole fraction of gallium = .772
Fixed: Mole fraction of indium = .144
Property: Electrical conductivity, S/m (Liquid); method: contact method
Temperature, K	Electrical conductivity, S/m	uncertainty
291	3300000	30000
293	3290000	30000
296	3270000	30000
300	3260000	30000
303	3240000	30000
304	3230000	30000
306	3220000	30000
310	3190000	30000
312	3180000	30000
314	3170000	30000
316	3150000	30000
321	3120000	30000
333	3100000	30000
352	2940000	30000
373	2880000	30000
393	2820000	30000
414	2720000	30000
433	2670000	30000
454	2610000	30000
473	2560000	30000
494	2480000	30000
513	2450000	30000
533	2410000	30000
553	2330000	30000
573	2300000	30000
593	2220000	30000
613	2190000	30000
631	2150000	30000
653	2120000	30000
673	2100000	30000
693	2070000	30000
723	2020000	30000

System: tin + gallium + indium; phases: Liquid
Fixed: Pressure, kPa = 101
Fixed: Mole fraction of gallium = .772
Fixed: Mole fraction of indium = .144
Property: Viscosity, Pa*s (Liquid); method: Oscillating disk viscometry
Temperature, K	Viscosity, Pa*s	uncertainty
299	.00209	.00005
307	.00203	.00005
313	.00198	.00005
324	.00185	.00005
339	.00176	.00005
354	.00163	.00005
369	.00155	.00005
386	.00144	.00005
404	.00136	.00005
424	.0013	.00005
443	.00124	.00005
464	.00117	.00005
487	.00115	.00005
509	.0011	.00005
533	.00107	.00005
555	.00104	.00005
577	.001	.00005
598	.00095	.00005

System: tin + gallium + indium; phases: Liquid, Air at 1 atmosphere
Fixed: Mole fraction of gallium = .772
Fixed: Mole fraction of indium = .144
Property: Surface tension liquid-gas, N/m (Liquid); method: Drop volume
Temperature, K	Surface tension liquid-gas, N/m	uncertainty
306	.585	.017
346	.588	.017
361	.579	.017
385	.59	.017
415	.583	.017
452	.591	.017
485	.592	.017
520	.588	.017
552	.577	.017
573	.581	.017

System: tin + gallium + indium; phases: Liquid
Fixed: Pressure, kPa = 101
Fixed: Mole fraction of gallium = .772
Fixed: Mole fraction of indium = .144
Property: Mass density, kg/m3 (Liquid); method: Pycnometric method
Temperature, K	Mass density, kg/m3	uncertainty
293	6360	90
299	6330	90
313	6310	90
324	6340	90
333	6310	90
344	6340	90
363	6300	90
373	6320	90
383	6290	90
393	6230	90
414	6290	90
424	6250	90
433	6220	90
444	6240	90
454	6250	90
473	6200	90
484	6180	90
493	6200	90
