Measured thermophysical data. Measurement and Correlation of Solubilities of Indole-2-carboxylic Acid in Ten Different Pure Solvents from (278.15 to 360.15) K
Source: J. Chem. Eng. Data, 2013, 10.1021/je400813d
Compound 1: indole-2-carboxylic acid, C9H7NO2
Compound 2: water, H2O, purity 99.9%
Compound 3: methanol, CH4O, purity 99.5%
Compound 4: ethanol, C2H6O, purity 99.5%
Compound 5: 1-propanol, C3H8O, purity 99.5%
Compound 6: 2-propanol, C3H8O, purity 99.5%
Compound 7: 1-butanol, C4H10O, purity 99.5%
Compound 8: ethyl acetate, C4H8O2, purity 99.5%
Compound 9: 1,4-dioxane, C4H8O2, purity 99.5%
Compound 10: dichloromethane, CH2Cl2, purity 99.5%
Compound 11: toluene, C7H8, purity 99.5%

System: indole-2-carboxylic acid + water; phases: Liquid, Crystal
Fixed: Pressure, kPa = 101
Property: Mole fraction of indole-2-carboxylic acid (Liquid); method: Laser detection
Temperature, K	Mole fraction of indole-2-carboxylic acid	uncertainty
293.15	.0000679	.000004753
298.15	.0000688	.000004816
303.15	.0000703	.000004921
308.05	.0000717	.000005019
312.65	.0000788	.000005516
318.15	.0000936	.000006552
323.15	.0001153	.000008071
328.15	.0001487	.000010409
333.15	.0002001	.000014007
338.15	.0002805	.000019635
343.15	.0004085	.000028595
348.15	.0006163	.000043141
353.15	.0009617	.000067319
358.15	.0015485	.000108395

System: methanol + indole-2-carboxylic acid; phases: Liquid, Crystal
Fixed: Pressure, kPa = 101
Property: Mole fraction of indole-2-carboxylic acid (Liquid); method: Laser detection
Temperature, K	Mole fraction of indole-2-carboxylic acid	uncertainty
278.15	.06791	.0047537
283.35	.06954	.0048678
288.95	.07232	.0050624
293.25	.0752	.005264
298.15	.08556	.0059892
303.35	.09249	.0064743
307.85	.10247	.0071729
312.95	.11848	.0082936
317.75	.13514	.0094598
323.15	.15912	.0111384
328.25	.18873	.0132111
333.15	.22962	.0160734

System: ethanol + indole-2-carboxylic acid; phases: Liquid, Crystal
Fixed: Pressure, kPa = 101
Property: Mole fraction of indole-2-carboxylic acid (Liquid); method: Laser detection
Temperature, K	Mole fraction of indole-2-carboxylic acid	uncertainty
278.15	.05694	.0039858
283.15	.06199	.0043393
287.95	.06661	.0046627
292.75	.07011	.0049077
297.95	.07799	.0054593
303.05	.08156	.0057092
308.35	.08809	.0061663
313.25	.09744	.0068208
318.65	.10224	.0071568
324.95	.11633	.0081431
329.85	.11975	.0083825
336.25	.13495	.0094465
342.75	.14766	.0103362
348.25	.15445	.0108115
353.15	.16517	.0115619

System: 1-propanol + indole-2-carboxylic acid; phases: Liquid, Crystal
Fixed: Pressure, kPa = 101
Property: Mole fraction of indole-2-carboxylic acid (Liquid); method: Laser detection
Temperature, K	Mole fraction of indole-2-carboxylic acid	uncertainty
278.25	.04374	.0030618
285.45	.05213	.0036491
291.35	.05879	.0041153
298.15	.06802	.0047614
305.75	.08006	.0056042
311.25	.08802	.0061614
317.75	.09929	.0069503
322.15	.1048	.007336
328.05	.11483	.0080381
333.55	.12751	.0089257
339.15	.13794	.0096558
344.85	.15092	.0105644
349.75	.1616	.011312
353.15	.17621	.0123347
358.15	.17963	.0125741

System: 2-propanol + indole-2-carboxylic acid; phases: Liquid, Crystal
Fixed: Pressure, kPa = 101
Property: Mole fraction of indole-2-carboxylic acid (Liquid); method: Laser detection
Temperature, K	Mole fraction of indole-2-carboxylic acid	uncertainty
278.35	.04118	.0028826
285.15	.05251	.0036757
291.05	.06057	.0042399
298.15	.07014	.0049098
305.55	.08554	.0059878
310.15	.09485	.0066395
315.75	.1079	.007553
321.35	.11857	.0082999
328.65	.13118	.0091826
333.35	.14896	.0104272
338.75	.16058	.0112406
342.25	.17133	.0119931
348.15	.1905	.013335
353.25	.20088	.0140616
358.15	.21883	.0153181

System: 1-butanol + indole-2-carboxylic acid; phases: Liquid, Crystal
Fixed: Pressure, kPa = 101
Property: Mole fraction of indole-2-carboxylic acid (Liquid); method: Laser detection
Temperature, K	Mole fraction of indole-2-carboxylic acid	uncertainty
278.15	.04783	.0033481
285.35	.05382	.0037674
291.05	.06055	.0042385
298.55	.06865	.0048055
305.25	.07581	.0053067
310.75	.08316	.0058212
315.15	.09086	.0063602
321.75	.1014	.007098
328.35	.112	.00784
333.95	.12473	.0087311
338.15	.14014	.0098098
342.45	.14253	.0099771
348.25	.15983	.0111881
353.45	.17375	.0121625
358.15	.19011	.0133077

System: ethyl acetate + indole-2-carboxylic acid; phases: Liquid, Crystal
Fixed: Pressure, kPa = 101
Property: Mole fraction of indole-2-carboxylic acid (Liquid); method: Laser detection
Temperature, K	Mole fraction of indole-2-carboxylic acid	uncertainty
284.05	.04327	.0030289
290.45	.06003	.0042021
294.65	.07352	.0051464
299.55	.08652	.0060564
304.65	.10049	.0070343
309.35	.10785	.0075495
313.95	.11644	.0081508
318.65	.1214	.008498
324.35	.12774	.0089418
328.75	.13389	.0093723
333.65	.14002	.0098014

System: 1,4-dioxane + indole-2-carboxylic acid; phases: Liquid, Crystal
Fixed: Pressure, kPa = 101
Property: Mole fraction of indole-2-carboxylic acid (Liquid); method: Laser detection
Temperature, K	Mole fraction of indole-2-carboxylic acid	uncertainty
286.35	.002757	.00019299
291.25	.003434	.00024038
297.05	.004266	.00029862
301.95	.004757	.00033299
306.95	.005196	.00036372
312.15	.005921	.00041447
317.25	.006365	.00044555
321.65	.006886	.00048202
326.55	.007281	.00050967
331.95	.007905	.00055335
336.65	.008661	.00060627

System: dichloromethane + indole-2-carboxylic acid; phases: Liquid, Crystal
Fixed: Pressure, kPa = 101
Property: Mole fraction of indole-2-carboxylic acid (Liquid); method: Laser detection
Temperature, K	Mole fraction of indole-2-carboxylic acid	uncertainty
283.15	.0006841	.000047887
287.15	.0007237	.000050659
292.75	.0008733	.000061131
295.65	.0010352	.000072464
299.05	.0011893	.000083251
302.65	.0013355	.000093485
307.25	.0016823	.000117761
313.15	.0022396	.000156772

System: toluene + indole-2-carboxylic acid; phases: Liquid, Crystal
Fixed: Pressure, kPa = 101
Property: Mole fraction of indole-2-carboxylic acid (Liquid); method: Laser detection
Temperature, K	Mole fraction of indole-2-carboxylic acid	uncertainty
287.85	.0005204	.000036428
293.65	.0006448	.000045136
297.95	.0007216	.000050512
302.85	.0007861	.000055027
307.05	.0008983	.000062881
311.55	.0009885	.000069195
313.55	.0010377	.000072639
317.45	.0011304	.000079128
325.15	.0015526	.000108682
337.85	.00295	.0002065
342.55	.0037934	.000265538
348.25	.00427	.0002989
360.15	.0064239	.000449673
