Measured thermophysical data. Thermodynamic Studies of CO2 + TBAB + Water System: Experimental Measurements and Correlations
Source: J. Chem. Eng. Data, 2013, 10.1021/je400272k
Compound 1: 1-butanaminium, N,N,N-tributyl-, bromide, C16H36BrN, purity 98%
Compound 2: water, H2O, purity 99.9%
Compound 3: carbon dioxide, CO2, purity 99.995%

System: carbon dioxide + 1-butanaminium, N,N,N-tributyl-, bromide + water; phases: Liquid, Gas
Property: Mole fraction of carbon dioxide (Liquid); method: pressure change on dissolution
Temperature, K	Pressure, kPa	Solvent: Mass fraction of 1-butanaminium, N,N,N-tributyl-, bromide	Mole fraction of carbon dioxide	uncertainty
288.1	504	.1	.00385	.000154
288.1	700	.1	.0051	.000204
288.1	946	.1	.00693	.0002772
288.1	1484	.1	.01033	.0004132
288.1	1871	.1	.01244	.0004976
293.1	524	.1	.00354	.0001416
293.1	728	.1	.00464	.0001856
293.1	984	.1	.00639	.0002556
293.1	1130	.1	.0072	.000288
293.1	1543	.1	.00943	.0003772
293.1	1948	.1	.01155	.000462
298.1	544	.1	.00324	.0001296
298.1	754	.1	.00427	.0001708
298.1	1021	.1	.00588	.0002352
298.1	1170	.1	.00661	.0002644
298.1	1594	.1	.00884	.0003536
298.1	2018	.1	.01078	.0004312
303.1	563	.1	.00298	.0001192
303.1	779	.1	.00394	.0001576
303.1	1056	.1	.00546	.0002184
303.1	1644	.1	.00835	.000334
303.1	2085	.1	.01014	.0004056
288.1	562	.2	.00387	.0001548
288.1	827	.2	.00569	.0002276
288.1	1063	.2	.00714	.0002856
288.1	1601	.2	.0102	.000408
288.1	1789	.2	.01141	.0004564
293.1	582	.2	.00359	.0001436
293.1	1034	.2	.00646	.0002584
293.1	1449	.2	.0087	.000348
293.1	2173	.2	.0117	.000468
293.1	2400	.2	.01319	.0005276
293.1	2835	.2	.0148	.000592
298.1	603	.2	.00329	.0001316
298.1	1135	.2	.0062	.000248
298.1	1490	.2	.00833	.0003332
298.1	1708	.2	.00896	.0003584
298.1	1901	.2	.00992	.0003968
303.1	621	.2	.00309	.0001236
303.1	908	.2	.00463	.0001852
303.1	1169	.2	.00583	.0002332
303.1	1759	.2	.00847	.0003388
303.1	1954	.2	.00938	.0003752
288.1	746	.3	.00521	.0002084
288.1	1012	.3	.00707	.0002828
288.1	1434	.3	.00977	.0003908
288.1	1941	.3	.01246	.0004984
288.1	2523	.3	.01622	.0006488
293.1	768	.3	.00487	.0001948
293.1	1054	.3	.00623	.0002492
293.1	1476	.3	.0094	.000376
293.1	2009	.3	.01148	.0004592
293.1	2044	.3	.01176	.0004704
293.1	2620	.3	.01446	.0005784
298.1	789	.3	.00466	.0001864
298.1	1091	.3	.00643	.0002572
298.1	1518	.3	.00896	.0003584
298.1	2066	.3	.01102	.0004408
298.1	2694	.3	.01399	.0005596
303.1	810	.3	.00446	.0001784
303.1	1133	.3	.00654	.0002616
303.1	1558	.3	.00869	.0003476
303.1	2114	.3	.01095	.000438
303.1	2155	.3	.01106	.0004424
288.1	639	.4	.00441	.0001764
288.1	851	.4	.00578	.0002312
288.1	1160	.4	.0077	.000308
288.1	1491	.4	.00988	.0003952
288.1	1976	.4	.01274	.0005096
293.1	656	.4	.00423	.0001692
293.1	1000	.4	.00655	.000262
293.1	1383	.4	.00892	.0003568
293.1	1757	.4	.011	.00044
293.1	2014	.4	.01261	.0005044
293.1	2552	.4	.0148	.000592
298.1	673	.4	.00408	.0001632
298.1	1024	.4	.00625	.00025
298.1	1571	.4	.00924	.0003696
298.1	1831	.4	.0107	.000428
298.1	2619	.4	.0146	.000584
303.1	689	.4	.00396	.0001584
303.1	900	.4	.00515	.000206
303.1	1252	.4	.00695	.000278
303.1	1610	.4	.00899	.0003596
303.1	2136	.4	.01178	.0004712

System: 1-butanaminium, N,N,N-tributyl-, bromide + water; phases: Liquid
Property: Mass density, kg/m3 (Liquid); method: Vibrating tube method
Pressure, kPa	Temperature, K	Mass fraction of 1-butanaminium, N,N,N-tributyl-, bromide	Mass density, kg/m3	uncertainty
100	303.15	.1	1003.2	.4
100	298.15	.1	1004.9	.4
100	293.15	.1	1006.2	.4
100	291.15	.1	1006.7	.4
100	288.15	.1	1007.6	.4
100	285.15	.1	1008.3	.4
100	283.15	.1	1008.7	.4
1000	303.15	.1	1003.7	.4
1000	298.15	.1	1005.3	.4
1000	293.15	.1	1006.7	.4
1000	291.15	.1	1007.1	.4
1000	288.15	.1	1008	.4
2000	303.15	.1	1004.1	.4
2000	298.15	.1	1005.7	.4
2000	293.15	.1	1007	.4
2000	291.15	.1	1007.6	.4
2000	288.15	.1	1008.4	.4
3000	303.15	.1	1004.5	.4
3000	298.15	.1	1006.1	.4
3000	293.15	.1	1007.5	.4
3000	291.15	.1	1008	.4
3000	288.15	.1	1008.9	.4
4000	303.15	.1	1005	.4
4000	298.15	.1	1006.5	.4
4000	293.15	.1	1007.9	.4
4000	291.15	.1	1008.4	.4
4000	288.15	.1	1009.2	.4
5000	303.15	.1	1005.4	.4
5000	298.15	.1	1006.9	.4
5000	293.15	.1	1008.3	.4
5000	291.15	.1	1008.7	.4
5000	288.15	.1	1009.7	.4
100	303.15	.14	1006.3	.4
100	298.15	.14	1008.4	.4
100	293.15	.14	1010	.4
100	291.15	.14	1010.9	.4
100	288.15	.14	1011.6	.4
100	285.15	.14	1012.6	.4
100	283.15	.14	1012.9	.4
1000	303.15	.14	1006.6	.4
1000	298.15	.14	1008.7	.4
1000	293.15	.14	1010.4	.4
1000	291.15	.14	1011.2	.4
1000	288.15	.14	1012.1	.4
2000	303.15	.14	1007	.4
2000	298.15	.14	1009.1	.4
2000	293.15	.14	1010.8	.4
2000	291.15	.14	1011.6	.4
2000	288.15	.14	1012.5	.4
3000	303.15	.14	1007.4	.4
3000	298.15	.14	1009.5	.4
3000	293.15	.14	1011.2	.4
3000	291.15	.14	1012	.4
3000	288.15	.14	1012.9	.4
4000	303.15	.14	1007.7	.4
4000	298.15	.14	1009.9	.4
4000	293.15	.14	1011.6	.4
4000	291.15	.14	1012.4	.4
4000	288.15	.14	1013.3	.4
5000	303.15	.14	1008.1	.4
5000	298.15	.14	1010.3	.4
5000	293.15	.14	1012.1	.4
5000	291.15	.14	1012.7	.4
5000	288.15	.14	1013.7	.4
100	303.15	.2	1011.9	.4
100	298.15	.2	1014.2	.4
100	293.15	.2	1016.3	.4
100	291.15	.2	1017	.4
100	288.15	.2	1018.1	.4
100	285.15	.2	1019.3	.4
100	283.15	.2	1019.9	.4
1000	303.15	.2	1012.4	.4
1000	298.15	.2	1014.5	.4
1000	293.15	.2	1016.7	.4
1000	291.15	.2	1017.4	.4
1000	288.15	.2	1018.6	.4
2000	303.15	.2	1012.8	.4
2000	298.15	.2	1014.9	.4
2000	293.15	.2	1017	.4
2000	291.15	.2	1017.8	.4
2000	288.15	.2	1019	.4
3000	303.15	.2	1013.2	.4
3000	298.15	.2	1015.3	.4
3000	293.15	.2	1017.5	.4
3000	291.15	.2	1018.2	.4
3000	288.15	.2	1019.4	.4
4000	303.15	.2	1013.6	.4
4000	298.15	.2	1015.7	.4
4000	293.15	.2	1017.8	.4
4000	291.15	.2	1018.6	.4
4000	288.15	.2	1019.7	.4
5000	303.15	.2	1014	.4
5000	298.15	.2	1016.1	.4
5000	293.15	.2	1018.2	.4
5000	291.15	.2	1018.8	.4
5000	288.15	.2	1020.1	.4
100	303.15	.3	1020.7	.4
100	298.15	.3	1023.7	.4
100	293.15	.3	1026.3	.4
100	291.15	.3	1027.4	.4
100	288.15	.3	1029	.4
1000	303.15	.3	1021.2	.4
1000	298.15	.3	1024	.4
1000	293.15	.3	1026.8	.4
1000	291.15	.3	1027.7	.4
1000	288.15	.3	1029.4	.4
2000	303.15	.3	1021.6	.4
2000	298.15	.3	1024.4	.4
2000	293.15	.3	1027.1	.4
2000	291.15	.3	1028.1	.4
2000	288.15	.3	1029.7	.4
3000	303.15	.3	1022	.4
3000	298.15	.3	1024.8	.4
3000	293.15	.3	1027.5	.4
3000	291.15	.3	1028.5	.4
3000	288.15	.3	1030.1	.4
4000	303.15	.3	1022.4	.4
4000	298.15	.3	1025.1	.4
4000	293.15	.3	1027.9	.4
4000	291.15	.3	1028.8	.4
4000	288.15	.3	1030.4	.4
5000	303.15	.3	1022.7	.4
5000	298.15	.3	1025.5	.4
5000	293.15	.3	1028.2	.4
5000	291.15	.3	1029.1	.4
5000	288.15	.3	1030.7	.4
100	303.15	.4	1028.6	.4
100	298.15	.4	1031.9	.4
100	293.15	.4	1035.3	.4
100	291.15	.4	1036.7	.4
100	288.15	.4	1038.5	.4
1000	303.15	.4	1029.2	.4
1000	298.15	.4	1032.3	.4
1000	293.15	.4	1035.7	.4
1000	291.15	.4	1037	.4
1000	288.15	.4	1039	.4
2000	303.15	.4	1029.5	.4
2000	298.15	.4	1032.7	.4
2000	293.15	.4	1036	.4
2000	291.15	.4	1037.4	.4
2000	288.15	.4	1039.4	.4
3000	303.15	.4	1029.9	.4
3000	298.15	.4	1033	.4
3000	293.15	.4	1036.4	.4
3000	291.15	.4	1037.8	.4
3000	288.15	.4	1039.7	.4
4000	303.15	.4	1030.3	.4
4000	298.15	.4	1033.3	.4
4000	293.15	.4	1036.8	.4
4000	291.15	.4	1038.1	.4
4000	288.15	.4	1040.1	.4
5000	303.15	.4	1030.7	.4
5000	298.15	.4	1033.7	.4
5000	293.15	.4	1037.1	.4
5000	291.15	.4	1038.4	.4
5000	288.15	.4	1040.4	.4
