Measured thermophysical data. Density and Viscosity for Binary Mixtures of Diethylene Glycol Monobutyl Ether with Monoethanolamine, Diethanolamine, and Triethanolamine from (293.15 to 333.15) K
Source: J. Chem. Eng. Data, 2013, 10.1021/je4000372
Compound 1: 2-(2-butoxyethoxy)ethanol, C8H18O3, purity 99%
Compound 2: 2-aminoethanol, C2H7NO, purity 99%
Compound 3: iminodiethanol, C4H11NO2, purity 99.5%
Compound 4: 2,2',2''-nitrilotriethanol, C6H15NO3, purity 99%

System: 2-(2-butoxyethoxy)ethanol; phases: Liquid
Property: Mass density, kg/m3 (Liquid); method: Pycnometric method
Temperature, K	Pressure, kPa	Mass density, kg/m3	uncertainty
293.15	101	952.9	.9529
303.15	101	943.5	.9435
313.15	101	935.7	.9357
323.15	101	926.6	.9266
333.15	101	918.5	.9185

System: 2-(2-butoxyethoxy)ethanol; phases: Liquid
Property: Viscosity, Pa*s (Liquid); method: Capillary tube (Ostwald; Ubbelohde) method
Temperature, K	Pressure, kPa	Viscosity, Pa*s	uncertainty
293.15	101	.00584	.0001752
303.15	101	.00423	.0001269
313.15	101	.00322	.0000966
323.15	101	.00251	.0000753
333.15	101	.002	.00006

System: 2-aminoethanol; phases: Liquid
Property: Mass density, kg/m3 (Liquid); method: Pycnometric method
Temperature, K	Pressure, kPa	Mass density, kg/m3	uncertainty
293.15	101	1016.1	1.0161
303.15	101	1008.4	1.0084
313.15	101	1000.1	1.0001
323.15	101	991.9	.9919
333.15	101	983.6	.9836

System: 2-aminoethanol; phases: Liquid
Property: Viscosity, Pa*s (Liquid); method: Capillary tube (Ostwald; Ubbelohde) method
Temperature, K	Pressure, kPa	Viscosity, Pa*s	uncertainty
293.15	101	.02414	.0007242
303.15	101	.01488	.0004464
313.15	101	.00993	.0002979
323.15	101	.00689	.0002067
333.15	101	.00497	.0001491

System: iminodiethanol; phases: Liquid
Property: Mass density, kg/m3 (Liquid); method: Pycnometric method
Temperature, K	Pressure, kPa	Mass density, kg/m3	uncertainty
293.15	101	1096.1	1.0961
303.15	101	1089.8	1.0898
313.15	101	1083.7	1.0837
323.15	101	1077.4	1.0774
333.15	101	1070.7	1.0707

System: iminodiethanol; phases: Liquid
Property: Viscosity, Pa*s (Liquid); method: Capillary tube (Ostwald; Ubbelohde) method
Temperature, K	Pressure, kPa	Viscosity, Pa*s	uncertainty
293.15	101	.8909	.026727
303.15	101	.3822	.011466
313.15	101	.1876	.005628
323.15	101	.09911	.0029733
333.15	101	.05812	.0017436

System: 2,2',2''-nitrilotriethanol; phases: Liquid
Property: Mass density, kg/m3 (Liquid); method: Pycnometric method
Temperature, K	Pressure, kPa	Mass density, kg/m3	uncertainty
293.15	101	1124.3	1.1243
303.15	101	1118.5	1.1185
313.15	101	1112.8	1.1128
323.15	101	1107.1	1.1071
333.15	101	1101.5	1.1015

System: 2,2',2''-nitrilotriethanol; phases: Liquid
Property: Viscosity, Pa*s (Liquid); method: Capillary tube (Ostwald; Ubbelohde) method
Temperature, K	Pressure, kPa	Viscosity, Pa*s	uncertainty
293.15	101	.9176	.027528
303.15	101	.4047	.012141
313.15	101	.2039	.006117
323.15	101	.1083	.003249
333.15	101	.0642	.001926

System: 2-(2-butoxyethoxy)ethanol + 2-aminoethanol; phases: Liquid
Fixed: Pressure, kPa = 101
Property: Mass density, kg/m3 (Liquid); method: Pycnometric method
Temperature, K	Mole fraction of 2-(2-butoxyethoxy)ethanol	Mass density, kg/m3	uncertainty
293.15	0	1016.1	1.0161
293.15	.04025	1010.3	1.0103
293.15	.08607	1004.5	1.0045
293.15	.1392	998.5	.9985
293.15	.2008	992.5	.9925
293.15	.2732	986.4	.9864
293.15	.3602	980.2	.9802
293.15	.4111	976.9	.9769
293.15	.4671	973.8	.9738
293.15	.4977	972.1	.9721
293.15	.6007	967.1	.9671
293.15	.7204	962	.962
293.15	.7699	960.2	.9602
293.15	.8163	958.5	.9585
293.15	.9331	954.8	.9548
293.15	1	952.9	.9529
303.15	0	1008.4	1.0084
303.15	.04025	1002.5	1.0025
303.15	.08607	996.6	.9966
303.15	.1392	990.5	.9905
303.15	.2008	984.2	.9842
303.15	.2732	977.9	.9779
303.15	.3602	971.5	.9715
303.15	.4111	968.2	.9682
303.15	.4671	964.9	.9649
303.15	.4977	963.3	.9633
303.15	.6007	958.1	.9581
303.15	.7204	952.9	.9529
303.15	.7699	951.1	.9511
303.15	.8163	949.3	.9493
303.15	.9331	945.5	.9455
303.15	1	943.5	.9435
313.15	0	1000.1	1.0001
313.15	.04025	994.3	.9943
313.15	.08607	988.5	.9885
313.15	.1392	982.5	.9825
313.15	.2008	976.4	.9764
313.15	.2732	970.1	.9701
313.15	.3602	963.7	.9637
313.15	.4111	960.4	.9604
313.15	.4671	957.2	.9572
313.15	.4977	955.5	.9555
313.15	.6007	950.3	.9503
313.15	.7204	945.2	.9452
313.15	.7699	943.3	.9433
313.15	.8163	941.6	.9416
313.15	.9331	937.7	.9377
313.15	1	935.7	.9357
323.15	0	991.9	.9919
323.15	.04025	986.2	.9862
323.15	.08607	980.4	.9804
323.15	.1392	974.3	.9743
323.15	.2008	968.1	.9681
323.15	.2732	961.7	.9617
323.15	.3602	955.1	.9551
323.15	.4111	951.8	.9518
323.15	.4671	948.4	.9484
323.15	.4977	946.7	.9467
323.15	.6007	941.5	.9415
323.15	.7204	936.3	.9363
323.15	.7699	934.4	.9344
323.15	.8163	932.7	.9327
323.15	.9331	928.7	.9287
323.15	1	926.6	.9266
333.15	0	983.6	.9836
333.15	.04025	978.2	.9782
333.15	.08607	972.5	.9725
333.15	.1392	966.4	.9664
333.15	.2008	960.1	.9601
333.15	.2732	953.7	.9537
333.15	.3602	947.1	.9471
333.15	.4111	943.7	.9437
333.15	.4671	940.4	.9404
333.15	.4977	938.7	.9387
333.15	.6007	933.5	.9335
333.15	.7204	928.3	.9283
333.15	.7699	926.4	.9264
333.15	.8163	924.7	.9247
333.15	.9331	920.7	.9207
333.15	1	918.5	.9185

System: 2-(2-butoxyethoxy)ethanol + 2-aminoethanol; phases: Liquid
Fixed: Pressure, kPa = 101
Property: Viscosity, Pa*s (Liquid); method: Capillary tube (Ostwald; Ubbelohde) method
Temperature, K	Mole fraction of 2-(2-butoxyethoxy)ethanol	Viscosity, Pa*s	uncertainty
293.15	0	.02414	.0007242
293.15	.04025	.02311	.0006933
293.15	.08607	.02186	.0006558
293.15	.1392	.02039	.0006117
293.15	.2008	.01881	.0005643
293.15	.2732	.01701	.0005103
293.15	.3602	.01502	.0004506
293.15	.4111	.01386	.0004158
293.15	.4671	.01272	.0003816
293.15	.4977	.01216	.0003648
293.15	.6007	.01046	.0003138
293.15	.7204	.00865	.0002595
293.15	.7699	.00802	.0002406
293.15	.8163	.00742	.0002226
293.15	.9331	.00634	.0001902
293.15	1	.00584	.0001752
303.15	0	.01488	.0004464
303.15	.04025	.01427	.0004281
303.15	.08607	.01361	.0004083
303.15	.1392	.01286	.0003858
303.15	.2008	.01199	.0003597
303.15	.2732	.01101	.0003303
303.15	.3602	.00983	.0002949
303.15	.4111	.00916	.0002748
303.15	.4671	.00851	.0002553
303.15	.4977	.00817	.0002451
303.15	.6007	.00718	.0002154
303.15	.7204	.00621	.0001863
303.15	.7699	.00582	.0001746
303.15	.8163	.00547	.0001641
303.15	.9331	.00462	.0001386
303.15	1	.00423	.0001269
313.15	0	.00993	.0002979
313.15	.04025	.00952	.0002856
313.15	.08607	.0091	.000273
313.15	.1392	.00862	.0002586
313.15	.2008	.00808	.0002424
313.15	.2732	.00747	.0002241
313.15	.3602	.00676	.0002028
313.15	.4111	.00637	.0001911
313.15	.4671	.00597	.0001791
313.15	.4977	.00577	.0001731
313.15	.6007	.00512	.0001536
313.15	.7204	.00442	.0001326
313.15	.7699	.00417	.0001251
313.15	.8163	.00396	.0001188
313.15	.9331	.00348	.0001044
313.15	1	.00322	.0000966
323.15	0	.00689	.0002067
323.15	.04025	.00664	.0001992
323.15	.08607	.00637	.0001911
323.15	.1392	.00607	.0001821
323.15	.2008	.00573	.0001719
323.15	.2732	.00533	.0001599
323.15	.3602	.00488	.0001464
323.15	.4111	.00463	.0001389
323.15	.4671	.00437	.0001311
323.15	.4977	.00423	.0001269
323.15	.6007	.00379	.0001137
323.15	.7204	.00334	.0001002
323.15	.7699	.00317	.0000951
323.15	.8163	.00302	.0000906
323.15	.9331	.00269	.0000807
323.15	1	.00251	.0000753
333.15	0	.00497	.0001491
333.15	.04025	.00482	.0001446
333.15	.08607	.00465	.0001395
333.15	.1392	.00443	.0001329
333.15	.2008	.00419	.0001257
333.15	.2732	.00391	.0001173
333.15	.3602	.00361	.0001083
333.15	.4111	.00345	.0001035
333.15	.4671	.00328	.0000984
333.15	.4977	.00319	.0000957
333.15	.6007	.00291	.0000873
333.15	.7204	.00259	.0000777
333.15	.7699	.00248	.0000744
333.15	.8163	.00237	.0000711
333.15	.9331	.00211	.0000633
333.15	1	.002	.00006

System: iminodiethanol + 2-(2-butoxyethoxy)ethanol; phases: Liquid
Fixed: Pressure, kPa = 101
Property: Mass density, kg/m3 (Liquid); method: Pycnometric method
Temperature, K	Mole fraction of 2-(2-butoxyethoxy)ethanol	Mass density, kg/m3	uncertainty
293.15	0	1096.1	1.0961
293.15	.03299	1088.3	1.0883
293.15	.06718	1080.7	1.0807
293.15	.1026	1073.2	1.0732
293.15	.1394	1065.8	1.0658
293.15	.2174	1050.9	1.0509
293.15	.3018	1036.3	1.0363
293.15	.3933	1021.9	1.0219
293.15	.4929	1007.7	1.0077
293.15	.6019	993.8	.9938
293.15	.7008	982.3	.9823
293.15	.7558	976.4	.9764
293.15	.8059	971.2	.9712
293.15	.8537	966.4	.9664
293.15	.9031	961.6	.9616
293.15	1	952.9	.9529
303.15	0	1089.8	1.0898
303.15	.03299	1081.8	1.0818
303.15	.06718	1074.2	1.0742
303.15	.1026	1066.5	1.0665
303.15	.1394	1058.9	1.0589
303.15	.2174	1043.7	1.0437
303.15	.3018	1028.7	1.0287
303.15	.3933	1014	1.014
303.15	.4929	999.5	.9995
303.15	.6019	985.2	.9852
303.15	.7008	973.5	.9735
303.15	.7558	967.5	.9675
303.15	.8059	962.2	.9622
303.15	.8537	957.3	.9573
303.15	.9031	952.4	.9524
303.15	1	943.5	.9435
313.15	0	1083.7	1.0837
313.15	.03299	1075.8	1.0758
313.15	.06718	1068	1.068
313.15	.1026	1060.3	1.0603
313.15	.1394	1052.5	1.0525
313.15	.2174	1037.1	1.0371
313.15	.3018	1021.9	1.0219
313.15	.3933	1007	1.007
313.15	.4929	992.3	.9923
313.15	.6019	977.9	.9779
313.15	.7008	966.1	.9661
313.15	.7558	960	.96
313.15	.8059	954.7	.9547
313.15	.8537	949.7	.9497
313.15	.9031	944.8	.9448
313.15	1	935.7	.9357
323.15	0	1077.4	1.0774
323.15	.03299	1069.4	1.0694
323.15	.06718	1061.5	1.0615
323.15	.1026	1053.6	1.0536
323.15	.1394	1045.7	1.0457
323.15	.2174	1029.9	1.0299
323.15	.3018	1014.5	1.0145
323.15	.3933	999.2	.9992
323.15	.4929	984.2	.9842
323.15	.6019	969.6	.9696
323.15	.7008	957.6	.9576
323.15	.7558	951.4	.9514
323.15	.8059	946	.946
323.15	.8537	940.9	.9409
323.15	.9031	935.9	.9359
323.15	1	926.6	.9266
333.15	0	1070.7	1.0707
333.15	.03299	1062.8	1.0628
333.15	.06718	1054.9	1.0549
333.15	.1026	1046.9	1.0469
333.15	.1394	1038.8	1.0388
333.15	.2174	1022.8	1.0228
333.15	.3018	1007.3	1.0073
333.15	.3933	991.8	.9918
333.15	.4929	976.7	.9767
333.15	.6019	961.9	.9619
333.15	.7008	949.8	.9498
333.15	.7558	943.5	.9435
333.15	.8059	938.1	.9381
333.15	.8537	933	.933
333.15	.9031	927.9	.9279
333.15	1	918.5	.9185

System: iminodiethanol + 2-(2-butoxyethoxy)ethanol; phases: Liquid
Fixed: Pressure, kPa = 101
Property: Viscosity, Pa*s (Liquid); method: Capillary tube (Ostwald; Ubbelohde) method
Temperature, K	Mole fraction of 2-(2-butoxyethoxy)ethanol	Viscosity, Pa*s	uncertainty
293.15	0	.8909	.026727
293.15	.03299	.6813	.020439
293.15	.06718	.5502	.016506
293.15	.1026	.4251	.012753
293.15	.1394	.3213	.009639
293.15	.2174	.1916	.005748
293.15	.3018	.1144	.003432
293.15	.3933	.06516	.0019548
293.15	.4929	.03857	.0011571
293.15	.6019	.02375	.0007125
293.15	.7008	.01575	.0004725
293.15	.7558	.01219	.0003657
293.15	.8059	.01043	.0003129
293.15	.8537	.008982	.00026946
293.15	.9031	.007858	.00023574
293.15	1	.00584	.0001752
303.15	0	.3822	.011466
303.15	.03299	.2907	.008721
303.15	.06718	.2316	.006948
303.15	.1026	.1899	.005697
303.15	.1394	.1501	.004503
303.15	.2174	.09621	.0028863
303.15	.3018	.05995	.0017985
303.15	.3933	.03705	.0011115
303.15	.4929	.02276	.0006828
303.15	.6019	.01492	.0004476
303.15	.7008	.01043	.0003129
303.15	.7558	.008762	.00026286
303.15	.8059	.007305	.00021915
303.15	.8537	.006312	.00018936
303.15	.9031	.005501	.00016503
303.15	1	.00423	.0001269
313.15	0	.1876	.005628
313.15	.03299	.1562	.004686
313.15	.06718	.1225	.003675
313.15	.1026	.0982	.002946
313.15	.1394	.08115	.0024345
313.15	.2174	.05326	.0015978
313.15	.3018	.03451	.0010353
313.15	.3933	.02229	.0006687
313.15	.4929	.01483	.0004449
313.15	.6019	.01002	.0003006
313.15	.7008	.007262	.00021786
313.15	.7558	.006011	.00018033
313.15	.8059	.005293	.00015879
313.15	.8537	.004629	.00013887
313.15	.9031	.004032	.00012096
313.15	1	.00322	.0000966
323.15	0	.09911	.0029733
323.15	.03299	.08004	.0024012
323.15	.06718	.06629	.0019887
323.15	.1026	.05387	.0016161
323.15	.1394	.04318	.0012954
323.15	.2174	.03037	.0009111
323.15	.3018	.02074	.0006222
323.15	.3933	.01426	.0004278
323.15	.4929	.009416	.00028248
323.15	.6019	.007041	.00021123
323.15	.7008	.005199	.00015597
323.15	.7558	.004251	.00012753
323.15	.8059	.003759	.00011277
323.15	.8537	.003407	.00010221
323.15	.9031	.003028	.00009084
323.15	1	.00251	.0000753
333.15	0	.05812	.0017436
333.15	.03299	.04673	.0014019
333.15	.06718	.03849	.0011547
333.15	.1026	.03199	.0009597
333.15	.1394	.02671	.0008013
333.15	.2174	.01913	.0005739
333.15	.3018	.01322	.0003966
333.15	.3933	.009429	.00028287
333.15	.4929	.006995	.00020985
333.15	.6019	.005178	.00015534
333.15	.7008	.003927	.00011781
333.15	.7558	.003358	.00010074
333.15	.8059	.003035	.00009105
333.15	.8537	.002756	.00008268
333.15	.9031	.002463	.00007389
333.15	1	.002	.00006

System: 2,2',2''-nitrilotriethanol + 2-(2-butoxyethoxy)ethanol; phases: Liquid
Fixed: Pressure, kPa = 101
Property: Mass density, kg/m3 (Liquid); method: Pycnometric method
Temperature, K	Mole fraction of 2-(2-butoxyethoxy)ethanol	Mass density, kg/m3	uncertainty
293.15	0	1124.3	1.1243
293.15	.09279	1105.1	1.1051
293.15	.1871	1086.3	1.0863
293.15	.2841	1067.9	1.0679
293.15	.3804	1050.4	1.0504
293.15	.4787	1033.3	1.0333
293.15	.5789	1016.5	1.0165
293.15	.6816	999.9	.9999
293.15	.7855	983.9	.9839
293.15	.8923	968.1	.9681
293.15	1	952.9	.9529
303.15	0	1118.5	1.1185
303.15	.09279	1098.9	1.0989
303.15	.1871	1079.9	1.0799
303.15	.2841	1061	1.061
303.15	.3804	1043.1	1.0431
303.15	.4787	1025.6	1.0256
303.15	.5789	1008.5	1.0085
303.15	.6816	991.7	.9917
303.15	.7855	975.2	.9752
303.15	.8923	959.1	.9591
303.15	1	943.5	.9435
313.15	0	1112.8	1.1128
313.15	.09279	1093.1	1.0931
313.15	.1871	1073.9	1.0739
313.15	.2841	1054.8	1.0548
313.15	.3804	1036.7	1.0367
313.15	.4787	1018.9	1.0189
313.15	.5789	1001.6	1.0016
313.15	.6816	984.6	.9846
313.15	.7855	967.9	.9679
313.15	.8923	951.5	.9515
313.15	1	935.7	.9357
323.15	0	1107.1	1.1071
323.15	.09279	1087.2	1.0872
323.15	.1871	1067.5	1.0675
323.15	.2841	1048.1	1.0481
323.15	.3804	1029.5	1.0295
323.15	.4787	1011.4	1.0114
323.15	.5789	993.7	.9937
323.15	.6816	976.4	.9764
323.15	.7855	959.5	.9595
323.15	.8923	942.7	.9427
323.15	1	926.6	.9266
333.15	0	1101.5	1.1015
333.15	.09279	1081.4	1.0814
333.15	.1871	1061.6	1.0616
333.15	.2841	1041.8	1.0418
333.15	.3804	1022.9	1.0229
333.15	.4787	1004.5	1.0045
333.15	.5789	986.6	.9866
333.15	.6816	969	.969
333.15	.7855	951.9	.9519
333.15	.8923	934.9	.9349
333.15	1	918.5	.9185

System: 2,2',2''-nitrilotriethanol + 2-(2-butoxyethoxy)ethanol; phases: Liquid
Fixed: Pressure, kPa = 101
Property: Viscosity, Pa*s (Liquid); method: Capillary tube (Ostwald; Ubbelohde) method
Temperature, K	Mole fraction of 2-(2-butoxyethoxy)ethanol	Viscosity, Pa*s	uncertainty
293.15	0	.9176	.027528
293.15	.09279	.4919	.014757
293.15	.1871	.2698	.008094
293.15	.2841	.1532	.004596
293.15	.3804	.08531	.0025593
293.15	.4787	.05008	.0015024
293.15	.5789	.03052	.0009156
293.15	.6816	.01881	.0005643
293.15	.7855	.01236	.0003708
293.15	.8923	.00849	.0002547
293.15	1	.00584	.0001752
303.15	0	.4047	.012141
303.15	.09279	.2283	.006849
303.15	.1871	.1266	.003798
303.15	.2841	.06969	.0020907
303.15	.3804	.04188	.0012564
303.15	.4787	.02639	.0007917
303.15	.5789	.01751	.0005253
303.15	.6816	.01074	.0003222
303.15	.7855	.00816	.0002448
303.15	.8923	.00601	.0001803
303.15	1	.00423	.0001269
313.15	0	.2039	.006117
313.15	.09279	.11258	.0033774
313.15	.1871	.06774	.0020322
313.15	.2841	.04077	.0012231
313.15	.3804	.02592	.0007776
313.15	.4787	.01638	.0004914
313.15	.5789	.01081	.0003243
313.15	.6816	.00741	.0002223
313.15	.7855	.00523	.0001569
313.15	.8923	.00401	.0001203
313.15	1	.00322	.0000966
323.15	0	.1083	.003249
323.15	.09279	.06965	.0020895
323.15	.1871	.04443	.0013329
323.15	.2841	.02848	.0008544
323.15	.3804	.01759	.0005277
323.15	.4787	.01282	.0003846
323.15	.5789	.00879	.0002637
323.15	.6816	.00583	.0001749
323.15	.7855	.00435	.0001305
323.15	.8923	.00339	.0001017
323.15	1	.00251	.0000753
333.15	0	.0642	.001926
333.15	.09279	.0435	.001305
333.15	.1871	.0283	.000849
333.15	.2841	.0184	.000552
333.15	.3804	.0126	.000378
333.15	.4787	.00897	.0002691
333.15	.5789	.00652	.0001956
333.15	.6816	.00471	.0001413
333.15	.7855	.00354	.0001062
333.15	.8923	.00267	.0000801
333.15	1	.002	.00006
