Measured thermophysical data. Liquid Liquid Equilibria of Benzene + n-Heptane + N,N-Dimethylformamide and Benzene + n-Heptane + N,N-Dimethylformamide + Ammonium Thiocyanate
Source: J. Chem. Eng. Data, 2014, 10.1021/je400635d
Compound 1: benzene, C6H6, purity 99.5%
Compound 2: n-heptane, C7H16, purity 99.5%
Compound 3: N,N-dimethylformamide, C3H7NO, purity 99.5%

System: N,N-dimethylformamide + benzene + n-heptane; phases: Liquid mixture 1, Liquid mixture 2
Fixed: Pressure, kPa = 101
Property: Mass fraction of n-heptane (Liquid mixture 1); method: Chromatography
Property: Mass fraction of benzene (Liquid mixture 2); method: Chromatography
Property: Mass fraction of n-heptane (Liquid mixture 2); method: Chromatography
Temperature, K	Mass fraction of benzene	Mass fraction of n-heptane	uncertainty	Mass fraction of benzene	uncertainty	Mass fraction of n-heptane	uncertainty
298.15	.105	.059	.001	.088	.003	.847	.007
298.15	.134	.085	.001	.109	.003	.821	.007
298.15	.164	.079	.001	.131	.003	.793	.007
298.15	.184	.08	.001	.16	.003	.755	.007
303.15	.05	.038	.001	.044	.003	.896	.007
303.15	.088	.058	.001	.057	.003	.877	.007
303.15	.114	.124	.001	.08	.003	.843	.007
303.15	.135	.14	.001	.109	.003	.798	.007
