Measured thermophysical data. Liquid Liquid Equilibria for the Ternary Systems of 4-Methyl-1,3-dioxolan-2-one + 1,4-Dimethylbenzene + Octane, Decane, or Dodecane and the Ternary Systems of Acetonitrile + Morpholine + Octane, Decane, or Dodecane at 313.15 K or 298.15 K
Source: J. Chem. Eng. Data, 2014, 10.1021/je401056v
Compound 1: propylene carbonate, C4H6O3, purity 99.7%
Compound 2: p-xylene, C8H10, purity 99%
Compound 3: n-octane, C8H18, purity 99%
Compound 4: n-decane, C10H22, purity 99%
Compound 5: n-dodecane, C12H26, purity 99%
Compound 6: acetonitrile, C2H3N, purity 99%
Compound 7: morpholine, C4H9NO, purity 99%

System: p-xylene + propylene carbonate + n-octane; phases: Liquid mixture 2, Liquid mixture 1
Property: Mole fraction of p-xylene (Liquid mixture 2); method: Chromatography
Property: Mole fraction of p-xylene (Liquid mixture 1); method: Chromatography
Property: Mole fraction of propylene carbonate (Liquid mixture 1); method: Chromatography
Temperature, K	Pressure, kPa	Mole fraction of propylene carbonate	Mole fraction of p-xylene	uncertainty	Mole fraction of p-xylene	uncertainty	Mole fraction of propylene carbonate	uncertainty
298.15	100	.9681	.022	.003	.0854	.003	0	.003
313.15	100	.9135	.0722	.003	.2452	.003	.0106	.003
313.15	100	.8811	.1015	.003	.3235	.003	.0172	.003
313.15	100	.8519	.1291	.003	.3898	.003	.0238	.003
313.15	100	.8212	.1588	.003	.4549	.003	.0298	.003
313.15	100	.7854	.1914	.003	.5103	.003	.0381	.003
313.15	100	.7419	.2311	.003	.565	.003	.0539	.003
313.15	100	.7112	.2596	.003	.5954	.003	.0693	.003
298.15	100	.9444	.0462	.003	.1755	.003	.0037	.003
298.15	100	.9171	.0712	.003	.2565	.003	.0077	.003
298.15	100	.8909	.1016	.003	.337	.003	.0116	.003
298.15	100	.8631	.1229	.003	.405	.003	.0168	.003
298.15	100	.8331	.1511	.003	.4686	.003	.0223	.003
298.15	100	.7946	.185	.003	.526	.003	.0333	.003
298.15	100	.7544	.2248	.003	.5925	.003	.0444	.003
313.15	100	.9621	.0244	.003	.0882	.003	0	.003

System: p-xylene + propylene carbonate + n-octane; phases: Liquid mixture 1, Liquid mixture 2
Fixed: Pressure, kPa = 100
Property: Mole fraction of p-xylene (Liquid mixture 1); method: Chromatography
Temperature, K	Mole fraction of propylene carbonate	Mole fraction of p-xylene	uncertainty
298.15	.0357	.5379	.003
298.15	.0656	.6407	.003
298.15	.1345	.688	.003
298.15	.2173	.6573	.003
298.15	.2858	.6079	.003
298.15	.441	.484	.003
298.15	.5728	.3792	.003
298.15	.7323	.2504	.003
298.15	.7972	.189	.003
313.15	.0238	.379	.003
313.15	.0624	.5742	.003
313.15	.1551	.6332	.003
313.15	.2398	.6086	.003
313.15	.3327	.5538	.003
313.15	.5178	.4093	.003
313.15	.6294	.3261	.003
313.15	.7519	.2242	.003

System: acetonitrile + morpholine + n-octane; phases: Liquid mixture 2, Liquid mixture 1
Property: Mole fraction of acetonitrile (Liquid mixture 2); method: Chromatography
Property: Mole fraction of morpholine (Liquid mixture 1); method: Chromatography
Property: Mole fraction of acetonitrile (Liquid mixture 1); method: Chromatography
Temperature, K	Pressure, kPa	Mole fraction of morpholine	Mole fraction of acetonitrile	uncertainty	Mole fraction of morpholine	uncertainty	Mole fraction of acetonitrile	uncertainty
298.15	100	.0888	.8743	.003	.0205	.003	.0746	.003
313.15	100	.1318	.8078	.003	.043	.003	.1165	.003
313.15	100	.1654	.7691	.003	.0627	.003	.1217	.003
313.15	100	.2228	.6994	.003	.0859	.003	.131	.003
313.15	100	.2975	.6057	.003	.1395	.003	.1553	.003
313.15	100	.3378	.5496	.003	.1623	.003	.1591	.003
313.15	100	.3791	.4879	.003	.1991	.003	.1706	.003
313.15	100	.4226	.4196	.003	.2473	.003	.1779	.003
298.15	100	.1351	.8232	.003	.0393	.003	.0799	.003
298.15	100	.213	.7359	.003	.0599	.003	.0859	.003
298.15	100	.2632	.6787	.003	.0807	.003	.0895	.003
298.15	100	.3332	.5981	.003	.1126	.003	.0945	.003
298.15	100	.4061	.5091	.003	.1522	.003	.1019	.003
298.15	100	.4658	.4271	.003	.1979	.003	.1081	.003
298.15	100	.5176	.3417	.003	.2425	.003	.1131	.003
313.15	100	.0855	.8636	.003	.0209	.003	.1083	.003

System: acetonitrile + morpholine + n-octane; phases: Liquid mixture 1, Liquid mixture 2
Fixed: Pressure, kPa = 100
Property: Mole fraction of morpholine (Liquid mixture 1); method: Chromatography
Temperature, K	Mole fraction of acetonitrile	Mole fraction of morpholine	uncertainty
298.15	.0873	.0733	.003
298.15	.1017	.1269	.003
298.15	.1252	.3583	.003
298.15	.1729	.4902	.003
298.15	.2027	.5214	.003
298.15	.3595	.497	.003
313.15	.1322	.073	.003
313.15	.1726	.1897	.003
313.15	.231	.3689	.003
313.15	.3217	.4286	.003
313.15	.415	.4273	.003

System: p-xylene + propylene carbonate + n-decane; phases: Liquid mixture 2, Liquid mixture 1
Property: Mole fraction of p-xylene (Liquid mixture 2); method: Chromatography
Property: Mole fraction of p-xylene (Liquid mixture 1); method: Chromatography
Property: Mole fraction of propylene carbonate (Liquid mixture 1); method: Chromatography
Temperature, K	Pressure, kPa	Mole fraction of propylene carbonate	Mole fraction of p-xylene	uncertainty	Mole fraction of p-xylene	uncertainty	Mole fraction of propylene carbonate	uncertainty
298.15	100	.9441	.049	.003	.2031	.003	.0053	.003
313.15	100	.9208	.073	.003	.2783	.003	.011	.003
313.15	100	.8891	.1016	.003	.3577	.003	.0176	.003
313.15	100	.8598	.1294	.003	.4265	.003	.0236	.003
313.15	100	.8255	.1618	.003	.4911	.003	.031	.003
313.15	100	.7901	.1947	.003	.5513	.003	.0393	.003
313.15	100	.7332	.2477	.003	.6135	.003	.057	.003
313.15	100	.6596	.315	.003	.661	.003	.0911	.003
298.15	100	.9205	.0725	.003	.2872	.003	.0083	.003
298.15	100	.8914	.1011	.003	.3762	.003	.0121	.003
298.15	100	.8674	.1238	.003	.4359	.003	.0169	.003
298.15	100	.8328	.1574	.003	.5142	.003	.024	.003
298.15	100	.8083	.1812	.003	.5625	.003	.03	.003
298.15	100	.7543	.2325	.003	.6363	.003	.0458	.003
298.15	100	.6881	.2948	.003	.69	.003	.0739	.003
313.15	100	.9437	.0499	.003	.1974	.003	.0049	.003

System: p-xylene + propylene carbonate + n-decane; phases: Liquid mixture 1, Liquid mixture 2
Fixed: Pressure, kPa = 100
Property: Mole fraction of p-xylene (Liquid mixture 1); method: Chromatography
Temperature, K	Mole fraction of propylene carbonate	Mole fraction of p-xylene	uncertainty
298.15	.0232	.5003	.003
298.15	.0342	.6032	.003
298.15	.0657	.6849	.003
298.15	.1634	.703	.003
298.15	.232	.6702	.003
298.15	.3127	.6124	.003
298.15	.4288	.5221	.003
298.15	.5642	.4057	.003
298.15	.7342	.254	.003
298.15	.8783	.1152	.003
313.15	.0408	.5504	.003
313.15	.0764	.6383	.003
313.15	.1532	.678	.003
313.15	.2413	.6386	.003
313.15	.3085	.5953	.003
313.15	.4541	.4761	.003
313.15	.6045	.3537	.003
313.15	.6792	.2913	.003
313.15	.7653	.2167	.003

System: p-xylene + propylene carbonate + n-dodecane; phases: Liquid mixture 2, Liquid mixture 1
Property: Mole fraction of p-xylene (Liquid mixture 2); method: Chromatography
Property: Mole fraction of p-xylene (Liquid mixture 1); method: Chromatography
Property: Mole fraction of propylene carbonate (Liquid mixture 1); method: Chromatography
Temperature, K	Pressure, kPa	Mole fraction of propylene carbonate	Mole fraction of p-xylene	uncertainty	Mole fraction of p-xylene	uncertainty	Mole fraction of propylene carbonate	uncertainty
298.15	100	.9228	.0736	.003	.3157	.003	.0068	.003
313.15	100	.9187	.0771	.003	.317	.003	.013	.003
313.15	100	.8958	.0989	.003	.3915	.003	.0199	.003
313.15	100	.8587	.1344	.003	.4703	.003	.0247	.003
313.15	100	.8306	.1615	.003	.5381	.003	.0326	.003
313.15	100	.7944	.1962	.003	.5893	.003	.0408	.003
313.15	100	.7307	.2571	.003	.6533	.003	.0614	.003
313.15	100	.6757	.3088	.003	.6901	.003	.0868	.003
298.15	100	.8915	.1042	.003	.4081	.003	.0107	.003
298.15	100	.8609	.1342	.003	.4908	.003	.0175	.003
298.15	100	.8288	.1655	.003	.5596	.003	.0238	.003
298.15	100	.8057	.1877	.003	.6054	.003	.0301	.003
298.15	100	.757	.2348	.003	.6662	.003	.0443	.003
298.15	100	.6868	.302	.003	.7213	.003	.0709	.003
298.15	100	.6146	.3699	.003	.739	.003	.1089	.003
313.15	100	.9443	.0521	.003	.2245	.003	.0069	.003

System: p-xylene + propylene carbonate + n-dodecane; phases: Liquid mixture 1, Liquid mixture 2
Fixed: Pressure, kPa = 100
Property: Mole fraction of p-xylene (Liquid mixture 1); method: Chromatography
Temperature, K	Mole fraction of propylene carbonate	Mole fraction of p-xylene	uncertainty
298.15	.0714	.7179	.003
298.15	.0905	.7327	.003
298.15	.1809	.7163	.003
298.15	.2238	.6944	.003
298.15	.3149	.6262	.003
298.15	.3856	.5709	.003
298.15	.4666	.5021	.003
298.15	.5307	.4444	.003
298.15	.6094	.3745	.003
313.15	.035	.5425	.003
313.15	.0818	.6907	.003
313.15	.1934	.6969	.003
313.15	.3216	.6072	.003
313.15	.4156	.5375	.003
313.15	.5202	.4492	.003
313.15	.6106	.3678	.003
313.15	.8063	.1874	.003

System: acetonitrile + morpholine + n-decane; phases: Liquid mixture 2, Liquid mixture 1
Property: Mole fraction of acetonitrile (Liquid mixture 2); method: Chromatography
Property: Mole fraction of morpholine (Liquid mixture 1); method: Chromatography
Property: Mole fraction of acetonitrile (Liquid mixture 1); method: Chromatography
Temperature, K	Pressure, kPa	Mole fraction of morpholine	Mole fraction of acetonitrile	uncertainty	Mole fraction of morpholine	uncertainty	Mole fraction of acetonitrile	uncertainty
298.15	100	.0456	.9387	.003	.0155	.003	.0572	.003
313.15	100	.121	.8516	.003	.0515	.003	.0706	.003
313.15	100	.1731	.7939	.003	.0742	.003	.0755	.003
313.15	100	.2276	.7331	.003	.0993	.003	.0885	.003
313.15	100	.2837	.6687	.003	.1277	.003	.0963	.003
313.15	100	.3487	.5928	.003	.1617	.003	.1083	.003
313.15	100	.4073	.5184	.003	.2069	.003	.1201	.003
313.15	100	.4566	.4494	.003	.2496	.003	.1333	.003
298.15	100	.1227	.857	.003	.0414	.003	.059	.003
298.15	100	.1746	.802	.003	.0592	.003	.0627	.003
298.15	100	.2319	.7399	.003	.0799	.003	.0683	.003
298.15	100	.2915	.6744	.003	.1034	.003	.0716	.003
298.15	100	.3653	.5919	.003	.1347	.003	.0727	.003
298.15	100	.4224	.5263	.003	.1625	.003	.0771	.003
298.15	100	.49	.4459	.003	.2013	.003	.0777	.003
313.15	100	.0438	.9342	.003	.0178	.003	.0543	.003

System: acetonitrile + morpholine + n-decane; phases: Liquid mixture 1, Liquid mixture 2
Fixed: Pressure, kPa = 100
Property: Mole fraction of morpholine (Liquid mixture 1); method: Chromatography
Temperature, K	Mole fraction of acetonitrile	Mole fraction of morpholine	uncertainty
298.15	.0644	.0648	.003
298.15	.0796	.2911	.003
298.15	.0817	.1581	.003
298.15	.0958	.5	.003
298.15	.1423	.6373	.003
298.15	.2792	.6076	.003
298.15	.3459	.5604	.003
298.15	.4121	.5122	.003
313.15	.0734	.0422	.003
313.15	.102	.1441	.003
313.15	.13	.2252	.003
313.15	.2051	.4526	.003
313.15	.3185	.5046	.003
313.15	.4567	.4468	.003

System: acetonitrile + morpholine + n-dodecane; phases: Liquid mixture 2, Liquid mixture 1
Property: Mole fraction of acetonitrile (Liquid mixture 2); method: Chromatography
Property: Mole fraction of morpholine (Liquid mixture 1); method: Chromatography
Property: Mole fraction of acetonitrile (Liquid mixture 1); method: Chromatography
Temperature, K	Pressure, kPa	Mole fraction of morpholine	Mole fraction of acetonitrile	uncertainty	Mole fraction of morpholine	uncertainty	Mole fraction of acetonitrile	uncertainty
298.15	100	.0866	.9048	.003	.0299	.003	.0443	.003
313.15	100	.0925	.8943	.003	.04	.003	.0562	.003
313.15	100	.1425	.8423	.003	.063	.003	.0617	.003
313.15	100	.2699	.7059	.003	.1241	.003	.0733	.003
313.15	100	.3365	.6334	.003	.1583	.003	.0817	.003
313.15	100	.4054	.5552	.003	.1952	.003	.0846	.003
313.15	100	.4721	.4776	.003	.2395	.003	.09	.003
313.15	100	.5555	.3758	.003	.3059	.003	.0941	.003
298.15	100	.1295	.8603	.003	.0438	.003	.0461	.003
298.15	100	.1766	.8115	.003	.0601	.003	.0468	.003
298.15	100	.243	.7419	.003	.0825	.003	.0487	.003
298.15	100	.2959	.6862	.003	.1044	.003	.0501	.003
298.15	100	.3843	.5916	.003	.1412	.003	.0557	.003
298.15	100	.439	.5323	.003	.1668	.003	.0572	.003
298.15	100	.5215	.4414	.003	.2116	.003	.0584	.003
313.15	100	.0411	.9467	.003	.0182	.003	.0539	.003

System: acetonitrile + morpholine + n-dodecane; phases: Liquid mixture 1, Liquid mixture 2
Fixed: Pressure, kPa = 100
Property: Mole fraction of morpholine (Liquid mixture 1); method: Chromatography
Temperature, K	Mole fraction of acetonitrile	Mole fraction of morpholine	uncertainty
298.15	.0454	.0387	.003
298.15	.0547	.0931	.003
298.15	.0621	.1631	.003
298.15	.0913	.4478	.003
298.15	.0945	.5772	.003
298.15	.1106	.6868	.003
298.15	.1694	.7158	.003
298.15	.2756	.6563	.003
298.15	.3642	.5832	.003
313.15	.0761	.115	.003
313.15	.0909	.1984	.003
313.15	.0996	.3575	.003
313.15	.114	.4883	.003
313.15	.1398	.6019	.003
313.15	.2729	.6062	.003
313.15	.3217	.5826	.003
