Measured thermophysical data. Study of the Effect of Pressure on Melting Behavior of Saturated Fatty Acids in Liquid or Supercritical Carbon Dioxide
Source: J. Chem. Eng. Data, 2013, 10.1021/je400260c
Compound 1: n-octadecanoic acid, C18H36O2, purity 97%
Compound 2: hexadecanoic acid, C16H32O2, purity 98%
Compound 3: tetradecanoic acid, C14H28O2, purity 98%
Compound 4: lauric acid, C12H24O2, purity 98%
Compound 5: carbon dioxide, CO2, purity 99.9%

System: n-octadecanoic acid; phases: Crystal, Liquid, Air at 1 atmosphere
Property: Normal melting temperature, K (Crystal); method: DSC/DTA
Normal melting temperature, K	uncertainty
342.9	.2

System: hexadecanoic acid; phases: Crystal, Liquid, Air at 1 atmosphere
Property: Normal melting temperature, K (Crystal); method: DSC/DTA
Normal melting temperature, K	uncertainty
336	.5

System: tetradecanoic acid; phases: Crystal, Liquid, Air at 1 atmosphere
Property: Normal melting temperature, K (Crystal); method: DSC/DTA
Normal melting temperature, K	uncertainty
327.5	.2

System: lauric acid; phases: Crystal, Liquid, Air at 1 atmosphere
Property: Normal melting temperature, K (Crystal); method: DSC/DTA
Normal melting temperature, K	uncertainty
317.7	.4

System: n-octadecanoic acid + carbon dioxide; phases: Liquid, Crystal, Gas
Property: Boiling temperature at pressure P, K (Liquid); method: DSC/DTA
Pressure, kPa	Boiling temperature at pressure P, K	uncertainty
7000	335.85	.2
10000	333.15	.2
15000	332.05	.2
20000	332.85	.2
25000	333.55	.6
30000	334.05	.4
42800	334.85	.4
50000	335.75	.3

System: hexadecanoic acid + carbon dioxide; phases: Liquid, Crystal, Gas
Property: Boiling temperature at pressure P, K (Liquid); method: DSC/DTA
Pressure, kPa	Boiling temperature at pressure P, K	uncertainty
7000	328.75	.3
10000	325.45	.3
15000	324.25	.5
20000	324.85	.3
25000	325.55	.2
30000	326.35	.4
42800	327.35	.2
50000	328.35	.3

System: carbon dioxide + tetradecanoic acid; phases: Liquid, Crystal, Gas
Property: Boiling temperature at pressure P, K (Liquid); method: DSC/DTA
Pressure, kPa	Boiling temperature at pressure P, K	uncertainty
7000	317.45	.4
10000	314.35	.2
15000	314.7	.3
20000	314.95	.4
25000	315.65	.1
30000	315.85	.2
42800	317.05	.1
50000	318.25	.1
