Measured thermophysical data. Measurements of Bubble Point Pressures for the Binary Mixture of Pentafluoroethane with Chloropentafluoroethane
Source: J. Chem. Eng. Data, 2013, 10.1021/je400837p
Compound 1: chloropentafluoroethane, C2ClF5, purity 99.9%
Compound 2: pentafluoroethane, C2HF5, purity 99.9%

System: chloropentafluoroethane; phases: Liquid, Gas
Property: Vapor or sublimation pressure, kPa (Liquid); method: Closed cell (Static) method
Temperature, K	Vapor or sublimation pressure, kPa	uncertainty
243.15	148.6	1.2
253.15	219.9	1.2
263.15	314.6	1.2
273.15	439.4	1.2
283.15	594.92	1.2
293.15	789.3	1.2
303.15	1028.4	1.2
313.15	1317.9	1.2
323.15	1664.9	1.2
333.15	2077.5	1.2

System: pentafluoroethane; phases: Liquid, Gas
Property: Vapor or sublimation pressure, kPa (Liquid); method: Closed cell (Static) method
Temperature, K	Vapor or sublimation pressure, kPa	uncertainty
243.15	228.1	1.2
253.15	337.3	1.2
263.15	482.5	1.2
273.15	670.5	1.2
283.15	908.8	1.2
293.15	1205.2	1.2
303.15	1568.5	1.2
313.15	2008.5	1.2
323.15	2536.8	1.2
333.15	3170.3	1.2

System: chloropentafluoroethane + pentafluoroethane; phases: Liquid, Gas
Property: Vapor or sublimation pressure, kPa (Liquid); method: Closed cell (Static) method
Temperature, K	Mole fraction of chloropentafluoroethane	Vapor or sublimation pressure, kPa	uncertainty
243.15	0	228.1	1.2
243.15	.106	233	1.2
243.15	.174	233.9	1.2
243.15	.341	231.1	1.2
243.15	.421	227.8	1.2
243.15	.659	209.8	1.2
243.15	.797	192	1.2
243.15	1	148.6	1.2
253.15	0	337.3	1.2
253.15	.106	343.2	1.2
253.15	.174	344	1.2
253.15	.341	339.1	1.2
253.15	.421	333.8	1.2
253.15	.659	306.8	1.2
253.15	.797	281	1.2
253.15	1	219.9	1.2
263.15	0	482.5	1.2
263.15	.106	489.3	1.2
263.15	.174	489.7	1.2
263.15	.341	481.5	1.2
263.15	.421	473.6	1.2
263.15	.659	434.5	1.2
263.15	.797	398.1	1.2
263.15	1	314.6	1.2
273.15	0	670.5	1.2
273.15	.106	677.9	1.2
273.15	.174	677.7	1.2
273.15	.341	664.9	1.2
273.15	.421	653.4	1.2
273.15	.659	598.3	1.2
273.15	.797	548.5	1.2
273.15	1	439.4	1.2
283.15	0	908.8	1.2
283.15	.106	916.4	1.2
283.15	.174	915.1	1.2
283.15	.341	896	1.2
283.15	.421	879.8	1.2
283.15	.659	804.2	1.2
283.15	.797	737.7	1.2
283.15	1	594.92	1.2
293.15	0	1205.2	1.2
293.15	.106	1212.6	1.2
293.15	.174	1209.7	1.2
293.15	.341	1182.3	1.2
293.15	.421	1160.1	1.2
293.15	.659	1058.4	1.2
293.15	.797	971.4	1.2
293.15	1	789.3	1.2
303.15	0	1568.5	1.2
303.15	.106	1575.3	1.2
303.15	.174	1570.1	1.2
303.15	.341	1531.7	1.2
303.15	.421	1501.6	1.2
303.15	.659	1367.6	1.2
303.15	.797	1255.7	1.2
303.15	1	1028.4	1.2
313.15	0	2008.5	1.2
313.15	.106	2013.9	1.2
313.15	.174	2005.8	1.2
313.15	.341	1953.4	1.2
313.15	.421	1913.3	1.2
313.15	.659	1739	1.2
313.15	.797	1597.3	1.2
313.15	1	1317.9	1.2
323.15	0	2536.8	1.2
323.15	.106	2540.5	1.2
323.15	.174	2528.6	1.2
323.15	.341	2458.2	1.2
323.15	.421	2405.4	1.2
323.15	.659	2180.8	1.2
323.15	.797	2003.5	1.2
323.15	1	1664.9	1.2
333.15	0	3170.3	1.2
333.15	.106	3172.5	1.2
333.15	.174	3146	1.2
333.15	.341	3051.8	1.2
333.15	.421	2991.9	1.2
333.15	.659	2702.8	1.2
333.15	.797	2482.9	1.2
333.15	1	2077.5	1.2
