Measured thermophysical data. Excess Molar Enthalpies of Binary Mixtures Containing 1-Methyl-3-octyl-imidazolium Tetrafluoroborate and Alcohols at T = 298.15 K
Source: J. Chem. Eng. Data, 2014, 10.1021/je400709f
Compound 1: ethanol, C2H6O, purity 99.7%
Compound 2: 1-propanol, C3H8O, purity 99.9%
Compound 3: 2-propanol, C3H8O, purity 99.9%
Compound 4: 1-butanol, C4H10O, purity 99.9%
Compound 5: 1-pentanol, C5H12O, purity 99.9%
Compound 6: 1-methyl-3-octylimidazolium tetrafluoroborate, C12H23BF4N2, purity 99%

System: ethanol + 1-methyl-3-octylimidazolium tetrafluoroborate; phases: Liquid
Fixed: Temperature, K = 298.15
Fixed: Pressure, kPa = 101
Property: Excess molar enthalpy (molar enthalpy of mixing), kJ/mol (Liquid); method: Calvet calorimetry
Mole fraction of 1-methyl-3-octylimidazolium tetrafluoroborate	Excess molar enthalpy (molar enthalpy of mixing), kJ/mol	uncertainty
.966	.233	.00233
.935	.442	.00442
.906	.629	.00629
.878	.806	.00806
.852	.963	.00963
.828	1.112	.01112
.805	1.244	.01244
.783	1.368	.01368
.762	1.481	.01481
.743	1.584	.01584
.724	1.679	.01679
.706	1.766	.01766
.689	1.846	.01846
.673	1.918	.01918
.658	1.986	.01986
.643	2.046	.02046
.629	2.104	.02104
.616	2.154	.02154
.603	2.202	.02202
.591	2.245	.02245
.579	2.286	.02286
.567	2.321	.02321
.556	2.356	.02356
.546	2.385	.02385
.536	2.414	.02414
.526	2.438	.02438
.517	2.461	.02461
.507	2.482	.02482
.499	2.499	.02499
.49	2.516	.02516
.47	2.545	.02545
.452	2.569	.02569
.435	2.591	.02591
.419	2.599	.02599
.404	2.604	.02604
.39	2.603	.02603
.377	2.599	.02599
.365	2.591	.02591
.354	2.581	.02581
.344	2.57	.0257
.334	2.557	.02557
.324	2.542	.02542
.315	2.524	.02524
.307	2.502	.02502
.299	2.479	.02479
.291	2.453	.02453
.284	2.424	.02424
.277	2.394	.02394
.271	2.363	.02363
.264	2.331	.02331
.259	2.3	.023
.253	2.268	.02268
.247	2.235	.02235
.242	2.203	.02203
.237	2.171	.02171
.23	2.134	.02134
.222	2.099	.02099
.216	2.065	.02065
.209	2.034	.02034
.204	2.004	.02004
.198	1.975	.01975
.193	1.948	.01948
.188	1.923	.01923
.183	1.898	.01898
.178	1.874	.01874
.174	1.85	.0185
.17	1.827	.01827
.166	1.804	.01804
.162	1.781	.01781
.159	1.76	.0176
.155	1.738	.01738
.152	1.718	.01718
.149	1.698	.01698
.146	1.677	.01677
.143	1.657	.01657
.14	1.636	.01636
.137	1.617	.01617
.135	1.597	.01597

System: 1-propanol + 1-methyl-3-octylimidazolium tetrafluoroborate; phases: Liquid
Fixed: Temperature, K = 298.15
Fixed: Pressure, kPa = 101
Property: Excess molar enthalpy (molar enthalpy of mixing), kJ/mol (Liquid); method: Calvet calorimetry
Mole fraction of 1-methyl-3-octylimidazolium tetrafluoroborate	Excess molar enthalpy (molar enthalpy of mixing), kJ/mol	uncertainty
.974	.199	.00199
.949	.383	.00383
.925	.547	.00547
.902	.705	.00705
.881	.847	.00847
.86	.985	.00985
.841	1.11	.0111
.822	1.227	.01227
.804	1.336	.01336
.787	1.437	.01437
.771	1.532	.01532
.755	1.62	.0162
.74	1.704	.01704
.725	1.779	.01779
.711	1.853	.01853
.698	1.918	.01918
.685	1.983	.01983
.672	2.04	.0204
.66	2.097	.02097
.649	2.146	.02146
.638	2.195	.02195
.627	2.239	.02239
.616	2.282	.02282
.606	2.321	.02321
.596	2.357	.02357
.587	2.391	.02391
.578	2.422	.02422
.569	2.451	.02451
.56	2.477	.02477
.552	2.502	.02502
.532	2.551	.02551
.513	2.582	.02582
.496	2.607	.02607
.48	2.628	.02628
.465	2.643	.02643
.451	2.653	.02653
.437	2.658	.02658
.425	2.659	.02659
.413	2.657	.02657
.401	2.658	.02658
.391	2.653	.02653
.381	2.643	.02643
.371	2.63	.0263
.362	2.612	.02612
.353	2.595	.02595
.345	2.568	.02568
.337	2.539	.02539
.329	2.511	.02511
.322	2.479	.02479
.315	2.449	.02449
.309	2.416	.02416
.302	2.383	.02383
.296	2.351	.02351
.29	2.318	.02318
.285	2.285	.02285
.276	2.236	.02236
.268	2.187	.02187
.261	2.139	.02139
.253	2.093	.02093
.247	2.048	.02048
.24	2.005	.02005
.234	1.964	.01964
.228	1.925	.01925
.223	1.888	.01888
.217	1.854	.01854
.212	1.818	.01818
.208	1.784	.01784
.203	1.752	.01752
.199	1.721	.01721
.194	1.691	.01691
.19	1.663	.01663
.187	1.637	.01637
.183	1.612	.01612
.179	1.588	.01588
.176	1.564	.01564
.173	1.541	.01541
.169	1.518	.01518
.166	1.497	.01497
.163	1.471	.01471
.159	1.445	.01445
.156	1.419	.01419
.152	1.394	.01394
.149	1.37	.0137
.146	1.347	.01347
.144	1.325	.01325
.141	1.303	.01303
.138	1.282	.01282
.136	1.263	.01263

System: 2-propanol + 1-methyl-3-octylimidazolium tetrafluoroborate; phases: Liquid
Fixed: Temperature, K = 298.15
Fixed: Pressure, kPa = 101
Property: Excess molar enthalpy (molar enthalpy of mixing), kJ/mol (Liquid); method: Calvet calorimetry
Mole fraction of 1-methyl-3-octylimidazolium tetrafluoroborate	Excess molar enthalpy (molar enthalpy of mixing), kJ/mol	uncertainty
.974	.201	.00201
.95	.382	.00382
.927	.559	.00559
.904	.717	.00717
.883	.87	.0087
.863	1.008	.01008
.844	1.141	.01141
.825	1.26	.0126
.808	1.376	.01376
.791	1.482	.01482
.775	1.582	.01582
.759	1.676	.01676
.744	1.762	.01762
.73	1.844	.01844
.716	1.919	.01919
.703	1.991	.01991
.69	2.056	.02056
.678	2.119	.02119
.666	2.176	.02176
.654	2.232	.02232
.643	2.281	.02281
.632	2.331	.02331
.622	2.374	.02374
.612	2.418	.02418
.602	2.455	.02455
.593	2.493	.02493
.584	2.526	.02526
.575	2.559	.02559
.566	2.588	.02588
.558	2.615	.02615
.538	2.67	.0267
.519	2.718	.02718
.502	2.757	.02757
.486	2.788	.02788
.471	2.813	.02813
.456	2.832	.02832
.443	2.845	.02845
.43	2.853	.02853
.418	2.858	.02858
.407	2.862	.02862
.396	2.858	.02858
.386	2.849	.02849
.377	2.834	.02834
.367	2.811	.02811
.359	2.784	.02784
.35	2.753	.02753
.342	2.719	.02719
.335	2.684	.02684
.327	2.647	.02647
.32	2.61	.0261
.314	2.571	.02571
.307	2.534	.02534
.301	2.496	.02496
.295	2.458	.02458
.29	2.419	.02419
.281	2.364	.02364
.273	2.31	.0231
.265	2.259	.02259
.258	2.209	.02209
.251	2.139	.02139
.244	2.099	.02099
.238	2.063	.02063
.232	2.026	.02026
.227	1.988	.01988
.221	1.954	.01954
.216	1.922	.01922
.212	1.891	.01891
.207	1.863	.01863
.202	1.837	.01837
.198	1.812	.01812
.194	1.789	.01789
.19	1.766	.01766
.186	1.744	.01744
.183	1.722	.01722
.179	1.7	.017
.176	1.68	.0168
.173	1.66	.0166
.17	1.639	.01639
.165	1.613	.01613
.162	1.587	.01587
.158	1.559	.01559
.154	1.532	.01532
.151	1.506	.01506
.148	1.48	.0148
.144	1.456	.01456
.142	1.432	.01432
.139	1.41	.0141

System: 1-butanol + 1-methyl-3-octylimidazolium tetrafluoroborate; phases: Liquid
Fixed: Temperature, K = 298.15
Fixed: Pressure, kPa = 101
Property: Excess molar enthalpy (molar enthalpy of mixing), kJ/mol (Liquid); method: Calvet calorimetry
Mole fraction of 1-methyl-3-octylimidazolium tetrafluoroborate	Excess molar enthalpy (molar enthalpy of mixing), kJ/mol	uncertainty
.978	.172	.00172
.958	.333	.00333
.938	.477	.00477
.919	.624	.00624
.9	.754	.00754
.883	.87	.0087
.866	.968	.00968
.85	1.061	.01061
.834	1.149	.01149
.819	1.232	.01232
.804	1.311	.01311
.79	1.385	.01385
.777	1.455	.01455
.764	1.52	.0152
.751	1.582	.01582
.739	1.64	.0164
.727	1.695	.01695
.715	1.745	.01745
.704	1.794	.01794
.693	1.855	.01855
.683	1.903	.01903
.673	1.943	.01943
.663	1.982	.01982
.653	2.018	.02018
.644	2.052	.02052
.622	2.138	.02138
.601	2.22	.0222
.582	2.282	.02282
.563	2.344	.02344
.546	2.388	.02388
.53	2.433	.02433
.515	2.463	.02463
.501	2.493	.02493
.487	2.512	.02512
.474	2.533	.02533
.462	2.542	.02542
.451	2.555	.02555
.44	2.556	.02556
.429	2.557	.02557
.419	2.545	.02545
.41	2.531	.02531
.4	2.505	.02505
.392	2.48	.0248
.383	2.45	.0245
.371	2.416	.02416
.359	2.368	.02368
.348	2.316	.02316
.337	2.264	.02264
.328	2.211	.02211
.318	2.159	.02159
.309	2.109	.02109
.301	2.059	.02059
.293	2.01	.0201
.286	1.963	.01963
.279	1.929	.01929
.272	1.895	.01895
.266	1.865	.01865
.259	1.833	.01833
.254	1.803	.01803
.248	1.777	.01777
.243	1.752	.01752
.238	1.727	.01727
.233	1.704	.01704
.228	1.681	.01681
.223	1.659	.01659
.219	1.638	.01638
.214	1.606	.01606
.209	1.575	.01575
.204	1.544	.01544
.2	1.515	.01515
.195	1.487	.01487
.191	1.46	.0146

System: 1-pentanol + 1-methyl-3-octylimidazolium tetrafluoroborate; phases: Liquid
Fixed: Temperature, K = 298.15
Fixed: Pressure, kPa = 101
Property: Excess molar enthalpy (molar enthalpy of mixing), kJ/mol (Liquid); method: Calvet calorimetry
Mole fraction of 1-methyl-3-octylimidazolium tetrafluoroborate	Excess molar enthalpy (molar enthalpy of mixing), kJ/mol	uncertainty
.982	.134	.00134
.964	.262	.00262
.947	.388	.00388
.93	.503	.00503
.914	.618	.00618
.899	.722	.00722
.884	.825	.00825
.87	.92	.0092
.856	1.013	.01013
.842	1.099	.01099
.829	1.182	.01182
.817	1.259	.01259
.804	1.334	.01334
.792	1.405	.01405
.781	1.472	.01472
.77	1.537	.01537
.759	1.597	.01597
.748	1.655	.01655
.738	1.709	.01709
.728	1.763	.01763
.718	1.811	.01811
.708	1.859	.01859
.699	1.903	.01903
.69	1.946	.01946
.681	1.986	.01986
.673	2.024	.02024
.664	2.06	.0206
.656	2.095	.02095
.648	2.127	.02127
.64	2.158	.02158
.622	2.225	.02225
.604	2.283	.02283
.587	2.333	.02333
.572	2.378	.02378
.557	2.418	.02418
.542	2.45	.0245
.529	2.476	.02476
.516	2.498	.02498
.504	2.514	.02514
.492	2.527	.02527
.481	2.537	.02537
.471	2.542	.02542
.46	2.539	.02539
.451	2.529	.02529
.441	2.512	.02512
.432	2.489	.02489
.424	2.461	.02461
.415	2.432	.02432
.407	2.402	.02402
.4	2.371	.02371
.392	2.339	.02339
.385	2.308	.02308
.378	2.278	.02278
.372	2.247	.02247
.365	2.217	.02217
.356	2.175	.02175
.346	2.132	.02132
.338	2.091	.02091
.329	2.052	.02052
.321	2.013	.02013
.314	1.976	.01976
.306	1.941	.01941
.3	1.913	.01913
.293	1.883	.01883
.287	1.852	.01852
.281	1.822	.01822
.275	1.795	.01795
.269	1.768	.01768
.264	1.742	.01742
.259	1.716	.01716
.254	1.692	.01692
.249	1.667	.01667
.244	1.643	.01643
.24	1.624	.01624
.234	1.591	.01591
.229	1.559	.01559
.223	1.528	.01528
.218	1.497	.01497
.213	1.464	.01464
