Measured thermophysical data. Solubility of 4-Hydroxybenzaldehyde in Supercritical Carbon Dioxide with and without Cosolvents
Source: J. Chem. Eng. Data, 2014, 10.1021/je401082x
Compound 1: carbon dioxide, CO2, purity 99.9%
Compound 2: 4-hydroxybenzaldehyde, C7H6O2, purity 98%
Compound 3: ethanol, C2H6O, purity 99.7%
Compound 4: ethyl acetate, C4H8O2, purity 99.5%
Compound 5: acetone, C3H6O, purity 99.5%

System: 4-hydroxybenzaldehyde + carbon dioxide; phases: Gas, Crystal
Property: Mole fraction of 4-hydroxybenzaldehyde (Gas); method: Chromatography
Pressure, kPa	Temperature, K	Mole fraction of 4-hydroxybenzaldehyde	uncertainty
11000	308	.0000201	.000000108
13000	308	.0000258	.000000108
15000	308	.0000325	.000000108
18000	308	.0000438	.000000108
21000	308	.000052	.000000108
11000	318	.0000172	.000000108
13000	318	.0000324	.000000108
15000	318	.0000472	.000000108
18000	318	.0000652	.000000108
21000	318	.0000885	.000000108
11000	328	.0000073	.000000108
13000	328	.0000377	.000000108
15000	328	.0000698	.000000108
18000	328	.0001056	.000000108
21000	328	.0001377	.000000108

System: ethanol + 4-hydroxybenzaldehyde + carbon dioxide; phases: Gas, Crystal
Fixed: Temperature, K = 318
Fixed: Solvent: Mole fraction of ethanol = .04
Property: Mole fraction of 4-hydroxybenzaldehyde (Gas); method: Chromatography
Pressure, kPa	Mole fraction of 4-hydroxybenzaldehyde	uncertainty
11000	.000019	.000000115
13000	.0000432	.000000115
15000	.0000588	.000000115
18000	.0000847	.000000115
21000	.0001127	.000000115

System: 4-hydroxybenzaldehyde + carbon dioxide + ethyl acetate; phases: Gas, Crystal
Fixed: Temperature, K = 318
Fixed: Solvent: Mole fraction of ethyl acetate = .04
Property: Mole fraction of 4-hydroxybenzaldehyde (Gas); method: Chromatography
Pressure, kPa	Mole fraction of 4-hydroxybenzaldehyde	uncertainty
11000	.0000277	.000000115
13000	.0000569	.000000115
15000	.0000911	.000000115
18000	.0001518	.000000115
21000	.000216	.000000115

System: acetone + 4-hydroxybenzaldehyde + carbon dioxide; phases: Gas, Crystal
Fixed: Temperature, K = 318
Fixed: Solvent: Mole fraction of acetone = .04
Property: Mole fraction of 4-hydroxybenzaldehyde (Gas); method: Chromatography
Pressure, kPa	Mole fraction of 4-hydroxybenzaldehyde	uncertainty
11000	.0000352	.000000115
13000	.0000903	.000000115
15000	.000132	.000000115
18000	.0001959	.000000115
21000	.0002778	.000000115
