Measured thermophysical data. Isobaric Vapor Liquid Equilibrium of Binary and Ternary Systems with 2-Ethoxyethanol + Ethylbenzene + Dimethyl Sulfoxide
Source: J. Chem. Eng. Data, 2013, 10.1021/je4006739
Compound 1: 2-ethoxyethanol, C4H10O2, purity 99.88%
Compound 2: ethylbenzene, C8H10, purity 99.76%
Compound 3: dimethyl sulfoxide, C2H6OS, purity 99.92%

System: 2-ethoxyethanol; phases: Liquid, Gas
Property: Normal boiling temperature, K (Liquid); method: Ebulliometric method (Recirculating still)
Normal boiling temperature, K	uncertainty
408.35	.100000000000023

System: 2-ethoxyethanol; phases: Liquid
Fixed: Pressure, kPa = 101.325
Property: Mass density, kg/m3 (Liquid); method: Vibrating tube method
Temperature, K	Mass density, kg/m3	uncertainty
293.15	928.92	.01

System: ethylbenzene; phases: Liquid, Gas
Property: Normal boiling temperature, K (Liquid); method: Ebulliometric method (Recirculating still)
Normal boiling temperature, K	uncertainty
409.25	.100000000000023

System: ethylbenzene; phases: Liquid
Fixed: Pressure, kPa = 101.325
Property: Mass density, kg/m3 (Liquid); method: Vibrating tube method
Temperature, K	Mass density, kg/m3	uncertainty
293.15	863.64	.01

System: dimethyl sulfoxide; phases: Liquid, Gas
Property: Normal boiling temperature, K (Liquid); method: Ebulliometric method (Recirculating still)
Normal boiling temperature, K	uncertainty
462.25	.100000000000023

System: dimethyl sulfoxide; phases: Liquid
Fixed: Pressure, kPa = 101.325
Property: Mass density, kg/m3 (Liquid); method: Vibrating tube method
Temperature, K	Mass density, kg/m3	uncertainty
293.15	1092.48	.01

System: ethylbenzene + 2-ethoxyethanol; phases: Liquid, Gas
Fixed: Pressure, kPa = 100
Property: Boiling temperature at pressure P, K (Liquid); method: Ebulliometric method (Recirculating still)
Mole fraction of 2-ethoxyethanol	Boiling temperature at pressure P, K	uncertainty
.9782	407	.1
.8984	404.9	.1
.8065	402.9	.1
.7262	401.7	.1
.6622	401	.1
.5752	400.7	.1
.5529	400.6	.1
.4817	400.5	.1
.381	400.8	.1
.3192	401.2	.1
.2508	401.9	.1
.1543	403.1	.1
.0991	404.8	.1
.0533	406.3	.1
.029	407.3	.1

System: ethylbenzene + 2-ethoxyethanol; phases: Gas, Liquid
Fixed: Pressure, kPa = 100
Property: Mole fraction of 2-ethoxyethanol (Gas); method: Chromatography
Mole fraction of 2-ethoxyethanol	Mole fraction of 2-ethoxyethanol	uncertainty
.9782	.9507	.001
.8984	.8155	.001
.8065	.701	.001
.7262	.6383	.001
.6622	.5781	.001
.5752	.5332	.001
.5529	.521	.001
.4817	.4843	.001
.381	.4243	.001
.3192	.3989	.001
.2508	.3445	.001
.1543	.2637	.001
.0991	.1874	.001
.0533	.1207	.001
.029	.0661	.001

System: dimethyl sulfoxide + 2-ethoxyethanol; phases: Liquid, Gas
Fixed: Pressure, kPa = 100
Property: Boiling temperature at pressure P, K (Liquid); method: Ebulliometric method (Recirculating still)
Mole fraction of 2-ethoxyethanol	Boiling temperature at pressure P, K	uncertainty
.9318	410.3	.1
.8314	415.1	.1
.7267	420.3	.1
.637	425.9	.1
.4848	435.4	.1
.4199	438.4	.1
.3427	443.7	.1
.2784	447.7	.1
.2047	451.6	.1
.1372	455.8	.1
.086	458.7	.1
.0419	460.9	.1

System: dimethyl sulfoxide + 2-ethoxyethanol; phases: Gas, Liquid
Fixed: Pressure, kPa = 100
Property: Mole fraction of 2-ethoxyethanol (Gas); method: Chromatography
Mole fraction of 2-ethoxyethanol	Mole fraction of 2-ethoxyethanol	uncertainty
.9318	.9923	.001
.8314	.9755	.001
.7267	.9443	.001
.637	.9037	.001
.4848	.7925	.001
.4199	.7386	.001
.3427	.6454	.001
.2784	.5502	.001
.2047	.4338	.001
.1372	.3171	.001
.086	.197	.001
.0419	.0967	.001

System: dimethyl sulfoxide + ethylbenzene; phases: Liquid, Gas
Fixed: Pressure, kPa = 100
Property: Boiling temperature at pressure P, K (Liquid); method: Ebulliometric method (Recirculating still)
Mole fraction of ethylbenzene	Boiling temperature at pressure P, K	uncertainty
.8524	410	.1
.7658	411.5	.1
.6884	412.6	.1
.5356	415.7	.1
.4471	418.3	.1
.3745	421.7	.1
.2343	429.8	.1
.1578	436.4	.1
.1364	440.5	.1
.0439	451.6	.1
.032	455.1	.1
.0169	459.1	.1

System: dimethyl sulfoxide + ethylbenzene; phases: Gas, Liquid
Fixed: Pressure, kPa = 100
Property: Mole fraction of ethylbenzene (Gas); method: Chromatography
Mole fraction of ethylbenzene	Mole fraction of ethylbenzene	uncertainty
.8524	.9377	.001
.7658	.9106	.001
.6884	.8963	.001
.5356	.8523	.001
.4471	.8345	.001
.3745	.7988	.001
.2343	.6912	.001
.1578	.5912	.001
.1364	.5401	.001
.0439	.2732	.001
.032	.2108	.001
.0169	.1212	.001

System: dimethyl sulfoxide + ethylbenzene + 2-ethoxyethanol; phases: Liquid, Gas
Fixed: Pressure, kPa = 100
Property: Mole fraction of ethylbenzene (Liquid); method: Chromatography
Property: Mole fraction of 2-ethoxyethanol (Gas); method: Chromatography
Property: Mole fraction of ethylbenzene (Gas); method: Chromatography
Temperature, K	Mole fraction of 2-ethoxyethanol	Mole fraction of ethylbenzene	uncertainty	Mole fraction of 2-ethoxyethanol	uncertainty	Mole fraction of ethylbenzene	uncertainty
435.6	.4598	.003	.001	.7518	.001	.0271	.001
422.9	.2045	.2366	.001	.2203	.001	.6138	.001
421.5	.1335	.2988	.001	.1484	.001	.6878	.001
420.3	.0605	.3693	.001	.0663	.001	.7632	.001
420.1	.0346	.39	.001	.0288	.001	.7871	.001
433.8	.4459	.0165	.001	.6946	.001	.0876	.001
432.1	.4235	.0364	.001	.6284	.001	.1702	.001
431	.4042	.0543	.001	.5678	.001	.2333	.001
429.1	.3712	.0843	.001	.4842	.001	.3316	.001
427.1	.3241	.1269	.001	.401	.001	.4167	.001
426.5	.3156	.1328	.001	.3796	.001	.4473	.001
425.8	.2926	.1537	.001	.3398	.001	.4839	.001
424.1	.2463	.1992	.001	.2688	.001	.5515	.001
