Measured thermophysical data. Acoustic and Volumetric Properties of Binary Mixtures of Ionic Liquid 1-Butyl-3-methylimidazolium Bis(trifluoromethylsulfonyl)imide with Acetonitrile and Tetrahydrofuran
Source: J. Chem. Eng. Data, 2014, 10.1021/je400781b
Compound 1: 1-butyl-3-methylimidazolium bis(trifluoromethylsulfonyl)imide, C10H15F6N3O4S2, purity 99%
Compound 2: acetonitrile, C2H3N, purity 99.8%
Compound 3: tetrahydrofuran, C4H8O, purity 99.9%

System: 1-butyl-3-methylimidazolium bis(trifluoromethylsulfonyl)imide; phases: Liquid
Fixed: Pressure, kPa = 101.325
Property: Refractive index (Na D-line) (Liquid); method: Standard Abbe refractometry
Temperature, K	Refractive index (Na D-line)	uncertainty
298.15	1.4265	.0002

System: 1-butyl-3-methylimidazolium bis(trifluoromethylsulfonyl)imide; phases: Liquid
Property: Mass density, kg/m3 (Liquid); method: Vibrating tube method
Temperature, K	Pressure, kPa	Mass density, kg/m3	uncertainty
293.15	101.325	1439.23	.05
298.15	101.325	1434.44	.05
303.15	101.325	1429.65	.05
308.15	101.325	1424.88	.05
313.15	101.325	1420.12	.05
293.15	101.325	1439.23	.05
298.15	101.325	1434.44	.05
303.15	101.325	1429.65	.05
308.15	101.325	1424.88	.05

System: 1-butyl-3-methylimidazolium bis(trifluoromethylsulfonyl)imide; phases: Liquid
Fixed: Frequency, MHz = 2.75
Property: Speed of sound, m/s (Liquid); method: Pulse-echo method
Temperature, K	Pressure, kPa	Speed of sound, m/s	uncertainty
293.15	101	1237.9	.5
298.15	101	1226.7	.5
303.15	101	1215.6	.5
308.15	101	1204.6	.5
313.15	101	1193.7	.5

System: 1-butyl-3-methylimidazolium bis(trifluoromethylsulfonyl)imide; phases: Liquid
Property: Mass density, kg/m3 (Liquid); method: Vibrating tube method
Temperature, K	Pressure, kPa	Mass density, kg/m3	uncertainty
293.15	101	1439.23	.05
298.15	101	1434.44	.05
303.15	101	1429.65	.05
308.15	101	1424.88	.05
313.15	101	1420.12	.05

System: acetonitrile; phases: Liquid
Fixed: Pressure, kPa = 101.325
Property: Refractive index (Na D-line) (Liquid); method: Standard Abbe refractometry
Temperature, K	Refractive index (Na D-line)	uncertainty
298.15	1.3416	.0002

System: acetonitrile; phases: Liquid
Property: Mass density, kg/m3 (Liquid); method: Vibrating tube method
Temperature, K	Pressure, kPa	Mass density, kg/m3	uncertainty
293.15	101.325	782	.05
298.15	101.325	776.6	.05
303.15	101.325	771.18	.05
308.15	101.325	765.72	.05
313.15	101.325	760.24	.05

System: acetonitrile; phases: Liquid
Fixed: Frequency, MHz = 2.75
Property: Speed of sound, m/s (Liquid); method: Pulse-echo method
Temperature, K	Pressure, kPa	Speed of sound, m/s	uncertainty
293.15	101	1298.2	.5
298.15	101	1277.7	.5
303.15	101	1257.2	.5
308.15	101	1236.9	.5
313.15	101	1216.6	.5

System: acetonitrile; phases: Liquid
Property: Mass density, kg/m3 (Liquid); method: Vibrating tube method
Temperature, K	Pressure, kPa	Mass density, kg/m3	uncertainty
293.15	101	782	.05
298.15	101	776.6	.05
303.15	101	771.18	.05
308.15	101	765.72	.05
313.15	101	760.24	.05

System: tetrahydrofuran; phases: Liquid
Fixed: Pressure, kPa = 101.325
Property: Refractive index (Na D-line) (Liquid); method: Standard Abbe refractometry
Temperature, K	Refractive index (Na D-line)	uncertainty
298.15	1.4052	.0002

System: tetrahydrofuran; phases: Liquid
Property: Mass density, kg/m3 (Liquid); method: Vibrating tube method
Temperature, K	Pressure, kPa	Mass density, kg/m3	uncertainty
293.15	101.325	887.52	.05
298.15	101.325	882.06	.05
303.15	101.325	876.57	.05
308.15	101.325	871.04	.05

System: tetrahydrofuran; phases: Liquid
Fixed: Frequency, MHz = 2.75
Property: Speed of sound, m/s (Liquid); method: Pulse-echo method
Temperature, K	Pressure, kPa	Speed of sound, m/s	uncertainty
293.15	101	1301.9	.5
298.15	101	1277.5	.5
303.15	101	1253.2	.5
308.15	101	1229	.5

System: tetrahydrofuran; phases: Liquid
Property: Mass density, kg/m3 (Liquid); method: Vibrating tube method
Temperature, K	Pressure, kPa	Mass density, kg/m3	uncertainty
293.15	101	887.52	.05
298.15	101	882.06	.05
303.15	101	876.57	.05
308.15	101	871.04	.05

System: acetonitrile + 1-butyl-3-methylimidazolium bis(trifluoromethylsulfonyl)imide; phases: Liquid
Fixed: Pressure, kPa = 101
Fixed: Frequency, MHz = 2.75
Property: Speed of sound, m/s (Liquid); method: Pulse-echo method
Temperature, K	Mole fraction of 1-butyl-3-methylimidazolium bis(trifluoromethylsulfonyl)imide	Speed of sound, m/s	uncertainty
293.15	0	1298.2	.5
293.15	.0506	1259.9	.5
293.15	.1242	1241	.5
293.15	.2041	1235	.5
293.15	.341	1234	.5
293.15	.5016	1235.1	.5
293.15	.6525	1236.2	.5
293.15	.7861	1237.1	.5
293.15	.9575	1237.9	.5
293.15	1	1237.9	.5
298.15	0	1277.7	.5
298.15	.0506	1241.7	.5
298.15	.1242	1224.8	.5
298.15	.2041	1220.1	.5
298.15	.341	1220.4	.5
298.15	.5016	1222.4	.5
298.15	.6525	1224.1	.5
298.15	.7861	1225.4	.5
298.15	.9575	1226.6	.5
298.15	1	1226.7	.5
303.15	0	1257.2	.5
303.15	.0506	1223.7	.5
303.15	.1242	1208.7	.5
303.15	.2041	1205.3	.5
303.15	.341	1206.9	.5
303.15	.5016	1209.9	.5
303.15	.6525	1212.1	.5
303.15	.7861	1213.8	.5
303.15	.9575	1215.4	.5
303.15	1	1215.6	.5
308.15	0	1236.9	.5
308.15	.0506	1205.7	.5
308.15	.1242	1192.7	.5
308.15	.2041	1190.6	.5
308.15	.341	1193.5	.5
308.15	.5016	1197.5	.5
308.15	.6525	1200.3	.5
308.15	.7861	1202.4	.5
308.15	.9575	1204.3	.5
308.15	1	1204.6	.5
313.15	0	1216.6	.5
313.15	.0506	1187.9	.5
313.15	.1242	1176.8	.5
313.15	.2041	1176	.5
313.15	.341	1180.3	.5
313.15	.5016	1185.2	.5
313.15	.6525	1188.6	.5
313.15	.7861	1191	.5
313.15	.9575	1193.4	.5
313.15	1	1193.7	.5

System: acetonitrile + 1-butyl-3-methylimidazolium bis(trifluoromethylsulfonyl)imide; phases: Liquid
Fixed: Pressure, kPa = 101
Property: Mass density, kg/m3 (Liquid); method: Vibrating tube method
Temperature, K	Mole fraction of 1-butyl-3-methylimidazolium bis(trifluoromethylsulfonyl)imide	Mass density, kg/m3	uncertainty
293.15	0	782	.05
293.15	.0506	936.84	.05
293.15	.1242	1078.45	.05
293.15	.2041	1175.48	.05
293.15	.341	1275.66	.05
293.15	.5016	1343.88	.05
293.15	.6525	1384.46	.05
293.15	.7861	1410.16	.05
293.15	.9575	1434.22	.05
293.15	1	1439.23	.05
298.15	0	776.6	.05
298.15	.0506	931.39	.05
298.15	.1242	1073.07	.05
298.15	.2041	1170.19	.05
298.15	.341	1270.52	.05
298.15	.5016	1338.86	.05
298.15	.6525	1379.53	.05
298.15	.7861	1405.28	.05
298.15	.9575	1429.41	.05
298.15	1	1434.44	.05
303.15	0	771.18	.05
303.15	.0506	925.93	.05
303.15	.1242	1067.67	.05
303.15	.2041	1164.9	.05
303.15	.341	1265.38	.05
303.15	.5016	1333.85	.05
303.15	.6525	1374.6	.05
303.15	.7861	1400.42	.05
303.15	.9575	1424.61	.05
303.15	1	1429.65	.05
308.15	0	765.72	.05
308.15	.0506	920.45	.05
308.15	.1242	1062.27	.05
308.15	.2041	1159.61	.05
308.15	.341	1260.25	.05
308.15	.5016	1328.85	.05
308.15	.6525	1369.69	.05
308.15	.7861	1395.58	.05
308.15	.9575	1419.83	.05
308.15	1	1424.88	.05
313.15	0	760.24	.05
313.15	.0506	914.95	.05
313.15	.1242	1056.87	.05
313.15	.2041	1154.32	.05
313.15	.341	1255.12	.05
313.15	.5016	1323.86	.05
313.15	.6525	1364.79	.05
313.15	.7861	1390.74	.05
313.15	.9575	1415.06	.05
313.15	1	1420.12	.05

System: tetrahydrofuran + 1-butyl-3-methylimidazolium bis(trifluoromethylsulfonyl)imide; phases: Liquid
Fixed: Pressure, kPa = 101
Fixed: Frequency, MHz = 2.75
Property: Speed of sound, m/s (Liquid); method: Pulse-echo method
Temperature, K	Mole fraction of 1-butyl-3-methylimidazolium bis(trifluoromethylsulfonyl)imide	Speed of sound, m/s	uncertainty
293.15	0	1301.9	.5
293.15	.0507	1276.2	.5
293.15	.124	1257.3	.5
293.15	.1963	1246.9	.5
293.15	.3526	1236.8	.5
293.15	.4962	1234.1	.5
293.15	.6378	1233.5	.5
293.15	.8047	1235.6	.5
293.15	.9143	1236.9	.5
293.15	1	1237.9	.5
298.15	0	1277.5	.5
298.15	.0507	1254.6	.5
298.15	.124	1238.5	.5
298.15	.1963	1230	.5
298.15	.3526	1222.4	.5
298.15	.4962	1220.9	.5
298.15	.6378	1221	.5
298.15	.8047	1223.8	.5
298.15	.9143	1225.4	.5
298.15	1	1226.7	.5
303.15	0	1253.2	.5
303.15	.0507	1233.2	.5
303.15	.124	1219.9	.5
303.15	.1963	1213.2	.5
303.15	.3526	1208	.5
303.15	.4962	1207.8	.5
303.15	.6378	1208.7	.5
303.15	.8047	1212.2	.5
303.15	.9143	1214.1	.5
303.15	1	1215.6	.5
308.15	0	1229	.5
308.15	.0507	1212	.5
308.15	.124	1201.5	.5
308.15	.1963	1196.6	.5
308.15	.3526	1193.8	.5
308.15	.4962	1194.9	.5
308.15	.6378	1196.5	.5
308.15	.8047	1200.7	.5
308.15	.9143	1203	.5
308.15	1	1204.6	.5

System: tetrahydrofuran + 1-butyl-3-methylimidazolium bis(trifluoromethylsulfonyl)imide; phases: Liquid
Fixed: Pressure, kPa = 101
Property: Mass density, kg/m3 (Liquid); method: Vibrating tube method
Temperature, K	Mole fraction of 1-butyl-3-methylimidazolium bis(trifluoromethylsulfonyl)imide	Mass density, kg/m3	uncertainty
293.15	0	887.52	.05
293.15	.0507	981.03	.05
293.15	.124	1080.62	.05
293.15	.1963	1153.02	.05
293.15	.3526	1258.69	.05
293.15	.4962	1321.98	.05
293.15	.6378	1366.6	.05
293.15	.8047	1405.56	.05
293.15	.9143	1425.59	.05
293.15	1	1439.23	.05
298.15	0	882.06	.05
298.15	.0507	975.68	.05
298.15	.124	1075.39	.05
298.15	.1963	1147.88	.05
298.15	.3526	1253.67	.05
298.15	.4962	1317.04	.05
298.15	.6378	1361.72	.05
298.15	.8047	1400.72	.05
298.15	.9143	1420.79	.05
298.15	1	1434.44	.05
303.15	0	876.57	.05
303.15	.0507	970.55	.05
303.15	.124	1070.15	.05
303.15	.1963	1142.73	.05
303.15	.3526	1248.66	.05
303.15	.4962	1312.1	.05
303.15	.6378	1356.84	.05
303.15	.8047	1395.89	.05
303.15	.9143	1415.99	.05
303.15	1	1429.65	.05
308.15	0	871.04	.05
308.15	.0507	965.26	.05
308.15	.124	1064.96	.05
308.15	.1963	1137.6	.05
308.15	.3526	1243.66	.05
308.15	.4962	1307.18	.05
308.15	.6378	1351.97	.05
308.15	.8047	1391.07	.05
308.15	.9143	1411.2	.05
308.15	1	1424.88	.05
