Measured thermophysical data. Vapor Liquid Equilibria of CO2 + C1 C5 Alcohols from the Experiment and the COSMO-SAC Model
Source: J. Chem. Eng. Data, 2013, 10.1021/je400643q
Compound 1: carbon dioxide, CO2, purity 99.995%
Compound 2: 2,2-dimethyl-1-propanol, C5H12O, purity 99%

System: 2,2-dimethyl-1-propanol + carbon dioxide; phases: Liquid, Gas
Property: Mole fraction of carbon dioxide (Liquid); method: Density calibration data
Temperature, K	Pressure, kPa	Mole fraction of carbon dioxide	uncertainty
333.2	5090	.28	.002
333.2	5080	.288	.002
333.2	6630	.405	.002
333.2	8070	.515	.003
333.2	9040	.629	.003
333.2	10170	.788	.004
333.2	10660	.853	.005
333.2	10540	.861	.005
353.2	5330	.267	.001
353.2	5870	.292	.002
353.2	7330	.366	.002
353.2	9430	.492	.003
353.2	11070	.607	.003
353.2	12420	.764	.004
353.2	12790	.837	.005
353.2	12800	.84	.005
