Measured thermophysical data. Vapor Liquid Equilibrium Data for the Morpholine-4-carbaldehyde + n-Hexane or n-Heptane Binary Systems Using a Static-Synthetic Apparatus
Source: J. Chem. Eng. Data, 2013, 10.1021/je4004417
Compound 1: 4-formylmorpholine, C5H9NO2
Compound 2: n-hexane, C6H14
Compound 3: n-heptane, C7H16

System: 4-formylmorpholine; phases: Liquid
Fixed: Pressure, kPa = 101.325
Property: Refractive index (Na D-line) (Liquid); method: Standard Abbe refractometry
Temperature, K	Refractive index (Na D-line)	uncertainty
293.15	1.4844	

System: 4-formylmorpholine; phases: Liquid, Gas
Property: Vapor or sublimation pressure, kPa (Liquid); method: Closed cell (Static) method
Temperature, K	Vapor or sublimation pressure, kPa	uncertainty
343.15	.16	.106
363.15	.49	.106
393.15	2.18	.106
343.15	.15	.106

System: n-hexane; phases: Liquid
Fixed: Pressure, kPa = 101.325
Property: Refractive index (Na D-line) (Liquid); method: Standard Abbe refractometry
Temperature, K	Refractive index (Na D-line)	uncertainty
293.15	1.3748	

System: n-hexane; phases: Liquid, Gas
Property: Vapor or sublimation pressure, kPa (Liquid); method: Closed cell (Static) method
Temperature, K	Vapor or sublimation pressure, kPa	uncertainty
343.15	105.47	1.06
363.15	190.95	1.06
393.15	400.27	1.06

System: n-heptane; phases: Liquid
Fixed: Pressure, kPa = 101.325
Property: Refractive index (Na D-line) (Liquid); method: Standard Abbe refractometry
Temperature, K	Refractive index (Na D-line)	uncertainty
1.3877	1.3877	

System: n-heptane; phases: Liquid, Gas
Property: Vapor or sublimation pressure, kPa (Liquid); method: Closed cell (Static) method
Temperature, K	Vapor or sublimation pressure, kPa	uncertainty
343.15	40.4	.106
363.15	78.59	.106
393.15	183.7	1.06

System: n-hexane + 4-formylmorpholine; phases: Liquid, Gas
Property: Vapor or sublimation pressure, kPa (Liquid); method: Closed cell (Static) method
Temperature, K	Mole fraction of n-hexane	Vapor or sublimation pressure, kPa	uncertainty
343.15	0	.16	.106
343.15	.005	11.73	.106
343.15	.011	20.48	.106
343.15	.018	30.36	.106
343.15	.023	36.9	.106
343.15	.027	41.9	.106
343.15	.032	45.67	.106
343.15	.037	49.12	.106
343.15	.058	63.88	.106
343.15	.09	78.03	.106
343.15	.15	88.88	.106
343.15	.21	93.93	.106
343.15	.27	96.52	.106
343.15	.355	99.1	.106
343.15	.549	100.15	1.06
343.15	.279	96.9	.106
343.15	.311	98.3	.106
343.15	.381	99.4	.106
343.15	.43	99.63	.106
343.15	.476	99.87	.106
343.15	.533	100.05	1.06
343.15	.633	100.37	1.06
343.15	.737	100.51	1.06
343.15	.78	100.65	1.06
343.15	.828	100.8	1.06
343.15	.883	100.92	1.06
343.15	.945	102.73	1.06
343.15	.959	103.11	1.06
343.15	.965	103.51	1.06
343.15	.994	104.3	1.06
343.15	1	105.47	1.06
363.15	0	.49	.106
363.15	.006	12.31	.106
363.15	.011	22.87	.106
363.15	.019	34.9	.106
363.15	.024	42.61	.106
363.15	.028	49.03	.106
363.15	.033	55.36	.106
363.15	.037	60.89	.106
363.15	.058	84.79	.106
363.15	.089	108.92	1.06
363.15	.148	137.32	1.06
363.15	.209	153.19	1.06
363.15	.268	162.82	1.06
363.15	.354	168.78	1.06
363.15	.549	174.43	1.06
363.15	.276	163.26	1.06
363.15	.308	165.64	1.06
363.15	.377	170.04	1.06
363.15	.425	172.36	1.06
363.15	.47	173.97	1.06
363.15	.526	174.29	1.06
363.15	.627	175.84	1.06
363.15	.732	176.8	1.06
363.15	.775	178.3	1.06
363.15	.824	178.45	1.06
363.15	.88	179.64	1.06
363.15	.944	183.95	1.06
363.15	.958	184.9	1.06
363.15	.964	185.5	1.06
363.15	.994	189.88	1.06
363.15	1	190.95	1.06
393.15	0	2.18	.106
393.15	.005	24.17	.106
393.15	.009	42.98	.106
393.15	.015	69.88	.106
393.15	.019	82.99	.106
393.15	.022	97.19	.106
393.15	.026	110.26	1.06
393.15	.03	122.95	1.06
393.15	.048	171.25	1.06
393.15	.077	227.23	1.06
393.15	.134	291.5	1.06
393.15	.195	325.96	1.06
393.15	.256	345.31	1.06
393.15	.345	358.94	1.06
393.15	.546	366.73	1.06
393.15	.263	346.96	1.06
393.15	.293	352.2	1.06
393.15	.359	359.23	1.06
393.15	.406	362.91	1.06
393.15	.45	365.03	1.06
393.15	.506	367.55	1.06
393.15	.607	368.94	1.06
393.15	.715	370.76	1.06
393.15	.76	373.05	1.06
393.15	.811	374.21	1.06
393.15	.871	378.39	1.06
393.15	.939	385.34	1.06
393.15	.954	388.11	1.06
393.15	.961	389.52	1.06
393.15	.993	398.28	1.06
393.15	1	400.27	1.06

System: n-heptane + 4-formylmorpholine; phases: Liquid, Gas
Property: Vapor or sublimation pressure, kPa (Liquid); method: Closed cell (Static) method
Temperature, K	Mole fraction of n-heptane	Vapor or sublimation pressure, kPa	uncertainty
343.15	0	.15	.106
343.15	.003	10.4	.106
343.15	.004	13.6	.106
343.15	.004	14.2	.106
343.15	.01	23.88	.106
343.15	.015	27.81	.106
343.15	.027	31.61	.106
343.15	.042	33.37	.106
343.15	.083	34.39	.106
343.15	.154	34.85	.106
343.15	.2	34.94	.106
343.15	.312	35.02	.106
343.15	.371	35.15	.106
343.15	.432	35.38	.106
343.15	.499	35.44	.106
343.15	.559	35.54	.106
343.15	.611	35.9	.106
343.15	.642	35.9	.106
343.15	.571	35.6	.106
343.15	.731	36.41	.106
343.15	.775	36.66	.106
343.15	.824	37.02	.106
343.15	.88	37.62	.106
343.15	.943	38.4	.106
343.15	.957	38.7	.106
343.15	.964	39	.106
343.15	.972	39.2	.106
343.15	.986	39.76	.106
343.15	.994	40.1	.106
343.15	1	40.4	.106
363.15	0	.49	.106
363.15	.003	9.89	.106
363.15	.004	12.91	.106
363.15	.005	13.62	.106
363.15	.01	25.22	.106
363.15	.014	32.11	.106
363.15	.024	42.41	.106
363.15	.037	51.09	.106
363.15	.075	61.8	.106
363.15	.146	66.91	.106
363.15	.193	68.09	.106
363.15	.307	69.28	.106
363.15	.366	69.55	.106
363.15	.428	69.58	.106
363.15	.496	69.94	.106
363.15	.557	70.18	.106
363.15	.61	70.2	.106
363.15	.64	70.34	.106
363.15	.566	70.1	.106
363.15	.728	71.32	.106
363.15	.772	71.6	.106
363.15	.821	72.33	.106
363.15	.878	73.3	.106
363.15	.943	75.11	.106
363.15	.957	75.58	.106
363.15	.964	76.06	.106
363.15	.971	76.5	.106
363.15	.986	77.6	.106
363.15	.994	78.52	.106
363.15	1	78.59	.106
393.15	0	2.18	.106
393.15	.002	12.56	.106
393.15	.003	14.21	.106
393.15	.004	19.05	.106
393.15	.01	39.91	.106
393.15	.012	46.85	.106
393.15	.02	67.07	.106
393.15	.03	88.05	.106
393.15	.061	129.32	1.06
393.15	.131	162.95	1.06
393.15	.167	167.94	1.06
393.15	.19	169.13	1.06
393.15	.22	171.74	1.06
393.15	.259	173.01	1.06
393.15	.31	174.13	1.06
393.15	.381	175.22	1.06
393.15	.546	175.95	1.06
393.15	.618	175.51	1.06
393.15	.443	175.2	1.06
393.15	.488	175.52	1.06
393.15	.654	176.03	1.06
393.15	.702	176.25	1.06
393.15	.758	176.35	1.06
393.15	.789	176.37	1.06
393.15	.824	177.15	1.06
393.15	.861	177.31	1.06
393.15	.902	177.61	1.06
393.15	.947	180.04	1.06
393.15	.961	180.6	1.06
393.15	.976	181.21	1.06
393.15	.986	181.9	1.06
393.15	.996	182.99	1.06
393.15	1	183.7	1.06
