Measured thermophysical data. Volumetric, Viscometric, and Refractive Index Behavior of 7-Hydroxy-4-methylcoumarin in Aqueous Ethanol or 1-Propanol Solutions in the Temperature Range of (293.15 to 313.15) K
Source: J. Chem. Eng. Data, 2013, 10.1021/je4003515
Compound 1: 4-methyl-7-hydroxycoumarin, C10H8O3, purity 98%
Compound 2: ethanol, C2H6O, purity 99.7%
Compound 3: n-propyl alcohol, C3H8O, purity 99.5%
Compound 4: water, H2O, purity 99.9%

System: ethanol + 4-methyl-7-hydroxycoumarin + water; phases: Liquid
Fixed: Pressure, kPa = 101
Property: Mass density, kg/m3 (Liquid); method: Vibrating tube method
Temperature, K	Solvent: Molality, mol/kg of ethanol	Molality, mol/kg of 4-methyl-7-hydroxycoumarin	Mass density, kg/m3	uncertainty
293.15	14	0	936.706	.5
293.15	14	.01	937.508	.5
293.15	14	.015	937.906	.5
293.15	14	.02	938.3	.5
293.15	14	.025	938.693	.5
293.15	14	.03	939.083	.5
293.15	16	0	930.583	.5
293.15	16	.01	931.357	.5
293.15	16	.015	931.738	.5
293.15	16	.02	932.121	.5
293.15	16	.025	932.497	.5
293.15	16	.0296	932.844	.5
293.15	18	0	924.182	.5
293.15	18	.01	924.924	.5
293.15	18	.015	925.29	.5
293.15	18	.02	925.654	.5
293.15	18	.025	926.016	.5
293.15	18	.03	926.375	.5
298.15	14	0	933.024	.5
298.15	14	.01	933.851	.5
298.15	14	.015	934.261	.5
298.15	14	.02	934.667	.5
298.15	14	.025	935.072	.5
298.15	14	.03	935.473	.5
298.15	16	0	926.799	.5
298.15	16	.01	927.6	.5
298.15	16	.015	927.995	.5
298.15	16	.02	928.391	.5
298.15	16	.025	928.781	.5
298.15	16	.0296	929.138	.5
298.15	18	0	920.298	.5
298.15	18	.01	921.057	.5
298.15	18	.015	921.432	.5
298.15	18	.02	921.803	.5
298.15	18	.025	922.174	.5
298.15	18	.03	922.538	.5
303.15	14	0	929.265	.5
303.15	14	.01	930.111	.5
303.15	14	.015	930.53	.5
303.15	14	.02	930.945	.5
303.15	14	.025	931.358	.5
303.15	14	.03	931.769	.5
303.15	16	0	922.942	.5
303.15	16	.01	923.768	.5
303.15	16	.015	924.174	.5
303.15	16	.02	924.582	.5
303.15	16	.025	924.983	.5
303.15	16	.0296	925.352	.5
303.15	18	0	916.351	.5
303.15	18	.01	917.137	.5
303.15	18	.015	917.525	.5
303.15	18	.02	917.91	.5
303.15	18	.025	918.294	.5
303.15	18	.03	918.672	.5
308.15	14	0	925.437	.5
308.15	14	.01	926.299	.5
308.15	14	.015	926.727	.5
308.15	14	.02	927.149	.5
308.15	14	.025	927.57	.5
308.15	14	.03	927.987	.5
308.15	16	0	919.015	.5
308.15	16	.01	919.861	.5
308.15	16	.015	920.277	.5
308.15	16	.02	920.695	.5
308.15	16	.025	921.105	.5
308.15	16	.0296	921.482	.5
308.15	18	0	912.337	.5
308.15	18	.01	913.146	.5
308.15	18	.015	913.547	.5
308.15	18	.02	913.942	.5
308.15	18	.025	914.336	.5
308.15	18	.03	914.725	.5
313.15	14	0	921.529	.5
313.15	14	.01	922.416	.5
313.15	14	.015	922.855	.5
313.15	14	.02	923.289	.5
313.15	14	.025	923.722	.5
313.15	14	.03	924.151	.5
313.15	16	0	915.018	.5
313.15	16	.01	915.893	.5
313.15	16	.015	916.323	.5
313.15	16	.02	916.755	.5
313.15	16	.025	917.178	.5
313.15	16	.0296	917.569	.5
313.15	18	0	908.255	.5
313.15	18	.01	909.106	.5
313.15	18	.015	909.526	.5
313.15	18	.02	909.944	.5
313.15	18	.025	910.358	.5
313.15	18	.03	910.767	.5
293.15	20	0	918.792	.5
293.15	20	.01	919.55	.5
293.15	20	.015	919.93	.5
293.15	20	.02	920.304	.5
293.15	20	.025	920.675	.5
293.15	20	.03	921.044	.5
293.15	22	0	913.462	.5
293.15	22	.01	914.242	.5
293.15	22	.015	914.629	.5
293.15	22	.02	915.012	.5
293.15	22	.025	915.391	.5
293.15	22	.03	915.771	.5
298.15	20	0	914.849	.5
298.15	20	.01	915.624	.5
298.15	20	.015	916.011	.5
298.15	20	.02	916.393	.5
298.15	20	.025	916.771	.5
298.15	20	.03	917.148	.5
298.15	22	0	909.466	.5
298.15	22	.01	910.261	.5
298.15	22	.015	910.654	.5
298.15	22	.02	911.045	.5
298.15	22	.025	911.431	.5
298.15	22	.03	911.817	.5
303.15	20	0	910.842	.5
303.15	20	.01	911.637	.5
303.15	20	.015	912.034	.5
303.15	20	.02	912.424	.5
303.15	20	.025	912.812	.5
303.15	20	.03	913.199	.5
303.15	22	0	905.406	.5
303.15	22	.01	906.223	.5
303.15	22	.015	906.627	.5
303.15	22	.02	907.028	.5
303.15	22	.025	907.425	.5
303.15	22	.03	907.822	.5
308.15	20	0	906.77	.5
308.15	20	.01	907.585	.5
308.15	20	.015	907.993	.5
308.15	20	.02	908.393	.5
308.15	20	.025	908.791	.5
308.15	20	.03	909.188	.5
308.15	22	0	901.281	.5
308.15	22	.01	902.123	.5
308.15	22	.015	902.539	.5
308.15	22	.02	902.953	.5
308.15	22	.025	903.361	.5
308.15	22	.03	903.77	.5

System: ethanol + 4-methyl-7-hydroxycoumarin + water; phases: Liquid
Fixed: Pressure, kPa = 101
Property: Viscosity, Pa*s (Liquid); method: Capillary tube (Ostwald; Ubbelohde) method
Temperature, K	Solvent: Molality, mol/kg of ethanol	Molality, mol/kg of 4-methyl-7-hydroxycoumarin	Viscosity, Pa*s	uncertainty
293.15	14	0	.002895	.000003
293.15	14	.01	.002903	.000003
293.15	14	.015	.002907	.000003
293.15	14	.02	.00291	.000003
293.15	14	.025	.002913	.000003
293.15	14	.03	.002917	.000003
298.15	14	0	.00235	.000003
298.15	14	.01	.002356	.000003
298.15	14	.015	.002359	.000003
298.15	14	.02	.002361	.000003
298.15	14	.025	.002364	.000003
298.15	14	.03	.002366	.000003
303.15	14	0	.00197	.000003
303.15	14	.01	.001974	.000003
303.15	14	.015	.001976	.000003
303.15	14	.02	.001978	.000003
303.15	14	.025	.00198	.000003
303.15	14	.03	.001982	.000003
308.15	14	0	.001673	.000003
308.15	14	.01	.001676	.000003
308.15	14	.015	.001678	.000003
308.15	14	.02	.00168	.000003
308.15	14	.025	.001681	.000003
308.15	14	.03	.001683	.000003
313.15	14	0	.00144	.000003
313.15	14	.01	.001442	.000003
313.15	14	.015	.001443	.000003
313.15	14	.02	.001445	.000003
313.15	14	.025	.001446	.000003
313.15	14	.03	.001447	.000003
293.15	16	0	.0029	.000003
293.15	16	.01	.002912	.000003
293.15	16	.015	.002916	.000003
293.15	16	.02	.00292	.000003
293.15	16	.025	.002925	.000003
293.15	16	.03	.002929	.000003
298.15	16	0	.002363	.000003
298.15	16	.01	.002372	.000003
298.15	16	.015	.002376	.000003
298.15	16	.02	.002379	.000003
298.15	16	.025	.002382	.000003
298.15	16	.03	.002385	.000003
303.15	16	0	.001988	.000003
303.15	16	.01	.001994	.000003
303.15	16	.015	.001997	.000003
303.15	16	.02	.002	.000003
303.15	16	.025	.002002	.000003
303.15	16	.03	.002005	.000003
308.15	16	0	.00169	.000003
308.15	16	.01	.001695	.000003
308.15	16	.015	.001697	.000003
308.15	16	.02	.001699	.000003
308.15	16	.025	.001701	.000003
308.15	16	.03	.001703	.000003
313.15	16	0	.001456	.000003
313.15	16	.01	.001459	.000003
313.15	16	.015	.001461	.000003
313.15	16	.02	.001463	.000003
313.15	16	.025	.001464	.000003
313.15	16	.03	.001466	.000003
293.15	18	0	.002889	.000003
293.15	18	.01	.002905	.000003
293.15	18	.015	.002912	.000003
293.15	18	.02	.002917	.000003
293.15	18	.025	.002923	.000003
293.15	18	.03	.002928	.000003
298.15	18	0	.002365	.000003
298.15	18	.01	.002378	.000003
298.15	18	.015	.002382	.000003
298.15	18	.02	.002387	.000003
298.15	18	.025	.002391	.000003
298.15	18	.03	.002395	.000003
303.15	18	0	.00199	.000003
303.15	18	.01	.002001	.000003
303.15	18	.015	.002004	.000003
303.15	18	.02	.002008	.000003
303.15	18	.025	.002011	.000003
303.15	18	.03	.002015	.000003
308.15	18	0	.001695	.000003
308.15	18	.01	.001703	.000003
308.15	18	.015	.001706	.000003
308.15	18	.02	.001709	.000003
308.15	18	.025	.001712	.000003
308.15	18	.03	.001715	.000003
313.15	18	0	.001462	.000003
313.15	18	.01	.001469	.000003
313.15	18	.015	.001471	.000003
313.15	18	.02	.001473	.000003
313.15	18	.025	.001475	.000003
313.15	18	.03	.001478	.000003
293.15	20	0	.002878	.000003
293.15	20	.01	.002889	.000003
293.15	20	.015	.002895	.000003
293.15	20	.02	.002899	.000003
293.15	20	.025	.002903	.000003
293.15	20	.03	.002907	.000003
298.15	20	0	.002371	.000003
298.15	20	.01	.00238	.000003
298.15	20	.015	.002383	.000003
298.15	20	.02	.002386	.000003
298.15	20	.025	.002389	.000003
298.15	20	.03	.002393	.000003
303.15	20	0	.001999	.000003
303.15	20	.01	.002006	.000003
303.15	20	.015	.002009	.000003
303.15	20	.02	.002011	.000003
303.15	20	.025	.002014	.000003
303.15	20	.03	.002016	.000003
308.15	20	0	.001704	.000003
308.15	20	.01	.001709	.000003
308.15	20	.015	.001711	.000003
308.15	20	.02	.001713	.000003
308.15	20	.025	.001715	.000003
308.15	20	.03	.001717	.000003
313.15	20	0	.001475	.000003
313.15	20	.01	.001479	.000003
313.15	20	.015	.001481	.000003
313.15	20	.02	.001482	.000003
313.15	20	.025	.001484	.000003
313.15	20	.03	.001485	.000003
293.15	22	0	.002862	.000003
293.15	22	.01	.002872	.000003
293.15	22	.015	.002876	.000003
293.15	22	.02	.00288	.000003
293.15	22	.025	.002884	.000003
293.15	22	.03	.002888	.000003
298.15	22	0	.002352	.000003
298.15	22	.01	.002359	.000003
298.15	22	.015	.002362	.000003
298.15	22	.02	.002365	.000003
298.15	22	.025	.002369	.000003
298.15	22	.03	.002372	.000003
303.15	22	0	.001989	.000003
303.15	22	.01	.001994	.000003
303.15	22	.015	.001997	.000003
303.15	22	.02	.001999	.000003
303.15	22	.025	.002001	.000003
303.15	22	.03	.002003	.000003
308.15	22	0	.0017	.000003
308.15	22	.01	.001704	.000003
308.15	22	.015	.001705	.000003
308.15	22	.02	.001707	.000003
308.15	22	.025	.001709	.000003
308.15	22	.03	.00171	.000003
313.15	22	0	.001469	.000003
313.15	22	.01	.001472	.000003
313.15	22	.015	.001473	.000003
313.15	22	.02	.001474	.000003
313.15	22	.025	.001476	.000003
313.15	22	.03	.001477	.000003

System: ethanol + 4-methyl-7-hydroxycoumarin + water; phases: Liquid
Fixed: Pressure, kPa = 101
Fixed: Temperature, K = 298.15
Property: Refractive index (Na D-line) (Liquid); method: Standard Abbe refractometry
Solvent: Molality, mol/kg of ethanol	Molality, mol/kg of 4-methyl-7-hydroxycoumarin	Refractive index (Na D-line)	uncertainty
14	0	1.355	.0003
14	.01	1.3556	.0003
14	.015	1.3558	.0003
14	.02	1.356	.0003
14	.025	1.3562	.0003
14	.03	1.3564	.0003
16	0	1.3564	.0003
16	.01	1.3569	.0003
16	.015	1.3572	.0003
16	.02	1.3573	.0003
16	.025	1.3575	.0003
16	.0296	1.3577	.0003
18	0	1.3575	.0003
18	.01	1.3579	.0003
18	.015	1.3581	.0003
18	.02	1.3583	.0003
18	.025	1.3584	.0003
18	.03	1.3586	.0003
20	0	1.3583	.0003
20	.01	1.3587	.0003
20	.015	1.3589	.0003
20	.02	1.3591	.0003
20	.025	1.3593	.0003
20	.03	1.3595	.0003
22	0	1.3585	.0003
22	.01	1.3592	.0003
22	.015	1.3595	.0003
22	.02	1.3598	.0003
22	.025	1.36	.0003
22	.03	1.3603	.0003

System: n-propyl alcohol + 4-methyl-7-hydroxycoumarin + water; phases: Liquid
Fixed: Pressure, kPa = 101
Property: Mass density, kg/m3 (Liquid); method: Vibrating tube method
Temperature, K	Solvent: Molality, mol/kg of n-propyl alcohol	Molality, mol/kg of 4-methyl-7-hydroxycoumarin	Mass density, kg/m3	uncertainty
293.15	14	0	918.103	.5
293.15	14	.01	918.847	.5
293.15	14	.015	919.215	.5
293.15	14	.02	919.581	.5
293.15	14	.025	919.945	.5
293.15	14	.03	920.305	.5
293.15	16	0	911.211	.5
293.15	16	.01	911.902	.5
293.15	16	.015	912.242	.5
293.15	16	.02	912.581	.5
293.15	16	.025	912.918	.5
293.15	16	.03	913.25	.5
293.15	18	0	905.417	.5
293.15	18	.01	906.098	.5
293.15	18	.015	906.434	.5
293.15	18	.02	906.766	.5
293.15	18	.0249	907.094	.5
293.15	18	.03	907.424	.5
293.15	20	0	899.512	.5
293.15	20	.01	900.177	.5
293.15	20	.015	900.506	.5
293.15	20	.02	900.831	.5
293.15	20	.025	901.154	.5
293.15	20	.03	901.473	.5
293.15	22	0	895.376	.5
293.15	22	.01	896.093	.5
293.15	22	.015	896.448	.5
293.15	22	.02	896.798	.5
293.15	22	.025	897.148	.5
293.15	22	.03	897.493	.5
298.15	14	0	914.486	.5
298.15	14	.01	915.238	.5
298.15	14	.015	915.609	.5
298.15	14	.02	915.979	.5
298.15	14	.025	916.345	.5
298.15	14	.03	916.708	.5
298.15	16	0	907.532	.5
298.15	16	.01	908.24	.5
298.15	16	.015	908.589	.5
298.15	16	.02	908.935	.5
298.15	16	.025	909.28	.5
298.15	16	.03	909.62	.5
298.15	18	0	901.687	.5
298.15	18	.01	902.378	.5
298.15	18	.015	902.718	.5
298.15	18	.02	903.055	.5
298.15	18	.025	903.386	.5
298.15	18	.03	903.72	.5
298.15	20	0	895.724	.5
298.15	20	.01	896.401	.5
298.15	20	.015	896.734	.5
298.15	20	.02	897.064	.5
298.15	20	.025	897.391	.5
298.15	20	.03	897.715	.5
298.15	22	0	891.557	.5
298.15	22	.01	892.291	.5
298.15	22	.015	892.653	.5
298.15	22	.02	893.011	.5
298.15	22	.025	893.368	.5
298.15	22	.03	893.721	.5
303.15	14	0	910.811	.5
303.15	14	.01	911.572	.5
303.15	14	.015	911.948	.5
303.15	14	.02	912.321	.5
303.15	14	.025	912.692	.5
303.15	14	.03	913.057	.5
303.15	16	0	903.797	.5
303.15	16	.01	904.526	.5
303.15	16	.015	904.884	.5
303.15	16	.02	905.241	.5
303.15	16	.025	905.595	.5
303.15	16	.03	905.944	.5
303.15	18	0	897.899	.5
303.15	18	.01	898.604	.5
303.15	18	.015	898.952	.5
303.15	18	.02	899.296	.5
303.15	18	.025	899.634	.5
303.15	18	.03	899.975	.5
303.15	20	0	891.885	.5
303.15	20	.01	892.57	.5
303.15	20	.015	892.908	.5
303.15	20	.02	893.241	.5
303.15	20	.025	893.573	.5
303.15	20	.03	893.9	.5
303.15	22	0	887.682	.5
303.15	22	.01	888.427	.5
303.15	22	.015	888.795	.5
303.15	22	.02	889.158	.5
303.15	22	.025	889.52	.5
303.15	22	.03	889.878	.5
308.15	14	0	907.075	.5
308.15	14	.01	907.847	.5
308.15	14	.015	908.228	.5
308.15	14	.02	908.606	.5
308.15	14	.025	908.981	.5
308.15	14	.03	909.352	.5
308.15	16	0	899.995	.5
308.15	16	.01	900.738	.5
308.15	16	.015	901.105	.5
308.15	16	.02	901.468	.5
308.15	16	.025	901.829	.5
308.15	16	.03	902.185	.5
308.15	18	0	894.048	.5
308.15	18	.01	894.77	.5
308.15	18	.015	895.126	.5
308.15	18	.02	895.478	.5
308.15	18	.025	895.824	.5
308.15	18	.03	896.173	.5
308.15	20	0	887.984	.5
308.15	20	.01	888.681	.5
308.15	20	.015	889.025	.5
308.15	20	.02	889.365	.5
308.15	20	.025	889.7	.5
308.15	20	.03	890.032	.5
308.15	22	0	883.751	.5
308.15	22	.01	884.503	.5
308.15	22	.015	884.874	.5
308.15	22	.02	885.241	.5
308.15	22	.025	885.605	.5
308.15	22	.03	885.966	.5
313.15	14	0	903.277	.5
313.15	14	.01	904.065	.5
313.15	14	.015	904.454	.5
313.15	14	.02	904.839	.5
313.15	14	.025	905.221	.5
313.15	14	.03	905.598	.5
313.15	16	0	896.13	.5
313.15	16	.01	896.883	.5
313.15	16	.015	897.253	.5
313.15	16	.02	897.621	.5
313.15	16	.025	897.986	.5
313.15	16	.03	898.346	.5
313.15	18	0	890.133	.5
313.15	18	.01	890.871	.5
313.15	18	.015	891.234	.5
313.15	18	.02	891.592	.5
313.15	18	.025	891.944	.5
313.15	18	.03	892.299	.5
313.15	20	0	884.02	.5
313.15	20	.01	884.726	.5
313.15	20	.015	885.072	.5
313.15	20	.02	885.415	.5
313.15	20	.025	885.754	.5
313.15	20	.03	886.091	.5
313.15	22	0	879.756	.5
313.15	22	.01	880.532	.5
313.15	22	.015	880.915	.5
313.15	22	.02	881.293	.5
313.15	22	.025	881.669	.5
313.15	22	.03	882.042	.5

System: n-propyl alcohol + 4-methyl-7-hydroxycoumarin + water; phases: Liquid
Fixed: Pressure, kPa = 101
Property: Viscosity, Pa*s (Liquid); method: Capillary tube (Ostwald; Ubbelohde) method
Temperature, K	Solvent: Molality, mol/kg of n-propyl alcohol	Molality, mol/kg of 4-methyl-7-hydroxycoumarin	Viscosity, Pa*s	uncertainty
293.15	14	0	.00311	.000003
293.15	14	.01	.003122	.000003
293.15	14	.015	.003127	.000003
293.15	14	.02	.003132	.000003
293.15	14	.025	.003137	.000003
293.15	14	.03	.003141	.000003
298.15	14	0	.002599	.000003
298.15	14	.01	.002608	.000003
298.15	14	.015	.002612	.000003
298.15	14	.02	.002616	.000003
298.15	14	.025	.00262	.000003
298.15	14	.03	.002623	.000003
303.15	14	0	.002193	.000003
303.15	14	.01	.002201	.000003
303.15	14	.015	.002204	.000003
303.15	14	.02	.002207	.000003
303.15	14	.025	.00221	.000003
303.15	14	.03	.002213	.000003
308.15	14	0	.00188	.000003
308.15	14	.01	.001886	.000003
308.15	14	.015	.001888	.000003
308.15	14	.02	.001891	.000003
308.15	14	.025	.001893	.000003
308.15	14	.03	.001895	.000003
313.15	14	0	.001626	.000003
313.15	14	.01	.00163	.000003
313.15	14	.015	.001632	.000003
313.15	14	.02	.001634	.000003
313.15	14	.025	.001636	.000003
313.15	14	.03	.001638	.000003
293.15	16	0	.003151	.000003
293.15	16	.01	.003169	.000003
293.15	16	.015	.003175	.000003
293.15	16	.02	.003181	.000003
293.15	16	.025	.003188	.000003
293.15	16	.03	.003193	.000003
298.15	16	0	.002637	.000003
298.15	16	.01	.00265	.000003
298.15	16	.015	.002655	.000003
298.15	16	.02	.002659	.000003
298.15	16	.025	.002664	.000003
298.15	16	.03	.002668	.000003
303.15	16	0	.00223	.000003
303.15	16	.01	.00224	.000003
303.15	16	.015	.002244	.000003
303.15	16	.02	.002247	.000003
303.15	16	.025	.002251	.000003
303.15	16	.03	.002254	.000003
308.15	16	0	.001906	.000003
308.15	16	.01	.001913	.000003
308.15	16	.015	.001916	.000003
308.15	16	.02	.001919	.000003
308.15	16	.025	.001922	.000003
308.15	16	.03	.001924	.000003
313.15	16	0	.001648	.000003
313.15	16	.01	.001654	.000003
313.15	16	.015	.001656	.000003
313.15	16	.02	.001658	.000003
313.15	16	.025	.00166	.000003
313.15	16	.03	.001662	.000003
293.15	18	0	.003176	.000003
293.15	18	.01	.003195	.000003
293.15	18	.015	.003202	.000003
293.15	18	.02	.003209	.000003
293.15	18	.025	.003215	.000003
293.15	18	.03	.003222	.000003
298.15	18	0	.002663	.000003
298.15	18	.01	.002679	.000003
298.15	18	.015	.002684	.000003
298.15	18	.02	.00269	.000003
298.15	18	.025	.002695	.000003
298.15	18	.03	.002699	.000003
303.15	18	0	.002255	.000003
303.15	18	.01	.002267	.000003
303.15	18	.015	.002272	.000003
303.15	18	.02	.002276	.000003
303.15	18	.025	.00228	.000003
303.15	18	.03	.002284	.000003
308.15	18	0	.00193	.000003
308.15	18	.01	.00194	.000003
308.15	18	.015	.001944	.000003
308.15	18	.02	.001947	.000003
308.15	18	.025	.00195	.000003
308.15	18	.03	.001953	.000003
313.15	18	0	.00167	.000003
313.15	18	.01	.001678	.000003
313.15	18	.015	.001681	.000003
313.15	18	.02	.001684	.000003
313.15	18	.025	.001686	.000003
313.15	18	.03	.001689	.000003
293.15	20	0	.003178	.000003
293.15	20	.01	.003198	.000003
293.15	20	.015	.003205	.000003
293.15	20	.02	.003212	.000003
293.15	20	.025	.003219	.000003
293.15	20	.03	.003225	.000003
298.15	20	0	.002671	.000003
298.15	20	.01	.002687	.000003
298.15	20	.015	.002693	.000003
298.15	20	.02	.002698	.000003
298.15	20	.025	.002703	.000003
298.15	20	.03	.002708	.000003
303.15	20	0	.002263	.000003
303.15	20	.01	.002276	.000003
303.15	20	.015	.002281	.000003
303.15	20	.02	.002285	.000003
303.15	20	.025	.002289	.000003
303.15	20	.03	.002294	.000003
308.15	20	0	.001938	.000003
308.15	20	.01	.001949	.000003
308.15	20	.015	.001952	.000003
308.15	20	.02	.001956	.000003
308.15	20	.025	.001959	.000003
308.15	20	.03	.001963	.000003
313.15	20	0	.001679	.000003
313.15	20	.01	.001688	.000003
313.15	20	.015	.001691	.000003
313.15	20	.02	.001694	.000003
313.15	20	.025	.001697	.000003
313.15	20	.03	.0017	.000003

System: n-propyl alcohol + 4-methyl-7-hydroxycoumarin + water; phases: Liquid
Fixed: Pressure, kPa = 101
Fixed: Temperature, K = 298.15
Property: Refractive index (Na D-line) (Liquid); method: Standard Abbe refractometry
Solvent: Molality, mol/kg of n-propyl alcohol	Molality, mol/kg of 4-methyl-7-hydroxycoumarin	Refractive index (Na D-line)	uncertainty
14	0	1.364	.0003
14	.01	1.3643	.0003
14	.015	1.3645	.0003
14	.02	1.3646	.0003
14	.025	1.3647	.0003
14	.03	1.3648	.0003
16	0	1.3654	.0003
16	.01	1.366	.0003
16	.015	1.3663	.0003
16	.02	1.3666	.0003
16	.025	1.3668	.0003
16	.0296	1.3671	.0003
18	0	1.367	.0003
18	.01	1.3674	.0003
18	.015	1.3676	.0003
18	.02	1.3678	.0003
18	.025	1.3679	.0003
18	.03	1.3681	.0003
20	0	1.368	.0003
20	.01	1.3684	.0003
20	.015	1.3686	.0003
20	.02	1.3688	.0003
20	.025	1.369	.0003
20	.03	1.3692	.0003
22	0	1.3695	.0003
22	.01	1.3707	.0003
22	.015	1.3712	.0003
22	.02	1.3717	.0003
22	.025	1.3722	.0003
22	.03	1.3726	.0003

System: ethanol + water; phases: Liquid
Property: Mass density, kg/m3 (Liquid); method: Vibrating tube method
Temperature, K	Molality, mol/kg of ethanol	Pressure, kPa	Mass density, kg/m3	uncertainty
293.15	14	101	936.706	.5
293.15	16	101	930.583	.5
293.15	18	101	924.182	.5
298.15	14	101	933.024	.5
298.15	16	101	926.799	.5
298.15	18	101	920.298	.5
303.15	14	101	929.265	.5
303.15	16	101	922.942	.5
303.15	18	101	916.351	.5
308.15	14	101	925.437	.5
308.15	16	101	919.015	.5
308.15	18	101	912.337	.5
313.15	14	101	921.529	.5
313.15	16	101	915.018	.5
313.15	18	101	908.255	.5
293.15	20	101	918.792	.5
293.15	22	101	913.462	.5
298.15	20	101	914.849	.5
298.15	22	101	909.466	.5
303.15	20	101	910.842	.5
303.15	22	101	905.406	.5
308.15	20	101	906.77	.5
308.15	22	101	901.281	.5

System: ethanol + water; phases: Liquid
Property: Viscosity, Pa*s (Liquid); method: Capillary tube (Ostwald; Ubbelohde) method
Temperature, K	Molality, mol/kg of ethanol	Pressure, kPa	Viscosity, Pa*s	uncertainty
293.15	14	101	.002895	.000003
298.15	14	101	.00235	.000003
303.15	14	101	.00197	.000003
308.15	14	101	.001673	.000003
313.15	14	101	.00144	.000003
293.15	16	101	.0029	.000003
298.15	16	101	.002363	.000003
303.15	16	101	.001988	.000003
308.15	16	101	.00169	.000003
313.15	16	101	.001456	.000003
293.15	18	101	.002889	.000003
298.15	18	101	.002365	.000003
303.15	18	101	.00199	.000003
308.15	18	101	.001695	.000003
313.15	18	101	.001462	.000003
293.15	20	101	.002878	.000003
298.15	20	101	.002371	.000003
303.15	20	101	.001999	.000003
308.15	20	101	.001704	.000003
313.15	20	101	.001475	.000003
293.15	22	101	.002862	.000003
298.15	22	101	.002352	.000003
303.15	22	101	.001989	.000003
308.15	22	101	.0017	.000003
313.15	22	101	.001469	.000003

System: ethanol + water; phases: Liquid
Property: Refractive index (Na D-line) (Liquid); method: Standard Abbe refractometry
Molality, mol/kg of ethanol	Pressure, kPa	Temperature, K	Refractive index (Na D-line)	uncertainty
14	101	298.15	1.355	.0003
16	101	298.15	1.3564	.0003
18	101	298.15	1.3575	.0003
20	101	298.15	1.3583	.0003
22	101	298.15	1.3585	.0003

System: n-propyl alcohol + water; phases: Liquid
Property: Mass density, kg/m3 (Liquid); method: Vibrating tube method
Temperature, K	Molality, mol/kg of n-propyl alcohol	Pressure, kPa	Mass density, kg/m3	uncertainty
293.15	14	101	918.103	.5
293.15	16	101	911.211	.5
293.15	18	101	905.417	.5
293.15	20	101	899.512	.5
293.15	22	101	895.376	.5
298.15	14	101	914.486	.5
298.15	16	101	907.532	.5
298.15	18	101	901.687	.5
298.15	20	101	895.724	.5
298.15	22	101	891.557	.5
303.15	14	101	910.811	.5
303.15	16	101	903.797	.5
303.15	18	101	897.899	.5
303.15	20	101	891.885	.5
303.15	22	101	887.682	.5
308.15	14	101	907.075	.5
308.15	16	101	899.995	.5
308.15	18	101	894.048	.5
308.15	20	101	887.984	.5
308.15	22	101	883.751	.5
313.15	14	101	903.277	.5
313.15	16	101	896.13	.5
313.15	18	101	890.133	.5
313.15	20	101	884.02	.5
313.15	22	101	879.756	.5

System: n-propyl alcohol + water; phases: Liquid
Property: Viscosity, Pa*s (Liquid); method: Capillary tube (Ostwald; Ubbelohde) method
Temperature, K	Molality, mol/kg of n-propyl alcohol	Pressure, kPa	Viscosity, Pa*s	uncertainty
293.15	14	101	.00311	.000003
298.15	14	101	.002599	.000003
303.15	14	101	.002193	.000003
308.15	14	101	.00188	.000003
313.15	14	101	.001626	.000003
293.15	16	101	.003151	.000003
298.15	16	101	.002637	.000003
303.15	16	101	.00223	.000003
308.15	16	101	.001906	.000003
313.15	16	101	.001648	.000003
293.15	18	101	.003176	.000003
298.15	18	101	.002663	.000003
303.15	18	101	.002255	.000003
308.15	18	101	.00193	.000003
313.15	18	101	.00167	.000003
293.15	20	101	.003178	.000003
298.15	20	101	.002671	.000003
303.15	20	101	.002263	.000003
308.15	20	101	.001938	.000003
313.15	20	101	.001679	.000003

System: n-propyl alcohol + water; phases: Liquid
Property: Refractive index (Na D-line) (Liquid); method: Standard Abbe refractometry
Molality, mol/kg of n-propyl alcohol	Pressure, kPa	Temperature, K	Refractive index (Na D-line)	uncertainty
14	101	298.15	1.364	.0003
16	101	298.15	1.3654	.0003
18	101	298.15	1.367	.0003
20	101	298.15	1.368	.0003
22	101	298.15	1.3695	.0003
