Measured thermophysical data. Liquid Liquid Equilibrium for the Ternary System 2-Methyl-2-propanol + 1-Pentanol + Water at T = (303.15, 328.15, and 353.15) K
Source: J. Chem. Eng. Data, 2013, 10.1021/je400353a
Compound 1: 2-methyl-2-propanol, C4H10O, purity 99%
Compound 2: pentyl alcohol, C5H12O, purity 98.5%
Compound 3: water, H2O, purity 99.8%

System: pentyl alcohol + 2-methyl-2-propanol + water; phases: Liquid mixture 2, Liquid mixture 1
Fixed: Pressure, kPa = 101
Property: Mole fraction of pentyl alcohol (Liquid mixture 2); method: Chromatography
Property: Mole fraction of 2-methyl-2-propanol (Liquid mixture 1); method: Chromatography
Property: Mole fraction of pentyl alcohol (Liquid mixture 1); method: Chromatography
Temperature, K	Mole fraction of 2-methyl-2-propanol	Mole fraction of pentyl alcohol	uncertainty	Mole fraction of 2-methyl-2-propanol	uncertainty	Mole fraction of pentyl alcohol	uncertainty
303.15	.125	.006	.001	.306	.001	.036	.001
303.15	.003	.002	.001	.047	.001	.517	.001
328.15	.08	.002	.001	.372	.001	.038	.001
328.15	.055	.003	.001	.354	.001	.096	.001
328.15	.038	.003	.001	.316	.001	.167	.001
328.15	.03	.003	.001	.287	.001	.213	.001
328.15	.024	.003	.001	.254	.001	.26	.001
328.15	.018	.003	.001	.218	.001	.31	.001
328.15	.013	.003	.001	.18	.001	.361	.001
328.15	.009	.003	.001	.139	.001	.414	.001
328.15	.006	.003	.001	.095	.001	.469	.001
303.15	.075	.004	.001	.317	.001	.095	.001
328.15	.003	.003	.001	.049	.001	.527	.001
353.15	.055	.001	.001	.407	.001	.038	.001
353.15	.041	.002	.001	.377	.001	.096	.001
353.15	.03	.003	.001	.332	.001	.166	.001
353.15	.024	.003	.001	.3	.001	.212	.001
353.15	.019	.004	.001	.265	.001	.26	.001
353.15	.015	.004	.001	.227	.001	.31	.001
353.15	.011	.004	.001	.187	.001	.362	.001
353.15	.008	.004	.001	.144	.001	.416	.001
353.15	.005	.004	.001	.099	.001	.473	.001
303.15	.049	.003	.001	.29	.001	.164	.001
353.15	.002	.004	.001	.051	.001	.532	.001
303.15	.038	.003	.001	.266	.001	.21	.001
303.15	.029	.003	.001	.237	.001	.256	.001
303.15	.022	.002	.001	.205	.001	.305	.001
303.15	.016	.002	.001	.17	.001	.355	.001
303.15	.011	.002	.001	.131	.001	.407	.001
303.15	.007	.002	.001	.09	.001	.461	.001
