Measured thermophysical data. Vaporization Enthalpies and Vapor Pressures of Two Insecticide Components, Muscalure and Empenthrin, by Correlation Gas Chromatography
Source: J. Chem. Eng. Data, 2013, 10.1021/je4008052
Compound 1: (Z)-tricos-9-ene, C23H46, purity 98%
Compound 2: (E)-9-tricosene, C23H46, purity 98%
Compound 3: empenthrin, C18H26O2, purity 98%

System: (Z)-tricos-9-ene; phases: Liquid, Gas
Property: Molar enthalpy of vaporization or sublimation, kJ/mol (Liquid); method: Correlation gas chromatography
Temperature, K	Molar enthalpy of vaporization or sublimation, kJ/mol	uncertainty
298.15	114.4	1

System: (Z)-tricos-9-ene; phases: Liquid, Gas
Property: Vapor or sublimation pressure, kPa (Liquid); method: Gas chromatography
Temperature, K	Vapor or sublimation pressure, kPa	uncertainty
298.15	.0000001146	.0001
308.15	.0000005055	.0001
318.15	.000001987	.0001
328.15	.000007042	.0001
338.15	.00002271	.0001
348.15	.00006727	.0001
358.15	.0001844	.0001
368.15	.0004708	.0001
378.15	.001128	.0001
388.15	.002546	.0001
398.15	.00545	.0001
408.15	.01111	.0001
418.15	.02163	.0001
428.15	.04041	.0001
438.15	.07269	.0001
448.15	.1262	.0001
458.15	.2121	.0001
468.15	.346	.0001
478.15	.5489	.0001
488.15	.8487	.0001
498.15	1.281	.0001
508.15	1.891	.0001
518.15	2.735	.0001
528.15	3.88	.0001
538.15	5.406	.0001
548.15	7.406	.0001
558.15	9.989	.0001
568.15	13.28	.0001
578.15	17.41	.0001
588.15	22.53	.0001
598.15	28.81	.0001
608.15	36.42	.0001
618.15	45.55	.0001
628.15	56.41	.0001
638.15	69.19	.0001
648.15	84.12	.0001
658.15	101.4	.0001
298.15	.00000012053	.0001
308.15	.0000005324	.0001
318.15	.0000020958	.0001
328.15	.0000074342	.0001
338.15	.000023999	.0001
348.15	.000071129	.0001
358.15	.00019508	.0001
368.15	.00049855	.0001
378.15	.0011947	.0001
388.15	.0026997	.0001
398.15	.0057816	.0001
408.15	.011787	.0001
418.15	.022969	.0001
428.15	.042942	.0001
438.15	.077274	.0001
448.15	.13425	.0001
458.15	.22576	.0001
468.15	.36844	.0001
478.15	.58481	.0001
488.15	.90461	.0001
498.15	1.3662	.0001
508.15	2.0181	.0001
518.15	2.9199	.0001
528.15	4.1441	.0001
538.15	5.7768	.0001
548.15	7.9189	.0001
558.15	10.686	.0001
568.15	14.211	.0001
578.15	18.64	.0001
588.15	24.137	.0001
598.15	30.879	.0001
608.15	39.059	.0001
618.15	48.88	.0001
628.15	60.559	.0001
638.15	74.322	.0001
648.15	90.402	.0001
656	104.81	.0001

System: (E)-9-tricosene; phases: Liquid, Gas
Property: Molar enthalpy of vaporization or sublimation, kJ/mol (Liquid); method: Correlation gas chromatography
Temperature, K	Molar enthalpy of vaporization or sublimation, kJ/mol	uncertainty
298.15	114.5	1

System: (E)-9-tricosene; phases: Liquid, Gas
Property: Vapor or sublimation pressure, kPa (Liquid); method: Gas chromatography
Temperature, K	Vapor or sublimation pressure, kPa	uncertainty
298.15	.00000010407	.0001
308.15	.00000046212	.0001
318.15	.000001828	.0001
328.15	.0000065141	.0001
338.15	.000021119	.0001
348.15	.000062848	.0001
358.15	.00017302	.0001
368.15	.00044376	.0001
378.15	.001067	.0001
388.15	.0024188	.0001
398.15	.0051954	.0001
408.15	.010622	.0001
418.15	.020755	.0001
428.15	.038901	.0001
438.15	.07017	.0001
448.15	.12218	.0001
458.15	.20593	.0001
468.15	.33677	.0001
478.15	.53558	.0001
488.15	.83003	.0001
498.15	1.2558	.0001
508.15	1.8582	.0001
518.15	2.6929	.0001
528.15	3.828	.0001
538.15	5.3441	.0001
548.15	7.3362	.0001
558.15	9.9137	.0001
568.15	13.201	.0001
578.15	17.337	.0001
588.15	22.477	.0001
598.15	28.789	.0001
608.15	36.456	.0001
618.15	45.672	.0001
628.15	56.643	.0001
638.15	69.586	.0001
648.15	84.724	.0001
656	98.294	.0001
298.15	.00000010133	.0001
308.15	.00000045198	.0001
318.15	.0000017953	.0001
328.15	.0000064213	.0001
338.15	.00002089	.0001
348.15	.00006236	.0001
358.15	.00017217	.0001
368.15	.00044277	.0001
378.15	.0010673	.0001
388.15	.0024249	.0001
398.15	.0052197	.0001
408.15	.010693	.0001
418.15	.020933	.0001
428.15	.039303	.0001
438.15	.071013	.0001
448.15	.12384	.0001
458.15	.20903	.0001
468.15	.34231	.0001
478.15	.5451	.0001
488.15	.84583	.0001
498.15	1.2812	.0001
508.15	1.8979	.0001
518.15	2.7534	.0001
528.15	3.9178	.0001
538.15	5.4749	.0001
548.15	7.5227	.0001
558.15	10.175	.0001
568.15	13.56	.0001
578.15	17.823	.0001
588.15	23.124	.0001
598.15	29.64	.0001
608.15	37.56	.0001
618.15	47.087	.0001
628.15	58.437	.0001
638.15	71.835	.0001
648.15	87.515	.0001
655	99.697	.0001

System: empenthrin; phases: Liquid, Gas
Property: Vapor or sublimation pressure, kPa (Liquid); method: Gas chromatography
Temperature, K	Vapor or sublimation pressure, kPa	uncertainty
298.15	.000059461	.0001
308.15	.00018325	.0001
318.15	.00051951	.0001
328.15	.001365	.0001
338.15	.0033467	.0001
348.15	.0077031	.0001
358.15	.016736	.0001
368.15	.034494	.0001
378.15	.067744	.0001
388.15	.12729	.0001
398.15	.22965	.0001
408.15	.39914	.0001
418.15	.67032	.0001
428.15	1.0907	.0001
438.15	1.7236	.0001
448.15	2.6512	.0001
458.15	3.9776	.0001
468.15	5.8312	.0001
478.15	8.3673	.0001
488.15	11.77	.0001
498.15	16.253	.0001
508.15	22.059	.0001
518.15	29.464	.0001
528.15	38.77	.0001
538.15	50.308	.0001
548.15	64.432	.0001
558.15	81.519	.0001
568.15	101.96	.0001
298.15	.000060217	.0001
308.15	.00018502	.0001
318.15	.00052312	.0001
328.15	.0013712	.0001
338.15	.0033542	.0001
348.15	.007704	.0001
358.15	.016705	.0001
368.15	.034367	.0001
378.15	.067375	.0001
388.15	.12638	.0001
398.15	.22765	.0001
408.15	.39505	.0001
418.15	.66246	.0001
428.15	1.0763	.0001
438.15	1.6985	.0001
448.15	2.609	.0001
458.15	3.909	.0001
468.15	5.7231	.0001
478.15	8.2017	.0001
488.15	11.522	.0001
498.15	15.891	.0001
508.15	21.543	.0001
518.15	28.74	.0001
528.15	37.773	.0001
538.15	48.958	.0001
548.15	62.632	.0001
558.15	79.154	.0001
568.15	98.897	.0001
569	100.74	.0001

System: empenthrin; phases: Liquid, Gas
Property: Molar enthalpy of vaporization or sublimation, kJ/mol (Liquid); method: Correlation gas chromatography
Temperature, K	Molar enthalpy of vaporization or sublimation, kJ/mol	uncertainty
298.15	87	4.8
298.15	87.2	4.8
