Measured thermophysical data. Liquid Liquid Equilibrium Data for {Heptane + Aromatic + 1-(2-Hydroxyethyl)-3-methylimidazolium Bis(trifluoromethylsulfonyl)imide ([hemim][NTf2])} Ternary Systems
Source: J. Chem. Eng. Data, 2014, 10.1021/je400061z
Compound 1: 1-(2-hydroxyethyl)-3-methylimidazolium bis(trifluoromethylsulfonyl)imide, C8H11F6N3O5S2
Compound 2: toluene, C7H8, purity 99.8%
Compound 3: benzene, C6H6, purity 99.8%
Compound 4: heptane, C7H16, purity 99%

System: toluene + heptane + 1-(2-hydroxyethyl)-3-methylimidazolium bis(trifluoromethylsulfonyl)imide; phases: Liquid mixture 2, Liquid mixture 1
Property: Mole fraction of heptane (Liquid mixture 2); method: Other
Property: Mole fraction of toluene (Liquid mixture 1); method: Other
Property: Mole fraction of heptane (Liquid mixture 1); method: Other
Temperature, K	Pressure, kPa	Mole fraction of toluene	Mole fraction of heptane	uncertainty	Mole fraction of toluene	uncertainty	Mole fraction of heptane	uncertainty
313.2	101.325	.0541	.0211	.001	.0499	.001	.9501	.001
313.2	101.325	.0789	.0209	.001	.095	.001	.905	.001
313.2	101.325	.1778	.0194	.001	.211	.001	.789	.001
313.2	101.325	.2494	.0185	.001	.2843	.001	.7157	.001
313.2	101.325	.2632	.0182	.001	.2918	.001	.7082	.001
313.2	101.325	.2893	.0153	.001	.3555	.001	.6445	.001
313.2	101.325	.377	.0139	.001	.4994	.001	.5006	.001
313.2	101.325	.4452	.011	.001	.6372	.001	.3628	.001
313.2	101.325	.5234	.0099	.001	.7909	.001	.2091	.001

System: benzene + heptane + 1-(2-hydroxyethyl)-3-methylimidazolium bis(trifluoromethylsulfonyl)imide; phases: Liquid mixture 2, Liquid mixture 1
Property: Mole fraction of heptane (Liquid mixture 2); method: Other
Property: Mole fraction of benzene (Liquid mixture 1); method: Other
Property: Mole fraction of heptane (Liquid mixture 1); method: Other
Temperature, K	Pressure, kPa	Mole fraction of benzene	Mole fraction of heptane	uncertainty	Mole fraction of benzene	uncertainty	Mole fraction of heptane	uncertainty
313.2	101.325	.139	.0179	.001	.0955	.001	.9045	.001
313.2	101.325	.2437	.0157	.001	.2101	.001	.7899	.001
313.2	101.325	.2762	.0101	.001	.3571	.001	.6429	.001
313.2	101.325	.3012	.0075	.001	.4358	.001	.5642	.001
313.2	101.325	.4422	.0064	.001	.604	.001	.396	.001
313.2	101.325	.4873	.0059	.001	.638	.001	.362	.001
313.2	101.325	.563	.0052	.001	.7495	.001	.2505	.001
313.2	101.325	.5239	.0064	.001	.6998	.001	.3002	.001
313.2	101.325	.6598	.0049	.001	.8901	.001	.1099	.001
