Measured thermophysical data. Solubility of .beta.-Carotene and Glyceryl Trioleate Mixture in Supercritical CO2
Source: J. Chem. Eng. Data, 2014, 10.1021/je400553y
Compound 1: carbon dioxide, CO2
Compound 2: .beta.-carotene, C40H56
Compound 3: glyceryl trioleate, C57H104O6

System: glyceryl trioleate + carbon dioxide + .beta.-carotene; phases: Gas, Liquid
Fixed: Solvent: Mass fraction of .beta.-carotene = .1
Property: Mole fraction of .beta.-carotene (Gas); method: UV Spectra
Temperature, K	Pressure, kPa	Mole fraction of .beta.-carotene	uncertainty
313	25200	.000000452	.000000017
313	30300	.000000761	.000000017
313	41500	.000001194	.000000017
313	52200	.000003078	.000000017
313	60800	.000005026	.000000017
323	24900	.000000926	.000000017
323	28100	.000002101	.000000017
323	40200	.000003696	.000000017
323	50000	.000006641	.000000017
323	60800	.000011042	.000000017
333	25200	.00000062	.000000017
333	31100	.00000231	.000000017
333	40100	.000005865	.000000017
333	49200	.000008229	.000000017
333	60100	.00001216	.000000017

System: glyceryl trioleate + carbon dioxide + .beta.-carotene; phases: Gas, Liquid
Fixed: Solvent: Mass fraction of .beta.-carotene = .1
Property: Mole fraction of glyceryl trioleate (Gas); method: UV Spectra
Temperature, K	Pressure, kPa	Mole fraction of glyceryl trioleate	uncertainty
313	25200	.000422	.000011
313	30300	.000527	.000011
313	41500	.000778	.000011
313	52200	.001129	.000011
313	60800	.001369	.000011
323	24900	.00047	.000011
323	28100	.000529	.000011
323	40200	.001015	.000011
323	50000	.001443	.000011
323	60800	.001699	.000011
333	25200	.000521	.000011
333	31100	.000637	.000011
333	40100	.00107	.000011
333	49200	.001514	.000011
333	60100	.001905	.000011
