Measured thermophysical data. Liquid Liquid, Vapor Liquid, and Vapor Liquid Liquid Equilibrium Data for the Water n-Butanol Cyclohexane System at Atmospheric Pressure: Experimental Determination and Correlation
Source: J. Chem. Eng. Data, 2013, 10.1021/je400501z
Compound 1: water, H2O, purity 99.99%
Compound 2: n-butanol, C4H10O, purity 99.8%
Compound 3: cyclohexane, C6H12, purity 99.5%

System: n-butanol + cyclohexane + water; phases: Liquid mixture 2, Liquid mixture 1
Property: Mole fraction of n-butanol (Liquid mixture 2); method: Chromatography
Property: Mole fraction of water (Liquid mixture 1); method: Chromatography
Property: Mole fraction of n-butanol (Liquid mixture 1); method: Chromatography
Temperature, K	Pressure, kPa	Mole fraction of water	Mole fraction of n-butanol	uncertainty	Mole fraction of water	uncertainty	Mole fraction of n-butanol	uncertainty
313.15	101.325	.981	.019	.00038	.516	.002	.484	.00968
313.15	101.325	.99	.01	.0002	.014	.002	.075	.0015
313.15	101.325	1	0	0	.01	.002	0	0
313.15	101.325	.982	.018	.00036	.421	.002	.524	.01048
313.15	101.325	.984	.016	.00032	.257	.002	.525	.0105
313.15	101.325	.985	.015	.0003	.218	.002	.495	.0099
313.15	101.325	.986	.014	.00028	.155	.002	.433	.00866
313.15	101.325	.989	.011	.00022	.136	.002	.399	.00798
313.15	101.325	.989	.011	.00022	.108	.002	.357	.00714
313.15	101.325	.989	.011	.00022	.063	.002	.277	.00554
313.15	101.325	.99	.01	.0002	.048	.002	.154	.00308

System: n-butanol + cyclohexane + water; phases: Liquid mixture 2, Liquid mixture 1, Gas
Property: Mole fraction of water (Liquid mixture 2); method: Chromatography
Property: Mole fraction of n-butanol (Liquid mixture 2); method: Chromatography
Property: Mole fraction of water (Liquid mixture 1); method: Chromatography
Property: Mole fraction of n-butanol (Liquid mixture 1); method: Chromatography
Property: Mole fraction of water (Gas); method: Chromatography
Property: Mole fraction of n-butanol (Gas); method: Chromatography
Temperature, K	Pressure, kPa	Mole fraction of water	uncertainty	Mole fraction of n-butanol	uncertainty	Mole fraction of water	uncertainty	Mole fraction of n-butanol	uncertainty	Mole fraction of water	uncertainty	Mole fraction of n-butanol	uncertainty
365.73	101.3	.979	.002	.021	.002	.638	.02	.362	.02	.754	.01508	.246	.00492
358.74	101.3	.979	.002	.021	.002	.558	.02	.428	.02	.589	.01178	.18	.0036
357.51	101.3	.982	.002	.018	.002	.479	.02	.492	.02	.536	.01072	.153	.00306
351.69	101.3	.984	.002	.016	.002	.415	.02	.52	.02	.395	.0079	.115	.0023
346.17	101.3	.985	.002	.015	.002	.359	.02	.534	.02	.335	.0067	.093	.00186
346.11	101.3	.987	.002	.013	.002	.306	.02	.542	.02	.325	.0065	.081	.00162
343.07	101.3	.987	.002	.013	.002	.193	.02	.531	.02	.286	.00572	.065	.0013
343.01	101.3	.989	.002	.011	.002	.136	.02	.459	.02	.284	.00568	.063	.00126
342.51	101.3	.989	.002	.011	.002	.081	.02	.382	.02	.277	.00554	.059	.00118
342.34	101.3	.99	.002	.01	.002	.061	.02	.323	.02	.279	.00558	.057	.00114
342.22	101.3	.99	.002	.01	.002	.036	.02	.254	.02	.275	.0055	.054	.00108
342.16	101.3	.99	.002	.01	.002	.036	.02	.234	.02	.277	.00554	.053	.00106
342.06	101.3	.991	.002	.009	.002	.032	.02	.178	.02	.276	.00552	.05	.001
341.98	101.3	.991	.002	.009	.002	.021	.02	.147	.02	.273	.00546	.049	.00098
341.97	101.3	.991	.002	.009	.002	.012	.02	.124	.02	.277	.00554	.046	.00092
341.9	101.3	.992	.002	.008	.002	.01	.02	.096	.02	.28	.0056	.043	.00086
341.86	101.3	.993	.002	.007	.002	.009	.02	.068	.02	.281	.00562	.041	.00082
341.96	101.3	.995	.002	.005	.002	.008	.02	.022	.02	.283	.00566	.031	.00062
341.97	101.3	.996	.002	.004	.002	.006	.02	.016	.02	.281	.00562	.028	.00056
342.6	101.3	1	.002	0	.002	.003	.02	0	.02	.299	.00598	0	0

System: n-butanol + cyclohexane + water; phases: Liquid, Gas
Property: Mole fraction of n-butanol (Liquid); method: Chromatography
Property: Mole fraction of water (Gas); method: Chromatography
Property: Mole fraction of n-butanol (Gas); method: Chromatography
Temperature, K	Pressure, kPa	Mole fraction of water	Mole fraction of n-butanol	uncertainty	Mole fraction of water	uncertainty	Mole fraction of n-butanol	uncertainty
348.67	101.3	.316	.57	.0114	.292	.00584	.094	.00188
350.09	101.3	.301	.578	.01156	.294	.00588	.119	.00238
353.41	101.3	.252	.658	.01316	.414	.00828	.125	.0025
358.41	101.3	.209	.716	.01432	.433	.00866	.164	.00328
361.49	101.3	.177	.755	.0151	.44	.0088	.194	.00388
365.54	101.3	.142	.81	.0162	.43	.0086	.238	.00476
373.12	101.3	.11	.846	.01692	.387	.00774	.364	.00728
379.92	101.3	.059	.923	.01846	.283	.00566	.563	.01126
364.57	101.3	.319	.668	.01336	.641	.01282	.237	.00474
365.33	101.3	.308	.679	.01358	.645	.0129	.247	.00494
366.85	101.3	.296	.692	.01384	.636	.01272	.268	.00536
368.77	101.3	.236	.755	.0151	.626	.01252	.301	.00602
372.04	101.3	.184	.811	.01622	.588	.01176	.361	.00722
374.71	101.3	.15	.847	.01694	.547	.01094	.416	.00832
377.93	101.3	.114	.884	.01768	.48	.0096	.498	.00996
377.82	101.3	.079	.902	.01804	.328	.00656	.531	.01062
377.96	101.3	.056	.912	.01824	.232	.00464	.543	.01086
376.19	101.3	.057	.895	.0179	.204	.00408	.486	.00972
373.92	101.3	.035	.891	.01782	.134	.00268	.434	.00868
368.69	101.3	.046	.85	.017	.17	.0034	.339	.00678
363.77	101.3	.067	.795	.0159	.196	.00392	.26	.0052
358.64	101.3	.096	.73	.0146	.244	.00488	.192	.00384
352.99	101.3	.139	.644	.01288	.275	.0055	.128	.00256
351.06	101.3	.144	.631	.01262	.285	.0057	.106	.00212
348.12	101.3	.161	.541	.01082	.28	.0056	.087	.00174
347.19	101.3	.129	.511	.01022	.256	.00512	.085	.0017
348.06	101.3	.086	.508	.01016	.226	.00452	.091	.00182
351.66	101.3	.063	.596	.01192	.181	.00362	.118	.00236
353.66	101.3	.045	.622	.01244	.138	.00276	.138	.00276
356.26	101.3	.051	.672	.01344	.138	.00276	.163	.00326
360.17	101.3	.035	.736	.01472	.115	.0023	.197	.00394
358.61	101.3	.384	.578	.01156	.537	.01074	.177	.00354

System: n-butanol + water; phases: Liquid mixture 1, Liquid mixture 2
Fixed: Pressure, kPa = 101
Property: Mole fraction of water (Liquid mixture 1); method: Chromatography
Temperature, K	Mole fraction of water	uncertainty
313.15	.516	.01032

System: n-butanol + water; phases: Liquid mixture 2, Liquid mixture 1
Fixed: Pressure, kPa = 101
Property: Mole fraction of water (Liquid mixture 2); method: Chromatography
Temperature, K	Mole fraction of water	uncertainty
313.15	.981	.01962

System: cyclohexane + water; phases: Liquid mixture 1, Liquid mixture 2
Property: Mole fraction of water (Liquid mixture 1); method: Chromatography
Pressure, kPa	Temperature, K	Mole fraction of water	uncertainty
101.325	313.15	.01	.0002
