Measured thermophysical data. Determination of Vapor Liquid Equilibria of the Binary System of Sub- and Supercritical CO2 and Diethyl Fumarate
Source: J. Chem. Eng. Data, 2014, 10.1021/je4010849
Compound 1: diethyl fumarate, C8H12O4, purity 99.5%
Compound 2: carbon dioxide, CO2, purity 99.5%

System: carbon dioxide + diethyl fumarate; phases: Liquid, Gas
Property: Vapor or sublimation pressure, kPa (Liquid); method: Ebulliometric method (Recirculating still)
Mole fraction of carbon dioxide	Temperature, K	Vapor or sublimation pressure, kPa	uncertainty
.1363	373.2	3210	50
.2414	373.2	5130	50
.3196	373.2	7270	50
.4997	373.2	10600	50
.5624	373.2	13060	50
.6181	373.2	14890	50
.7845	373.2	17440	50
.0865	398.2	2700	50
.1847	398.2	5080	50
.2662	398.2	7050	50
.3124	398.2	10060	50
.4679	398.2	12500	50
.599	398.2	15730	50
.7286	398.2	17950	50
.8366	398.2	19760	50
.2493	423.2	5490	50
.2948	423.2	7320	50
.3108	423.2	10100	50
.3604	423.2	12540	50
.4209	423.2	15340	50
.5239	423.2	17630	50
.5916	423.2	20200	50
.6089	423.2	22270	50
.0869	453.2	3110	50
.1255	453.2	5205	50
.1935	453.2	7640	50
.2812	453.2	10380	50
.3543	453.2	12540	50
.3928	453.2	15730	50
.4667	453.2	18560	50
.5134	453.2	21380	50

System: carbon dioxide + diethyl fumarate; phases: Gas, Liquid
Property: Mole fraction of carbon dioxide (Gas); method: Density calibration data
Mole fraction of carbon dioxide	Temperature, K	Mole fraction of carbon dioxide	uncertainty
.1363	373.2	.9003	.0081
.2414	373.2	.9095	.0081
.3196	373.2	.924	.0081
.4997	373.2	.9227	.0081
.5624	373.2	.9277	.0081
.6181	373.2	.9216	.0081
.7845	373.2	.9257	.0081
.0865	398.2	.9151	.0081
.1847	398.2	.9214	.0081
.2662	398.2	.9201	.0081
.3124	398.2	.9191	.0081
.4679	398.2	.9097	.0081
.599	398.2	.8992	.0081
.7286	398.2	.8996	.0081
.8366	398.2	.9162	.0081
.2493	423.2	.9146	.0081
.2948	423.2	.9243	.0081
.3108	423.2	.9164	.0081
.3604	423.2	.9288	.0081
.4209	423.2	.9257	.0081
.5239	423.2	.9025	.0081
.5916	423.2	.9512	.0081
.6089	423.2	.8874	.0081
.0869	453.2	.9016	.0081
.1255	453.2	.9102	.0081
.1935	453.2	.9098	.0081
.2812	453.2	.9234	.0081
.3543	453.2	.9099	.0081
.3928	453.2	.8909	.0081
.4667	453.2	.8712	.0081
.5134	453.2	.8745	.0081
