Measured thermophysical data. Solubility of 2,2',6,6'-Tetrabromo-4,4'-isopropylidene Phenol in Aqueous Pollutant Solutions
Source: J. Chem. Eng. Data, 2013, 10.1021/je400602s
Compound 1: 2,2-bis(3,5-dibromo-4-hydroxyphenyl)propane, C15H12Br4O2, purity 97%
Compound 2: 1-hexadecanaminium, N,N,N-trimethyl-, bromide, C19H42BrN, purity 99.5%
Compound 3: cetylpyridinium chloride, C21H38ClN, purity 99.5%
Compound 4: sodium dodecylbenzenesulfonate, C18H29NaO3S, purity 99%
Compound 5: sodium dodecyl sulfate, C12H25NaO4S, purity 99%
Compound 6: benzenecarboxylic acid, C7H6O2, purity 99%
Compound 7: calcium chloride, CaCl2, purity 99%
Compound 8: water, H2O

System: benzenecarboxylic acid + water; phases: Liquid, Crystal
Fixed: Pressure, kPa = 101
Property: Mole fraction of benzenecarboxylic acid (Liquid); method: UV spec
Temperature, K	Mole fraction of benzenecarboxylic acid	uncertainty
283.2	.00306	.000029988
293.2	.00431	.000042238
303.2	.00603	.000059094
313.2	.00822	.000080556
323.2	.01142	.000111916

System: 2,2-bis(3,5-dibromo-4-hydroxyphenyl)propane + water + calcium chloride; phases: Liquid, Crystal
Fixed: Pressure, kPa = 101
Property: Mole fraction of 2,2-bis(3,5-dibromo-4-hydroxyphenyl)propane (Liquid); method: UV spec
Temperature, K	Solvent: Mass fraction of calcium chloride	Mole fraction of 2,2-bis(3,5-dibromo-4-hydroxyphenyl)propane	uncertainty
293.2	.00056	.000000005	.00000000013
298.2	.00056	.000000016	.000000000416
303.2	.00056	.000000023	.000000000598
308.2	.00056	.000000037	.000000000962
298.2	.0011	.000000007	.000000000182
303.2	.0011	.000000011	.000000000286
308.2	.0011	.000000028	.000000000728

System: 1-hexadecanaminium, N,N,N-trimethyl-, bromide + 2,2-bis(3,5-dibromo-4-hydroxyphenyl)propane + water; phases: Liquid, Crystal
Fixed: Pressure, kPa = 101
Property: Mole fraction of 2,2-bis(3,5-dibromo-4-hydroxyphenyl)propane (Liquid); method: UV spec
Temperature, K	Solvent: Mass fraction of 1-hexadecanaminium, N,N,N-trimethyl-, bromide	Mole fraction of 2,2-bis(3,5-dibromo-4-hydroxyphenyl)propane	uncertainty
293.2	.00005	.0000000082	.0000000002132
298.2	.00005	.000000014	.000000000364
303.2	.00005	.00000002	.00000000052
308.2	.00005	.000000028	.000000000728
293.2	.0001	.000000012	.000000000312
298.2	.0001	.000000023	.000000000598
303.2	.0001	.000000029	.000000000754
308.2	.0001	.00000004	.00000000104
293.2	.0002	.000000024	.000000000624
298.2	.0002	.000000034	.000000000884
303.2	.0002	.000000047	.000000001222
308.2	.0002	.000000061	.000000001586
293.2	.0004	.000000038	.000000000988
298.2	.0004	.000000056	.000000001456
303.2	.0004	.000000072	.000000001872
308.2	.0004	.000000096	.000000002496
293.2	.0008	.000000056	.000000001456
298.2	.0008	.000000074	.000000001924
303.2	.0008	.0000001	.0000000026
308.2	.0008	.00000014	.00000000364

System: 2,2-bis(3,5-dibromo-4-hydroxyphenyl)propane + cetylpyridinium chloride + water; phases: Liquid, Crystal
Fixed: Pressure, kPa = 101
Property: Mole fraction of 2,2-bis(3,5-dibromo-4-hydroxyphenyl)propane (Liquid); method: UV spec
Temperature, K	Solvent: Mass fraction of cetylpyridinium chloride	Mole fraction of 2,2-bis(3,5-dibromo-4-hydroxyphenyl)propane	uncertainty
293.2	.00005	.00000001	.00000000026
298.2	.00005	.000000015	.00000000039
303.2	.00005	.000000023	.000000000598
308.2	.00005	.00000003	.00000000078
293.2	.0001	.000000014	.000000000364
298.2	.0001	.000000022	.000000000572
303.2	.0001	.000000034	.000000000884
308.2	.0001	.000000048	.000000001248
293.2	.0002	.000000027	.000000000702
298.2	.0002	.000000039	.000000001014
303.2	.0002	.000000052	.000000001352
308.2	.0002	.000000074	.000000001924
293.2	.0004	.000000037	.000000000962
298.2	.0004	.00000006	.00000000156
303.2	.0004	.000000074	.000000001924
308.2	.0004	.00000011	.00000000286
293.2	.0008	.000000056	.000000001456
298.2	.0008	.000000092	.000000002392
303.2	.0008	.00000012	.00000000312
308.2	.0008	.00000017	.00000000442

System: 2,2-bis(3,5-dibromo-4-hydroxyphenyl)propane + water + sodium dodecylbenzenesulfonate; phases: Liquid, Crystal
Fixed: Pressure, kPa = 101
Property: Mole fraction of 2,2-bis(3,5-dibromo-4-hydroxyphenyl)propane (Liquid); method: UV spec
Temperature, K	Solvent: Mass fraction of sodium dodecylbenzenesulfonate	Mole fraction of 2,2-bis(3,5-dibromo-4-hydroxyphenyl)propane	uncertainty
298.2	.00005	.0000000052	.0000000001352
303.2	.00005	.000000011	.000000000286
308.2	.00005	.000000014	.000000000364
293.2	.0001	.0000000053	.0000000001378
298.2	.0001	.0000000092	.0000000002392
303.2	.0001	.000000015	.00000000039
308.2	.0001	.00000002	.00000000052
293.2	.0002	.000000006	.000000000156
298.2	.0002	.000000011	.000000000286
303.2	.0002	.000000017	.000000000442
308.2	.0002	.000000027	.000000000702
293.2	.0004	.000000012	.000000000312
298.2	.0004	.000000017	.000000000442
303.2	.0004	.000000029	.000000000754
308.2	.0004	.000000049	.000000001274
293.2	.0008	.000000047	.000000001222
298.2	.0008	.000000075	.00000000195
303.2	.0008	.000000098	.000000002548
308.2	.0008	.00000012	.00000000312

System: 2,2-bis(3,5-dibromo-4-hydroxyphenyl)propane + sodium dodecyl sulfate + water; phases: Liquid, Crystal
Fixed: Pressure, kPa = 101
Property: Mole fraction of 2,2-bis(3,5-dibromo-4-hydroxyphenyl)propane (Liquid); method: UV spec
Temperature, K	Solvent: Mass fraction of sodium dodecyl sulfate	Mole fraction of 2,2-bis(3,5-dibromo-4-hydroxyphenyl)propane	uncertainty
303.2	.00005	.0000000096	.0000000002496
308.2	.00005	.000000015	.00000000039
293.2	.0001	.0000000076	.0000000001976
298.2	.0001	.0000000096	.0000000002496
303.2	.0001	.000000014	.000000000364
308.2	.0001	.000000022	.000000000572
293.2	.0002	.000000011	.000000000286
298.2	.0002	.000000014	.000000000364
303.2	.0002	.000000024	.000000000624
308.2	.0002	.000000032	.000000000832
293.2	.0004	.000000017	.000000000442
298.2	.0004	.000000022	.000000000572
303.2	.0004	.00000003	.00000000078
308.2	.0004	.000000038	.000000000988
293.2	.0008	.000000028	.000000000728
298.2	.0008	.000000034	.000000000884
303.2	.0008	.000000042	.000000001092
308.2	.0008	.000000058	.000000001508
