Measured thermophysical data. Measurement and Modeling of Vapor Liquid Equilibria for the Octane + Sulfuric Acid + Water + Ethanol System
Source: J. Chem. Eng. Data, 2013, 10.1021/je400238j
Compound 1: ethanol, C2H6O, purity 99.5%
Compound 2: sulfuric acid, H2O4S, purity 95%
Compound 3: water, H2O, purity 98%
Compound 4: n-octane, C8H18, purity 98%

System: ethanol; phases: Liquid, Gas
Property: Vapor or sublimation pressure, kPa (Liquid); method: Ebulliometric method (Recirculating still)
Temperature, K	Vapor or sublimation pressure, kPa	uncertainty
323.46	30	.6
338.72	60	.6
348.56	90	.6
351.51	101.3	.6

System: n-octane; phases: Liquid, Gas
Property: Vapor or sublimation pressure, kPa (Liquid); method: Ebulliometric method (Recirculating still)
Temperature, K	Vapor or sublimation pressure, kPa	uncertainty
359.76	30	.6
380.43	60	.6
394.09	90	.6
398.49	101.3	.6
360.06	30	.6
380.94	60	.6
394.6	90	.6
398.74	101.3	.6

System: ethanol + n-octane; phases: Liquid, Gas
Property: Boiling temperature at pressure P, K (Liquid); method: Ebulliometric method (Recirculating still)
Pressure, kPa	Mole fraction of n-octane	Boiling temperature at pressure P, K	uncertainty
30	0	323.46	.15
30	.027	322.56	.15
30	.052	322.1	.15
30	.1002	321.7	.15
30	.1425	321.6	.15
30	.1676	321.6	.15
30	.2099	321.6	.15
30	.2421	321.65	.15
30	.2778	321.65	.15
30	.3379	321.75	.15
30	.4074	321.85	.15
30	.4449	321.9	.15
30	.4836	322	.15
30	.5292	322.1	.15
30	.5741	322.26	.15
30	.6434	322.36	.15
30	.6835	322.56	.15
30	.7347	322.76	.15
30	.811	323.73	.15
30	.84	323.86	.15
30	.908	326.13	.15
30	.9542	331.63	.15
30	1	359.76	.15
60	0	338.72	.15
60	.027	337.91	.15
60	.052	337.35	.15
60	.1002	337	.15
60	.1425	336.89	.15
60	.1676	336.89	.15
60	.2099	336.89	.15
60	.2421	337	.15
60	.2778	337.05	.15
60	.3379	337.15	.15
60	.4074	337.3	.15
60	.4449	337.4	.15
60	.4836	337.5	.15
60	.5292	337.6	.15
60	.5741	337.81	.15
60	.6434	338.01	.15
60	.6835	338.26	.15
60	.7347	338.62	.15
60	.811	339.43	.15
60	.84	339.98	.15
60	.908	342.27	.15
60	.9542	348.36	.15
60	1	380.43	.15
90	0	348.56	.15
90	.027	347.75	.15
90	.052	347.29	.15
90	.1002	346.93	.15
90	.1425	346.83	.15
90	.1676	346.83	.15
90	.2099	346.88	.15
90	.2421	346.93	.15
90	.2778	347.04	.15
90	.3379	347.24	.15
90	.4074	347.34	.15
90	.4449	347.44	.15
90	.4836	347.59	.15
90	.5292	347.75	.15
90	.5741	348	.15
90	.6434	348.2	.15
90	.6835	348.61	.15
90	.7347	348.97	.15
90	.811	350.19	.15
90	.84	350.75	.15
90	.908	353.54	.15
90	.9542	361.39	.15
90	1	394.09	.15
101.3	0	351.51	.15
101.3	.027	350.69	.15
101.3	.052	350.34	.15
101.3	.1002	349.98	.15
101.3	.1425	349.88	.15
101.3	.1676	349.93	.15
101.3	.2099	349.98	.15
101.3	.2421	350.03	.15
101.3	.2778	350.14	.15
101.3	.3379	350.29	.15
101.3	.4074	350.39	.15
101.3	.4449	350.54	.15
101.3	.4836	350.69	.15
101.3	.5292	350.85	.15
101.3	.5741	351.1	.15
101.3	.6434	351.3	.15
101.3	.6835	351.71	.15
101.3	.7347	352.02	.15
101.3	.811	353.34	.15
101.3	.84	353.9	.15
101.3	.908	357.16	.15
101.3	.9542	366.08	.15
101.3	1	398.49	.15

System: ethanol + n-octane + water; phases: Liquid, Gas
Property: Boiling temperature at pressure P, K (Liquid); method: quasi-ebulliometric
Mole fraction of n-octane	Mole fraction of water	Pressure, kPa	Boiling temperature at pressure P, K	uncertainty
0	.0697	30	323.46	.15
.026	.0679	30	322.2	.15
.0529	.066	30	321.54	.15
.0902	.0634	30	320.93	.15
.0928	.0632	30	321.14	.15
.1316	.0605	30	320.99	.15
.2122	.0549	30	320.63	.15
.4006	.0418	30	320.58	.15
.4631	.0374	30	320.58	.15
.6433	.0249	30	320.63	.15
.6886	.0217	30	320.73	.15
.6996	.0209	30	320.99	.15
.7922	.0145	30	321.14	.15
.8876	.0078	30	321.95	.15
.9174	.0058	30	323.53	.15
.9451	.0038	30	326.17	.15
1	0	30	360.06	.15
0	.0326	30	323.46	.15
.0304	.0316	30	322.1	.15
.0541	.0308	30	321.65	.15
.096	.0295	30	321.09	.15
.1386	.0281	30	321.09	.15
.2141	.0256	30	320.99	.15
.3034	.0227	30	320.93	.15
.4135	.0191	30	320.93	.15
.5232	.0155	30	321.04	.15
.6147	.0126	30	321.09	.15
.6962	.0099	30	321.39	.15
.79	.0068	30	321.6	.15
.8841	.0038	30	322.76	.15
.9146	.0028	30	324.06	.15
.9486	.0017	30	327.59	.15
1	0	30	360.06	.15
0	.0697	60	338.62	.15
.026	.0679	60	337.4	.15
.0529	.066	60	336.79	.15
.0902	.0634	60	336.39	.15
.0928	.0632	60	336.34	.15
.1316	.0605	60	336.19	.15
.2122	.0549	60	335.88	.15
.4006	.0418	60	335.78	.15
.4631	.0374	60	335.68	.15
.6433	.0249	60	336.03	.15
.6886	.0217	60	336.14	.15
.6996	.0209	60	336.39	.15
.7922	.0145	60	336.79	.15
.8876	.0078	60	338.57	.15
.9174	.0058	60	340.04	.15
.9451	.0038	60	343.28	.15
1	0	60	380.94	.15
0	.0326	60	338.63	.15
.0304	.0316	60	337.41	.15
.0541	.0308	60	337.01	.15
.096	.0295	60	336.5	.15
.1386	.0281	60	336.4	.15
.2141	.0256	60	336.3	.15
.3034	.0227	60	336.25	.15
.4135	.0191	60	336.3	.15
.5232	.0155	60	336.45	.15
.6147	.0126	60	336.6	.15
.6962	.0099	60	337	.15
.79	.0068	60	337.5	.15
.8841	.0038	60	339.02	.15
.9146	.0028	60	341.35	.15
.9486	.0017	60	346.02	.15
1	0	60	380.94	.15
0	.0697	90	348.46	.15
.026	.0679	90	347.24	.15
.0529	.066	90	346.53	.15
.0902	.0634	90	346.22	.15
.0928	.0632	90	346.17	.15
.1316	.0605	90	346.12	.15
.2122	.0549	90	345.82	.15
.4006	.0418	90	345.77	.15
.4631	.0374	90	345.72	.15
.6433	.0249	90	346.02	.15
.6886	.0217	90	346.22	.15
.6996	.0209	90	346.43	.15
.7922	.0145	90	346.83	.15
.8876	.0078	90	348.86	.15
.9174	.0058	90	350.69	.15
.9451	.0038	90	355.27	.15
1	0	90	394.6	.15
0	.0326	90	348.47	.15
.0304	.0316	90	347.25	.15
.0541	.0308	90	346.69	.15
.096	.0295	90	346.39	.15
.1386	.0281	90	346.34	.15
.2141	.0256	90	346.29	.15
.3034	.0227	90	346.24	.15
.4135	.0191	90	346.24	.15
.5232	.0155	90	346.34	.15
.6147	.0126	90	346.74	.15
.6962	.0099	90	347.19	.15
.79	.0068	90	347.75	.15
.8841	.0038	90	349.78	.15
.9146	.0028	90	351.81	.15
.9486	.0017	90	358.23	.15
1	0	90	394.6	.15
0	.0697	101.3	351.41	.15
.026	.0679	101.3	350.24	.15
.0529	.066	101.3	349.53	.15
.0902	.0634	101.3	349.47	.15
.0928	.0632	101.3	349.27	.15
.1316	.0605	101.3	349.17	.15
.2122	.0549	101.3	348.97	.15
.4006	.0418	101.3	348.97	.15
.4631	.0374	101.3	348.97	.15
.6433	.0249	101.3	349.27	.15
.6886	.0217	101.3	349.47	.15
.6996	.0209	101.3	349.58	.15
.7922	.0145	101.3	349.88	.15
.8876	.0078	101.3	352.02	.15
.9174	.0058	101.3	353.8	.15
.9451	.0038	101.3	359.09	.15
1	0	101.3	398.74	.15
0	.0326	101.3	351.42	.15
.0304	.0316	101.3	350.3	.15
.0541	.0308	101.3	349.84	.15
.096	.0295	101.3	349.44	.15
.1386	.0281	101.3	349.44	.15
.2141	.0256	101.3	349.34	.15
.3034	.0227	101.3	349.34	.15
.4135	.0191	101.3	349.34	.15
.5232	.0155	101.3	349.49	.15
.6147	.0126	101.3	349.84	.15
.6962	.0099	101.3	350.24	.15
.79	.0068	101.3	350.9	.15
.8841	.0038	101.3	352.93	.15
.9146	.0028	101.3	355.27	.15
.9486	.0017	101.3	362.51	.15
1	0	101.3	398.74	.15

System: ethanol + water; phases: Liquid, Gas
Property: Boiling temperature at pressure P, K (Liquid); method: quasi-ebulliometric
Mole fraction of water	Pressure, kPa	Boiling temperature at pressure P, K	uncertainty
.0697	30	323.46	.15
.0326	30	323.46	.15
.0697	60	338.62	.15
.0326	60	338.63	.15
.0697	90	348.46	.15
.0326	90	348.47	.15
.0697	101.3	351.41	.15
.0326	101.3	351.42	.15
