Measured thermophysical data. Densities and Viscosities of Erythritol, Xylitol, and Mannitol in l-ascorbic Acid Aqueous Solutions at T = (293.15 to 323.15) K
Source: J. Chem. Eng. Data, 2013, 10.1021/je400395u
Compound 1: erythritol, C4H10O4, purity 99.5%
Compound 2: xylitol, C5H12O5, purity 99%
Compound 3: mannitol, C6H14O6, purity 99%
Compound 4: water, H2O
Compound 5: L-ascorbic acid, C6H8O6, purity 99.7%

System: water; phases: Liquid
Property: Mass density, kg/m3 (Liquid); method: Vibrating tube method
Temperature, K	Pressure, kPa	Mass density, kg/m3	uncertainty
293.15	100	998.21	.05
303.15	100	995.64	.05
313.15	100	992.22	.05
323.15	100	988.05	.05

System: L-ascorbic acid + erythritol + water; phases: Liquid
Fixed: Pressure, kPa = 100
Property: Mass density, kg/m3 (Liquid); method: Vibrating tube method
Temperature, K	Solvent: Molality, mol/kg of L-ascorbic acid	Molality, mol/kg of erythritol	Mass density, kg/m3	uncertainty
293.15	0	0	998.21	.05
293.15	0	.2002	1005.26	.05
293.15	0	.4001	1012.03	.05
293.15	0	.6001	1018.54	.05
293.15	0	.7984	1024.74	.05
293.15	0	.9998	1030.79	.05
303.15	0	0	995.64	.05
303.15	0	.2002	1002.58	.05
303.15	0	.4001	1009.24	.05
303.15	0	.6001	1015.65	.05
303.15	0	.7984	1021.76	.05
303.15	0	.9998	1027.73	.05
313.15	0	0	992.22	.05
313.15	0	.2002	999.05	.05
313.15	0	.4001	1005.61	.05
313.15	0	.6001	1011.9	.05
313.15	0	.7984	1017.92	.05
313.15	0	.9998	1023.81	.05
323.15	0	0	988.05	.05
323.15	0	.2002	994.8	.05
323.15	0	.4001	1001.29	.05
323.15	0	.6001	1007.55	.05
323.15	0	.7984	1013.53	.05
323.15	0	.9998	1019.39	.05
293.15	.1	0	1005.25	.05
293.15	.1	.2005	1012.22	.05
293.15	.1	.4003	1018.89	.05
293.15	.1	.5999	1025.26	.05
293.15	.1	.8	1031.39	.05
293.15	.1	1.0001	1037.28	.05
303.15	.1	0	1002.56	.05
303.15	.1	.2005	1009.41	.05
303.15	.1	.4003	1015.96	.05
303.15	.1	.5999	1022.23	.05
303.15	.1	.8	1028.25	.05
303.15	.1	1.0001	1034.08	.05
313.15	.1	0	999.06	.05
313.15	.1	.2005	1005.8	.05
313.15	.1	.4003	1012.25	.05
313.15	.1	.5999	1018.44	.05
313.15	.1	.8	1024.39	.05
313.15	.1	1.0001	1030.12	.05
323.15	.1	0	994.78	.05
323.15	.1	.2005	1001.42	.05
323.15	.1	.4003	1007.77	.05
323.15	.1	.5999	1013.85	.05
323.15	.1	.8	1019.68	.05
323.15	.1	1.0001	1025.22	.05
293.15	.2	0	1012.12	.05
293.15	.2	.2002	1019.01	.05
293.15	.2	.4001	1025.6	.05
293.15	.2	.6001	1031.93	.05
293.15	.2	.7998	1038.02	.05
293.15	.2	1	1043.89	.05
303.15	.2	0	1009.33	.05
303.15	.2	.2002	1016.1	.05
303.15	.2	.4001	1022.6	.05
303.15	.2	.6001	1028.84	.05
303.15	.2	.7998	1034.83	.05
303.15	.2	1	1040.61	.05
313.15	.2	0	1005.69	.05
313.15	.2	.2002	1012.35	.05
313.15	.2	.4001	1018.74	.05
313.15	.2	.6001	1024.87	.05
313.15	.2	.7998	1030.76	.05
313.15	.2	1	1036.45	.05
323.15	.2	0	1001.31	.05
323.15	.2	.2002	1007.88	.05
323.15	.2	.4001	1014.19	.05
323.15	.2	.6001	1020.25	.05
323.15	.2	.7998	1026.07	.05
323.15	.2	1	1031.69	.05
293.15	.3	0	1018.82	.05
293.15	.3	.1999	1025.61	.05
293.15	.3	.4002	1032.13	.05
293.15	.3	.6001	1038.36	.05
293.15	.3	.7996	1044.34	.05
293.15	.3	.9999	1050.1	.05
303.15	.3	0	1015.91	.05
303.15	.3	.1999	1022.59	.05
303.15	.3	.4002	1029.02	.05
303.15	.3	.6001	1035.17	.05
303.15	.3	.7996	1041.09	.05
303.15	.3	.9999	1046.81	.05
313.15	.3	0	1012.2	.05
313.15	.3	.1999	1018.77	.05
313.15	.3	.4002	1025.12	.05
313.15	.3	.6001	1031.2	.05
313.15	.3	.7996	1037.04	.05
313.15	.3	.9999	1042.71	.05
323.15	.3	0	1007.78	.05
323.15	.3	.1999	1014.26	.05
323.15	.3	.4002	1020.5	.05
323.15	.3	.6001	1026.49	.05
323.15	.3	.7996	1032.25	.05
323.15	.3	.9999	1037.83	.05
293.15	.4	0	1025.4	.05
293.15	.4	.2	1032.11	.05
293.15	.4	.4002	1038.53	.05
293.15	.4	.6004	1044.68	.05
293.15	.4	.8	1050.55	.05
293.15	.4	.9998	1056.2	.05
303.15	.4	0	1022.39	.05
303.15	.4	.2	1028.98	.05
303.15	.4	.4002	1035.3	.05
303.15	.4	.6004	1041.35	.05
303.15	.4	.8	1047.15	.05
303.15	.4	.9998	1052.72	.05
313.15	.4	0	1018.62	.05
313.15	.4	.2	1025.11	.05
313.15	.4	.4002	1031.32	.05
313.15	.4	.6004	1037.31	.05
313.15	.4	.8	1043.01	.05
313.15	.4	.9998	1048.52	.05
323.15	.4	0	1014.08	.05
323.15	.4	.2	1020.48	.05
323.15	.4	.4002	1026.63	.05
323.15	.4	.6004	1032.54	.05
323.15	.4	.8	1038.23	.05
323.15	.4	.9998	1043.74	.05

System: L-ascorbic acid + erythritol + water; phases: Liquid
Fixed: Pressure, kPa = 100
Property: Viscosity, Pa*s (Liquid); method: Capillary tube (Ostwald; Ubbelohde) method
Temperature, K	Solvent: Molality, mol/kg of L-ascorbic acid	Molality, mol/kg of erythritol	Viscosity, Pa*s	uncertainty
293.15	0	.2002	.001069	.00001069
293.15	0	.4001	.001134	.00001134
293.15	0	.6001	.001204	.00001204
293.15	0	.7984	.001278	.00001278
293.15	0	.9998	.001358	.00001358
303.15	0	.2002	.000849	.00000849
303.15	0	.4001	.000895	.00000895
303.15	0	.6001	.000947	.00000947
303.15	0	.7984	.001001	.00001001
303.15	0	.9998	.001058	.00001058
313.15	0	.2002	.00069	.0000069
313.15	0	.4001	.000727	.00000727
313.15	0	.6001	.000766	.00000766
313.15	0	.7984	.000806	.00000806
313.15	0	.9998	.000849	.00000849
323.15	0	.2002	.000576	.00000576
323.15	0	.4001	.000604	.00000604
323.15	0	.6001	.000634	.00000634
323.15	0	.7984	.000665	.00000665
323.15	0	.9998	.000698	.00000698
293.15	.1	0	.001042	.00001042
293.15	.1	.2005	.001109	.00001109
293.15	.1	.4003	.00118	.0000118
293.15	.1	.5999	.001254	.00001254
293.15	.1	.8	.001331	.00001331
293.15	.1	1.0001	.001411	.00001411
303.15	.1	0	.000828	.00000828
303.15	.1	.2005	.000877	.00000877
303.15	.1	.4003	.00093	.0000093
303.15	.1	.5999	.000984	.00000984
303.15	.1	.8	.00104	.0000104
303.15	.1	1.0001	.001099	.00001099
313.15	.1	0	.000677	.00000677
313.15	.1	.2005	.000715	.00000715
313.15	.1	.4003	.000753	.00000753
313.15	.1	.5999	.000794	.00000794
313.15	.1	.8	.000835	.00000835
313.15	.1	1.0001	.000881	.00000881
323.15	.1	0	.000565	.00000565
323.15	.1	.2005	.000595	.00000595
323.15	.1	.4003	.000625	.00000625
323.15	.1	.5999	.000656	.00000656
323.15	.1	.8	.000688	.00000688
323.15	.1	1.0001	.000723	.00000723
293.15	.2	0	.00109	.0000109
293.15	.2	.2002	.001164	.00001164
293.15	.2	.4001	.001232	.00001232
293.15	.2	.6001	.001307	.00001307
293.15	.2	.7998	.00139	.0000139
293.15	.2	1	.001477	.00001477
303.15	.2	0	.000858	.00000858
303.15	.2	.2002	.00091	.0000091
303.15	.2	.4001	.000965	.00000965
303.15	.2	.6001	.001022	.00001022
303.15	.2	.7998	.001082	.00001082
303.15	.2	1	.001146	.00001146
313.15	.2	0	.000699	.00000699
313.15	.2	.2002	.000741	.00000741
313.15	.2	.4001	.00078	.0000078
313.15	.2	.6001	.000823	.00000823
313.15	.2	.7998	.000868	.00000868
313.15	.2	1	.000915	.00000915
323.15	.2	0	.000584	.00000584
323.15	.2	.2002	.000614	.00000614
323.15	.2	.4001	.000648	.00000648
323.15	.2	.6001	.000679	.00000679
323.15	.2	.7998	.000713	.00000713
323.15	.2	1	.00075	.0000075
293.15	.3	0	.001128	.00001128
293.15	.3	.1999	.001203	.00001203
293.15	.3	.4002	.001278	.00001278
293.15	.3	.6001	.001359	.00001359
293.15	.3	.7996	.001447	.00001447
293.15	.3	.9999	.001539	.00001539
303.15	.3	0	.000894	.00000894
303.15	.3	.1999	.000949	.00000949
303.15	.3	.4002	.001005	.00001005
303.15	.3	.6001	.001062	.00001062
303.15	.3	.7996	.001125	.00001125
303.15	.3	.9999	.001192	.00001192
313.15	.3	0	.000724	.00000724
313.15	.3	.1999	.000766	.00000766
313.15	.3	.4002	.000809	.00000809
313.15	.3	.6001	.000854	.00000854
313.15	.3	.7996	.000901	.00000901
313.15	.3	.9999	.00095	.0000095
323.15	.3	0	.000603	.00000603
323.15	.3	.1999	.000636	.00000636
323.15	.3	.4002	.00067	.0000067
323.15	.3	.6001	.000703	.00000703
323.15	.3	.7996	.000741	.00000741
323.15	.3	.9999	.000776	.00000776
293.15	.4	0	.001167	.00001167
293.15	.4	.2	.001245	.00001245
293.15	.4	.4002	.001327	.00001327
293.15	.4	.6004	.001415	.00001415
293.15	.4	.8	.001504	.00001504
293.15	.4	.9998	.001611	.00001611
303.15	.4	0	.000922	.00000922
303.15	.4	.2	.000979	.00000979
303.15	.4	.4002	.001035	.00001035
303.15	.4	.6004	.0011	.000011
303.15	.4	.8	.001166	.00001166
303.15	.4	.9998	.00124	.0000124
313.15	.4	0	.000751	.00000751
313.15	.4	.2	.000792	.00000792
313.15	.4	.4002	.000837	.00000837
313.15	.4	.6004	.000882	.00000882
313.15	.4	.8	.000932	.00000932
313.15	.4	.9998	.000987	.00000987
323.15	.4	0	.000623	.00000623
323.15	.4	.2	.000656	.00000656
323.15	.4	.4002	.000691	.00000691
323.15	.4	.6004	.000724	.00000724
323.15	.4	.8	.000762	.00000762
323.15	.4	.9998	.000804	.00000804

System: L-ascorbic acid + xylitol + water; phases: Liquid
Fixed: Pressure, kPa = 100
Property: Mass density, kg/m3 (Liquid); method: Vibrating tube method
Temperature, K	Solvent: Molality, mol/kg of L-ascorbic acid	Molality, mol/kg of xylitol	Mass density, kg/m3	uncertainty
293.15	0	0	998.21	.05
293.15	0	.2002	1008.14	.05
293.15	0	.4	1017.61	.05
293.15	0	.5996	1026.67	.05
293.15	0	.7997	1035.36	.05
293.15	0	1.0002	1043.71	.05
303.15	0	0	995.64	.05
303.15	0	.2002	1005.4	.05
303.15	0	.4	1014.72	.05
303.15	0	.5996	1023.62	.05
303.15	0	.7997	1032.15	.05
303.15	0	1.0002	1040.36	.05
313.15	0	0	992.22	.05
313.15	0	.2002	1001.83	.05
313.15	0	.4	1010.99	.05
313.15	0	.5996	1019.76	.05
313.15	0	.7997	1028.15	.05
313.15	0	1.0002	1036.24	.05
323.15	0	0	988.05	.05
323.15	0	.2002	997.51	.05
323.15	0	.4	1006.53	.05
323.15	0	.5996	1015.16	.05
323.15	0	.7997	1023.43	.05
323.15	0	1.0002	1031.37	.05
293.15	.1	0	1005.25	.05
293.15	.1	.2	1015.07	.05
293.15	.1	.4	1024.45	.05
293.15	.1	.6002	1033.43	.05
293.15	.1	.8008	1042.06	.05
293.15	.1	.9999	1050.28	.05
303.15	.1	0	1002.56	.05
303.15	.1	.2	1012.21	.05
303.15	.1	.4	1021.44	.05
303.15	.1	.6002	1030.28	.05
303.15	.1	.8008	1038.75	.05
303.15	.1	.9999	1046.84	.05
313.15	.1	0	999.06	.05
313.15	.1	.2	1008.55	.05
313.15	.1	.4	1017.64	.05
313.15	.1	.6002	1026.34	.05
313.15	.1	.8008	1034.69	.05
313.15	.1	.9999	1042.65	.05
323.15	.1	0	994.78	.05
323.15	.1	.2	1004.14	.05
323.15	.1	.4	1013.1	.05
323.15	.1	.6002	1021.71	.05
323.15	.1	.8008	1030	.05
323.15	.1	.9999	1037.88	.05
293.15	.2	0	1012.12	.05
293.15	.2	.2004	1021.87	.05
293.15	.2	.4001	1031.15	.05
293.15	.2	.6002	1040.04	.05
293.15	.2	.8008	1048.59	.05
293.15	.2	1.0002	1056.74	.05
303.15	.2	0	1009.33	.05
303.15	.2	.2004	1018.91	.05
303.15	.2	.4001	1028.03	.05
303.15	.2	.6002	1036.77	.05
303.15	.2	.8008	1045.15	.05
303.15	.2	1.0002	1053.16	.05
313.15	.2	0	1005.69	.05
313.15	.2	.2004	1015.11	.05
313.15	.2	.4001	1024.1	.05
313.15	.2	.6002	1032.69	.05
313.15	.2	.8008	1040.97	.05
313.15	.2	1.0002	1048.89	.05
323.15	.2	0	1001.31	.05
323.15	.2	.2004	1010.59	.05
323.15	.2	.4001	1019.44	.05
323.15	.2	.6002	1027.94	.05
323.15	.2	.8008	1036.1	.05
323.15	.2	1.0002	1043.9	.05
293.15	.3	0	1018.82	.05
293.15	.3	.2002	1028.47	.05
293.15	.3	.4002	1037.68	.05
293.15	.3	.6002	1046.48	.05
293.15	.3	.8003	1054.91	.05
293.15	.3	1.0006	1062.97	.05
303.15	.3	0	1015.91	.05
303.15	.3	.2002	1025.39	.05
303.15	.3	.4002	1034.45	.05
303.15	.3	.6002	1043.1	.05
303.15	.3	.8003	1051.4	.05
303.15	.3	1.0006	1059.35	.05
313.15	.3	0	1012.2	.05
313.15	.3	.2002	1021.53	.05
313.15	.3	.4002	1030.44	.05
313.15	.3	.6002	1038.95	.05
313.15	.3	.8003	1047.14	.05
313.15	.3	1.0006	1054.98	.05
323.15	.3	0	1007.78	.05
323.15	.3	.2002	1016.96	.05
323.15	.3	.4002	1025.75	.05
323.15	.3	.6002	1034.17	.05
323.15	.3	.8003	1042.25	.05
323.15	.3	1.0006	1050.02	.05
293.15	.4	0	1025.4	.05
293.15	.4	.2	1034.95	.05
293.15	.4	.3999	1044.05	.05
293.15	.4	.6	1052.76	.05
293.15	.4	.8	1061.09	.05
293.15	.4	1.0001	1069.06	.05
303.15	.4	0	1022.39	.05
303.15	.4	.2	1031.76	.05
303.15	.4	.3999	1040.71	.05
303.15	.4	.6	1049.27	.05
303.15	.4	.8	1057.46	.05
303.15	.4	1.0001	1065.29	.05
313.15	.4	0	1018.62	.05
313.15	.4	.2	1027.83	.05
313.15	.4	.3999	1036.61	.05
313.15	.4	.6	1045	.05
313.15	.4	.8	1053.03	.05
313.15	.4	1.0001	1060.69	.05
323.15	.4	0	1014.08	.05
323.15	.4	.2	1023.15	.05
323.15	.4	.3999	1031.82	.05
323.15	.4	.6	1040.13	.05
323.15	.4	.8	1048.09	.05
323.15	.4	1.0001	1055.69	.05

System: L-ascorbic acid + xylitol + water; phases: Liquid
Fixed: Pressure, kPa = 100
Property: Viscosity, Pa*s (Liquid); method: Capillary tube (Ostwald; Ubbelohde) method
Temperature, K	Solvent: Molality, mol/kg of L-ascorbic acid	Molality, mol/kg of xylitol	Viscosity, Pa*s	uncertainty
293.15	0	.2002	.001081	.00001081
293.15	0	.4	.001168	.00001168
293.15	0	.5996	.001249	.00001249
293.15	0	.7997	.001343	.00001343
293.15	0	1.0002	.001449	.00001449
303.15	0	.2002	.000858	.00000858
303.15	0	.4	.000917	.00000917
303.15	0	.5996	.000981	.00000981
303.15	0	.7997	.001056	.00001056
303.15	0	1.0002	.001125	.00001125
313.15	0	.2002	.000699	.00000699
313.15	0	.4	.000743	.00000743
313.15	0	.5996	.000792	.00000792
313.15	0	.7997	.000845	.00000845
313.15	0	1.0002	.000901	.00000901
323.15	0	.2002	.000582	.00000582
323.15	0	.4	.000617	.00000617
323.15	0	.5996	.000655	.00000655
323.15	0	.7997	.000695	.00000695
323.15	0	1.0002	.000739	.00000739
293.15	.1	0	.001042	.00001042
293.15	.1	.2	.001123	.00001123
293.15	.1	.4	.001212	.00001212
293.15	.1	.6002	.001307	.00001307
293.15	.1	.8008	.001407	.00001407
293.15	.1	.9999	.001515	.00001515
303.15	.1	0	.000828	.00000828
303.15	.1	.2	.000888	.00000888
303.15	.1	.4	.000953	.00000953
303.15	.1	.6002	.001021	.00001021
303.15	.1	.8008	.001096	.00001096
303.15	.1	.9999	.001171	.00001171
313.15	.1	0	.000677	.00000677
313.15	.1	.2	.000723	.00000723
313.15	.1	.4	.000772	.00000772
313.15	.1	.6002	.000823	.00000823
313.15	.1	.8008	.000881	.00000881
313.15	.1	.9999	.000935	.00000935
323.15	.1	0	.000565	.00000565
323.15	.1	.2	.000601	.00000601
323.15	.1	.4	.000639	.00000639
323.15	.1	.6002	.000681	.00000681
323.15	.1	.8008	.000724	.00000724
323.15	.1	.9999	.000764	.00000764
293.15	.2	0	.00109	.0000109
293.15	.2	.2004	.001177	.00001177
293.15	.2	.4001	.001268	.00001268
293.15	.2	.6002	.001362	.00001362
293.15	.2	.8008	.001465	.00001465
293.15	.2	1.0002	.001584	.00001584
303.15	.2	0	.000858	.00000858
303.15	.2	.2004	.000921	.00000921
303.15	.2	.4001	.00099	.0000099
303.15	.2	.6002	.001063	.00001063
303.15	.2	.8008	.001139	.00001139
303.15	.2	1.0002	.00122	.0000122
313.15	.2	0	.000699	.00000699
313.15	.2	.2004	.000751	.00000751
313.15	.2	.4001	.000801	.00000801
313.15	.2	.6002	.000856	.00000856
313.15	.2	.8008	.000916	.00000916
313.15	.2	1.0002	.000977	.00000977
323.15	.2	0	.000584	.00000584
323.15	.2	.2004	.000624	.00000624
323.15	.2	.4001	.000663	.00000663
323.15	.2	.6002	.000705	.00000705
323.15	.2	.8008	.000751	.00000751
323.15	.2	1.0002	.000794	.00000794
293.15	.3	0	.001128	.00001128
293.15	.3	.2002	.001215	.00001215
293.15	.3	.4002	.001314	.00001314
293.15	.3	.6002	.001415	.00001415
293.15	.3	.8003	.001527	.00001527
293.15	.3	1.0006	.001641	.00001641
303.15	.3	0	.000894	.00000894
303.15	.3	.2002	.000958	.00000958
303.15	.3	.4002	.00103	.0000103
303.15	.3	.6002	.001107	.00001107
303.15	.3	.8003	.001189	.00001189
303.15	.3	1.0006	.00127	.0000127
313.15	.3	0	.000724	.00000724
313.15	.3	.2002	.000776	.00000776
313.15	.3	.4002	.00083	.0000083
313.15	.3	.6002	.000886	.00000886
313.15	.3	.8003	.000947	.00000947
313.15	.3	1.0006	.001011	.00001011
323.15	.3	0	.000603	.00000603
323.15	.3	.2002	.000643	.00000643
323.15	.3	.4002	.000685	.00000685
323.15	.3	.6002	.000729	.00000729
323.15	.3	.8003	.000778	.00000778
323.15	.3	1.0006	.000822	.00000822
293.15	.4	0	.001167	.00001167
293.15	.4	.2	.001264	.00001264
293.15	.4	.3999	.001368	.00001368
293.15	.4	.6	.001477	.00001477
293.15	.4	.8	.001598	.00001598
293.15	.4	1.0001	.001726	.00001726
303.15	.4	0	.000922	.00000922
303.15	.4	.2	.000993	.00000993
303.15	.4	.3999	.001063	.00001063
303.15	.4	.6	.00115	.0000115
303.15	.4	.8	.001233	.00001233
303.15	.4	1.0001	.001329	.00001329
313.15	.4	0	.000751	.00000751
313.15	.4	.2	.000801	.00000801
313.15	.4	.3999	.000861	.00000861
313.15	.4	.6	.00092	.0000092
313.15	.4	.8	.000983	.00000983
313.15	.4	1.0001	.001055	.00001055
323.15	.4	0	.000623	.00000623
323.15	.4	.2	.000663	.00000663
323.15	.4	.3999	.000708	.00000708
323.15	.4	.6	.000756	.00000756
323.15	.4	.8	.000804	.00000804
323.15	.4	1.0001	.000855	.00000855

System: L-ascorbic acid + mannitol + water; phases: Liquid
Fixed: Pressure, kPa = 100
Property: Mass density, kg/m3 (Liquid); method: Vibrating tube method
Temperature, K	Solvent: Molality, mol/kg of L-ascorbic acid	Molality, mol/kg of mannitol	Mass density, kg/m3	uncertainty
293.15	0	0	998.21	.05
293.15	0	.2003	1010.6	.05
293.15	0	.4001	1022.32	.05
293.15	0	.5999	1033.48	.05
293.15	0	.7997	1044.08	.05
293.15	0	1.0002	1054.22	.05
303.15	0	0	995.64	.05
303.15	0	.2003	1007.89	.05
303.15	0	.4001	1019.47	.05
303.15	0	.5999	1030.47	.05
303.15	0	.7997	1040.9	.05
303.15	0	1.0002	1050.86	.05
313.15	0	0	992.22	.05
313.15	0	.2003	1004.33	.05
313.15	0	.4001	1015.78	.05
313.15	0	.5999	1026.64	.05
313.15	0	.7997	1036.96	.05
313.15	0	1.0002	1046.81	.05
323.15	0	0	988.05	.05
323.15	0	.2003	1000.02	.05
323.15	0	.4001	1011.34	.05
323.15	0	.5999	1022.08	.05
323.15	0	.7997	1032.29	.05
323.15	0	1.0002	1042.03	.05
293.15	.1	0	1005.25	.05
293.15	.1	.2002	1017.46	.05
293.15	.1	.399	1028.99	.05
293.15	.1	.6	1040.06	.05
293.15	.1	.8015	1050.61	.05
293.15	.1	.9705	1059.1	.05
303.15	.1	0	1002.56	.05
303.15	.1	.2002	1014.65	.05
303.15	.1	.399	1026.06	.05
303.15	.1	.6	1037.03	.05
303.15	.1	.8015	1047.47	.05
303.15	.1	.9705	1055.87	.05
313.15	.1	0	999.06	.05
313.15	.1	.2002	1011.02	.05
313.15	.1	.399	1022.31	.05
313.15	.1	.6	1033.18	.05
313.15	.1	.8015	1043.53	.05
313.15	.1	.9705	1051.87	.05
323.15	.1	0	994.78	.05
323.15	.1	.2002	1006.6	.05
323.15	.1	.399	1017.76	.05
323.15	.1	.6	1028.51	.05
323.15	.1	.8015	1038.78	.05
323.15	.1	.9705	1047.01	.05
293.15	.2002	0	1012.12	.05
293.15	.2002	.1983	1024.13	.05
293.15	.2002	.3998	1035.71	.05
293.15	.2002	.5999	1046.63	.05
293.15	.2002	.8029	1057.17	.05
293.15	.2002	.9674	1065.32	.05
303.15	.2002	0	1009.33	.05
303.15	.2002	.1983	1021.21	.05
303.15	.2002	.3998	1032.67	.05
303.15	.2002	.5999	1043.49	.05
303.15	.2002	.8029	1053.94	.05
303.15	.2002	.9674	1062.02	.05
313.15	.2002	0	1005.69	.05
313.15	.2002	.1983	1017.44	.05
313.15	.2002	.3998	1028.79	.05
313.15	.2002	.5999	1039.51	.05
313.15	.2002	.8029	1049.86	.05
313.15	.2002	.9674	1057.9	.05
323.15	.2002	0	1001.31	.05
323.15	.2002	.1983	1012.93	.05
323.15	.2002	.3998	1024.17	.05
323.15	.2002	.5999	1034.81	.05
323.15	.2002	.8029	1045.11	.05
323.15	.2002	.9674	1053.12	.05
293.15	.3141	0	1018.82	.05
293.15	.3141	.2002	1030.85	.05
293.15	.3141	.3999	1042.24	.05
293.15	.3141	.6001	1053.07	.05
293.15	.3141	.7996	1063.34	.05
293.15	.3141	.992	1072.77	.05
303.15	.3141	0	1015.91	.05
303.15	.3141	.2002	1027.81	.05
303.15	.3141	.3999	1039.08	.05
303.15	.3141	.6001	1049.81	.05
303.15	.3141	.7996	1059.98	.05
303.15	.3141	.992	1069.34	.05
313.15	.3141	0	1012.2	.05
313.15	.3141	.2002	1023.96	.05
313.15	.3141	.3999	1035.12	.05
313.15	.3141	.6001	1045.74	.05
313.15	.3141	.7996	1055.82	.05
313.15	.3141	.992	1065.08	.05
323.15	.3141	0	1007.78	.05
323.15	.3141	.2002	1019.4	.05
323.15	.3141	.3999	1030.44	.05
323.15	.3141	.6001	1040.98	.05
323.15	.3141	.7996	1051	.05
323.15	.3141	.992	1060.2	.05
293.15	.4	0	1025.4	.05
293.15	.4	.1993	1037.26	.05
293.15	.4	.3986	1048.5	.05
293.15	.4	.6011	1059.34	.05
293.15	.4	.8045	1069.67	.05
293.15	.4	1.0042	1079.28	.05
303.15	.4	0	1022.39	.05
303.15	.4	.1993	1034.13	.05
303.15	.4	.3986	1045.27	.05
303.15	.4	.6011	1056.01	.05
303.15	.4	.8045	1066.27	.05
303.15	.4	1.0042	1075.84	.05
313.15	.4	0	1018.62	.05
313.15	.4	.1993	1030.23	.05
313.15	.4	.3986	1041.25	.05
313.15	.4	.6011	1051.89	.05
313.15	.4	.8045	1062.04	.05
313.15	.4	1.0042	1071.51	.05
323.15	.4	0	1014.08	.05
323.15	.4	.1993	1025.55	.05
323.15	.4	.3986	1036.47	.05
323.15	.4	.6011	1047.03	.05
323.15	.4	.8045	1057.15	.05
323.15	.4	1.0042	1066.6	.05

System: L-ascorbic acid + mannitol + water; phases: Liquid
Fixed: Pressure, kPa = 100
Property: Viscosity, Pa*s (Liquid); method: Capillary tube (Ostwald; Ubbelohde) method
Temperature, K	Solvent: Molality, mol/kg of L-ascorbic acid	Molality, mol/kg of mannitol	Viscosity, Pa*s	uncertainty
293.15	0	.2003	.001106	.00001106
293.15	0	.4001	.001219	.00001219
293.15	0	.5999	.001345	.00001345
293.15	0	.7997	.001486	.00001486
293.15	0	1.0002	.001634	.00001634
303.15	0	.2003	.000875	.00000875
303.15	0	.4001	.000957	.00000957
303.15	0	.5999	.001048	.00001048
303.15	0	.7997	.001151	.00001151
303.15	0	1.0002	.001256	.00001256
313.15	0	.2003	.000713	.00000713
313.15	0	.4001	.000774	.00000774
313.15	0	.5999	.000842	.00000842
313.15	0	.7997	.000918	.00000918
313.15	0	1.0002	.000996	.00000996
323.15	0	.2003	.000592	.00000592
323.15	0	.4001	.00064	.0000064
323.15	0	.5999	.000693	.00000693
323.15	0	.7997	.000751	.00000751
323.15	0	1.0002	.000811	.00000811
293.15	.1	0	.001042	.00001042
293.15	.1	.2002	.001151	.00001151
293.15	.1	.399	.00127	.0000127
293.15	.1	.6	.001405	.00001405
293.15	.1	.8015	.001554	.00001554
293.15	.1	.9705	.001693	.00001693
303.15	.1	0	.000828	.00000828
303.15	.1	.2002	.000907	.00000907
303.15	.1	.399	.000989	.00000989
303.15	.1	.6	.00109	.0000109
303.15	.1	.8015	.0012	.000012
303.15	.1	.9705	.001295	.00001295
313.15	.1	0	.000677	.00000677
313.15	.1	.2002	.000737	.00000737
313.15	.1	.399	.000797	.00000797
313.15	.1	.6	.000868	.00000868
313.15	.1	.8015	.000955	.00000955
313.15	.1	.9705	.001023	.00001023
323.15	.1	0	.000565	.00000565
323.15	.1	.2002	.000608	.00000608
323.15	.1	.399	.000658	.00000658
323.15	.1	.6	.000711	.00000711
323.15	.1	.8015	.000778	.00000778
323.15	.1	.9705	.000829	.00000829
293.15	.2002	0	.00109	.0000109
293.15	.2002	.1983	.001204	.00001204
293.15	.2002	.3998	.001331	.00001331
293.15	.2002	.5999	.001469	.00001469
293.15	.2002	.8029	.001623	.00001623
293.15	.2002	.9674	.001769	.00001769
303.15	.2002	0	.000858	.00000858
303.15	.2002	.1983	.000938	.00000938
303.15	.2002	.3998	.001036	.00001036
303.15	.2002	.5999	.001137	.00001137
303.15	.2002	.8029	.001249	.00001249
303.15	.2002	.9674	.001353	.00001353
313.15	.2002	0	.000699	.00000699
313.15	.2002	.1983	.000754	.00000754
313.15	.2002	.3998	.000834	.00000834
313.15	.2002	.5999	.00091	.0000091
313.15	.2002	.8029	.000998	.00000998
313.15	.2002	.9674	.001069	.00001069
323.15	.2002	0	.000584	.00000584
323.15	.2002	.1983	.000625	.00000625
323.15	.2002	.3998	.000687	.00000687
323.15	.2002	.5999	.000746	.00000746
323.15	.2002	.8029	.000808	.00000808
323.15	.2002	.9674	.000866	.00000866
293.15	.3141	0	.001128	.00001128
293.15	.3141	.2002	.00125	.0000125
293.15	.3141	.3999	.001387	.00001387
293.15	.3141	.6001	.001537	.00001537
293.15	.3141	.7996	.001705	.00001705
293.15	.3141	.992	.001888	.00001888
303.15	.3141	0	.000894	.00000894
303.15	.3141	.2002	.00098	.0000098
303.15	.3141	.3999	.001081	.00001081
303.15	.3141	.6001	.001188	.00001188
303.15	.3141	.7996	.001309	.00001309
303.15	.3141	.992	.001437	.00001437
313.15	.3141	0	.000724	.00000724
313.15	.3141	.2002	.000789	.00000789
313.15	.3141	.3999	.000866	.00000866
313.15	.3141	.6001	.000949	.00000949
313.15	.3141	.7996	.001039	.00001039
313.15	.3141	.992	.00113	.0000113
323.15	.3141	0	.000603	.00000603
323.15	.3141	.2002	.000653	.00000653
323.15	.3141	.3999	.000713	.00000713
323.15	.3141	.6001	.000776	.00000776
323.15	.3141	.7996	.000843	.00000843
323.15	.3141	.992	.000912	.00000912
293.15	.4	0	.001167	.00001167
293.15	.4	.1993	.001294	.00001294
293.15	.4	.3986	.001439	.00001439
293.15	.4	.6011	.0016	.000016
293.15	.4	.8045	.001779	.00001779
293.15	.4	1.0042	.001973	.00001973
303.15	.4	0	.000922	.00000922
303.15	.4	.1993	.001017	.00001017
303.15	.4	.3986	.001119	.00001119
303.15	.4	.6011	.001234	.00001234
303.15	.4	.8045	.001362	.00001362
303.15	.4	1.0042	.001497	.00001497
313.15	.4	0	.000751	.00000751
313.15	.4	.1993	.000819	.00000819
313.15	.4	.3986	.000902	.00000902
313.15	.4	.6011	.000981	.00000981
313.15	.4	.8045	.001076	.00001076
313.15	.4	1.0042	.001175	.00001175
323.15	.4	0	.000623	.00000623
323.15	.4	.1993	.000676	.00000676
323.15	.4	.3986	.000736	.00000736
323.15	.4	.6011	.0008	.000008
323.15	.4	.8045	.000872	.00000872
323.15	.4	1.0042	.000946	.00000946

System: erythritol + water; phases: Liquid
Property: Mass density, kg/m3 (Liquid); method: Vibrating tube method
Temperature, K	Molality, mol/kg of erythritol	Pressure, kPa	Mass density, kg/m3	uncertainty
293.15	.2002	100	1005.26	.05
293.15	.4001	100	1012.03	.05
293.15	.6001	100	1018.54	.05
293.15	.7984	100	1024.74	.05
293.15	.9998	100	1030.79	.05
303.15	.2002	100	1002.58	.05
303.15	.4001	100	1009.24	.05
303.15	.6001	100	1015.65	.05
303.15	.7984	100	1021.76	.05
303.15	.9998	100	1027.73	.05
313.15	.2002	100	999.05	.05
313.15	.4001	100	1005.61	.05
313.15	.6001	100	1011.9	.05
313.15	.7984	100	1017.92	.05
313.15	.9998	100	1023.81	.05
323.15	.2002	100	994.8	.05
323.15	.4001	100	1001.29	.05
323.15	.6001	100	1007.55	.05
323.15	.7984	100	1013.53	.05
323.15	.9998	100	1019.39	.05

System: erythritol + water; phases: Liquid
Property: Viscosity, Pa*s (Liquid); method: Capillary tube (Ostwald; Ubbelohde) method
Temperature, K	Molality, mol/kg of erythritol	Pressure, kPa	Viscosity, Pa*s	uncertainty
293.15	.2002	100	.001069	.00001069
293.15	.4001	100	.001134	.00001134
293.15	.6001	100	.001204	.00001204
293.15	.7984	100	.001278	.00001278
293.15	.9998	100	.001358	.00001358
303.15	.2002	100	.000849	.00000849
303.15	.4001	100	.000895	.00000895
303.15	.6001	100	.000947	.00000947
303.15	.7984	100	.001001	.00001001
303.15	.9998	100	.001058	.00001058
313.15	.2002	100	.00069	.0000069
313.15	.4001	100	.000727	.00000727
313.15	.6001	100	.000766	.00000766
313.15	.7984	100	.000806	.00000806
313.15	.9998	100	.000849	.00000849
323.15	.2002	100	.000576	.00000576
323.15	.4001	100	.000604	.00000604
323.15	.6001	100	.000634	.00000634
323.15	.7984	100	.000665	.00000665
323.15	.9998	100	.000698	.00000698

System: L-ascorbic acid + water; phases: Liquid
Property: Mass density, kg/m3 (Liquid); method: Vibrating tube method
Temperature, K	Molality, mol/kg of L-ascorbic acid	Pressure, kPa	Mass density, kg/m3	uncertainty
293.15	.1	100	1005.25	.05
303.15	.1	100	1002.56	.05
313.15	.1	100	999.06	.05
323.15	.1	100	994.78	.05
293.15	.2	100	1012.12	.05
303.15	.2	100	1009.33	.05
313.15	.2	100	1005.69	.05
323.15	.2	100	1001.31	.05
293.15	.3	100	1018.82	.05
303.15	.3	100	1015.91	.05
313.15	.3	100	1012.2	.05
323.15	.3	100	1007.78	.05
293.15	.4	100	1025.4	.05
303.15	.4	100	1022.39	.05
313.15	.4	100	1018.62	.05
323.15	.4	100	1014.08	.05
293.15	.2002	100	1012.12	.05
303.15	.2002	100	1009.33	.05
313.15	.2002	100	1005.69	.05
323.15	.2002	100	1001.31	.05
293.15	.3141	100	1018.82	.05
303.15	.3141	100	1015.91	.05
313.15	.3141	100	1012.2	.05
323.15	.3141	100	1007.78	.05

System: L-ascorbic acid + water; phases: Liquid
Property: Viscosity, Pa*s (Liquid); method: Capillary tube (Ostwald; Ubbelohde) method
Temperature, K	Molality, mol/kg of L-ascorbic acid	Pressure, kPa	Viscosity, Pa*s	uncertainty
293.15	.1	100	.001042	.00001042
303.15	.1	100	.000828	.00000828
313.15	.1	100	.000677	.00000677
323.15	.1	100	.000565	.00000565
293.15	.2	100	.00109	.0000109
303.15	.2	100	.000858	.00000858
313.15	.2	100	.000699	.00000699
323.15	.2	100	.000584	.00000584
293.15	.3	100	.001128	.00001128
303.15	.3	100	.000894	.00000894
313.15	.3	100	.000724	.00000724
323.15	.3	100	.000603	.00000603
293.15	.4	100	.001167	.00001167
303.15	.4	100	.000922	.00000922
313.15	.4	100	.000751	.00000751
323.15	.4	100	.000623	.00000623
293.15	.2002	100	.00109	.0000109
303.15	.2002	100	.000858	.00000858
313.15	.2002	100	.000699	.00000699
323.15	.2002	100	.000584	.00000584
293.15	.3141	100	.001128	.00001128
303.15	.3141	100	.000894	.00000894
313.15	.3141	100	.000724	.00000724
323.15	.3141	100	.000603	.00000603

System: xylitol + water; phases: Liquid
Property: Mass density, kg/m3 (Liquid); method: Vibrating tube method
Temperature, K	Molality, mol/kg of xylitol	Pressure, kPa	Mass density, kg/m3	uncertainty
293.15	.2002	100	1008.14	.05
293.15	.4	100	1017.61	.05
293.15	.5996	100	1026.67	.05
293.15	.7997	100	1035.36	.05
293.15	1.0002	100	1043.71	.05
303.15	.2002	100	1005.4	.05
303.15	.4	100	1014.72	.05
303.15	.5996	100	1023.62	.05
303.15	.7997	100	1032.15	.05
303.15	1.0002	100	1040.36	.05
313.15	.2002	100	1001.83	.05
313.15	.4	100	1010.99	.05
313.15	.5996	100	1019.76	.05
313.15	.7997	100	1028.15	.05
313.15	1.0002	100	1036.24	.05
323.15	.2002	100	997.51	.05
323.15	.4	100	1006.53	.05
323.15	.5996	100	1015.16	.05
323.15	.7997	100	1023.43	.05
323.15	1.0002	100	1031.37	.05

System: xylitol + water; phases: Liquid
Property: Viscosity, Pa*s (Liquid); method: Capillary tube (Ostwald; Ubbelohde) method
Temperature, K	Molality, mol/kg of xylitol	Pressure, kPa	Viscosity, Pa*s	uncertainty
293.15	.2002	100	.001081	.00001081
293.15	.4	100	.001168	.00001168
293.15	.5996	100	.001249	.00001249
293.15	.7997	100	.001343	.00001343
293.15	1.0002	100	.001449	.00001449
303.15	.2002	100	.000858	.00000858
303.15	.4	100	.000917	.00000917
303.15	.5996	100	.000981	.00000981
303.15	.7997	100	.001056	.00001056
303.15	1.0002	100	.001125	.00001125
313.15	.2002	100	.000699	.00000699
313.15	.4	100	.000743	.00000743
313.15	.5996	100	.000792	.00000792
313.15	.7997	100	.000845	.00000845
313.15	1.0002	100	.000901	.00000901
323.15	.2002	100	.000582	.00000582
323.15	.4	100	.000617	.00000617
323.15	.5996	100	.000655	.00000655
323.15	.7997	100	.000695	.00000695
323.15	1.0002	100	.000739	.00000739

System: mannitol + water; phases: Liquid
Property: Mass density, kg/m3 (Liquid); method: Vibrating tube method
Temperature, K	Molality, mol/kg of mannitol	Pressure, kPa	Mass density, kg/m3	uncertainty
293.15	.2003	100	1010.6	.05
293.15	.4001	100	1022.32	.05
293.15	.5999	100	1033.48	.05
293.15	.7997	100	1044.08	.05
293.15	1.0002	100	1054.22	.05
303.15	.2003	100	1007.89	.05
303.15	.4001	100	1019.47	.05
303.15	.5999	100	1030.47	.05
303.15	.7997	100	1040.9	.05
303.15	1.0002	100	1050.86	.05
313.15	.2003	100	1004.33	.05
313.15	.4001	100	1015.78	.05
313.15	.5999	100	1026.64	.05
313.15	.7997	100	1036.96	.05
313.15	1.0002	100	1046.81	.05
323.15	.2003	100	1000.02	.05
323.15	.4001	100	1011.34	.05
323.15	.5999	100	1022.08	.05
323.15	.7997	100	1032.29	.05
323.15	1.0002	100	1042.03	.05

System: mannitol + water; phases: Liquid
Property: Viscosity, Pa*s (Liquid); method: Capillary tube (Ostwald; Ubbelohde) method
Temperature, K	Molality, mol/kg of mannitol	Pressure, kPa	Viscosity, Pa*s	uncertainty
293.15	.2003	100	.001106	.00001106
293.15	.4001	100	.001219	.00001219
293.15	.5999	100	.001345	.00001345
293.15	.7997	100	.001486	.00001486
293.15	1.0002	100	.001634	.00001634
303.15	.2003	100	.000875	.00000875
303.15	.4001	100	.000957	.00000957
303.15	.5999	100	.001048	.00001048
303.15	.7997	100	.001151	.00001151
303.15	1.0002	100	.001256	.00001256
313.15	.2003	100	.000713	.00000713
313.15	.4001	100	.000774	.00000774
313.15	.5999	100	.000842	.00000842
313.15	.7997	100	.000918	.00000918
313.15	1.0002	100	.000996	.00000996
323.15	.2003	100	.000592	.00000592
323.15	.4001	100	.00064	.0000064
323.15	.5999	100	.000693	.00000693
323.15	.7997	100	.000751	.00000751
323.15	1.0002	100	.000811	.00000811
