Measured thermophysical data. Solid Liquid Equilibrium of Theophylline in Solvent Mixtures
Source: J. Chem. Eng. Data, 2014, 10.1021/je400864f
Compound 1: theophylline, C7H8N4O2, purity 99%
Compound 2: methanol, CH4O, purity 99.3%
Compound 3: isopropanol, C3H8O, purity 99.1%
Compound 4: water, H2O, purity 99.9%
Compound 5: theophylline monohydrate, C7H10N4O3

System: theophylline + methanol + water; phases: Liquid, Crystal
Fixed: Pressure, kPa = 100
Property: Mole fraction of theophylline (Liquid); method: gravimetric method
Temperature, K	Mole fraction of water	Mole fraction of theophylline	uncertainty
278.15	0	.000735	.00003675
278.15	.1	.000796	.0000398
278.15	.151	.000927	.00004635
278.15	.2	.000975	.00004875
278.15	.252	.00108	.000054
278.15	.3	.00116	.000058
283.15	0	.000892	.0000446
283.15	.104	.000974	.0000487
283.15	.151	.00111	.0000555
283.15	.202	.0012	.00006
283.15	.252	.00135	.0000675
283.15	.286	.00139	.0000695
283.15	.4	.001562	.0000781
288.15	0	.00106	.000053
288.15	.1	.00121	.0000605
288.15	.151	.00133	.0000665
288.15	.2	.00143	.0000715
288.15	.252	.00163	.0000815
288.15	.3	.0017	.000085
288.15	.398	.00198	.000099
293.15	0	.00122	.000061
293.15	.103	.00142	.000071
293.15	.151	.00155	.0000775
293.15	.202	.0017	.000085
293.15	.252	.00194	.000097
293.15	.298	.00204	.000102
293.15	.399	.00241	.0001205
293.15	.498	.00237	.0001185
298.15	0	.00145	.0000725
298.15	.106	.00171	.0000855
298.15	.151	.00183	.0000915
298.15	.19	.00204	.000102
298.15	.252	.00229	.0001145
298.15	.301	.00239	.0001195
298.15	.4	.00272	.000136
298.15	.5	.00281	.0001405
303.15	0	.00167	.0000835
303.15	.1	.002	.0001
303.15	.151	.00211	.0001055
303.15	.199	.00242	.000121
303.15	.252	.00271	.0001355
303.15	.3	.00292	.000146
303.15	.398	.00322	.000161
303.15	.498	.00351	.0001755

System: methanol + theophylline monohydrate + water; phases: Liquid, Crystal
Fixed: Pressure, kPa = 100
Property: Mole fraction of methanol (Liquid); method: gravimetric method
Temperature, K	Mole fraction of water	Mole fraction of methanol	uncertainty
278.15	.399	.00123	.0000615
278.15	.499	.00106	.000053
278.15	.599	.000849	.00004245
278.15	.7	.000617	.00003085
278.15	.802	.000415	.00002075
278.15	.9	.000286	.0000143
278.15	1	.000247	.00001235
283.15	.5	.0014	.00007
283.15	.6	.001181	.00005905
283.15	.698	.000902	.0000451
283.15	.798	.000562	.0000281
283.15	.899	.000413	.00002065
283.15	1	.00031	.0000155
288.15	.499	.00183	.0000915
288.15	.598	.00152	.000076
288.15	.699	.00122	.000061
288.15	.801	.000809	.00004045
288.15	.899	.000576	.0000288
288.15	1	.000405	.00002025
293.15	.6	.00198	.000099
293.15	.7	.00156	.000078
293.15	.796	.00106	.000053
293.15	.896	.000758	.0000379
293.15	.999	.000508	.0000254
298.15	.6	.00259	.0001295
298.15	.698	.0021	.000105
298.15	.799	.00137	.0000685
298.15	.899	.00099	.0000495
298.15	.999	.000629	.00003145
303.15	.597	.00343	.0001715
303.15	.698	.0028	.00014
303.15	.801	.00192	.000096
303.15	.899	.00127	.0000635
303.15	.999	.000815	.00004075

System: theophylline + isopropanol + water; phases: Liquid, Crystal
Fixed: Pressure, kPa = 100
Property: Mole fraction of theophylline (Liquid); method: gravimetric method
Temperature, K	Mole fraction of water	Mole fraction of theophylline	uncertainty
278.15	0	.000254	.0000127
278.15	.061	.000556	.0000278
278.15	.121	.000764	.0000382
278.15	.171	.000996	.0000498
278.15	.235	.00123	.0000615
278.15	.335	.00141	.0000705
283.15	0	.000329	.00001645
283.15	.061	.000676	.0000338
283.15	.121	.000895	.00004475
283.15	.17	.001184	.0000592
283.15	.234	.00141	.0000705
283.15	.335	.00168	.000084
288.15	0	.000452	.0000226
288.15	.061	.000798	.0000399
288.15	.121	.00106	.000053
288.15	.17	.001358	.0000679
288.15	.234	.0017	.000085
288.15	.335	.00208	.000104
293.15	0	.000656	.0000328
293.15	.061	.001029	.00005145
293.15	.121	.00129	.0000645
293.15	.17	.001691	.00008455
293.15	.234	.00209	.0001045
293.15	.334	.00261	.0001305
293.15	.417	.00286	.000143
298.15	0	.00102	.000051
298.15	.061	.001389	.00006945
298.15	.121	.00158	.000079
298.15	.17	.002087	.00010435
298.15	.234	.00252	.000126
298.15	.334	.00316	.000158
298.15	.417	.00347	.0001735
303.15	0	.00134	.000067
303.15	.061	.001707	.00008535
303.15	.121	.00191	.0000955
303.15	.17	.002455	.00012275
303.15	.234	.003	.00015
303.15	.334	.00371	.0001855
303.15	.417	.00423	.0002115

System: isopropanol + theophylline monohydrate + water; phases: Liquid, Crystal
Fixed: Pressure, kPa = 100
Property: Mole fraction of isopropanol (Liquid); method: gravimetric method
Temperature, K	Mole fraction of water	Mole fraction of isopropanol	uncertainty
278.15	.418	.00153	.0000765
278.15	.522	.00159	.0000795
278.15	.617	.00172	.000086
278.15	.711	.00159	.0000795
278.15	.798	.00139	.0000695
278.15	.877	.000854	.0000427
278.15	1	.000247	.00001235
283.15	.418	.00184	.000092
283.15	.521	.00207	.0001035
283.15	.616	.0021	.000105
283.15	.711	.00212	.000106
283.15	.798	.00176	.000088
283.15	.876	.0012	.00006
283.15	1	.000315	.00001575
288.15	.418	.00223	.0001115
288.15	.521	.00242	.000121
288.15	.616	.00263	.0001315
288.15	.711	.00264	.000132
288.15	.797	.00216	.000108
288.15	.876	.00154	.000077
288.15	1	.000405	.00002025
293.15	.521	.00307	.0001535
293.15	.616	.00316	.000158
293.15	.71	.0032	.00016
293.15	.797	.00279	.0001395
293.15	.876	.00198	.000099
293.15	.999	.000508	.0000254
298.15	.521	.00374	.000187
298.15	.615	.00408	.000204
298.15	.71	.00401	.0002005
298.15	.796	.00359	.0001795
298.15	.875	.00265	.0001325
298.15	.999	.000629	.00003145
303.15	.52	.00475	.0002375
303.15	.615	.00513	.0002565
303.15	.709	.00517	.0002585
303.15	.795	.00472	.000236
303.15	.874	.00356	.000178
303.15	.999	.000815	.00004075

System: theophylline + methanol; phases: Liquid, Crystal
Property: Mole fraction of theophylline (Liquid); method: gravimetric method
Temperature, K	Pressure, kPa	Mole fraction of theophylline	uncertainty
278.15	100	.000735	.00003675
283.15	100	.000892	.0000446
288.15	100	.00106	.000053
293.15	100	.00122	.000061
298.15	100	.00145	.0000725
303.15	100	.00167	.0000835

System: theophylline + isopropanol; phases: Liquid, Crystal
Property: Mole fraction of theophylline (Liquid); method: gravimetric method
Temperature, K	Pressure, kPa	Mole fraction of theophylline	uncertainty
278.15	100	.000254	.0000127
283.15	100	.000329	.00001645
288.15	100	.000452	.0000226
293.15	100	.000656	.0000328
298.15	100	.00102	.000051
303.15	100	.00134	.000067
