Measured thermophysical data. Measurement and Correlation of the Excess Properties of Ternary Mixture of {x1[Hmim][BF4] + x21-Propanol + x32-Propanol} at Different Temperatures
Source: J. Chem. Eng. Data, 2014, 10.1021/je401101u
Compound 1: 1-hexyl-3-methylimidazolium tetrafluoroborate, C10H19BF4N2, purity 98%
Compound 2: 1-propanol, C3H8O, purity 99.8%
Compound 3: 2-propanol, C3H8O, purity 99.5%

System: 1-propanol; phases: Liquid
Property: Mass density, kg/m3 (Liquid); method: Vibrating tube method
Temperature, K	Pressure, kPa	Mass density, kg/m3	uncertainty
293.15	101	803.52	.05
303.15	101	795.47	.05
313.15	101	787.3	.05
323.15	101	778.93	.05
333.15	101	770.32	.05

System: 1-propanol; phases: Liquid
Property: Viscosity, Pa*s (Liquid); method: Capillary tube (Ostwald; Ubbelohde) method
Temperature, K	Pressure, kPa	Viscosity, Pa*s	uncertainty
293.15	101	.0022	.000005
303.15	101	.001728	.000005
313.15	101	.001369	.000005
323.15	101	.001098	.000005
333.15	101	.000912	.000005

System: 2-propanol; phases: Liquid
Property: Mass density, kg/m3 (Liquid); method: Vibrating tube method
Temperature, K	Pressure, kPa	Mass density, kg/m3	uncertainty
293.15	101	785.24	.05
303.15	101	776.76	.05
313.15	101	767.96	.05
323.15	101	758.79	.05
333.15	101	749.16	.05

System: 2-propanol; phases: Liquid
Property: Viscosity, Pa*s (Liquid); method: Capillary tube (Ostwald; Ubbelohde) method
Temperature, K	Pressure, kPa	Viscosity, Pa*s	uncertainty
293.15	101	.002362	.000005
303.15	101	.001769	.000005
313.15	101	.00133	.000005
323.15	101	.001015	.000005
333.15	101	.000624	.000005

System: 2-propanol + 1-propanol; phases: Liquid
Fixed: Pressure, kPa = 101
Property: Mass density, kg/m3 (Liquid); method: Vibrating tube method
Temperature, K	Mole fraction of 1-propanol	Mass density, kg/m3	uncertainty
293.15	0	785.24	.05
293.15	.1001	787.13	.05
293.15	.2006	789.01	.05
293.15	.2956	790.79	.05
293.15	.3999	792.71	.05
293.15	.4993	794.54	.05
293.15	.6	796.37	.05
293.15	.6973	798.14	.05
293.15	.7993	799.98	.05
293.15	.8994	801.73	.05
293.15	1	803.52	.05
303.15	0	776.76	.05
303.15	.1001	778.71	.05
303.15	.2006	780.65	.05
303.15	.2956	782.49	.05
303.15	.3999	784.45	.05
303.15	.4993	786.31	.05
303.15	.6	788.2	.05
303.15	.6973	790.01	.05
303.15	.7993	791.88	.05
303.15	.8994	793.67	.05
303.15	1	795.47	.05
313.15	0	767.96	.05
313.15	.1001	770.01	.05
313.15	.2006	772.02	.05
313.15	.2956	773.93	.05
313.15	.3999	775.95	.05
313.15	.4993	777.88	.05
313.15	.6	779.83	.05
313.15	.6973	781.7	.05
313.15	.7993	783.61	.05
313.15	.8994	785.45	.05
313.15	1	787.3	.05
323.15	0	758.79	.05
323.15	.1001	760.94	.05
323.15	.2006	763.06	.05
323.15	.2956	765.06	.05
323.15	.3999	767.16	.05
323.15	.4993	769.18	.05
323.15	.6	771.21	.05
323.15	.6973	773.15	.05
323.15	.7993	775.13	.05
323.15	.8994	777.03	.05
323.15	1	778.93	.05
333.15	0	749.16	.05
333.15	.1001	751.44	.05
333.15	.2006	753.69	.05
333.15	.2956	755.8	.05
333.15	.3999	758.02	.05
333.15	.4993	760.14	.05
333.15	.6	762.29	.05
333.15	.6973	764.29	.05
333.15	.7993	766.37	.05
333.15	.8994	768.34	.05
333.15	1	770.32	.05

System: 2-propanol + 1-propanol; phases: Liquid
Fixed: Pressure, kPa = 101
Property: Viscosity, Pa*s (Liquid); method: Capillary tube (Ostwald; Ubbelohde) method
Temperature, K	Mole fraction of 1-propanol	Viscosity, Pa*s	uncertainty
293.15	0	.002362	.000005
293.15	.1001	.002369	.000005
293.15	.2006	.002359	.000005
293.15	.2956	.002344	.000005
293.15	.3999	.002322	.000005
293.15	.4993	.0023	.000005
293.15	.6	.002278	.000005
293.15	.6973	.002258	.000005
293.15	.7993	.002238	.000005
293.15	.8994	.002219	.000005
293.15	1	.0022	.000005
303.15	0	.001769	.000005
303.15	.1001	.001776	.000005
303.15	.2006	.001777	.000005
303.15	.2956	.001773	.000005
303.15	.3999	.001766	.000005
303.15	.4993	.001758	.000005
303.15	.6	.00175	.000005
303.15	.6973	.001744	.000005
303.15	.7993	.001739	.000005
303.15	.8994	.001734	.000005
303.15	1	.001728	.000005
313.15	0	.00133	.000005
313.15	.1001	.001349	.000005
313.15	.2006	.00136	.000005
313.15	.2956	.001365	.000005
313.15	.3999	.001368	.000005
313.15	.4993	.001368	.000005
313.15	.6	.001367	.000005
313.15	.6973	.001368	.000005
313.15	.7993	.001368	.000005
313.15	.8994	.001369	.000005
313.15	1	.001369	.000005
323.15	0	.001015	.000005
323.15	.1001	.001048	.000005
323.15	.2006	.001066	.000005
323.15	.2956	.001077	.000005
323.15	.3999	.001084	.000005
323.15	.4993	.001086	.000005
323.15	.6	.001088	.000005
323.15	.6973	.001089	.000005
323.15	.7993	.001091	.000005
323.15	.8994	.001096	.000005
323.15	1	.001098	.000005
333.15	0	.000624	.000005
333.15	.1001	.000688	.000005
333.15	.2006	.000733	.000005
333.15	.2956	.000767	.000005
333.15	.3999	.000796	.000005
333.15	.4993	.000819	.000005
333.15	.6	.000839	.000005
333.15	.6973	.000855	.000005
333.15	.7993	.000874	.000005
333.15	.8994	.000891	.000005
333.15	1	.000912	.000005

System: 2-propanol + 1-propanol + 1-hexyl-3-methylimidazolium tetrafluoroborate; phases: Liquid
Fixed: Pressure, kPa = 101
Property: Mass density, kg/m3 (Liquid); method: Vibrating tube method
Temperature, K	Mole fraction of 1-hexyl-3-methylimidazolium tetrafluoroborate	Mole fraction of 1-propanol	Mass density, kg/m3	uncertainty
293.15	.0999	.101	879.58	.05
293.15	.1013	.2007	882.29	.05
293.15	.0995	.3004	881.81	.05
293.15	.1002	.4006	882.86	.05
293.15	.0996	.5015	883.4	.05
293.15	.0993	.5961	885.19	.05
293.15	.1004	.6984	887.62	.05
293.15	.1006	.7991	889.97	.05
293.15	.2009	.1049	943.22	.05
293.15	.1931	.2335	940.34	.05
293.15	.1968	.3019	944	.05
293.15	.2013	.3998	947.71	.05
293.15	.2012	.4989	949.13	.05
293.15	.1977	.7009	949.88	.05
293.15	.3008	.0992	991.66	.05
293.15	.3024	.2999	993.68	.05
293.15	.3008	.3005	994.38	.05
293.15	.2957	.4006	993.5	.05
293.15	.3005	.4992	996.77	.05
293.15	.2981	.6013	997.4	.05
293.15	.3998	.0998	1028.21	.05
293.15	.403	.1968	1030.98	.05
293.15	.3937	.3005	1029.94	.05
293.15	.4009	.4006	1032.38	.05
293.15	.3992	.4996	1034.13	.05
293.15	.4975	.104	1059.17	.05
293.15	.4996	.3012	1062.34	.05
293.15	.4981	.4041	1062.36	.05
293.15	.5981	.1042	1085.2	.05
293.15	.5992	.2005	1085.48	.05
293.15	.6009	.2875	1086.66	.05
293.15	.6906	.1121	1104.71	.05
293.15	.7203	.1504	1109.08	.05
293.15	.8533	.092	1130.62	.05
303.15	.0999	.101	871.74	.05
303.15	.1013	.2007	874.39	.05
303.15	.0995	.3004	873.96	.05
303.15	.1002	.4006	875.02	.05
303.15	.0996	.5015	875.58	.05
303.15	.0993	.5961	877.39	.05
303.15	.1004	.6984	879.83	.05
303.15	.1006	.7991	882.2	.05
303.15	.2009	.1049	936.26	.05
303.15	.1931	.2335	932.63	.05
303.15	.1968	.3019	936.29	.05
303.15	.2013	.3998	940.02	.05
303.15	.2012	.4989	941.55	.05
303.15	.1977	.7009	942.25	.05
303.15	.3008	.0992	984.07	.05
303.15	.3024	.2999	986.1	.05
303.15	.3008	.3005	986.81	.05
303.15	.2957	.4006	986.02	.05
303.15	.3005	.4992	989.21	.05
303.15	.2981	.6013	989.85	.05
303.15	.3998	.0998	1020.75	.05
303.15	.403	.1968	1023.54	.05
303.15	.3937	.3005	1022.5	.05
303.15	.4009	.4006	1024.95	.05
303.15	.3992	.4996	1026.72	.05
303.15	.4975	.104	1052.19	.05
303.15	.4996	.3012	1055.06	.05
303.15	.4981	.4041	1055.08	.05
303.15	.5981	.1042	1078.05	.05
303.15	.5992	.2005	1078.33	.05
303.15	.6009	.2875	1079.52	.05
303.15	.6906	.1121	1097.69	.05
303.15	.7203	.1504	1102.08	.05
303.15	.8533	.092	1123.81	.05
313.15	.0999	.101	863.51	.05
313.15	.1013	.2007	866.31	.05
313.15	.0995	.3004	865.87	.05
313.15	.1002	.4006	867.02	.05
313.15	.0996	.5015	867.6	.05
313.15	.0993	.5961	869.44	.05
313.15	.1004	.6984	871.92	.05
313.15	.1006	.7991	874.32	.05
313.15	.2009	.1049	928.45	.05
313.15	.1931	.2335	924.8	.05
313.15	.1968	.3019	928.49	.05
313.15	.2013	.3998	932.26	.05
313.15	.2012	.4989	933.78	.05
313.15	.1977	.7009	934.54	.05
313.15	.3008	.0992	976.42	.05
313.15	.3024	.2999	978.47	.05
313.15	.3008	.3005	979.21	.05
313.15	.2957	.4006	978.53	.05
313.15	.3005	.4992	981.63	.05
313.15	.2981	.6013	982.3	.05
313.15	.3998	.0998	1013.27	.05
313.15	.403	.1968	1016.08	.05
313.15	.3937	.3005	1015.06	.05
313.15	.4009	.4006	1017.5	.05
313.15	.3992	.4996	1019.31	.05
313.15	.4975	.104	1045.05	.05
313.15	.4996	.3012	1047.78	.05
313.15	.4981	.4041	1047.82	.05
313.15	.5981	.1042	1070.9	.05
313.15	.5992	.2005	1071.18	.05
313.15	.6009	.2875	1072.38	.05
313.15	.6906	.1121	1090.68	.05
313.15	.7203	.1504	1095.1	.05
313.15	.8533	.092	1116.97	.05
323.15	.0999	.101	855.29	.05
323.15	.1013	.2007	858.06	.05
323.15	.0995	.3004	857.61	.05
323.15	.1002	.4006	858.87	.05
323.15	.0996	.5015	859.49	.05
323.15	.0993	.5961	861.37	.05
323.15	.1004	.6984	863.9	.05
323.15	.1006	.7991	866.34	.05
323.15	.2009	.1049	920.6	.05
323.15	.1931	.2335	916.89	.05
323.15	.1968	.3019	920.61	.05
323.15	.2013	.3998	924.42	.05
323.15	.2012	.4989	925.98	.05
323.15	.1977	.7009	926.78	.05
323.15	.3008	.0992	968.74	.05
323.15	.3024	.2999	970.83	.05
323.15	.3008	.3005	971.58	.05
323.15	.2957	.4006	970.97	.05
323.15	.3005	.4992	974.04	.05
323.15	.2981	.6013	974.72	.05
323.15	.3998	.0998	1005.81	.05
323.15	.403	.1968	1008.64	.05
323.15	.3937	.3005	1007.62	.05
323.15	.4009	.4006	1010.07	.05
323.15	.3992	.4996	1011.91	.05
323.15	.4975	.104	1037.95	.05
323.15	.4996	.3012	1040.53	.05
323.15	.4981	.4041	1040.57	.05
323.15	.5981	.1042	1063.79	.05
323.15	.5992	.2005	1064.08	.05
323.15	.6009	.2875	1065.29	.05
323.15	.6906	.1121	1083.67	.05
323.15	.7203	.1504	1088.13	.05
323.15	.8533	.092	1110.13	.05
333.15	.0999	.101	846.62	.05
333.15	.1013	.2007	849.64	.05
333.15	.0995	.3004	849.18	.05
333.15	.1002	.4006	850.54	.05
333.15	.0996	.5015	851.22	.05
333.15	.0993	.5961	853.17	.05
333.15	.1004	.6984	855.75	.05
333.15	.1006	.7991	858.23	.05
333.15	.2009	.1049	912.52	.05
333.15	.1931	.2335	908.87	.05
333.15	.1968	.3019	912.63	.05
333.15	.2013	.3998	916.5	.05
333.15	.2012	.4989	918.29	.05
333.15	.1977	.7009	918.95	.05
333.15	.3008	.0992	961.04	.05
333.15	.3024	.2999	963.14	.05
333.15	.3008	.3005	963.91	.05
333.15	.2957	.4006	963.36	.05
333.15	.3005	.4992	966.42	.05
333.15	.2981	.6013	967.14	.05
333.15	.3998	.0998	998.37	.05
333.15	.403	.1968	1001.21	.05
333.15	.3937	.3005	1000.18	.05
333.15	.4009	.4006	1002.66	.05
333.15	.3992	.4996	1004.52	.05
333.15	.4975	.104	1030.7	.05
333.15	.4996	.3012	1033.31	.05
333.15	.4981	.4041	1033.35	.05
333.15	.5981	.1042	1056.71	.05
333.15	.5992	.2005	1057	.05
333.15	.6009	.2875	1058.21	.05
333.15	.6906	.1121	1076.56	.05
333.15	.7203	.1504	1081.2	.05
333.15	.8533	.092	1103.31	.05

System: 2-propanol + 1-propanol + 1-hexyl-3-methylimidazolium tetrafluoroborate; phases: Liquid
Fixed: Pressure, kPa = 101
Property: Viscosity, Pa*s (Liquid); method: Capillary tube (Ostwald; Ubbelohde) method
Temperature, K	Mole fraction of 1-hexyl-3-methylimidazolium tetrafluoroborate	Mole fraction of 1-propanol	Viscosity, Pa*s	uncertainty
293.15	.0999	.101	.00541	.000005
293.15	.1013	.2007	.00544	.000005
293.15	.0995	.3004	.00539	.000005
293.15	.1002	.4006	.00521	.000005
293.15	.0996	.5015	.00518	.000005
293.15	.0993	.5961	.00505	.000005
293.15	.1004	.6984	.005	.000005
293.15	.1006	.7991	.00492	.000005
293.15	.2009	.1049	.00882	.000005
293.15	.1931	.2335	.00861	.000005
293.15	.1968	.3019	.00868	.000005
293.15	.2013	.3998	.00877	.000005
293.15	.2012	.4989	.0088	.000005
293.15	.1977	.7009	.0083	.000005
293.15	.3008	.0992	.01373	.000005
293.15	.3024	.2999	.0138	.000005
293.15	.3008	.3005	.01361	.000005
293.15	.2957	.4006	.01328	.000005
293.15	.3005	.4992	.0133	.000005
293.15	.2981	.6013	.0132	.000005
293.15	.3998	.0998	.02098	.000005
293.15	.403	.1968	.02112	.000005
293.15	.3937	.3005	.02027	.000005
293.15	.4009	.4006	.02051	.000005
293.15	.3992	.4996	.02014	.000005
293.15	.4975	.104	.0316	.000005
293.15	.4996	.3012	.03259	.000005
293.15	.4981	.4041	.03147	.000005
293.15	.5981	.1042	.05006	.000005
293.15	.5992	.2005	.04941	.000005
293.15	.6009	.2875	.04962	.000005
293.15	.6906	.1121	.07521	.000005
293.15	.7203	.1504	.08509	.000005
293.15	.8533	.092	.15376	.000005
303.15	.0999	.101	.00347	.000005
303.15	.1013	.2007	.00354	.000005
303.15	.0995	.3004	.00343	.000005
303.15	.1002	.4006	.00347	.000005
303.15	.0996	.5015	.0034	.000005
303.15	.0993	.5961	.00339	.000005
303.15	.1004	.6984	.00335	.000005
303.15	.1006	.7991	.00333	.000005
303.15	.2009	.1049	.00598	.000005
303.15	.1931	.2335	.00585	.000005
303.15	.1968	.3019	.00591	.000005
303.15	.2013	.3998	.00602	.000005
303.15	.2012	.4989	.00605	.000005
303.15	.1977	.7009	.00574	.000005
303.15	.3008	.0992	.00947	.000005
303.15	.3024	.2999	.00955	.000005
303.15	.3008	.3005	.00943	.000005
303.15	.2957	.4006	.00919	.000005
303.15	.3005	.4992	.00931	.000005
303.15	.2981	.6013	.00916	.000005
303.15	.3998	.0998	.01438	.000005
303.15	.403	.1968	.01453	.000005
303.15	.3937	.3005	.01393	.000005
303.15	.4009	.4006	.0142	.000005
303.15	.3992	.4996	.01393	.000005
303.15	.4975	.104	.02133	.000005
303.15	.4996	.3012	.02143	.000005
303.15	.4981	.4041	.02138	.000005
303.15	.5981	.1042	.03273	.000005
303.15	.5992	.2005	.03239	.000005
303.15	.6009	.2875	.0326	.000005
303.15	.6906	.1121	.04839	.000005
303.15	.7203	.1504	.05344	.000005
303.15	.8533	.092	.09204	.000005
313.15	.0999	.101	.00237	.000005
313.15	.1013	.2007	.00245	.000005
313.15	.0995	.3004	.00238	.000005
313.15	.1002	.4006	.0024	.000005
313.15	.0996	.5015	.00238	.000005
313.15	.0993	.5961	.00236	.000005
313.15	.1004	.6984	.00237	.000005
313.15	.1006	.7991	.00235	.000005
313.15	.2009	.1049	.00427	.000005
313.15	.1931	.2335	.00417	.000005
313.15	.1968	.3019	.00423	.000005
313.15	.2013	.3998	.00433	.000005
313.15	.2012	.4989	.00435	.000005
313.15	.1977	.7009	.00416	.000005
313.15	.3008	.0992	.00684	.000005
313.15	.3024	.2999	.00692	.000005
313.15	.3008	.3005	.00688	.000005
313.15	.2957	.4006	.00668	.000005
313.15	.3005	.4992	.00679	.000005
313.15	.2981	.6013	.00669	.000005
313.15	.3998	.0998	.01033	.000005
313.15	.403	.1968	.01038	.000005
313.15	.3937	.3005	.0101	.000005
313.15	.4009	.4006	.01017	.000005
313.15	.3992	.4996	.0101	.000005
313.15	.4975	.104	.01515	.000005
313.15	.4996	.3012	.01529	.000005
313.15	.4981	.4041	.01528	.000005
313.15	.5981	.1042	.0227	.000005
313.15	.5992	.2005	.0225	.000005
313.15	.6009	.2875	.02259	.000005
313.15	.6906	.1121	.03233	.000005
313.15	.7203	.1504	.03573	.000005
313.15	.8533	.092	.05844	.000005
323.15	.0999	.101	.00162	.000005
323.15	.1013	.2007	.00167	.000005
323.15	.0995	.3004	.00165	.000005
323.15	.1002	.4006	.00167	.000005
323.15	.0996	.5015	.00164	.000005
323.15	.0993	.5961	.00165	.000005
323.15	.1004	.6984	.00164	.000005
323.15	.1006	.7991	.00164	.000005
323.15	.2009	.1049	.00311	.000005
323.15	.1931	.2335	.00306	.000005
323.15	.1968	.3019	.00311	.000005
323.15	.2013	.3998	.00319	.000005
323.15	.2012	.4989	.0032	.000005
323.15	.1977	.7009	.00308	.000005
323.15	.3008	.0992	.00515	.000005
323.15	.3024	.2999	.00519	.000005
323.15	.3008	.3005	.00514	.000005
323.15	.2957	.4006	.00502	.000005
323.15	.3005	.4992	.00508	.000005
323.15	.2981	.6013	.00504	.000005
323.15	.3998	.0998	.00776	.000005
323.15	.403	.1968	.00781	.000005
323.15	.3937	.3005	.00761	.000005
323.15	.4009	.4006	.00766	.000005
323.15	.3992	.4996	.00756	.000005
323.15	.4975	.104	.0112	.000005
323.15	.4996	.3012	.01138	.000005
323.15	.4981	.4041	.01132	.000005
323.15	.5981	.1042	.01639	.000005
323.15	.5992	.2005	.0163	.000005
323.15	.6009	.2875	.01641	.000005
323.15	.6906	.1121	.02281	.000005
323.15	.7203	.1504	.02501	.000005
323.15	.8533	.092	.03918	.000005
333.15	.0999	.101	.00106	.000005
333.15	.1013	.2007	.0011	.000005
333.15	.0995	.3004	.0011	.000005
333.15	.1002	.4006	.0011	.000005
333.15	.0996	.5015	.0011	.000005
333.15	.0993	.5961	.00111	.000005
333.15	.1004	.6984	.00115	.000005
333.15	.1006	.7991	.00119	.000005
333.15	.2009	.1049	.00232	.000005
333.15	.1931	.2335	.00224	.000005
333.15	.1968	.3019	.00229	.000005
333.15	.2013	.3998	.00235	.000005
333.15	.2012	.4989	.00236	.000005
333.15	.1977	.7009	.0023	.000005
333.15	.3008	.0992	.00394	.000005
333.15	.3024	.2999	.00398	.000005
333.15	.3008	.3005	.00393	.000005
333.15	.2957	.4006	.00384	.000005
333.15	.3005	.4992	.00389	.000005
333.15	.2981	.6013	.00387	.000005
333.15	.3998	.0998	.006	.000005
333.15	.403	.1968	.00601	.000005
333.15	.3937	.3005	.00587	.000005
333.15	.4009	.4006	.00589	.000005
333.15	.3992	.4996	.00583	.000005
333.15	.4975	.104	.00861	.000005
333.15	.4996	.3012	.00877	.000005
333.15	.4981	.4041	.00866	.000005
333.15	.5981	.1042	.01237	.000005
333.15	.5992	.2005	.01228	.000005
333.15	.6009	.2875	.0125	.000005
333.15	.6906	.1121	.01682	.000005
333.15	.7203	.1504	.01836	.000005
333.15	.8533	.092	.02753	.000005
