Measured thermophysical data. Solubilities of Rutaecarpine in Twelve Organic Solvents from (283.2 to 323.2) K
Source: J. Chem. Eng. Data, 2013, 10.1021/je4001334
Compound 1: rutaecarpine, C18H13N3O, purity 98%
Compound 2: methane, dichloro-, CH2Cl2, purity 99.5%
Compound 3: ethyl ethanoate, C4H8O2, purity 99.5%
Compound 4: acetone, C3H6O, purity 99.5%
Compound 5: freon 20, CHCl3, purity 99%
Compound 6: ether, C4H10O, purity 99.5%
Compound 7: n-butanol, C4H10O, purity 99.5%
Compound 8: isopropanol, C3H8O, purity 99.7%
Compound 9: ethanol, C2H6O, purity 99.7%
Compound 10: methyl alcohol, CH4O, purity 99.5%
Compound 11: cyclohexane, C6H12, purity 99.5%
Compound 12: n-hexane, C6H14, purity 95%
Compound 13: pentane, C5H12, purity 99%

System: methane, dichloro- + rutaecarpine; phases: Liquid, Crystal
Fixed: Pressure, kPa = 101
Property: Mole fraction of rutaecarpine (Liquid); method: Chromatography
Temperature, K	Mole fraction of rutaecarpine	uncertainty
283.2	.00141913	.00004115477
288.2	.00161787	.00004691823
293.2	.00182076	.00005280204
298.2	.00195889	.00005680781
303.2	.00224284	.00006504236

System: rutaecarpine + ethyl ethanoate; phases: Liquid, Crystal
Fixed: Pressure, kPa = 101
Property: Mole fraction of rutaecarpine (Liquid); method: Chromatography
Temperature, K	Mole fraction of rutaecarpine	uncertainty
283.2	.00103889	.00003012781
293.2	.00123026	.00003567754
303.2	.00152513	.00004422877
313.2	.00194846	.00005650534
323.2	.00255032	.00007395928

System: acetone + rutaecarpine; phases: Liquid, Crystal
Fixed: Pressure, kPa = 101
Property: Mole fraction of rutaecarpine (Liquid); method: Chromatography
Temperature, K	Mole fraction of rutaecarpine	uncertainty
283.2	.00073542	.00002132718
293.2	.0009719	.0000281851
303.2	.00128823	.00003735867
313.2	.0014886	.0000431694
323.2	.00196402	.00005695658

System: freon 20 + rutaecarpine; phases: Liquid, Crystal
Fixed: Pressure, kPa = 101
Property: Mole fraction of rutaecarpine (Liquid); method: Chromatography
Temperature, K	Mole fraction of rutaecarpine	uncertainty
283.2	.00028708	.00000832532
293.2	.00051061	.00001480769
303.2	.00092215	.00002674235
313.2	.00210776	.00006112504
323.2	.00484972	.00014064188

System: ether + rutaecarpine; phases: Liquid, Crystal
Fixed: Pressure, kPa = 101
Property: Mole fraction of rutaecarpine (Liquid); method: Chromatography
Temperature, K	Mole fraction of rutaecarpine	uncertainty
283.2	.00023966	.00000695014
288.2	.00027257	.00000790453
293.2	.0003128	.0000090712
298.2	.00039645	.00001149705
303.2	.00045442	.00001317818

System: n-butanol + rutaecarpine; phases: Liquid, Crystal
Fixed: Pressure, kPa = 101
Property: Mole fraction of rutaecarpine (Liquid); method: Chromatography
Temperature, K	Mole fraction of rutaecarpine	uncertainty
283.2	.00018591	.00000539139
293.2	.00026615	.00000771835
303.2	.00036922	.00001070738
313.2	.00057739	.00001674431
323.2	.0009551	.0000276979

System: isopropanol + rutaecarpine; phases: Liquid, Crystal
Fixed: Pressure, kPa = 101
Property: Mole fraction of rutaecarpine (Liquid); method: Chromatography
Temperature, K	Mole fraction of rutaecarpine	uncertainty
283.2	.00007941	.00000230289
293.2	.00012747	.00000369663
303.2	.00019153	.00000555437
313.2	.00029189	.00000846481
323.2	.00045912	.00001331448

System: ethanol + rutaecarpine; phases: Liquid, Crystal
Fixed: Pressure, kPa = 101
Property: Mole fraction of rutaecarpine (Liquid); method: Chromatography
Temperature, K	Mole fraction of rutaecarpine	uncertainty
283.2	.00009751	.00000282779
293.2	.0001434	.0000041586
303.2	.00020336	.00000589744
313.2	.00027886	.00000808694
323.2	.00039432	.00001143528

System: methyl alcohol + rutaecarpine; phases: Liquid, Crystal
Fixed: Pressure, kPa = 101
Property: Mole fraction of rutaecarpine (Liquid); method: Chromatography
Temperature, K	Mole fraction of rutaecarpine	uncertainty
283.2	.00006609	.00000191661
293.2	.00008181	.00000237249
303.2	.00011669	.00000338401
313.2	.00016067	.00000465943
323.2	.00022914	.00000664506

System: rutaecarpine + cyclohexane; phases: Liquid, Crystal
Fixed: Pressure, kPa = 101
Property: Mole fraction of rutaecarpine (Liquid); method: Chromatography
Temperature, K	Mole fraction of rutaecarpine	uncertainty
283.2	.00000624	.00000018096
293.2	.00001143	.00000033147
303.2	.00001728	.00000050112
313.2	.00002517	.00000072993
323.2	.00003777	.00000109533

System: rutaecarpine + n-hexane; phases: Liquid, Crystal
Fixed: Pressure, kPa = 101
Property: Mole fraction of rutaecarpine (Liquid); method: Chromatography
Temperature, K	Mole fraction of rutaecarpine	uncertainty
283.2	.00000617	.00000017893
293.2	.00001212	.00000035148
303.2	.00001625	.00000047125
313.2	.00002625	.00000076125
323.2	.00003969	.00000115101

System: rutaecarpine + pentane; phases: Liquid, Crystal
Fixed: Pressure, kPa = 101
Property: Mole fraction of rutaecarpine (Liquid); method: Chromatography
Temperature, K	Mole fraction of rutaecarpine	uncertainty
283.2	.00000431	.00000012499
288.2	.00000689	.00000019981
293.2	.00000967	.00000028043
298.2	.0000153	.0000004437
303.2	.00002474	.00000071746
