Measured thermophysical data. Thermal Conductivities of [EMIM][EtSO4], [EMIM][EtSO4] + C2H5OH, [EMIM][EtSO4] + H2O, and [EMIM][EtSO4] + C2H5OH + H2O at T = (283.15 to 343.15) K
Source: J. Chem. Eng. Data, 2013, 10.1021/je400268t
Compound 1: 1-ethyl-3-methylimidazolium ethyl sulfate, C8H16N2O4S, purity 99%
Compound 2: ethanol, C2H6O
Compound 3: water, H2O, purity 99.8%

System: 1-ethyl-3-methylimidazolium ethyl sulfate; phases: Liquid
Fixed: Pressure, kPa = 101.325
Property: Thermal conductivity, W/m/K (Liquid); method: Hot wire method
Temperature, K	Thermal conductivity, W/m/K	uncertainty
283.11	.185	.0037
293.16	.186	.00372
303.16	.185	.0037
313.04	.185	.0037
323.02	.184	.00368
332.91	.184	.00368
342.89	.184	.00368
352.82	.183	.00366

System: ethanol; phases: Liquid
Fixed: Pressure, kPa = 101.325
Property: Thermal conductivity, W/m/K (Liquid); method: Hot wire method
Temperature, K	Thermal conductivity, W/m/K	uncertainty
283.48	.167	.00334
293.47	.165	.0033
303.2	.162	.00324
313.15	.159	.00318
323.42	.157	.00314
333.01	.155	.0031
342.82	.152	.00304

System: water; phases: Liquid
Fixed: Pressure, kPa = 101.325
Property: Thermal conductivity, W/m/K (Liquid); method: Hot wire method
Temperature, K	Thermal conductivity, W/m/K	uncertainty
284.07	.587	.01174
293.76	.603	.01206
303.71	.619	.01238
313.36	.631	.01262
323.45	.645	.0129
333.41	.657	.01314
343.21	.664	.01328

System: ethanol + water + 1-ethyl-3-methylimidazolium ethyl sulfate; phases: Liquid
Fixed: Pressure, kPa = 100
Property: Thermal conductivity, W/m/K (Liquid); method: Hot wire method
Temperature, K	Mass fraction of 1-ethyl-3-methylimidazolium ethyl sulfate	Mass fraction of ethanol	Thermal conductivity, W/m/K	uncertainty
283.29	.1	.1004	.462	.00924
293.45	.1	.1004	.473	.00946
303.27	.1	.1004	.489	.00978
312.99	.1	.1004	.497	.00994
323.16	.1	.1004	.512	.01024
332.85	.1	.1004	.525	.0105
342.74	.1	.1004	.544	.01088
283.11	.1	.1004	.191	.00382
292.89	.0981	.8001	.189	.00378
302.88	.0981	.8001	.187	.00374
312.75	.0981	.8001	.185	.0037
322.98	.0981	.8001	.184	.00368
332.9	.0981	.8001	.182	.00364
342.95	.0981	.8001	.18	.0036
283.47	.2001	.3002	.322	.00644
293.3	.2001	.3002	.327	.00654
303.15	.2001	.3002	.331	.00662
313.12	.2001	.3002	.336	.00672
322.95	.2001	.3002	.338	.00676
332.9	.2001	.3002	.341	.00682
342.89	.2001	.3002	.343	.00686
283.07	.1999	.6	.216	.00432
293.13	.1999	.6	.216	.00432
303.25	.1999	.6	.216	.00432
313.15	.1999	.6	.215	.0043
323.05	.1999	.6	.215	.0043
332.88	.1999	.6	.213	.00426
342.98	.1999	.6	.213	.00426
283.23	.2994	.2999	.285	.0057
293.11	.2994	.2999	.289	.00578
303.27	.2994	.2999	.293	.00586
313.05	.2994	.2999	.295	.0059
322.93	.2994	.2999	.297	.00594
332.75	.2994	.2999	.298	.00596
342.66	.2994	.2999	.3	.006
283.11	.3992	.1997	.289	.00578
292.89	.3992	.1997	.292	.00584
303.04	.3992	.1997	.297	.00594
312.74	.3992	.1997	.299	.00598
322.85	.3992	.1997	.303	.00606
332.79	.3992	.1997	.305	.0061
342.77	.3992	.1997	.307	.00614
283.26	.4996	.1998	.256	.00512
293.04	.4996	.1998	.258	.00516
303.2	.4996	.1998	.261	.00522
312.79	.4996	.1998	.261	.00522
322.9	.4996	.1998	.264	.00528
332.99	.4996	.1998	.266	.00532
342.82	.4996	.1998	.266	.00532
283.04	.6999	.1001	.227	.00454
293.04	.6999	.1001	.229	.00458
302.98	.6999	.1001	.23	.0046
312.8	.6999	.1001	.23	.0046
322.73	.6999	.1001	.232	.00464
332.83	.6999	.1001	.234	.00468
342.65	.6999	.1001	.233	.00466
283.34	.0998	.2011	.41	.0082
293.14	.0998	.2011	.42	.0084
303.16	.0998	.2011	.428	.00856
313.02	.0998	.2011	.436	.00872
322.83	.0998	.2011	.442	.00884
332.86	.0998	.2011	.449	.00898
342.62	.0998	.2011	.452	.00904
283.43	.1996	.1006	.418	.00836
293.28	.1996	.1006	.429	.00858
303.17	.1996	.1006	.438	.00876
313.01	.1996	.1006	.447	.00894
322.87	.1996	.1006	.455	.0091
332.85	.1996	.1006	.464	.00928
342.84	.1996	.1006	.467	.00934
283.19	.2	.3999	.281	.00562
293.2	.2	.3999	.284	.00568
302.97	.2	.3999	.285	.0057
313.21	.2	.3999	.289	.00578
323.01	.2	.3999	.29	.0058
332.92	.2	.3999	.291	.00582
342.59	.2	.3999	.291	.00582
283.09	.1996	.6987	.192	.00384
293.05	.1996	.6987	.19	.0038
303.33	.1996	.6987	.19	.0038
312.95	.1996	.6987	.187	.00374
322.91	.1996	.6987	.186	.00372
333.03	.1996	.6987	.185	.0037
342.83	.1996	.6987	.182	.00364
283.13	.2986	.4014	.249	.00498
293.16	.2986	.4014	.251	.00502
302.99	.2986	.4014	.252	.00504
312.88	.2986	.4014	.253	.00506
322.63	.2986	.4014	.253	.00506
332.95	.2986	.4014	.254	.00508
342.58	.2986	.4014	.254	.00508
283	.4	.3004	.252	.00504
293.12	.4	.3004	.254	.00508
303.17	.4	.3004	.257	.00514
312.96	.4	.3004	.257	.00514
322.78	.4	.3004	.258	.00516
332.71	.4	.3004	.258	.00516
342.49	.4	.3004	.258	.00516
282.97	.4985	.3021	.222	.00444
293.09	.4985	.3021	.224	.00448
302.83	.4985	.3021	.224	.00448
312.89	.4985	.3021	.225	.0045
322.77	.4985	.3021	.224	.00448
332.8	.4985	.3021	.225	.0045
342.86	.4985	.3021	.225	.0045
283.22	.6965	.2002	.202	.00404
293.06	.6965	.2002	.202	.00404
303.01	.6965	.2002	.202	.00404
312.89	.6965	.2002	.202	.00404
322.83	.6965	.2002	.202	.00404
332.71	.6965	.2002	.201	.00402
342.75	.6965	.2002	.201	.00402
282.98	.0999	.6998	.214	.00428
293.13	.0999	.6998	.214	.00428
303.16	.0999	.6998	.213	.00426
313.09	.0999	.6998	.212	.00424
322.92	.0999	.6998	.211	.00422
332.98	.0999	.6998	.21	.0042
342.87	.0999	.6998	.208	.00416
283.39	.1999	.1997	.367	.00734
293.35	.1999	.1997	.375	.0075
303.06	.1999	.1997	.381	.00762
313.03	.1999	.1997	.388	.00776
323	.1999	.1997	.394	.00788
332.85	.1999	.1997	.397	.00794
342.88	.1999	.1997	.403	.00806
283.38	.2002	.5004	.246	.00492
293.38	.2002	.5004	.248	.00496
303.16	.2002	.5004	.248	.00496
313.05	.2002	.5004	.249	.00498
323.11	.2002	.5004	.25	.005
332.92	.2002	.5004	.249	.00498
342.81	.2002	.5004	.249	.00498
283.22	.2979	.1988	.328	.00656
293.03	.2979	.1988	.333	.00666
303.12	.2979	.1988	.339	.00678
313.01	.2979	.1988	.344	.00688
322.63	.2979	.1988	.348	.00696
332.7	.2979	.1988	.351	.00702
342.57	.2979	.1988	.353	.00706
283.11	.2997	.4994	.219	.00438
293.01	.2997	.4994	.219	.00438
303.1	.2997	.4994	.219	.00438
313.02	.2997	.4994	.219	.00438
323.08	.2997	.4994	.219	.00438
332.82	.2997	.4994	.217	.00434
342.95	.2997	.4994	.217	.00434
283.12	.3987	.3997	.222	.00444
293.21	.3987	.3997	.222	.00444
303.21	.3987	.3997	.222	.00444
312.86	.3987	.3997	.222	.00444
322.81	.3987	.3997	.222	.00444
332.83	.3987	.3997	.221	.00442
342.7	.3987	.3997	.221	.00442
283.1	.5968	.2033	.225	.0045
292.95	.5968	.2033	.226	.00452
303.09	.5968	.2033	.228	.00456
312.83	.5968	.2033	.228	.00456
322.78	.5968	.2033	.228	.00456
332.86	.5968	.2033	.228	.00456
342.78	.5968	.2033	.229	.00458
283.04	.7992	.1	.203	.00406
292.81	.7992	.1	.203	.00406
302.86	.7992	.1	.203	.00406
312.86	.7992	.1	.204	.00408
322.78	.7992	.1	.204	.00408
332.65	.7992	.1	.203	.00406
342.49	.7992	.1	.203	.00406

System: water + 1-ethyl-3-methylimidazolium ethyl sulfate; phases: Liquid
Fixed: Pressure, kPa = 100
Property: Thermal conductivity, W/m/K (Liquid); method: Hot wire method
Temperature, K	Mass fraction of 1-ethyl-3-methylimidazolium ethyl sulfate	Thermal conductivity, W/m/K	uncertainty
283.35	.098	.533	.01066
293.18	.098	.545	.0109
303.3	.098	.557	.01114
312.99	.098	.569	.01138
322.85	.098	.583	.01166
332.68	.098	.593	.01186
342.71	.098	.607	.01214
283.26	.401	.38	.0076
292.92	.401	.388	.00776
303.05	.401	.397	.00794
312.85	.401	.403	.00806
322.87	.401	.412	.00824
332.64	.401	.417	.00834
342.65	.401	.421	.00842
283.11	.6999	.26	.0052
292.99	.6999	.263	.00526
302.89	.6999	.266	.00532
312.74	.6999	.269	.00538
322.66	.6999	.271	.00542
332.64	.6999	.274	.00548
342.5	.6999	.274	.00548
283.25	.2008	.478	.00956
293.28	.2008	.491	.00982
303.33	.2008	.5	.01
313.14	.2008	.512	.01024
322.84	.2008	.52	.0104
332.83	.2008	.533	.01066
342.59	.2008	.54	.0108
282.89	.4991	.336	.00672
292.8	.4991	.342	.00684
302.91	.4991	.35	.007
312.76	.4991	.356	.00712
322.65	.4991	.361	.00722
332.62	.4991	.364	.00728
342.32	.4991	.366	.00732
282.92	.8008	.229	.00458
292.67	.8008	.229	.00458
302.71	.8008	.231	.00462
312.55	.8008	.232	.00464
322.72	.8008	.235	.0047
332.7	.8008	.236	.00472
342.63	.8008	.237	.00474
283.08	.2997	.428	.00856
293.22	.2997	.441	.00882
302.82	.2997	.446	.00892
312.7	.2997	.452	.00904
322.71	.2997	.466	.00932
332.54	.2997	.473	.00946
342.69	.2997	.486	.00972
282.91	.5985	.296	.00592
292.99	.5985	.301	.00602
302.72	.5985	.305	.0061
312.83	.5985	.311	.00622
322.65	.5985	.314	.00628
332.64	.5985	.316	.00632
342.62	.5985	.319	.00638
282.76	.8978	.204	.00408
292.58	.8978	.205	.0041
302.6	.8978	.205	.0041
312.6	.8978	.206	.00412
322.55	.8978	.207	.00414
332.5	.8978	.206	.00412
342.45	.8978	.206	.00412

System: ethanol + 1-ethyl-3-methylimidazolium ethyl sulfate; phases: Liquid
Fixed: Pressure, kPa = 100
Property: Thermal conductivity, W/m/K (Liquid); method: Hot wire method
Temperature, K	Mass fraction of 1-ethyl-3-methylimidazolium ethyl sulfate	Thermal conductivity, W/m/K	uncertainty
283.19	.1	.169	.00338
293.32	.1	.167	.00334
303.35	.1	.164	.00328
313.05	.1	.161	.00322
323.19	.1	.16	.0032
333.07	.1	.157	.00314
343.08	.1	.155	.0031
283.22	.4001	.174	.00348
293.19	.4001	.173	.00346
303.28	.4001	.171	.00342
313.11	.4001	.169	.00338
323.28	.4001	.168	.00336
333.09	.4001	.166	.00332
342.85	.4001	.164	.00328
282.94	.6992	.179	.00358
293.09	.6992	.179	.00358
303.25	.6992	.178	.00356
313.18	.6992	.178	.00356
322.96	.6992	.176	.00352
333.09	.6992	.175	.0035
342.91	.6992	.174	.00348
283.32	.2002	.171	.00342
293.33	.2002	.169	.00338
303.55	.2002	.167	.00334
313.22	.2002	.164	.00328
323.1	.2002	.162	.00324
333.21	.2002	.16	.0032
342.99	.2002	.158	.00316
283.28	.4999	.176	.00352
293.15	.4999	.174	.00348
303.36	.4999	.173	.00346
313.28	.4999	.172	.00344
323.08	.4999	.17	.0034
333.11	.4999	.168	.00336
343.1	.4999	.167	.00334
283.13	.799	.182	.00364
293.12	.799	.181	.00362
303.14	.799	.18	.0036
313	.799	.179	.00358
322.88	.799	.179	.00358
332.99	.799	.178	.00356
342.89	.799	.177	.00354
283.47	.3002	.172	.00344
293.29	.3002	.171	.00342
303.13	.3002	.168	.00336
313.17	.3002	.167	.00334
322.98	.3002	.165	.0033
333.27	.3002	.163	.00326
343.11	.3002	.161	.00322
283.39	.5999	.178	.00356
293.42	.5999	.177	.00354
303.33	.5999	.176	.00352
313.32	.5999	.175	.0035
323.04	.5999	.173	.00346
333.07	.5999	.172	.00344
343.22	.5999	.171	.00342
283.22	.9001	.184	.00368
293.01	.9001	.183	.00366
303.12	.9001	.183	.00366
313.09	.9001	.183	.00366
323.03	.9001	.182	.00364
332.95	.9001	.181	.00362
342.79	.9001	.18	.0036
