Measured thermophysical data. Partial Molar Volumes and Partial Molar Isentropic Compressions of Selected Alkane-?,?-diols at Infinite Dilution in Water at Temperatures T = (278 to 318) K and Atmospheric Pressure
Source: J. Chem. Eng. Data, 2013, 10.1021/je4001203
Compound 1: 1,2-dihydroxyethane, C2H6O2, purity 99.8%
Compound 2: pentamethyleneglycol, C5H12O2, purity 99.8%
Compound 3: 1,6-dihydroxyhexane, C6H14O2, purity 99%
Compound 4: 1,8-dihydroxyoctane, C8H18O2, purity 98%
Compound 5: 1,9-nonanediol, C9H20O2, purity 98%
Compound 6: water, H2O

System: 1,2-dihydroxyethane + water; phases: Liquid
Fixed: Pressure, kPa = 101
Property: Mass density, kg/m3 (Liquid); method: Vibrating tube method
Temperature, K	Molality, mol/kg of 1,2-dihydroxyethane	Mass density, kg/m3	uncertainty
278.15	.10009	.828	.03
278.15	.10009	.828	.03
278.15	.10009	.83	.03
278.15	.2022	1.67	.03
278.15	.2022	1.67	.03
278.15	.2022	1.67	.03
278.15	.30089	2.476	.03
278.15	.30089	2.477	.03
278.15	.30089	2.477	.03
278.15	.40094	3.289	.03
278.15	.40094	3.287	.03
278.15	.40094	3.289	.03
278.15	.50039	4.093	.03
278.15	.50039	4.091	.03
278.15	.50039	4.093	.03
278.15	.60055	4.892	.03
278.15	.60055	4.892	.03
278.15	.60055	4.892	.03
283.15	.10009	.807	.03
283.15	.10009	.807	.03
283.15	.10009	.807	.03
283.15	.2022	1.625	.03
283.15	.2022	1.625	.03
283.15	.2022	1.625	.03
283.15	.30089	2.409	.03
283.15	.30089	2.408	.03
283.15	.30089	2.408	.03
283.15	.40094	3.197	.03
283.15	.40094	3.196	.03
283.15	.40094	3.196	.03
283.15	.50039	3.978	.03
283.15	.50039	3.977	.03
283.15	.50039	3.978	.03
283.15	.60055	4.752	.03
283.15	.60055	4.752	.03
283.15	.60055	4.752	.03
288.15	.10009	.788	.03
288.15	.10009	.787	.03
288.15	.10009	.787	.03
288.15	.2022	1.586	.03
288.15	.2022	1.585	.03
288.15	.2022	1.585	.03
288.15	.30089	2.349	.03
288.15	.30089	2.349	.03
288.15	.30089	2.35	.03
288.15	.40094	3.116	.03
288.15	.40094	3.118	.03
288.15	.40094	3.119	.03
288.15	.50039	3.877	.03
288.15	.50039	3.878	.03
288.15	.50039	3.88	.03
288.15	.60055	4.633	.03
288.15	.60055	4.634	.03
288.15	.60055	4.636	.03
293.15	.10009	.77	.03
293.15	.10009	.77	.03
293.15	.10009	.769	.03
293.15	.10009	.769	.03
293.15	.2022	1.548	.03
293.15	.2022	1.548	.03
293.15	.2022	1.549	.03
293.15	.2022	1.551	.03
293.15	.30089	2.298	.03
293.15	.30089	2.298	.03
293.15	.30089	2.298	.03
293.15	.30089	2.297	.03
293.15	.40094	3.048	.03
293.15	.40094	3.048	.03
293.15	.40094	3.051	.03
293.15	.40094	3.049	.03
293.15	.50039	3.791	.03
293.15	.50039	3.793	.03
293.15	.50039	3.794	.03
293.15	.50039	3.803	.03
293.15	.60055	4.528	.03
293.15	.60055	4.531	.03
293.15	.60055	4.53	.03
293.15	.60055	4.533	.03
298.15	.10009	.757	.03
298.15	.10009	.756	.03
298.15	.10009	.756	.03
298.15	.2022	1.521	.03
298.15	.2022	1.521	.03
298.15	.2022	1.521	.03
298.15	.30089	2.254	.03
298.15	.30089	2.254	.03
298.15	.30089	2.255	.03
298.15	.40094	2.99	.03
298.15	.40094	2.99	.03
298.15	.40094	2.99	.03
298.15	.50039	3.717	.03
298.15	.50039	3.718	.03
298.15	.50039	3.718	.03
298.15	.60055	4.442	.03
298.15	.60055	4.44	.03
298.15	.60055	4.442	.03
303.15	.10009	.745	.03
303.15	.2022	1.498	.03
303.15	.30089	2.217	.03
303.15	.40094	2.94	.03
303.15	.50039	3.654	.03
303.15	.60055	4.364	.03
308.15	.10009	.733	.03
308.15	.10009	.733	.03
308.15	.10009	.733	.03
308.15	.2022	1.471	.03
308.15	.2022	1.472	.03
308.15	.2022	1.472	.03
308.15	.30089	2.178	.03
308.15	.30089	2.181	.03
308.15	.30089	2.18	.03
308.15	.40094	2.889	.03
308.15	.40094	2.892	.03
308.15	.40094	2.892	.03
308.15	.50039	3.593	.03
308.15	.50039	3.594	.03
308.15	.50039	3.594	.03
308.15	.60055	4.29	.03
308.15	.60055	4.292	.03
308.15	.60055	4.293	.03
318.15	.10009	.713	.03
318.15	.10009	.711	.03
318.15	.10009	.713	.03
318.15	.2022	1.43	.03
318.15	.2022	1.431	.03
318.15	.2022	1.431	.03
318.15	.30089	2.115	.03
318.15	.30089	2.117	.03
318.15	.30089	2.118	.03
318.15	.40094	2.806	.03
318.15	.40094	2.806	.03
318.15	.40094	2.806	.03
318.15	.50039	3.489	.03
318.15	.50039	3.487	.03
318.15	.50039	3.479	.03
318.15	.60055	4.163	.03
318.15	.60055	4.166	.03
318.15	.60055	4.163	.03

System: 1,2-dihydroxyethane + water; phases: Liquid
Fixed: Pressure, kPa = 101
Property: Speed of sound, m/s (Liquid); method: Pulse-echo method
Temperature, K	Molality, mol/kg of 1,2-dihydroxyethane	Speed of sound, m/s	uncertainty
278.15	.10009	3.81	.2
278.15	.10009	3.79	.2
278.15	.10009	3.78	.2
278.15	.2022	7.63	.2
278.15	.2022	7.62	.2
278.15	.2022	7.59	.2
278.15	.30089	11.3	.2
278.15	.30089	11.29	.2
278.15	.30089	11.26	.2
278.15	.40094	14.98	.2
278.15	.40094	14.96	.2
278.15	.40094	14.96	.2
278.15	.50039	18.63	.2
278.15	.50039	18.61	.2
278.15	.50039	18.59	.2
278.15	.60055	22.22	.2
278.15	.60055	22.2	.2
278.15	.60055	22.21	.2
283.15	.10009	3.47	.2
283.15	.10009	3.47	.2
283.15	.10009	3.46	.2
283.15	.2022	7	.2
283.15	.2022	6.97	.2
283.15	.2022	6.96	.2
283.15	.30089	10.34	.2
283.15	.30089	10.32	.2
283.15	.30089	10.32	.2
283.15	.40094	13.7	.2
283.15	.40094	13.69	.2
283.15	.40094	13.69	.2
283.15	.50039	17.03	.2
283.15	.50039	17.03	.2
283.15	.50039	17.03	.2
283.15	.60055	20.32	.2
283.15	.60055	20.34	.2
283.15	.60055	20.34	.2
288.15	.10009	3.2	.2
288.15	.10009	3.2	.2
288.15	.10009	3.2	.2
288.15	.2022	6.42	.2
288.15	.2022	6.43	.2
288.15	.2022	6.44	.2
288.15	.30089	9.51	.2
288.15	.30089	9.51	.2
288.15	.30089	9.52	.2
288.15	.40094	12.6	.2
288.15	.40094	12.61	.2
288.15	.40094	12.62	.2
288.15	.50039	15.66	.2
288.15	.50039	15.67	.2
288.15	.50039	15.68	.2
288.15	.60055	18.7	.2
288.15	.60055	18.7	.2
288.15	.60055	18.72	.2
293.15	.10009	2.94	.2
293.15	.10009	2.95	.2
293.15	.10009	2.96	.2
293.15	.10009	2.94	.2
293.15	.2022	5.95	.2
293.15	.2022	5.92	.2
293.15	.2022	5.91	.2
293.15	.2022	5.92	.2
293.15	.30089	8.76	.2
293.15	.30089	8.76	.2
293.15	.30089	8.75	.2
293.15	.30089	8.76	.2
293.15	.40094	11.61	.2
293.15	.40094	11.62	.2
293.15	.40094	11.61	.2
293.15	.40094	11.61	.2
293.15	.50039	14.44	.2
293.15	.50039	14.43	.2
293.15	.50039	14.43	.2
293.15	.50039	14.46	.2
293.15	.60055	17.22	.2
293.15	.60055	17.2	.2
293.15	.60055	17.22	.2
293.15	.60055	17.22	.2
298.15	.10009	2.7	.2
298.15	.10009	2.71	.2
298.15	.10009	2.71	.2
298.15	.2022	5.43	.2
298.15	.2022	5.45	.2
298.15	.2022	5.45	.2
298.15	.30089	8.06	.2
298.15	.30089	8.07	.2
298.15	.30089	8.07	.2
298.15	.40094	10.7	.2
298.15	.40094	10.7	.2
298.15	.40094	10.71	.2
298.15	.50039	13.29	.2
298.15	.50039	13.3	.2
298.15	.50039	13.3	.2
298.15	.60055	15.86	.2
298.15	.60055	15.88	.2
298.15	.60055	15.88	.2
303.15	.10009	2.5	.2
303.15	.2022	5.03	.2
303.15	.30089	7.46	.2
303.15	.40094	9.89	.2
303.15	.50039	12.29	.2
303.15	.60055	14.66	.2
308.15	.10009	2.32	.2
308.15	.10009	2.31	.2
308.15	.10009	2.32	.2
308.15	.2022	4.64	.2
308.15	.2022	4.64	.2
308.15	.2022	4.65	.2
308.15	.30089	6.88	.2
308.15	.30089	6.87	.2
308.15	.30089	6.9	.2
308.15	.40094	9.11	.2
308.15	.40094	9.11	.2
308.15	.40094	9.14	.2
308.15	.50039	11.32	.2
308.15	.50039	11.31	.2
308.15	.50039	11.36	.2
308.15	.60055	13.5	.2
308.15	.60055	13.5	.2
308.15	.60055	13.57	.2
318.15	.10009	1.97	.4
318.15	.10009	1.97	.4
318.15	.10009	1.97	.4
318.15	.2022	3.97	.4
318.15	.2022	3.96	.4
318.15	.2022	3.94	.4
318.15	.30089	5.88	.4
318.15	.30089	5.88	.4
318.15	.30089	5.84	.4
318.15	.40094	7.8	.4
318.15	.40094	7.82	.4
318.15	.40094	7.78	.4
318.15	.50039	9.67	.4
318.15	.50039	9.73	.4
318.15	.50039	9.67	.4
318.15	.60055	11.54	.4
318.15	.60055	11.62	.4
318.15	.60055	11.54	.4

System: pentamethyleneglycol + water; phases: Liquid
Fixed: Pressure, kPa = 101
Property: Mass density, kg/m3 (Liquid); method: Vibrating tube method
Temperature, K	Molality, mol/kg of pentamethyleneglycol	Mass density, kg/m3	uncertainty
278.15	.10076	.072	.03
278.15	.10076	.071	.03
278.15	.10076	.072	.03
278.15	.20039	.177	.03
278.15	.20039	.178	.03
278.15	.20039	.177	.03
278.15	.30031	.314	.03
278.15	.30031	.314	.03
278.15	.30031	.313	.03
278.15	.40077	.478	.03
278.15	.40077	.477	.03
278.15	.40077	.478	.03
278.15	.50042	.661	.03
278.15	.50042	.662	.03
278.15	.50042	.662	.03
278.15	.60038	.868	.03
278.15	.60038	.868	.03
278.15	.60038	.868	.03
283.15	.10076	.055	.03
283.15	.10076	.053	.03
283.15	.10076	.055	.03
283.15	.20039	.138	.03
283.15	.20039	.137	.03
283.15	.20039	.139	.03
283.15	.30031	.249	.03
283.15	.30031	.249	.03
283.15	.30031	.251	.03
283.15	.40077	.385	.03
283.15	.40077	.385	.03
283.15	.40077	.386	.03
283.15	.50042	.539	.03
283.15	.50042	.539	.03
283.15	.50042	.54	.03
283.15	.60038	.711	.03
283.15	.60038	.711	.03
283.15	.60038	.713	.03
288.15	.10076	.038	.03
288.15	.10076	.039	.03
288.15	.10076	.04	.03
288.15	.20039	.104	.03
288.15	.20039	.104	.03
288.15	.20039	.104	.03
288.15	.30031	.193	.03
288.15	.30031	.194	.03
288.15	.30031	.194	.03
288.15	.40077	.304	.03
288.15	.40077	.304	.03
288.15	.40077	.304	.03
288.15	.50042	.431	.03
288.15	.50042	.429	.03
288.15	.50042	.431	.03
288.15	.60038	.574	.03
288.15	.60038	.574	.03
288.15	.60038	.574	.03
293.15	.10076	.023	.03
293.15	.10076	.023	.03
293.15	.10076	.024	.03
293.15	.10076	.023	.03
293.15	.20039	.072	.03
293.15	.20039	.07	.03
293.15	.20039	.069	.03
293.15	.20039	.072	.03
293.15	.30031	.142	.03
293.15	.30031	.139	.03
293.15	.30031	.14	.03
293.15	.30031	.142	.03
293.15	.40077	.23	.03
293.15	.40077	.228	.03
293.15	.40077	.228	.03
293.15	.40077	.23	.03
293.15	.50042	.332	.03
293.15	.50042	.331	.03
293.15	.50042	.331	.03
293.15	.50042	.332	.03
293.15	.60038	.448	.03
293.15	.60038	.447	.03
293.15	.60038	.447	.03
293.15	.60038	.449	.03
298.15	.10076	.011	.03
298.15	.10076	.01	.03
298.15	.10076	.01	.03
298.15	.20039	.043	.03
298.15	.20039	.042	.03
298.15	.20039	.042	.03
298.15	.30031	.094	.03
298.15	.30031	.093	.03
298.15	.30031	.094	.03
298.15	.40077	.159	.03
298.15	.40077	.16	.03
298.15	.40077	.16	.03
298.15	.50042	.24	.03
298.15	.50042	.239	.03
298.15	.50042	.241	.03
298.15	.60038	.333	.03
298.15	.60038	.333	.03
298.15	.60038	.333	.03
303.15	.10076	-.001	.03
303.15	.20039	.015	.03
303.15	.30031	.049	.03
303.15	.40077	.097	.03
303.15	.50042	.156	.03
303.15	.60038	.227	.03
308.15	.10076	-.015	.03
308.15	.10076	-.015	.03
308.15	.10076	-.015	.03
308.15	.20039	-.013	.03
308.15	.20039	-.013	.03
308.15	.20039	-.013	.03
308.15	.30031	.003	.03
308.15	.30031	.004	.03
308.15	.30031	.004	.03
308.15	.40077	.033	.03
308.15	.40077	.034	.03
308.15	.40077	.033	.03
308.15	.50042	.072	.03
308.15	.50042	.07	.03
308.15	.50042	.072	.03
308.15	.60038	.121	.03
308.15	.60038	.121	.03
308.15	.60038	.122	.03
318.15	.10076	-.04	.03
318.15	.10076	-.041	.03
318.15	.10076	-.04	.03
318.15	.20039	-.067	.03
318.15	.20039	-.068	.03
318.15	.20039	-.067	.03
318.15	.30031	-.083	.03
318.15	.30031	-.086	.03
318.15	.30031	-.085	.03
318.15	.40077	-.088	.03
318.15	.40077	-.089	.03
318.15	.40077	-.089	.03
318.15	.50042	-.087	.03
318.15	.50042	-.086	.03
318.15	.50042	-.086	.03
318.15	.60038	-.075	.03
318.15	.60038	-.076	.03
318.15	.60038	-.077	.03

System: pentamethyleneglycol + water; phases: Liquid
Fixed: Pressure, kPa = 101
Property: Speed of sound, m/s (Liquid); method: Pulse-echo method
Temperature, K	Molality, mol/kg of pentamethyleneglycol	Speed of sound, m/s	uncertainty
278.15	.10076	8.99	.2
278.15	.10076	8.98	.2
278.15	.10076	8.96	.2
278.15	.20039	17.66	.2
278.15	.20039	17.66	.2
278.15	.20039	17.65	.2
278.15	.30031	26.15	.2
278.15	.30031	26.16	.2
278.15	.30031	26.14	.2
278.15	.40077	34.5	.2
278.15	.40077	34.5	.2
278.15	.40077	34.49	.2
278.15	.50042	42.59	.2
278.15	.50042	42.6	.2
278.15	.50042	42.6	.2
278.15	.60038	50.54	.2
278.15	.60038	50.55	.2
278.15	.60038	50.55	.2
283.15	.10076	8.21	.2
283.15	.10076	8.23	.2
283.15	.10076	8.21	.2
283.15	.20039	16.15	.2
283.15	.20039	16.17	.2
283.15	.20039	16.15	.2
283.15	.30031	23.95	.2
283.15	.30031	23.97	.2
283.15	.30031	23.95	.2
283.15	.40077	31.57	.2
283.15	.40077	31.6	.2
283.15	.40077	31.59	.2
283.15	.50042	38.97	.2
283.15	.50042	38.99	.2
283.15	.50042	38.99	.2
283.15	.60038	46.23	.2
283.15	.60038	46.24	.2
283.15	.60038	46.24	.2
288.15	.10076	7.67	.2
288.15	.10076	7.58	.2
288.15	.10076	7.57	.2
288.15	.20039	14.95	.2
288.15	.20039	14.87	.2
288.15	.20039	14.86	.2
288.15	.30031	22.09	.2
288.15	.30031	22	.2
288.15	.30031	22	.2
288.15	.40077	29.07	.2
288.15	.40077	28.99	.2
288.15	.40077	29	.2
288.15	.50042	35.85	.2
288.15	.50042	35.77	.2
288.15	.50042	35.78	.2
288.15	.60038	42.29	.2
288.15	.60038	42.4	.2
288.15	.60038	42.4	.2
293.15	.10076	6.94	.2
293.15	.10076	6.94	.2
293.15	.10076	6.95	.2
293.15	.10076	6.94	.2
293.15	.20039	13.62	.2
293.15	.20039	13.63	.2
293.15	.20039	13.64	.2
293.15	.20039	13.64	.2
293.15	.30031	20.17	.2
293.15	.30031	20.19	.2
293.15	.30031	20.19	.2
293.15	.30031	20.19	.2
293.15	.40077	26.59	.2
293.15	.40077	26.61	.2
293.15	.40077	26.62	.2
293.15	.40077	26.62	.2
293.15	.50042	32.78	.2
293.15	.50042	32.8	.2
293.15	.50042	32.82	.2
293.15	.50042	32.8	.2
293.15	.60038	38.82	.2
293.15	.60038	38.85	.2
293.15	.60038	38.86	.2
293.15	.60038	38.86	.2
298.15	.10076	6.4	.2
298.15	.10076	6.39	.2
298.15	.10076	6.4	.2
298.15	.20039	12.55	.2
298.15	.20039	12.55	.2
298.15	.20039	12.55	.2
298.15	.30031	18.56	.2
298.15	.30031	18.56	.2
298.15	.30031	18.57	.2
298.15	.40077	24.43	.2
298.15	.40077	24.43	.2
298.15	.40077	24.44	.2
298.15	.50042	30.08	.2
298.15	.50042	30.09	.2
298.15	.50042	30.09	.2
298.15	.60038	35.63	.2
298.15	.60038	35.63	.2
298.15	.60038	35.63	.2
303.15	.10076	5.89	.2
303.15	.20039	11.54	.2
303.15	.30031	17.04	.2
303.15	.40077	22.42	.2
303.15	.50042	27.61	.2
303.15	.60038	32.67	.2
308.15	.10076	5.39	.2
308.15	.10076	5.38	.2
308.15	.10076	5.44	.2
308.15	.20039	10.57	.2
308.15	.20039	10.56	.2
308.15	.20039	10.54	.2
308.15	.30031	15.63	.2
308.15	.30031	15.62	.2
308.15	.30031	15.6	.2
308.15	.40077	20.56	.2
308.15	.40077	20.55	.2
308.15	.40077	20.55	.2
308.15	.50042	25.28	.2
308.15	.50042	25.28	.2
308.15	.50042	25.28	.2
308.15	.60038	29.87	.2
308.15	.60038	29.87	.2
308.15	.60038	29.9	.2
318.15	.10076	4.41	.4
318.15	.10076	4.67	.4
318.15	.10076	4.56	.4
318.15	.20039	8.75	.4
318.15	.20039	8.59	.4
318.15	.20039	8.91	.4
318.15	.30031	12.94	.4
318.15	.30031	12.68	.4
318.15	.30031	13.05	.4
318.15	.40077	17.01	.4
318.15	.40077	16.87	.4
318.15	.40077	17.12	.4
318.15	.50042	20.92	.4
318.15	.50042	20.77	.4
318.15	.50042	21.02	.4
318.15	.60038	24.74	.4
318.15	.60038	24.56	.4
318.15	.60038	24.81	.4

System: 1,6-dihydroxyhexane + water; phases: Liquid
Fixed: Pressure, kPa = 101
Property: Mass density, kg/m3 (Liquid); method: Vibrating tube method
Temperature, K	Molality, mol/kg of 1,6-dihydroxyhexane	Mass density, kg/m3	uncertainty
278.15	.09975	-.082	.03
278.15	.09975	-.084	.03
278.15	.09975	-.084	.03
278.15	.20224	-.113	.03
278.15	.20224	-.115	.03
278.15	.20224	-.114	.03
278.15	.29974	-.104	.03
278.15	.29974	-.104	.03
278.15	.29974	-.104	.03
278.15	.40061	-.057	.03
278.15	.40061	-.058	.03
278.15	.40061	-.057	.03
278.15	.51601	.028	.03
278.15	.51601	.028	.03
278.15	.51601	.028	.03
283.15	.09975	-.111	.03
283.15	.09975	-.112	.03
283.15	.09975	-.112	.03
283.15	.20224	-.175	.03
283.15	.20224	-.177	.03
283.15	.20224	-.178	.03
283.15	.29974	-.202	.03
283.15	.29974	-.204	.03
283.15	.29974	-.205	.03
283.15	.40061	-.199	.03
283.15	.40061	-.198	.03
283.15	.40061	-.199	.03
283.15	.51601	-.165	.03
283.15	.51601	-.163	.03
283.15	.51601	-.164	.03
288.15	.09975	-.136	.03
288.15	.09975	-.136	.03
288.15	.09975	-.136	.03
288.15	.20224	-.232	.03
288.15	.20224	-.233	.03
288.15	.20224	-.233	.03
288.15	.29974	-.294	.03
288.15	.29974	-.293	.03
288.15	.29974	-.293	.03
288.15	.40061	-.328	.03
288.15	.40061	-.327	.03
288.15	.40061	-.328	.03
288.15	.51601	-.337	.03
288.15	.51601	-.337	.03
288.15	.51601	-.339	.03
293.15	.09975	-.16	.03
293.15	.09975	-.16	.03
293.15	.09975	-.171	.03
293.15	.20224	-.284	.03
293.15	.20224	-.283	.03
293.15	.20224	-.296	.03
293.15	.29974	-.375	.03
293.15	.29974	-.376	.03
293.15	.29974	-.388	.03
293.15	.40061	-.444	.03
293.15	.40061	-.445	.03
293.15	.40061	-.458	.03
293.15	.51601	-.498	.03
293.15	.51601	-.498	.03
293.15	.51601	-.496	.03
298.15	.09975	-.182	.03
298.15	.09975	-.181	.03
298.15	.20224	-.331	.03
298.15	.20224	-.331	.03
298.15	.29974	-.452	.03
298.15	.29974	-.452	.03
298.15	.29974	-.453	.03
298.15	.40061	-.554	.03
298.15	.40061	-.555	.03
298.15	.40061	-.554	.03
298.15	.51601	-.646	.03
298.15	.51601	-.645	.03
298.15	.51601	-.646	.03
303.15	.09975	-.203	.03
303.15	.09975	-.203	.03
303.15	.09975	-.205	.03
303.15	.20224	-.38	.03
303.15	.20224	-.379	.03
303.15	.20224	-.38	.03
303.15	.29974	-.528	.03
303.15	.29974	-.529	.03
303.15	.29974	-.529	.03
303.15	.40061	-.66	.03
303.15	.40061	-.661	.03
303.15	.40061	-.661	.03
303.15	.51601	-.788	.03
303.15	.51601	-.789	.03
303.15	.51601	-.789	.03
308.15	.09975	-.227	.03
308.15	.09975	-.227	.03
308.15	.09975	-.227	.03
308.15	.20224	-.427	.03
308.15	.20224	-.428	.03
308.15	.20224	-.428	.03
308.15	.29974	-.602	.03
308.15	.29974	-.603	.03
308.15	.29974	-.602	.03
308.15	.40061	-.765	.03
308.15	.40061	-.765	.03
308.15	.40061	-.765	.03
308.15	.51601	-.926	.03
308.15	.51601	-.929	.03
308.15	.51601	-.926	.03
318.15	.09975	-.266	.03
318.15	.09975	-.267	.03
318.15	.09975	-.266	.03
318.15	.20224	-.516	.03
318.15	.20224	-.517	.03
318.15	.20224	-.516	.03
318.15	.29974	-.737	.03
318.15	.29974	-.741	.03
318.15	.29974	-.74	.03
318.15	.40061	-.954	.03
318.15	.40061	-.953	.03
318.15	.40061	-.957	.03
318.15	.51601	-1.18	.03
318.15	.51601	-1.184	.03

System: 1,6-dihydroxyhexane + water; phases: Liquid
Fixed: Pressure, kPa = 101
Property: Speed of sound, m/s (Liquid); method: Pulse-echo method
Temperature, K	Molality, mol/kg of 1,6-dihydroxyhexane	Speed of sound, m/s	uncertainty
278.15	.09975	10.97	.2
278.15	.09975	11	.2
278.15	.09975	11	.2
278.15	.20224	21.87	.2
278.15	.20224	21.92	.2
278.15	.20224	21.93	.2
278.15	.29974	31.91	.2
278.15	.29974	31.97	.2
278.15	.29974	31.98	.2
278.15	.40061	41.91	.2
278.15	.40061	42.02	.2
278.15	.40061	41.98	.2
278.15	.51601	52.59	.2
278.15	.51601	52.61	.2
278.15	.51601	52.61	.2
283.15	.09975	10.07	.2
283.15	.09975	10.08	.2
283.15	.09975	10.04	.2
283.15	.20224	20.07	.2
283.15	.20224	20.08	.2
283.15	.20224	20.02	.2
283.15	.29974	29.26	.2
283.15	.29974	29.28	.2
283.15	.29974	29.27	.2
283.15	.40061	38.38	.2
283.15	.40061	38.39	.2
283.15	.40061	38.38	.2
283.15	.51601	48	.2
283.15	.51601	48.02	.2
283.15	.51601	47.99	.2
288.15	.09975	9.32	.2
288.15	.09975	9.27	.2
288.15	.09975	9.25	.2
288.15	.20224	18.46	.2
288.15	.20224	18.42	.2
288.15	.20224	18.45	.2
288.15	.29974	26.84	.2
288.15	.29974	26.79	.2
288.15	.29974	26.83	.2
288.15	.40061	35.13	.2
288.15	.40061	35.09	.2
288.15	.40061	35.15	.2
288.15	.51601	43.85	.2
288.15	.51601	43.83	.2
288.15	.51601	43.91	.2
293.15	.09975	8.44	.2
293.15	.09975	8.5	.2
293.15	.09975	8.49	.2
293.15	.20224	16.81	.2
293.15	.20224	16.88	.2
293.15	.20224	16.83	.2
293.15	.29974	24.48	.2
293.15	.29974	24.54	.2
293.15	.29974	24.47	.2
293.15	.40061	32.04	.2
293.15	.40061	32.11	.2
293.15	.40061	32.02	.2
293.15	.51601	40.09	.2
293.15	.51601	40.05	.2
293.15	.51601	39.9	.2
298.15	.09975	7.59	.2
298.15	.09975	7.79	.2
298.15	.09975	8.36	.2
298.15	.20224	15.32	.2
298.15	.20224	15.52	.2
298.15	.20224	16.06	.2
298.15	.29974	22.34	.2
298.15	.29974	22.6	.2
298.15	.29974	22.85	.2
298.15	.40061	29.24	.2
298.15	.40061	29.5	.2
298.15	.40061	29.74	.2
298.15	.51601	36.46	.2
298.15	.51601	36.57	.2
298.15	.51601	36.97	.2
303.15	.09975	7.12	.2
303.15	.09975	7.23	.2
303.15	.09975	7.12	.2
303.15	.20224	14.14	.2
303.15	.20224	14.25	.2
303.15	.20224	14.13	.2
303.15	.29974	20.51	.2
303.15	.29974	20.63	.2
303.15	.29974	20.52	.2
303.15	.40061	26.77	.2
303.15	.40061	26.9	.2
303.15	.40061	26.79	.2
303.15	.51601	33.3	.2
303.15	.51601	33.34	.2
303.15	.51601	33.32	.2
308.15	.09975	6.5	.2
308.15	.09975	6.54	.2
308.15	.20224	12.89	.2
308.15	.20224	12.92	.2
308.15	.29974	18.68	.2
308.15	.29974	18.71	.2
308.15	.29974	18.7	.2
308.15	.40061	24.35	.2
308.15	.40061	24.37	.2
308.15	.40061	24.35	.2
308.15	.51601	30.19	.2
308.15	.51601	30.24	.2
308.15	.51601	30.2	.2
318.15	.09975	5.44	.4
318.15	.09975	5.42	.4
318.15	.09975	5.4	.4
318.15	.20224	10.72	.4
318.15	.20224	10.69	.4
318.15	.20224	10.68	.4
318.15	.29974	15.4	.4
318.15	.29974	15.39	.4
318.15	.29974	15.39	.4
318.15	.40061	19.96	.4
318.15	.40061	19.95	.4
318.15	.40061	19.96	.4
318.15	.51601	24.62	.4
318.15	.51601	24.71	.4

System: 1,8-dihydroxyoctane + water; phases: Liquid
Fixed: Pressure, kPa = 101
Property: Mass density, kg/m3 (Liquid); method: Vibrating tube method
Temperature, K	Molality, mol/kg of 1,8-dihydroxyoctane	Mass density, kg/m3	uncertainty
278.15	.06053	-.213	.03
278.15	.06053	-.212	.03
278.15	.06053	-.212	.03
278.15	.07034	-.244	.03
278.15	.07034	-.243	.03
278.15	.07034	-.244	.03
278.15	.08079	-.276	.03
278.15	.08079	-.277	.03
278.15	.08079	-.276	.03
278.15	.09117	-.307	.03
278.15	.09117	-.306	.03
278.15	.09117	-.308	.03
278.15	.10088	-.335	.03
278.15	.10088	-.336	.03
278.15	.10088	-.336	.03
283.15	.06053	-.246	.03
283.15	.06053	-.247	.03
283.15	.06053	-.247	.03
283.15	.07034	-.283	.03
283.15	.07034	-.285	.03
283.15	.07034	-.283	.03
283.15	.08079	-.324	.03
283.15	.08079	-.323	.03
283.15	.08079	-.323	.03
283.15	.09117	-.362	.03
283.15	.09117	-.361	.03
283.15	.09117	-.36	.03
283.15	.10088	-.395	.03
283.15	.10088	-.395	.03
283.15	.10088	-.395	.03
283.15	.11058	-.429	.03
283.15	.11058	-.43	.03
283.15	.11058	-.431	.03
288.15	.06053	-.276	.03
288.15	.06053	-.278	.03
288.15	.06053	-.278	.03
288.15	.07034	-.319	.03
288.15	.07034	-.321	.03
288.15	.07034	-.32	.03
288.15	.08079	-.364	.03
288.15	.08079	-.366	.03
288.15	.08079	-.366	.03
288.15	.09117	-.409	.03
288.15	.09117	-.41	.03
288.15	.09117	-.409	.03
288.15	.10088	-.449	.03
288.15	.10088	-.45	.03
288.15	.10088	-.448	.03
288.15	.11058	-.489	.03
288.15	.11058	-.491	.03
288.15	.11058	-.49	.03
293.15	.06053	-.306	.03
293.15	.06053	-.307	.03
293.15	.06053	-.306	.03
293.15	.07034	-.354	.03
293.15	.07034	-.355	.03
293.15	.07034	-.355	.03
293.15	.08079	-.405	.03
293.15	.08079	-.405	.03
293.15	.08079	-.405	.03
293.15	.09117	-.455	.03
293.15	.09117	-.455	.03
293.15	.09117	-.456	.03
293.15	.10088	-.499	.03
293.15	.10088	-.5	.03
293.15	.10088	-.501	.03
293.15	.11058	-.546	.03
293.15	.11058	-.546	.03
293.15	.11058	-.547	.03
298.15	.06053	-.335	.03
298.15	.06053	-.334	.03
298.15	.06053	-.335	.03
298.15	.07034	-.387	.03
298.15	.07034	-.387	.03
298.15	.07034	-.387	.03
298.15	.08079	-.444	.03
298.15	.08079	-.443	.03
298.15	.08079	-.443	.03
298.15	.09117	-.499	.03
298.15	.09117	-.498	.03
298.15	.09117	-.499	.03
298.15	.10088	-.549	.03
298.15	.10088	-.549	.03
298.15	.10088	-.549	.03
298.15	.11058	-.601	.03
298.15	.11058	-.599	.03
298.15	.11058	-.6	.03
303.15	.06053	-.361	.03
303.15	.06053	-.361	.03
303.15	.06053	-.361	.03
303.15	.07034	-.419	.03
303.15	.07034	-.418	.03
303.15	.07034	-.418	.03
303.15	.08079	-.479	.03
303.15	.08079	-.48	.03
303.15	.08079	-.48	.03
303.15	.09117	-.539	.03
303.15	.09117	-.541	.03
303.15	.09117	-.541	.03
303.15	.10088	-.594	.03
303.15	.10088	-.596	.03
303.15	.10088	-.595	.03
303.15	.11058	-.65	.03
303.15	.11058	-.652	.03
303.15	.11058	-.652	.03
308.15	.06053	-.385	.03
308.15	.06053	-.388	.03
308.15	.06053	-.387	.03
308.15	.07034	-.448	.03
308.15	.07034	-.45	.03
308.15	.07034	-.449	.03
308.15	.08079	-.514	.03
308.15	.08079	-.516	.03
308.15	.08079	-.514	.03
308.15	.09117	-.579	.03
308.15	.09117	-.58	.03
308.15	.09117	-.579	.03
308.15	.10088	-.638	.03
308.15	.10088	-.64	.03
308.15	.10088	-.639	.03
308.15	.11058	-.699	.03
308.15	.11058	-.701	.03
308.15	.11058	-.701	.03
318.15	.06053	-.439	.03
318.15	.06053	-.436	.03
318.15	.06053	-.433	.03
318.15	.07034	-.51	.03
318.15	.07034	-.508	.03
318.15	.07034	-.505	.03
318.15	.08079	-.583	.03
318.15	.08079	-.58	.03
318.15	.09117	-.657	.03
318.15	.09117	-.657	.03
318.15	.09117	-.655	.03
318.15	.10088	-.726	.03
318.15	.10088	-.723	.03
318.15	.11058	-.796	.03
318.15	.11058	-.796	.03
318.15	.11058	-.796	.03

System: 1,8-dihydroxyoctane + water; phases: Liquid
Fixed: Pressure, kPa = 101
Property: Speed of sound, m/s (Liquid); method: Pulse-echo method
Temperature, K	Molality, mol/kg of 1,8-dihydroxyoctane	Speed of sound, m/s	uncertainty
278.15	.06053	9.3	.2
278.15	.06053	9.3	.2
278.15	.06053	9.3	.2
278.15	.07034	10.75	.2
278.15	.07034	10.75	.2
278.15	.07034	10.78	.2
278.15	.08079	12.31	.2
278.15	.08079	12.32	.2
278.15	.08079	12.33	.2
278.15	.09117	13.84	.2
278.15	.09117	13.84	.2
278.15	.09117	13.86	.2
278.15	.10088	15.24	.2
278.15	.10088	15.26	.2
278.15	.10088	15.28	.2
278.15	.11058	16.63	.2
278.15	.11058	16.65	.2
278.15	.11058	16.65	.2
283.15	.06053	8.49	.2
283.15	.06053	8.49	.2
283.15	.06053	8.47	.2
283.15	.07034	9.82	.2
283.15	.07034	9.82	.2
283.15	.07034	9.83	.2
283.15	.08079	11.23	.2
283.15	.08079	11.25	.2
283.15	.08079	11.24	.2
283.15	.09117	12.62	.2
283.15	.09117	12.63	.2
283.15	.09117	12.63	.2
283.15	.10088	13.89	.2
283.15	.10088	13.92	.2
283.15	.10088	13.92	.2
283.15	.11058	15.17	.2
283.15	.11058	15.19	.2
283.15	.11058	15.18	.2
288.15	.06053	7.78	.2
288.15	.06053	7.78	.2
288.15	.06053	7.8	.2
288.15	.07034	9	.2
288.15	.07034	9.01	.2
288.15	.07034	9.01	.2
288.15	.08079	10.28	.2
288.15	.08079	10.3	.2
288.15	.08079	10.31	.2
288.15	.09117	11.57	.2
288.15	.09117	11.56	.2
288.15	.09117	11.57	.2
288.15	.10088	12.73	.2
288.15	.10088	12.73	.2
288.15	.10088	12.73	.2
288.15	.11058	13.9	.2
288.15	.11058	13.88	.2
288.15	.11058	13.89	.2
293.15	.06053	7.09	.2
293.15	.06053	7.09	.2
293.15	.06053	7.1	.2
293.15	.07034	8.2	.2
293.15	.07034	8.2	.2
293.15	.07034	8.22	.2
293.15	.08079	9.37	.2
293.15	.08079	9.38	.2
293.15	.08079	9.4	.2
293.15	.09117	10.53	.2
293.15	.09117	10.54	.2
293.15	.09117	10.55	.2
293.15	.10088	11.59	.2
293.15	.10088	11.59	.2
293.15	.10088	11.61	.2
293.15	.11058	12.65	.2
293.15	.11058	12.64	.2
293.15	.11058	12.64	.2
298.15	.06053	6.47	.2
298.15	.06053	6.46	.2
298.15	.06053	6.46	.2
298.15	.07034	7.48	.2
298.15	.07034	7.48	.2
298.15	.07034	7.47	.2
298.15	.08079	8.54	.2
298.15	.08079	8.54	.2
298.15	.08079	8.54	.2
298.15	.09117	9.59	.2
298.15	.09117	9.59	.2
298.15	.09117	9.58	.2
298.15	.10088	10.55	.2
298.15	.10088	10.55	.2
298.15	.10088	10.55	.2
298.15	.11058	11.5	.2
298.15	.11058	11.49	.2
298.15	.11058	11.5	.2
303.15	.06053	5.88	.2
303.15	.06053	5.89	.2
303.15	.06053	5.89	.2
303.15	.07034	6.8	.2
303.15	.07034	6.8	.2
303.15	.07034	6.81	.2
303.15	.08079	7.77	.2
303.15	.08079	7.77	.2
303.15	.08079	7.77	.2
303.15	.09117	8.72	.2
303.15	.09117	8.71	.2
303.15	.09117	8.72	.2
303.15	.10088	9.6	.2
303.15	.10088	9.59	.2
303.15	.10088	9.58	.2
303.15	.11058	10.44	.2
303.15	.11058	10.44	.2
303.15	.11058	10.44	.2
308.15	.06053	5.33	.2
308.15	.06053	5.34	.2
308.15	.06053	5.33	.2
308.15	.07034	6.13	.2
308.15	.07034	6.15	.2
308.15	.07034	6.16	.2
308.15	.08079	6.99	.2
308.15	.08079	7.02	.2
308.15	.08079	7.02	.2
308.15	.09117	7.84	.2
308.15	.09117	7.86	.2
308.15	.09117	7.86	.2
308.15	.10088	8.61	.2
308.15	.10088	8.63	.2
308.15	.10088	8.64	.2
308.15	.11058	9.38	.2
308.15	.11058	9.39	.2
308.15	.11058	9.41	.2
318.15	.06053	4.32	.4
318.15	.06053	4.32	.4
318.15	.06053	4.32	.4
318.15	.07034	4.98	.4
318.15	.07034	4.98	.4
318.15	.07034	4.99	.4
318.15	.08079	5.66	.4
318.15	.08079	5.66	.4
318.15	.08079	5.67	.4
318.15	.09117	6.35	.4
318.15	.09117	6.35	.4
318.15	.09117	6.36	.4
318.15	.10088	6.97	.4
318.15	.10088	6.97	.4
318.15	.10088	6.98	.4
318.15	.11058	7.58	.4
318.15	.11058	7.57	.4
318.15	.11058	7.58	.4

System: 1,9-nonanediol + water; phases: Liquid
Fixed: Pressure, kPa = 101
Property: Mass density, kg/m3 (Liquid); method: Vibrating tube method
Temperature, K	Molality, mol/kg of 1,9-nonanediol	Mass density, kg/m3	uncertainty
278.15	.03752	-.175	.03
278.15	.03752	-.173	.03
278.15	.03752	-.175	.03
278.15	.03784	-.176	.03
278.15	.03784	-.174	.03
278.15	.03784	-.177	.03
278.15	.03817	-.177	.03
278.15	.03817	-.175	.03
278.15	.03817	-.178	.03
278.15	.03914	-.183	.03
278.15	.03914	-.181	.03
278.15	.03914	-.182	.03
278.15	.04071	-.189	.03
278.15	.04071	-.187	.03
278.15	.04071	-.188	.03
283.15	.03752	-.202	.03
283.15	.03752	-.202	.03
283.15	.03752	-.201	.03
283.15	.03784	-.204	.03
283.15	.03784	-.203	.03
283.15	.03784	-.204	.03
283.15	.03817	-.206	.03
283.15	.03817	-.205	.03
283.15	.03817	-.205	.03
283.15	.03914	-.211	.03
283.15	.03914	-.211	.03
283.15	.03914	-.211	.03
283.15	.04071	-.218	.03
283.15	.04071	-.219	.03
283.15	.04071	-.217	.03
288.15	.03752	-.227	.03
288.15	.03752	-.225	.03
288.15	.03752	-.226	.03
288.15	.03784	-.228	.03
288.15	.03784	-.228	.03
288.15	.03784	-.228	.03
288.15	.03817	-.229	.03
288.15	.03817	-.23	.03
288.15	.03817	-.23	.03
288.15	.03914	-.237	.03
288.15	.03914	-.236	.03
288.15	.03914	-.235	.03
288.15	.04071	-.245	.03
288.15	.04071	-.244	.03
288.15	.04071	-.245	.03
293.15	.03752	-.249	.03
293.15	.03752	-.249	.03
293.15	.03752	-.249	.03
293.15	.03784	-.251	.03
293.15	.03784	-.251	.03
293.15	.03784	-.251	.03
293.15	.03817	-.253	.03
293.15	.03817	-.254	.03
293.15	.03817	-.253	.03
293.15	.03914	-.259	.03
293.15	.03914	-.26	.03
293.15	.03914	-.26	.03
293.15	.04071	-.269	.03
293.15	.04071	-.269	.03
293.15	.04071	-.269	.03
298.15	.03752	-.271	.03
298.15	.03752	-.271	.03
298.15	.03752	-.271	.03
298.15	.03784	-.274	.03
298.15	.03784	-.274	.03
298.15	.03784	-.274	.03
298.15	.03817	-.275	.03
298.15	.03817	-.276	.03
298.15	.03817	-.276	.03
298.15	.03914	-.283	.03
298.15	.03914	-.283	.03
298.15	.03914	-.283	.03
298.15	.04071	-.293	.03
298.15	.04071	-.292	.03
298.15	.04071	-.291	.03
303.15	.03752	-.291	.03
303.15	.03752	-.293	.03
303.15	.03752	-.292	.03
303.15	.03784	-.295	.03
303.15	.03784	-.295	.03
303.15	.03784	-.294	.03
303.15	.03817	-.297	.03
303.15	.03817	-.298	.03
303.15	.03817	-.297	.03
303.15	.03914	-.304	.03
303.15	.03914	-.305	.03
303.15	.03914	-.305	.03
303.15	.04071	-.314	.03
303.15	.04071	-.316	.03
303.15	.04071	-.316	.03
308.15	.03752	-.313	.03
308.15	.03752	-.312	.03
308.15	.03752	-.311	.03
308.15	.03784	-.316	.03
308.15	.03784	-.316	.03
308.15	.03784	-.313	.03
308.15	.03817	-.318	.03
308.15	.03817	-.318	.03
308.15	.03817	-.318	.03
308.15	.03914	-.327	.03
308.15	.03914	-.325	.03
308.15	.03914	-.326	.03
308.15	.04071	-.339	.03
308.15	.04071	-.337	.03
308.15	.04071	-.339	.03
318.15	.03752	-.351	.03
318.15	.03752	-.351	.03
318.15	.03752	-.347	.03
318.15	.03784	-.353	.03
318.15	.03784	-.354	.03
318.15	.03784	-.35	.03
318.15	.03817	-.358	.03
318.15	.03817	-.357	.03
318.15	.03817	-.354	.03
318.15	.03914	-.368	.03
318.15	.03914	-.366	.03
318.15	.03914	-.362	.03
318.15	.04071	-.381	.03
318.15	.04071	-.38	.03
318.15	.04071	-.375	.03

System: 1,9-nonanediol + water; phases: Liquid
Fixed: Pressure, kPa = 101
Property: Speed of sound, m/s (Liquid); method: Pulse-echo method
Temperature, K	Molality, mol/kg of 1,9-nonanediol	Speed of sound, m/s	uncertainty
278.15	.03752	6.52	.2
278.15	.03752	6.53	.2
278.15	.03752	6.53	.2
278.15	.03784	6.58	.2
278.15	.03784	6.58	.2
278.15	.03784	6.58	.2
278.15	.03817	6.63	.2
278.15	.03817	6.63	.2
278.15	.03817	6.63	.2
278.15	.03914	6.79	.2
278.15	.03914	6.8	.2
278.15	.03914	6.8	.2
278.15	.04071	7.06	.2
278.15	.04071	7.07	.2
278.15	.04071	7.06	.2
283.15	.03752	5.96	.2
283.15	.03752	5.96	.2
283.15	.03752	5.97	.2
283.15	.03784	6.01	.2
283.15	.03784	6.01	.2
283.15	.03784	6.02	.2
283.15	.03817	6.05	.2
283.15	.03817	6.06	.2
283.15	.03817	6.06	.2
283.15	.03914	6.21	.2
283.15	.03914	6.21	.2
283.15	.03914	6.22	.2
283.15	.04071	6.45	.2
283.15	.04071	6.45	.2
283.15	.04071	6.46	.2
288.15	.03752	5.48	.2
288.15	.03752	5.46	.2
288.15	.03752	5.47	.2
288.15	.03784	5.52	.2
288.15	.03784	5.51	.2
288.15	.03784	5.51	.2
288.15	.03817	5.57	.2
288.15	.03817	5.55	.2
288.15	.03817	5.55	.2
288.15	.03914	5.71	.2
288.15	.03914	5.7	.2
288.15	.03914	5.69	.2
288.15	.04071	5.93	.2
288.15	.04071	5.92	.2
288.15	.04071	5.92	.2
293.15	.03752	4.97	.2
293.15	.03752	4.98	.2
293.15	.03752	4.97	.2
293.15	.03784	5.02	.2
293.15	.03784	5.01	.2
293.15	.03784	5.02	.2
293.15	.03817	5.05	.2
293.15	.03817	5.04	.2
293.15	.03817	5.05	.2
293.15	.03914	5.18	.2
293.15	.03914	5.18	.2
293.15	.03914	5.18	.2
293.15	.04071	5.38	.2
293.15	.04071	5.38	.2
293.15	.04071	5.38	.2
298.15	.03752	4.53	.2
298.15	.03752	4.52	.2
298.15	.03752	4.52	.2
298.15	.03784	4.56	.2
298.15	.03784	4.56	.2
298.15	.03784	4.56	.2
298.15	.03817	4.6	.2
298.15	.03817	4.59	.2
298.15	.03817	4.6	.2
298.15	.03914	4.71	.2
298.15	.03914	4.71	.2
298.15	.03914	4.71	.2
298.15	.04071	4.89	.2
298.15	.04071	4.89	.2
298.15	.04071	4.9	.2
303.15	.03752	4.11	.2
303.15	.03752	4.13	.2
303.15	.03752	4.11	.2
303.15	.03784	4.14	.2
303.15	.03784	4.15	.2
303.15	.03784	4.15	.2
303.15	.03817	4.18	.2
303.15	.03817	4.18	.2
303.15	.03817	4.18	.2
303.15	.03914	4.28	.2
303.15	.03914	4.28	.2
303.15	.03914	4.28	.2
303.15	.04071	4.43	.2
303.15	.04071	4.45	.2
303.15	.04071	4.44	.2
308.15	.03752	3.71	.2
308.15	.03752	3.71	.2
308.15	.03752	3.69	.2
308.15	.03784	3.73	.2
308.15	.03784	3.75	.2
308.15	.03784	3.73	.2
308.15	.03817	3.77	.2
308.15	.03817	3.79	.2
308.15	.03817	3.76	.2
308.15	.03914	3.86	.2
308.15	.03914	3.86	.2
308.15	.03914	3.84	.2
308.15	.04071	4.02	.2
308.15	.04071	4	.2
308.15	.04071	3.99	.2
318.15	.03752	2.98	.4
318.15	.03752	2.97	.4
318.15	.03752	2.97	.4
318.15	.03784	3	.4
318.15	.03784	3	.4
318.15	.03784	3	.4
318.15	.03817	3.02	.4
318.15	.03817	3.02	.4
318.15	.03817	3.02	.4
318.15	.03914	3.1	.4
318.15	.03914	3.1	.4
318.15	.03914	3.11	.4
318.15	.04071	3.22	.4
318.15	.04071	3.22	.4
318.15	.04071	3.22	.4
