Measured thermophysical data. Solubility of 2-Hydroxypropane-1,2,3-tricarboxylic Acid Monohydrate in Different Binary Solvents from (278.15 to 303.15) K
Source: J. Chem. Eng. Data, 2014, 10.1021/je400838e
Compound 1: methanol, CH4O, purity 99.5%
Compound 2: ethanol, C2H6O, purity 99.5%
Compound 3: propan-2-ol, C3H8O, purity 99.5%
Compound 4: water, H2O
Compound 5: 2-hydroxy-1,2,3-propanetricarboxylic acid, C6H8O7, purity 99.5%

System: methanol + 2-hydroxy-1,2,3-propanetricarboxylic acid + water; phases: Liquid, Crystal
Fixed: Pressure, kPa = 101
Property: Mole fraction of 2-hydroxy-1,2,3-propanetricarboxylic acid (Liquid); method: Titration method
Solvent: Mole fraction of water	Temperature, K	Mole fraction of 2-hydroxy-1,2,3-propanetricarboxylic acid	uncertainty
0	278.15	.1558	.003116
0	283.15	.1602	.003204
0	288.15	.1643	.003286
0	293.15	.1696	.003392
0	298.15	.1738	.003476
0	303.15	.178	.00356
.1998	278.15	.1512	.003024
.1998	283.15	.1556	.003112
.1998	288.15	.1607	.003214
.1998	293.15	.1654	.003308
.1998	298.15	.1699	.003398
.1998	303.15	.175	.0035
.3597	303.15	.1725	.00345

System: methanol + 2-hydroxy-1,2,3-propanetricarboxylic acid + water; phases: Liquid, Crystal of intercomponent compound 1
Fixed: Pressure, kPa = 101
Property: Mole fraction of 2-hydroxy-1,2,3-propanetricarboxylic acid (Liquid); method: Titration method
Solvent: Mole fraction of water	Temperature, K	Mole fraction of 2-hydroxy-1,2,3-propanetricarboxylic acid	uncertainty
.3597	283.15	.148	.00296
.3597	278.15	.1426	.002852
.3597	288.15	.154	.00308
.3597	293.15	.1607	.003214
.3597	298.15	.1662	.003324
.4905	283.15	.1395	.00279
.4905	288.15	.1476	.002952
.4905	278.15	.1325	.00265
.4905	293.15	.1545	.00309
.4905	298.15	.1618	.003236
.4905	303.15	.1686	.003372
.5996	288.15	.1408	.002816
.5996	283.15	.1314	.002628
.5996	293.15	.1499	.002998
.5996	278.15	.1237	.002474
.5996	298.15	.157	.00314
.5996	303.15	.1658	.003316
.692	293.15	.1454	.002908
.692	288.15	.1356	.002712
.692	283.15	.1248	.002496
.692	298.15	.1536	.003072
.692	278.15	.1157	.002314
.692	303.15	.1628	.003256
.7712	293.15	.1398	.002796
.7712	288.15	.1288	.002576
.7712	298.15	.1496	.002992
.7712	278.15	.1091	.002182
.7712	283.15	.1182	.002364
.7712	303.15	.1582	.003164
.8398	278.15	.103	.00206
.8398	283.15	.1121	.002242
.8398	298.15	.1423	.002846
.8398	293.15	.1321	.002642
.8398	288.15	.1223	.002446
.8398	303.15	.1507	.003014
.8987	288.15	.1166	.002332
.8987	298.15	.1361	.002722
.8987	278.15	.098	.00196
.8987	283.15	.107	.00214
.8987	293.15	.1264	.002528
.8987	303.15	.1451	.002902
.9529	278.15	.0923	.001846
.9529	288.15	.109	.00218
.9529	283.15	.1008	.002016
.9529	293.15	.1196	.002392
.9529	298.15	.1287	.002574
.9529	303.15	.137	.00274
1	298.15	.1215	.00243
1	283.15	.0963	.001926
1	278.15	.088	.00176
1	293.15	.1143	.002286
1	288.15	.1053	.002106
1	303.15	.1324	.002648

System: ethanol + 2-hydroxy-1,2,3-propanetricarboxylic acid + water; phases: Liquid, Crystal
Fixed: Pressure, kPa = 101
Property: Mole fraction of 2-hydroxy-1,2,3-propanetricarboxylic acid (Liquid); method: Titration method
Solvent: Mole fraction of water	Temperature, K	Mole fraction of 2-hydroxy-1,2,3-propanetricarboxylic acid	uncertainty
0	278.15	.1319	.002638
0	283.15	.1348	.002696
0	288.15	.1393	.002786
0	293.15	.1443	.002886
0	298.15	.1502	.003004
0	303.15	.1565	.00313
.2643	278.15	.1247	.002494
.2643	283.15	.1291	.002582
.2643	288.15	.1338	.002676
.2643	293.15	.1411	.002822
.2643	298.15	.1492	.002984
.2643	303.15	.1552	.003104
.447	303.15	.1538	.003076

System: ethanol + 2-hydroxy-1,2,3-propanetricarboxylic acid + water; phases: Liquid, Crystal of intercomponent compound 1
Fixed: Pressure, kPa = 101
Property: Mole fraction of 2-hydroxy-1,2,3-propanetricarboxylic acid (Liquid); method: Titration method
Solvent: Mole fraction of water	Temperature, K	Mole fraction of 2-hydroxy-1,2,3-propanetricarboxylic acid	uncertainty
.447	278.15	.1174	.002348
.447	288.15	.131	.00262
.447	293.15	.1379	.002758
.447	298.15	.147	.00294
.447	283.15	.1232	.002464
.5808	283.15	.1188	.002376
.5808	288.15	.1283	.002566
.5808	278.15	.1112	.002224
.5808	293.15	.1344	.002688
.5808	298.15	.1441	.002882
.5808	303.15	.1524	.003048
.7637	283.15	.1115	.00223
.7637	293.15	.1281	.002562
.7637	278.15	.1018	.002036
.7637	288.15	.121	.00242
.7637	298.15	.1377	.002754
.7637	303.15	.1487	.002974
.8829	293.15	.1222	.002444
.8829	298.15	.132	.00264
.8829	278.15	.0957	.001914
.8829	288.15	.1125	.00225
.8829	283.15	.1055	.00211
.8829	303.15	.1441	.002882
.9282	283.15	.1027	.002054
.9282	288.15	.1102	.002204
.9282	278.15	.0934	.001868
.9282	298.15	.1287	.002574
.9282	293.15	.1195	.00239
.9282	303.15	.1396	.002792
.9668	278.15	.0908	.001816
.9668	298.15	.1258	.002516
.9668	283.15	.0997	.001994
.9668	293.15	.1172	.002344
.9668	288.15	.1088	.002176
.9668	303.15	.1361	.002722
1	288.15	.1053	.002106
1	278.15	.088	.00176
1	293.15	.1143	.002286
1	298.15	.1215	.00243
1	283.15	.0963	.001926
1	303.15	.1324	.002648

System: propan-2-ol + 2-hydroxy-1,2,3-propanetricarboxylic acid + water; phases: Liquid, Crystal
Fixed: Pressure, kPa = 101
Property: Mole fraction of 2-hydroxy-1,2,3-propanetricarboxylic acid (Liquid); method: Titration method
Solvent: Mole fraction of water	Temperature, K	Mole fraction of 2-hydroxy-1,2,3-propanetricarboxylic acid	uncertainty
0	278.15	.1125	.00225
0	283.15	.1196	.002392
0	288.15	.1267	.002534
0	293.15	.1321	.002642
0	298.15	.1375	.00275
0	303.15	.1435	.00287
.3202	303.15	.1424	.002848

System: propan-2-ol + 2-hydroxy-1,2,3-propanetricarboxylic acid + water; phases: Liquid, Crystal of intercomponent compound 1
Fixed: Pressure, kPa = 101
Property: Mole fraction of 2-hydroxy-1,2,3-propanetricarboxylic acid (Liquid); method: Titration method
Solvent: Mole fraction of water	Temperature, K	Mole fraction of 2-hydroxy-1,2,3-propanetricarboxylic acid	uncertainty
.3202	278.15	.1056	.002112
.3202	283.15	.1136	.002272
.3202	288.15	.1211	.002422
.3202	293.15	.1285	.00257
.3202	298.15	.1336	.002672
.6449	278.15	.0981	.001962
.6449	288.15	.115	.0023
.6449	283.15	.1071	.002142
.6449	293.15	.1245	.00249
.6449	298.15	.1318	.002636
.6449	303.15	.1402	.002804
.8091	278.15	.0932	.001864
.8091	293.15	.1207	.002414
.8091	283.15	.1033	.002066
.8091	298.15	.1293	.002586
.8091	288.15	.1127	.002254
.8091	303.15	.1382	.002764
.9082	293.15	.1172	.002344
.9082	278.15	.0911	.001822
.9082	288.15	.1095	.00219
.9082	298.15	.1266	.002532
.9082	283.15	.1004	.002008
.9082	303.15	.1352	.002704
.9745	293.15	.1144	.002288
.9745	298.15	.1238	.002476
.9745	278.15	.0894	.001788
.9745	288.15	.1073	.002146
.9745	283.15	.0983	.001966
.9745	303.15	.1337	.002674
1	283.15	.0963	.001926
1	298.15	.1215	.00243
1	278.15	.088	.00176
1	288.15	.1053	.002106
1	293.15	.1143	.002286
1	303.15	.1324	.002648

System: methanol + 2-hydroxy-1,2,3-propanetricarboxylic acid; phases: Liquid, Crystal
Property: Mole fraction of 2-hydroxy-1,2,3-propanetricarboxylic acid (Liquid); method: Titration method
Temperature, K	Pressure, kPa	Mole fraction of 2-hydroxy-1,2,3-propanetricarboxylic acid	uncertainty
278.15	101.325	.1558	.003116
283.15	101.325	.1602	.003204
288.15	101.325	.1643	.003286
293.15	101.325	.1696	.003392
298.15	101.325	.1738	.003476
303.15	101.325	.178	.00356

System: 2-hydroxy-1,2,3-propanetricarboxylic acid + water; phases: Liquid, Crystal of intercomponent compound 1
Property: Mole fraction of 2-hydroxy-1,2,3-propanetricarboxylic acid (Liquid); method: Titration method
Temperature, K	Pressure, kPa	Mole fraction of 2-hydroxy-1,2,3-propanetricarboxylic acid	uncertainty
298.15	101.325	.1215	.00243
283.15	101.325	.0963	.001926
278.15	101.325	.088	.00176
293.15	101.325	.1143	.002286
288.15	101.325	.1053	.002106
303.15	101.325	.1324	.002648

System: ethanol + 2-hydroxy-1,2,3-propanetricarboxylic acid; phases: Liquid, Crystal
Property: Mole fraction of 2-hydroxy-1,2,3-propanetricarboxylic acid (Liquid); method: Titration method
Temperature, K	Pressure, kPa	Mole fraction of 2-hydroxy-1,2,3-propanetricarboxylic acid	uncertainty
278.15	101.325	.1319	.002638
283.15	101.325	.1348	.002696
288.15	101.325	.1393	.002786
293.15	101.325	.1443	.002886
298.15	101.325	.1502	.003004
303.15	101.325	.1565	.00313

System: propan-2-ol + 2-hydroxy-1,2,3-propanetricarboxylic acid; phases: Liquid, Crystal
Property: Mole fraction of 2-hydroxy-1,2,3-propanetricarboxylic acid (Liquid); method: Titration method
Temperature, K	Pressure, kPa	Mole fraction of 2-hydroxy-1,2,3-propanetricarboxylic acid	uncertainty
278.15	101.325	.1125	.00225
283.15	101.325	.1196	.002392
288.15	101.325	.1267	.002534
293.15	101.325	.1321	.002642
298.15	101.325	.1375	.00275
303.15	101.325	.1435	.00287
