Measured thermophysical data. Comparative Study of the Solubilities of SO2 in Five Low Volatile Organic Solvents (Sulfolane, Ethylene Glycol, Propylene Carbonate, N-Methylimidazole, and N-Methylpyrrolidone)
Source: J. Chem. Eng. Data, 2014, 10.1021/je4007713
Compound 1: sulfur dioxide, O2S, purity 99.99%
Compound 2: sulfolane, C4H8O2S, purity 99%
Compound 3: ethylene glycol, C2H6O2, purity 99%
Compound 4: propylene carbonate, C4H6O3, purity 99%
Compound 5: 1-methylimidazole, C4H6N2, purity 99%
Compound 6: N-methylpyrrolidone, C5H9NO, purity 98.5%

System: sulfolane + sulfur dioxide; phases: Liquid, Gas
Property: Molality, mol/kg of sulfur dioxide (Liquid); method: Pressure Drop on Dissolution
Temperature, K	Partial pressure, kPa of sulfur dioxide	Molality, mol/kg of sulfur dioxide	uncertainty
303.2	.00019	.14	.02
303.2	.00039	.28	.02
303.2	.00058	.41	.02
303.2	.00076	.534	.02
303.2	.00099	.695	.02
303.2	.00122	.86	.02
303.2	.00161	1.127	.02
303.2	.00207	1.433	.02
303.2	.00258	1.765	.02
303.2	.00301	2.042	.02
313.2	.00021	.101	.011
313.2	.00046	.223	.011
313.2	.00061	.296	.011
313.2	.0008	.391	.011
313.2	.00098	.477	.011
313.2	.00115	.555	.011
313.2	.00132	.633	.011
313.2	.00151	.725	.011
313.2	.0017	.814	.011
313.2	.00201	.954	.011
313.2	.00242	1.15	.011
323.2	.00023	.075	.014
323.2	.00044	.149	.014
323.2	.0007	.24	.014
323.2	.00098	.334	.014
323.2	.00126	.434	.014
323.2	.00153	.527	.014
323.2	.00188	.639	.014
323.2	.00251	.848	.014
323.2	.00317	1.066	.014
333.2	.00027	.067	.015
333.2	.0006	.144	.015
333.2	.00108	.257	.015
333.2	.00147	.349	.015
333.2	.00196	.465	.015
333.2	.00236	.56	.015
333.2	.00283	.67	.015
333.2	.00332	.788	.015
333.2	.00389	.922	.015
303.2	.00349	2.35	.02
303.2	.0041	2.727	.02
303.2	.00491	3.235	.02
303.2	.00585	3.839	.02
303.2	.00672	4.374	.02
303.2	.00765	4.947	.02
303.2	.0086	5.542	.02
303.2	.00945	6.08	.02
303.2	.01024	6.581	.02
313.2	.00312	1.463	.011
313.2	.00376	1.754	.011
313.2	.00455	2.104	.011
313.2	.00533	2.454	.011
313.2	.00617	2.82	.011
313.2	.00697	3.169	.011
313.2	.00789	3.582	.011
313.2	.00861	3.89	.011
313.2	.00922	4.134	.011
313.2	.0101	4.524	.011
323.2	.00389	1.315	.014
323.2	.00457	1.547	.014
323.2	.0055	1.845	.014
323.2	.00662	2.206	.014
323.2	.0077	2.548	.014
323.2	.00864	2.844	.014
323.2	.0095	3.124	.014
323.2	.01004	3.299	.014
333.2	.00443	1.047	.015
333.2	.00506	1.192	.015
333.2	.00574	1.351	.015
333.2	.00658	1.551	.015
333.2	.00726	1.708	.015
333.2	.00795	1.868	.015
333.2	.00869	2.036	.015
333.2	.00943	2.207	.015
333.2	.01003	2.343	.015

System: ethylene glycol + sulfur dioxide; phases: Liquid, Gas
Property: Molality, mol/kg of sulfur dioxide (Liquid); method: Pressure Drop on Dissolution
Temperature, K	Partial pressure, kPa of sulfur dioxide	Molality, mol/kg of sulfur dioxide	uncertainty
303.2	.00068	.239	.029
303.2	.00131	.453	.03
303.2	.00199	.672	.03
303.2	.00259	.863	.03
303.2	.00335	1.104	.03
303.2	.00395	1.292	.03
303.2	.0046	1.488	.03
303.2	.00532	1.706	.03
303.2	.00595	1.892	.03
303.2	.00676	2.128	.03
303.2	.00761	2.389	.03
303.2	.00836	2.613	.03
303.2	.00925	2.882	.03
303.2	.01012	3.145	.03
313.2	.00041	.093	.015
313.2	.00083	.186	.015
313.2	.00128	.283	.015
313.2	.00175	.389	.015
313.2	.0025	.552	.015
313.2	.00319	.702	.015
313.2	.00396	.865	.015
313.2	.0048	1.043	.015
313.2	.00568	1.23	.015
313.2	.00651	1.403	.015
313.2	.00729	1.574	.015
313.2	.00829	1.78	.015
313.2	.00929	1.986	.015
313.2	.01025	2.186	.015
323.2	.00083	.139	.03
323.2	.0014	.237	.03
323.2	.00203	.339	.03
323.2	.0029	.486	.03
323.2	.00362	.606	.03
323.2	.00448	.746	.03
323.2	.0052	.866	.03
323.2	.00604	1.004	.03
323.2	.00697	1.159	.03
323.2	.00793	1.314	.03
323.2	.00879	1.455	.03
323.2	.0098	1.617	.03
323.2	.01059	1.744	.03
333.2	.00104	.122	.023
333.2	.00163	.193	.023
333.2	.00239	.293	.023
333.2	.00314	.366	.023
333.2	.00373	.451	.023
333.2	.00429	.526	.023
333.2	.00576	.705	.023
333.2	.00634	.784	.023
333.2	.00723	.88	.023
333.2	.00802	.978	.023
333.2	.00892	1.095	.023
333.2	.01025	1.259	.023

System: propylene carbonate + sulfur dioxide; phases: Liquid, Gas
Property: Molality, mol/kg of sulfur dioxide (Liquid); method: Pressure Drop on Dissolution
Temperature, K	Partial pressure, kPa of sulfur dioxide	Molality, mol/kg of sulfur dioxide	uncertainty
303.2	.00037	.201	.034
303.2	.00086	.464	.034
303.2	.00127	.685	.034
303.2	.00177	.94	.034
303.2	.00233	1.214	.034
303.2	.00297	1.562	.034
303.2	.00365	1.921	.034
303.2	.00442	2.345	.035
303.2	.00526	2.802	.035
303.2	.00597	3.186	.035
303.2	.00682	3.633	.035
303.2	.00775	4.123	.035
303.2	.00865	4.59	.035
303.2	.00949	5.076	.035
303.2	.01033	5.547	.035
313.2	.00044	.111	.028
313.2	.00086	.245	.028
313.2	.00137	.428	.028
313.2	.00184	.602	.028
313.2	.0023	.782	.028
313.2	.00274	.948	.028
313.2	.00322	1.132	.028
313.2	.0039	1.386	.028
313.2	.00456	1.636	.028
313.2	.00523	1.893	.028
313.2	.00611	2.23	.028
313.2	.00674	2.475	.028
313.2	.00759	2.805	.028
313.2	.00842	3.131	.028
313.2	.00942	3.524	.029
313.2	.01031	3.876	.029
323.2	.00047	.134	.023
323.2	.00101	.285	.024
323.2	.00154	.436	.024
323.2	.00207	.584	.024
323.2	.00283	.791	.024
323.2	.00347	.972	.024
323.2	.00417	1.17	.024
323.2	.00477	1.333	.024
323.2	.00547	1.528	.024
323.2	.00622	1.731	.024
323.2	.00698	1.939	.024
323.2	.00754	2.096	.024
323.2	.00845	2.347	.024
323.2	.00914	2.538	.024
323.2	.01018	2.827	.024
333.2	.00062	.133	.022
333.2	.00141	.292	.022
333.2	.00241	.501	.022
333.2	.003	.639	.022
333.2	.00366	.782	.022
333.2	.00435	.943	.023
333.2	.00516	1.146	.023
333.2	.00632	1.377	.023
333.2	.00732	1.597	.023
333.2	.00848	1.845	.023
333.2	.00961	2.082	.023
333.2	.01072	2.322	.023

System: 1-methylimidazole + sulfur dioxide; phases: Liquid, Gas
Property: Molality, mol/kg of sulfur dioxide (Liquid); method: Pressure Drop on Dissolution
Temperature, K	Partial pressure, kPa of sulfur dioxide	Molality, mol/kg of sulfur dioxide	uncertainty
303.2	.00002	1.216	.071
303.2	.0001	2.574	.071
303.2	.00023	3.808	.071
303.2	.00041	5.075	.071
303.2	.00065	6.329	.071
303.2	.00096	7.504	.071
303.2	.00143	8.815	.072
303.2	.00196	9.92	.072
303.2	.00266	11.075	.072
303.2	.00348	12.19	.072
303.2	.00468	13.377	.072
303.2	.0058	14.313	.072
303.2	.00683	15.201	.073
303.2	.00808	16.165	.073
303.2	.00937	17.113	.073
303.2	.01055	17.886	.074
313.2	.00005	.673	.056
313.2	.00011	1.202	.056
313.2	.00019	1.751	.056
313.2	.0003	2.355	.056
313.2	.00046	3.123	.056
313.2	.00064	3.847	.056
313.2	.00089	4.709	.056
313.2	.00125	5.751	.056
313.2	.00169	6.731	.056
313.2	.00225	7.78	.056
313.2	.00292	8.824	.056
313.2	.0037	9.787	.056
313.2	.0048	10.917	.057
313.2	.00594	11.9	.057
313.2	.00714	12.881	.057
313.2	.00837	13.753	.057
313.2	.0098	14.649	.057
313.2	.01089	15.31	.058
323.2	.0001	.654	.066
323.2	.00026	1.409	.066
323.2	.00048	2.277	.066
323.2	.00078	3.228	.066
323.2	.0011	4.097	.066
323.2	.0015	4.969	.067
323.2	.00196	5.855	.067
323.2	.00275	7.029	.067
323.2	.00366	8.191	.067
323.2	.00484	9.414	.067
323.2	.00603	10.479	.067
323.2	.00736	11.532	.068
323.2	.00903	12.739	.068
323.2	.01072	13.723	.068
333.2	.00019	.722	.069
333.2	.00038	1.315	.069
333.2	.00065	2.004	.069
333.2	.00103	2.854	.069
333.2	.00152	3.774	.069
333.2	.00208	4.624	.069
333.2	.00277	5.544	.069
333.2	.00388	6.736	.069
333.2	.00519	7.923	.069
333.2	.00665	9.072	.069
333.2	.00817	10.105	.07
333.2	.00978	11.057	.07
333.2	.01072	11.462	.07

System: N-methylpyrrolidone + sulfur dioxide; phases: Liquid, Gas
Property: Molality, mol/kg of sulfur dioxide (Liquid); method: Pressure Drop on Dissolution
Temperature, K	Partial pressure, kPa of sulfur dioxide	Molality, mol/kg of sulfur dioxide	uncertainty
303.2	.00007	.526	.036
303.2	.00014	1.036	.037
303.2	.00023	1.513	.037
303.2	.00041	2.211	.037
303.2	.00057	2.728	.037
303.2	.00097	3.798	.037
303.2	.00138	4.676	.037
303.2	.00221	5.751	.037
303.2	.00306	6.741	.037
303.2	.00391	7.685	.037
303.2	.00497	8.654	.037
303.2	.00607	9.584	.037
303.2	.00718	10.529	.037
303.2	.00837	11.513	.037
303.2	.00945	12.361	.038
303.2	.01057	13.213	.038
313.2	.00008	.231	.032
313.2	.00022	.645	.032
313.2	.00052	1.357	.032
313.2	.00096	2.218	.032
313.2	.0016	3.227	.032
313.2	.00236	4.19	.032
313.2	.00321	5.132	.032
313.2	.00425	6.108	.032
313.2	.0055	7.106	.032
313.2	.0067	7.988	.033
313.2	.00819	9.007	.033
313.2	.0095	10.038	.033
313.2	.01085	10.675	.033
323.2	.00015	.39	.036
323.2	.00038	.863	.036
323.2	.00063	1.342	.036
323.2	.001	1.938	.036
323.2	.00136	2.457	.036
323.2	.00196	3.22	.036
323.2	.00266	3.956	.036
323.2	.00338	4.618	.036
323.2	.00415	5.245	.036
323.2	.00505	5.91	.036
323.2	.00599	6.537	.037
323.2	.007	7.148	.037
323.2	.00831	7.899	.037
323.2	.00953	8.554	.037
323.2	.01072	9.188	.037
333.2	.00029	.367	.04
333.2	.00063	.755	.04
333.2	.00099	1.143	.04
333.2	.00137	1.545	.04
333.2	.00187	2.027	.04
333.2	.00259	2.64	.04
333.2	.00332	3.2	.04
333.2	.00417	3.788	.04
333.2	.00497	4.321	.04
333.2	.00582	4.987	.04
333.2	.00713	5.66	.04
333.2	.00857	6.369	.04
333.2	.01014	7.163	.041
