Measured thermophysical data. Solid Liquid Equilibria, Excess Molar Volumes, and Deviations in the Molar Refractivity for the Binary Systems of Alamine 304-1 + Decane, Dodecane, or Dodecanol
Source: J. Chem. Eng. Data, 2014, 10.1021/je400606c
Compound 1: 1-dodecanamine, N,N-didodecyl-, C36H75N, purity 99%
Compound 2: decane, C10H22, purity 99%
Compound 3: dodecane, C12H26, purity 99%
Compound 4: 1-dodecanol, C12H26O, purity 99%

System: 1-dodecanamine, N,N-didodecyl-; phases: Liquid
Fixed: Pressure, kPa = 101.325
Property: Mass density, kg/m3 (Liquid); method: Vibrating tube method
Temperature, K	Mass density, kg/m3	uncertainty
298.15	819.23	.01

System: 1-dodecanamine, N,N-didodecyl-; phases: Liquid
Fixed: Pressure, kPa = 101.325
Property: Refractive index (Na D-line) (Liquid); method: Standard Abbe refractometry
Temperature, K	Refractive index (Na D-line)	uncertainty
298.15	1.4547	.0001

System: 1-dodecanamine, N,N-didodecyl-; phases: Crystal, Liquid, Air at 1 atmosphere
Property: Normal melting temperature, K (Crystal); method: Visual observation
Normal melting temperature, K	uncertainty
289.2	.02

System: decane; phases: Liquid
Fixed: Pressure, kPa = 101.325
Property: Mass density, kg/m3 (Liquid); method: Vibrating tube method
Temperature, K	Mass density, kg/m3	uncertainty
298.15	726.3	.01

System: decane; phases: Liquid
Fixed: Pressure, kPa = 101.325
Property: Refractive index (Na D-line) (Liquid); method: Standard Abbe refractometry
Temperature, K	Refractive index (Na D-line)	uncertainty
298.15	1.4102	.0001

System: decane; phases: Crystal, Liquid, Air at 1 atmosphere
Property: Normal melting temperature, K (Crystal); method: Visual observation
Normal melting temperature, K	uncertainty
243.45	.02

System: dodecane; phases: Liquid
Fixed: Pressure, kPa = 101.325
Property: Mass density, kg/m3 (Liquid); method: Vibrating tube method
Temperature, K	Mass density, kg/m3	uncertainty
298.15	745.82	.01

System: dodecane; phases: Liquid
Fixed: Pressure, kPa = 101.325
Property: Refractive index (Na D-line) (Liquid); method: Standard Abbe refractometry
Temperature, K	Refractive index (Na D-line)	uncertainty
298.15	1.4195	.0001

System: dodecane; phases: Crystal, Liquid, Air at 1 atmosphere
Property: Normal melting temperature, K (Crystal); method: Visual observation
Normal melting temperature, K	uncertainty
263.55	.02

System: 1-dodecanol; phases: Liquid
Fixed: Pressure, kPa = 101.325
Property: Mass density, kg/m3 (Liquid); method: Vibrating tube method
Temperature, K	Mass density, kg/m3	uncertainty
298.15	830.9	.01

System: 1-dodecanol; phases: Liquid
Fixed: Pressure, kPa = 101.325
Property: Refractive index (Na D-line) (Liquid); method: Standard Abbe refractometry
Temperature, K	Refractive index (Na D-line)	uncertainty
298.15	1.441	

System: 1-dodecanol; phases: Crystal, Liquid, Air at 1 atmosphere
Property: Normal melting temperature, K (Crystal); method: Visual observation
Normal melting temperature, K	uncertainty
296.95	.02

System: 1-dodecanamine, N,N-didodecyl- + decane; phases: Liquid
Fixed: Pressure, kPa = 101
Fixed: Temperature, K = 298.15
Property: Mass density, kg/m3 (Liquid); method: Vibrating tube method
Mole fraction of 1-dodecanamine, N,N-didodecyl-	Mass density, kg/m3	uncertainty
.0499	731.4	.01
.0998	736.1	.01
.2	745.1	.01
.3002	753.9	.01
.3999	762.7	.01
.5	771.9	.01
.6	781.1	.01
.6998	790.6	.01
.7993	800.1	.01
.9	809.7	.01
.9498	814.6	.01

System: 1-dodecanamine, N,N-didodecyl- + decane; phases: Liquid
Fixed: Pressure, kPa = 101
Fixed: Temperature, K = 298.15
Property: Refractive index (Na D-line) (Liquid); method: Standard Abbe refractometry
Mole fraction of 1-dodecanamine, N,N-didodecyl-	Refractive index (Na D-line)	uncertainty
.0499	1.4121	.0001
.0998	1.4141	.0001
.2	1.4182	.0001
.3002	1.4225	.0001
.3999	1.4269	.0001
.5	1.4314	.0001
.6	1.4359	.0001
.6998	1.4405	.0001
.7993	1.4451	.0001
.9	1.4497	.0001
.9498	1.4523	.0001

System: 1-dodecanamine, N,N-didodecyl- + decane; phases: Liquid, Crystal
Fixed: Pressure, kPa = 101
Property: Solid-liquid equilibrium temperature, K (Liquid); method: Visual observation
Mole fraction of 1-dodecanamine, N,N-didodecyl-	Solid-liquid equilibrium temperature, K	uncertainty
0	243.45	.02
.01	243.3	.02
.02	242.75	.02

System: 1-dodecanamine, N,N-didodecyl- + decane; phases: Liquid, Crystal
Fixed: Pressure, kPa = 101
Property: Solid-liquid equilibrium temperature, K (Liquid); method: Visual observation
Mole fraction of 1-dodecanamine, N,N-didodecyl-	Solid-liquid equilibrium temperature, K	uncertainty
.03	243.85	.02
.05	247.15	.02
.1	254.3	.02
.19	260.65	.02
.3	264.5	.02
.4	267.55	.02
.6	272.35	.02
.71	274.2	.02
.8	275.95	.02
.83	276.75	.02
.9001	278.35	.02
.95	280.05	.02
.98	282.65	.02
1	289.2	.02

System: 1-dodecanamine, N,N-didodecyl- + dodecane; phases: Liquid
Fixed: Pressure, kPa = 101
Fixed: Temperature, K = 298.15
Property: Mass density, kg/m3 (Liquid); method: Vibrating tube method
Mole fraction of 1-dodecanamine, N,N-didodecyl-	Mass density, kg/m3	uncertainty
.05	749.1	.01
.0999	752.6	.01
.2	759.6	.01
.3	766.8	.01
.4	774	.01
.5	781.3	.01
.6	788.7	.01
.7	796.3	.01
.8	803.9	.01
.9	811.5	.01
.95	815.4	.01

System: 1-dodecanamine, N,N-didodecyl- + dodecane; phases: Liquid
Fixed: Pressure, kPa = 101
Fixed: Temperature, K = 298.15
Property: Refractive index (Na D-line) (Liquid); method: Standard Abbe refractometry
Mole fraction of 1-dodecanamine, N,N-didodecyl-	Refractive index (Na D-line)	uncertainty
.05	1.4213	.0001
.0999	1.4229	.0001
.2	1.4263	.0001
.3	1.4297	.0001
.4	1.4331	.0001
.5	1.4366	.0001
.6	1.4401	.0001
.7	1.4437	.0001
.8	1.4473	.0001
.9	1.4509	.0001
.95	1.4528	.0001

System: 1-dodecanamine, N,N-didodecyl- + dodecane; phases: Liquid, Crystal
Fixed: Pressure, kPa = 101
Property: Solid-liquid equilibrium temperature, K (Liquid); method: Visual observation
Mole fraction of 1-dodecanamine, N,N-didodecyl-	Solid-liquid equilibrium temperature, K	uncertainty
0	263.55	.02
.05	262.75	.02
.1	261.55	.02
.15	261.2	.02

System: 1-dodecanamine, N,N-didodecyl- + dodecane; phases: Liquid, Crystal
Fixed: Pressure, kPa = 101
Property: Solid-liquid equilibrium temperature, K (Liquid); method: Visual observation
Mole fraction of 1-dodecanamine, N,N-didodecyl-	Solid-liquid equilibrium temperature, K	uncertainty
.3001	267.35	.02
.41	271.45	.02
.5	274.65	.02
.6	277.85	.02
.7	280.65	.02
.8	283.75	.02
.9	286.65	.02
.95	288.35	.02
1	289.2	.02

System: 1-dodecanamine, N,N-didodecyl- + 1-dodecanol; phases: Liquid
Fixed: Pressure, kPa = 101
Fixed: Temperature, K = 298.15
Property: Mass density, kg/m3 (Liquid); method: Vibrating tube method
Mole fraction of 1-dodecanamine, N,N-didodecyl-	Mass density, kg/m3	uncertainty
.0501	829.9	.01
.0999	829.3	.01
.2	828.5	.01
.2999	827.7	.01
.3999	826.9	.01
.5	825.8	.01
.5999	824.6	.01
.7	823.5	.01
.8001	822.3	.01
.9	820.9	.01
.95	820.2	.01

System: 1-dodecanamine, N,N-didodecyl- + 1-dodecanol; phases: Liquid
Fixed: Pressure, kPa = 101
Fixed: Temperature, K = 298.15
Property: Refractive index (Na D-line) (Liquid); method: Standard Abbe refractometry
Mole fraction of 1-dodecanamine, N,N-didodecyl-	Refractive index (Na D-line)	uncertainty
.0501	1.4417	.0001
.0999	1.4425	.0001
.2	1.4441	.0001
.2999	1.4455	.0001
.3999	1.447	.0001
.5	1.4484	.0001
.5999	1.4497	.0001
.7	1.451	.0001
.8001	1.4523	.0001
.9	1.4535	.0001
.95	1.4541	.0001

System: 1-dodecanamine, N,N-didodecyl- + 1-dodecanol; phases: Liquid, Crystal
Fixed: Pressure, kPa = 101
Property: Solid-liquid equilibrium temperature, K (Liquid); method: Visual observation
Mole fraction of 1-dodecanamine, N,N-didodecyl-	Solid-liquid equilibrium temperature, K	uncertainty
0	296.95	.02
.05	295.82	.02
.1	294.62	.02
.2	292.6	.02
.3	290.82	.02
.4	289.35	.02
.5	288.05	.02

System: 1-dodecanamine, N,N-didodecyl- + 1-dodecanol; phases: Liquid, Crystal
Fixed: Pressure, kPa = 101
Property: Solid-liquid equilibrium temperature, K (Liquid); method: Visual observation
Mole fraction of 1-dodecanamine, N,N-didodecyl-	Solid-liquid equilibrium temperature, K	uncertainty
.6	286.85	.02
.7	287.25	.02
.8	287.75	.02
.9	288.24	.02
.95	288.68	.02
1	289.2	.02
