Measured thermophysical data. Density, Speed of Sound, and Viscosity of Monoethanolamine + Water + N-Ethyl-2-pyrrolidone from T = (293.15 to 323.15) K
Source: J. Chem. Eng. Data, 2013, 10.1021/je4005883
Compound 1: 1-ethyl-2-pyrrolidinone, C6H11NO, purity 98%
Compound 2: monoethanolamine, C2H7NO, purity 99%
Compound 3: water, H2O

System: monoethanolamine; phases: Liquid
Fixed: Pressure, kPa = 101.325
Property: Mass density, kg/m3 (Liquid); method: Vibrating tube method
Temperature, K	Mass density, kg/m3	uncertainty
298.15	1011.98	.2

System: monoethanolamine + 1-ethyl-2-pyrrolidinone + water; phases: Liquid
Fixed: Pressure, kPa = 101.325
Property: Mass density, kg/m3 (Liquid); method: Vibrating tube method
Temperature, K	Mass fraction of water	Mass fraction of monoethanolamine	Mass density, kg/m3	uncertainty
293.15	0	.9	1014.01	.2
293.15	0	.8	1011.7	.2
293.15	0	.7	1009.04	.2
303.15	0	.9	1005.95	.2
303.15	0	.8	1003.49	.2
303.15	0	.7	1000.7	.2
313.15	0	.9	997.83	.2
313.15	0	.8	995.23	.2
313.15	0	.7	992.31	.2
323.15	0	.9	989.65	.2
323.15	0	.8	986.93	.2
323.15	0	.7	983.87	.2
293.15	.1	.7	1021.15	.2
293.15	.1	.6	1018.4	.2
303.15	.1	.8	1014.49	.2
303.15	.1	.7	1013.14	.2
303.15	.1	.6	1009.76	.2
313.15	.1	.8	1006.56	.2
313.15	.1	.7	1005.04	.2
313.15	.1	.6	1001.3	.2
293.15	.1	.8	1022.37	.2
323.15	.1	.8	998.55	.2
323.15	.1	.7	996.84	.2
323.15	.1	.6	992.82	.2
293.15	.2	.5	1024.82	.2
303.15	.2	.7	1019.54	.2
303.15	.2	.6	1018.71	.2
303.15	.2	.5	1016.05	.2
293.15	.2	.6	1026.54	.2
313.15	.2	.7	1011.3	.2
313.15	.2	.6	1010.76	.2
293.15	.2	.7	1027.38	.2
313.15	.2	.5	1007.83	.2
323.15	.2	.7	1002.81	.2
323.15	.2	.6	1002.67	.2
323.15	.2	.5	998.85	.2
303.15	.3	.5	1019.64	.2
293.15	.3	.5	1028.46	.2
303.15	.3	.4	1020.08	.2
313.15	.3	.6	1013.38	.2
293.15	.3	.6	1029.08	.2
313.15	.3	.5	1012.62	.2
313.15	.3	.4	1012	.2
323.15	.3	.6	1005.32	.2
303.15	.3	.6	1021.41	.2
323.15	.3	.5	1005.42	.2
323.15	.3	.4	1003.76	.2
293.15	.3	.4	1028	.2
303.15	.4	.3	1019.91	.2
293.15	.4	.5	1027.8	.2
313.15	.4	.5	1013.24	.2
313.15	.4	.4	1012.18	.2
303.15	.4	.4	1019.66	.2
313.15	.4	.3	1012.08	.2
303.15	.4	.5	1020.76	.2
323.15	.4	.5	1004.87	.2
323.15	.4	.4	1005.42	.2
293.15	.4	.3	1027.54	.2
323.15	.4	.3	1004.05	.2
293.15	.4	.4	1027.8	.2
303.15	.5	.3	1017.73	.2
313.15	.5	.3	1010.76	.2
303.15	.5	.4	1017.83	.2
313.15	.5	.2	1003.1	.2
303.15	.5	.2	1014.29	.2
323.15	.5	.4	1004.43	.2
293.15	.5	.2	1023.88	.2
323.15	.5	.3	1003.51	.2
293.15	.5	.4	1024.11	.2
293.15	.5	.3	1024.43	.2
323.15	.5	.2	989.43	.2
313.15	.5	.4	1011.28	.2
293.15	.6	.2	1019.41	.2
313.15	.6	.1	997.42	.2
303.15	.6	.2	1013.34	.2
293.15	.6	.3	1018.98	.2
293.15	.6	.1	1018.88	.2
323.15	.6	.3	1001.12	.2
313.15	.6	.2	1006.78	.2
323.15	.6	.2	999.75	.2
313.15	.6	.3	1007.45	.2
323.15	.6	.1	982.8	.2
303.15	.6	.3	1013.4	.2
303.15	.6	.1	1009.31	.2
313.15	.7	0	1001.9	.2
313.15	.7	.1	1002.69	.2
293.15	.7	.2	1013.08	.2
323.15	.7	.1	996.47	.2
293.15	.7	0	1013.82	.2
303.15	.7	.2	1008.28	.2
313.15	.7	.2	1002.98	.2
323.15	.7	0	995.12	.2
303.15	.7	0	1008.12	.2
303.15	.7	.1	1008.44	.2
323.15	.7	.2	997.2	.2
293.15	.7	.1	1013.69	.2
303.15	.8	.1	1003.37	.2
313.15	.8	0	998.11	.2
293.15	.8	0	1007.67	.2
323.15	.8	0	992.41	.2
323.15	.8	.1	993.4	.2
293.15	.8	.1	1007.41	.2
313.15	.8	.1	998.68	.2
303.15	.8	0	1003.22	.2
303.15	.9	0	998.33	.2
323.15	.9	0	989.74	.2
313.15	.9	0	994.6	.2
293.15	.9	0	1002.08	.2

System: monoethanolamine + 1-ethyl-2-pyrrolidinone + water; phases: Liquid
Fixed: Pressure, kPa = 101.325
Property: Speed of sound, m/s (Liquid); method: Pulse-echo method
Temperature, K	Mass fraction of water	Mass fraction of monoethanolamine	Speed of sound, m/s	uncertainty
293.15	.9	0	1555.7	1.2
293.15	.8	.1	1617.3	1.2
293.15	.7	.2	1676.5	1.2
293.15	.6	.3	1731.2	1.2
293.15	.5	.4	1772.4	1.2
293.15	.4	.5	1795.6	1.2
293.15	.3	.6	1798.4	1.2
293.15	.2	.7	1784.7	1.2
293.15	.1	.8	1748.7	1.2
293.15	0	.9	1706.9	1.2
303.15	.9	0	1568.9	1.2
303.15	.8	.1	1621.1	1.2
303.15	.7	.2	1671.1	1.2
303.15	.6	.3	1717.2	1.2
303.15	.5	.4	1751.6	1.2
303.15	.4	.5	1770.3	1.2
303.15	.3	.6	1770.3	1.2
303.15	.2	.7	1754.9	1.2
303.15	.1	.8	1717.3	1.2
303.15	0	.9	1674	1.2
313.15	.9	0	1576.8	1.2
313.15	.8	.1	1621	1.2
313.15	.7	.2	1663.3	1.2
313.15	.6	.3	1701.8	1.2
313.15	.5	.4	1729.8	1.2
313.15	.4	.5	1744.1	1.2
313.15	.3	.6	1741	1.2
313.15	.2	.7	1722.8	1.2
313.15	.1	.8	1686.2	1.2
313.15	0	.9	1641.2	1.2
323.15	.9	0	1580.3	1.2
323.15	.8	.1	1617	1.2
323.15	.7	.2	1652.6	1.2
323.15	.6	.3	1684.4	1.2
323.15	.5	.4	1707.1	1.2
323.15	.4	.5	1717.1	1.2
323.15	.3	.6	1711.5	1.2
323.15	.2	.7	1691.2	1.2
323.15	.1	.8	1654.5	1.2
323.15	0	.9	1608	1.2
293.15	.8	0	1620	1.2
293.15	.7	.1	1677.1	1.2
293.15	.6	.2	1726.3	1.2
293.15	.5	.3	1763.8	1.2
293.15	.4	.4	1786.2	1.2
293.15	.3	.5	1787.6	1.2
293.15	.2	.6	1760.3	1.2
293.15	.1	.7	1727.4	1.2
293.15	0	.8	1679.7	1.2
303.15	.8	0	1620	1.2
303.15	.7	.1	1667.5	1.2
303.15	.6	.2	1708.9	1.2
303.15	.5	.3	1740.1	1.2
303.15	.4	.4	1757.8	1.2
303.15	.3	.5	1755.8	1.2
303.15	.2	.6	1728.8	1.2
303.15	.1	.7	1695.2	1.2
303.15	0	.8	1645.9	1.2
313.15	.8	0	1616.3	1.2
313.15	.7	.1	1655.7	1.2
313.15	.6	.2	1690.3	1.2
313.15	.5	.3	1715.3	1.2
313.15	.4	.4	1727.2	1.2
313.15	.3	.5	1723.2	1.2
313.15	.2	.6	1697.1	1.2
313.15	.1	.7	1662.9	1.2
313.15	0	.8	1611.7	1.2
323.15	.8	0	1608.9	1.2
323.15	.7	.1	1641.4	1.2
323.15	.6	.2	1669.8	1.2
323.15	.5	.3	1689.7	1.2
323.15	.4	.4	1697.4	1.2
323.15	.3	.5	1690.1	1.2
323.15	.2	.6	1665.1	1.2
323.15	.1	.7	1630.1	1.2
323.15	0	.8	1578.2	1.2
293.15	.7	0	1671.7	1.2
293.15	.6	.1	1720.5	1.2
293.15	.5	.2	1753.2	1.2
293.15	.4	.3	1769.3	1.2
293.15	.3	.4	1765	1.2
293.15	.2	.5	1739.9	1.2
293.15	.1	.6	1701.4	1.2
293.15	0	.7	1653.3	1.2
303.15	.7	0	1658.9	1.2
303.15	.6	.1	1701	1.2
303.15	.5	.2	1726.9	1.2
303.15	.4	.3	1739	1.2
303.15	.3	.4	1732.8	1.2
303.15	.2	.5	1706.4	1.2
303.15	.1	.6	1666.6	1.2
303.15	0	.7	1618.6	1.2
313.15	.7	0	1644	1.2
313.15	.6	.1	1677.6	1.2
313.15	.5	.2	1698.9	1.2
313.15	.4	.3	1707.8	1.2
313.15	.3	.4	1700.3	1.2
313.15	.2	.5	1673.3	1.2
313.15	.1	.6	1632.7	1.2
313.15	0	.7	1584	1.2
323.15	.7	0	1627.1	1.2
323.15	.6	.1	1653.2	1.2
323.15	.5	.2	1670.7	1.2
323.15	.4	.3	1676.6	1.2
323.15	.3	.4	1666.9	1.2
323.15	.2	.5	1639.6	1.2
323.15	.1	.6	1598.5	1.2
323.15	0	.7	1549.5	1.2

System: monoethanolamine + 1-ethyl-2-pyrrolidinone + water; phases: Liquid
Fixed: Pressure, kPa = 101.325
Property: Viscosity, Pa*s (Liquid); method: Capillary tube (Ostwald; Ubbelohde) method
Temperature, K	Mass fraction of water	Mass fraction of monoethanolamine	Viscosity, Pa*s	uncertainty
323.15	.9	0	.00073	.0000026
313.15	.9	0	.000891	.0000026
323.15	.8	.1	.000954	.0000026
323.15	.8	0	.000942	.0000026
303.15	.9	0	.001123	.0000026
313.15	.8	.1	.001184	.0000026
313.15	.8	0	.001176	.0000026
323.15	.7	0	.001196	.0000026
323.15	.7	.2	.001263	.0000026
323.15	.7	.1	.001239	.0000026
293.15	.9	0	.001474	.0000026
303.15	.8	.1	.001533	.0000026
313.15	.7	0	.001522	.0000026
313.15	.7	.1	.001583	.0000026
323.15	.6	.1	.001539	.0000026
323.15	.6	.2	.001655	.0000026
313.15	.7	.2	.00161	.0000026
303.15	.8	0	.00152	.0000026
323.15	.6	.3	.001735	.0000026
293.15	.8	.1	.002047	.0000026
313.15	.6	.1	.002031	.0000026
293.15	.8	0	.002068	.0000026
323.15	.5	.2	.002057	.0000026
303.15	.7	.1	.002112	.0000026
303.15	.7	.2	.002119	.0000026
313.15	.6	.2	.002168	.0000026
303.15	.7	0	.00203	.0000026
323.15	.5	.3	.002223	.0000026
313.15	.6	.3	.002258	.0000026
323.15	.5	.4	.002353	.0000026
303.15	.6	.1	.002812	.0000026
313.15	.5	.2	.002788	.0000026
323.15	.4	.3	.002791	.0000026
293.15	.7	0	.002857	.0000026
293.15	.7	.1	.002938	.0000026
293.15	.7	.2	.002938	.0000026
303.15	.6	.2	.002984	.0000026
313.15	.5	.3	.002987	.0000026
303.15	.6	.3	.003077	.0000026
313.15	.5	.4	.003151	.0000026
323.15	.4	.5	.003226	.0000026
323.15	.3	.4	.003612	.0000026
313.15	.4	.3	.003866	.0000026
303.15	.5	.2	.003939	.0000026
323.15	.3	.5	.003984	.0000026
293.15	.6	.1	.004063	.0000026
303.15	.5	.3	.004206	.0000026
313.15	.4	.4	.004201	.0000026
293.15	.6	.2	.004294	.0000026
323.15	0	.7	.004173	.0000026
323.15	.3	.6	.004338	.0000026
313.15	.4	.5	.004437	.0000026
293.15	.6	.3	.004413	.0000026
303.15	.5	.4	.004432	.0000026
323.15	.2	.5	.004351	.0000026
323.15	.1	.6	.004577	.0000026
323.15	.2	.6	.004952	.0000026
323.15	0	.8	.005017	.0000026
313.15	.3	.4	.005089	.0000026
323.15	.2	.7	.005414	.0000026
323.15	.1	.7	.005382	.0000026
313.15	.3	.5	.005647	.0000026
303.15	.4	.3	.005644	.0000026
313.15	0	.7	.005666	.0000026
293.15	.5	.2	.005942	.0000026
323.15	0	.9	.005863	.0000026
313.15	.3	.6	.006148	.0000026
323.15	.1	.8	.006105	.0000026
303.15	.4	.4	.006141	.0000026
293.15	.5	.3	.006283	.0000026
313.15	.2	.5	.006179	.0000026
303.15	.4	.5	.006537	.0000026
293.15	.5	.4	.006654	.0000026
313.15	.1	.6	.006465	.0000026
313.15	.2	.6	.007082	.0000026
313.15	0	.8	.006967	.0000026
303.15	.3	.4	.007493	.0000026
313.15	.2	.7	.007829	.0000026
313.15	.1	.7	.00773	.0000026
303.15	0	.7	.008104	.0000026
303.15	.3	.5	.008492	.0000026
313.15	0	.9	.00835	.0000026
293.15	.4	.3	.008682	.0000026
313.15	.1	.8	.008835	.0000026
303.15	.3	.6	.009241	.0000026
303.15	.2	.5	.009181	.0000026
293.15	.4	.4	.009436	.0000026
303.15	.1	.6	.00959	.0000026
293.15	.4	.5	.010025	.0000026
303.15	0	.8	.010269	.0000026
303.15	.2	.6	.010737	.0000026
303.15	.1	.7	.011525	.0000026
293.15	.3	.4	.011595	.0000026
303.15	.2	.7	.011928	.0000026
303.15	0	.9	.012483	.0000026
293.15	0	.7	.01225	.0000026
293.15	.3	.5	.013433	.0000026
303.15	.1	.8	.013525	.0000026
293.15	.3	.6	.014786	.0000026
293.15	.2	.5	.014587	.0000026
293.15	.1	.6	.01503	.0000026
293.15	0	.8	.016011	.0000026
293.15	.2	.6	.017212	.0000026
293.15	.1	.7	.01863	.0000026
293.15	.2	.7	.019259	.0000026
293.15	0	.9	.01995	.0000026
293.15	.1	.8	.021866	.0000026
323.15	.4	.4	.003028	.0000026

System: monoethanolamine + 1-ethyl-2-pyrrolidinone; phases: Liquid
Property: Mass density, kg/m3 (Liquid); method: Vibrating tube method
Temperature, K	Mass fraction of monoethanolamine	Pressure, kPa	Mass density, kg/m3	uncertainty
293.15	.9	101.325	1014.01	.2
293.15	.8	101.325	1011.7	.2
293.15	.7	101.325	1009.04	.2
303.15	.9	101.325	1005.95	.2
303.15	.8	101.325	1003.49	.2
303.15	.7	101.325	1000.7	.2
313.15	.9	101.325	997.83	.2
313.15	.8	101.325	995.23	.2
313.15	.7	101.325	992.31	.2
323.15	.9	101.325	989.65	.2
323.15	.8	101.325	986.93	.2
323.15	.7	101.325	983.87	.2

System: monoethanolamine + 1-ethyl-2-pyrrolidinone; phases: Liquid
Property: Speed of sound, m/s (Liquid); method: Pulse-echo method
Temperature, K	Mass fraction of monoethanolamine	Pressure, kPa	Speed of sound, m/s	uncertainty
293.15	.9	101.325	1706.9	1.2
303.15	.9	101.325	1674	1.2
313.15	.9	101.325	1641.2	1.2
323.15	.9	101.325	1608	1.2
293.15	.8	101.325	1679.7	1.2
303.15	.8	101.325	1645.9	1.2
313.15	.8	101.325	1611.7	1.2
323.15	.8	101.325	1578.2	1.2
293.15	.7	101.325	1653.3	1.2
303.15	.7	101.325	1618.6	1.2
313.15	.7	101.325	1584	1.2
323.15	.7	101.325	1549.5	1.2

System: monoethanolamine + 1-ethyl-2-pyrrolidinone; phases: Liquid
Property: Viscosity, Pa*s (Liquid); method: Capillary tube (Ostwald; Ubbelohde) method
Temperature, K	Mass fraction of monoethanolamine	Pressure, kPa	Viscosity, Pa*s	uncertainty
323.15	.7	101.325	.004173	.0000026
323.15	.8	101.325	.005017	.0000026
313.15	.7	101.325	.005666	.0000026
323.15	.9	101.325	.005863	.0000026
313.15	.8	101.325	.006967	.0000026
303.15	.7	101.325	.008104	.0000026
313.15	.9	101.325	.00835	.0000026
303.15	.8	101.325	.010269	.0000026
303.15	.9	101.325	.012483	.0000026
293.15	.7	101.325	.01225	.0000026
293.15	.8	101.325	.016011	.0000026
293.15	.9	101.325	.01995	.0000026

System: 1-ethyl-2-pyrrolidinone + water; phases: Liquid
Property: Mass density, kg/m3 (Liquid); method: Vibrating tube method
Temperature, K	Mass fraction of water	Pressure, kPa	Mass density, kg/m3	uncertainty
313.15	.7	101.325	1001.9	.2
293.15	.7	101.325	1013.82	.2
323.15	.7	101.325	995.12	.2
303.15	.7	101.325	1008.12	.2
313.15	.8	101.325	998.11	.2
293.15	.8	101.325	1007.67	.2
323.15	.8	101.325	992.41	.2
303.15	.8	101.325	1003.22	.2
303.15	.9	101.325	998.33	.2
323.15	.9	101.325	989.74	.2
313.15	.9	101.325	994.6	.2
293.15	.9	101.325	1002.08	.2

System: 1-ethyl-2-pyrrolidinone + water; phases: Liquid
Property: Speed of sound, m/s (Liquid); method: Pulse-echo method
Temperature, K	Mass fraction of water	Pressure, kPa	Speed of sound, m/s	uncertainty
293.15	.9	101.325	1555.7	1.2
303.15	.9	101.325	1568.9	1.2
313.15	.9	101.325	1576.8	1.2
323.15	.9	101.325	1580.3	1.2
293.15	.8	101.325	1620	1.2
303.15	.8	101.325	1620	1.2
313.15	.8	101.325	1616.3	1.2
323.15	.8	101.325	1608.9	1.2
293.15	.7	101.325	1671.7	1.2
303.15	.7	101.325	1658.9	1.2
313.15	.7	101.325	1644	1.2
323.15	.7	101.325	1627.1	1.2

System: 1-ethyl-2-pyrrolidinone + water; phases: Liquid
Property: Viscosity, Pa*s (Liquid); method: Capillary tube (Ostwald; Ubbelohde) method
Temperature, K	Mass fraction of water	Pressure, kPa	Viscosity, Pa*s	uncertainty
323.15	.9	101.325	.00073	.0000026
313.15	.9	101.325	.000891	.0000026
323.15	.8	101.325	.000942	.0000026
303.15	.9	101.325	.001123	.0000026
313.15	.8	101.325	.001176	.0000026
323.15	.7	101.325	.001196	.0000026
293.15	.9	101.325	.001474	.0000026
313.15	.7	101.325	.001522	.0000026
303.15	.8	101.325	.00152	.0000026
293.15	.8	101.325	.002068	.0000026
303.15	.7	101.325	.00203	.0000026
293.15	.7	101.325	.002857	.0000026
