Measured thermophysical data. Solid Liquid Equilibria for Six Binary Mixtures of Pentanedioic Acid, Octanedioic Acid, 3-Methylheptanedioic Acid, 2,2-Dimethylbutanedioic Acid, and 2,3-Dimethylbutanedioic Acid
Source: J. Chem. Eng. Data, 2013, 10.1021/je400686f
Compound 1: pentanedioic acid, C5H8O4, purity 99%
Compound 2: 2,2-dimethylbutanedioic acid, C6H10O4, purity 99%
Compound 3: 1,4-butanedioic acid, 2,3-dimethyl-, C6H10O4, purity 99%
Compound 4: octanedioic acid, C8H14O4, purity 99%
Compound 5: 3-methylheptanedioic acid, C8H14O4, purity 99%

System: pentanedioic acid; phases: Crystal, Liquid, Air at 1 atmosphere
Property: Molar enthalpy of transition or fusion, kJ/mol (Crystal); method: DSC/DTA
Molar enthalpy of transition or fusion, kJ/mol	uncertainty
21.53	.13

System: pentanedioic acid; phases: Crystal, Liquid, Air at 1 atmosphere
Property: Normal melting temperature, K (Crystal); method: DSC/DTA
Normal melting temperature, K	uncertainty
369.13	1

System: 2,2-dimethylbutanedioic acid; phases: Crystal, Liquid, Air at 1 atmosphere
Property: Molar enthalpy of transition or fusion, kJ/mol (Crystal); method: DSC/DTA
Molar enthalpy of transition or fusion, kJ/mol	uncertainty
38.11	.07

System: 2,2-dimethylbutanedioic acid; phases: Crystal, Liquid, Air at 1 atmosphere
Property: Normal melting temperature, K (Crystal); method: DSC/DTA
Normal melting temperature, K	uncertainty
412.95	1

System: 1,4-butanedioic acid, 2,3-dimethyl-; phases: Crystal, Liquid, Air at 1 atmosphere
Property: Molar enthalpy of transition or fusion, kJ/mol (Crystal); method: DSC/DTA
Molar enthalpy of transition or fusion, kJ/mol	uncertainty
16.9	.21

System: 1,4-butanedioic acid, 2,3-dimethyl-; phases: Crystal, Liquid, Air at 1 atmosphere
Property: Normal melting temperature, K (Crystal); method: DSC/DTA
Normal melting temperature, K	uncertainty
392.48	1

System: octanedioic acid; phases: Crystal, Liquid, Air at 1 atmosphere
Property: Molar enthalpy of transition or fusion, kJ/mol (Crystal); method: DSC/DTA
Molar enthalpy of transition or fusion, kJ/mol	uncertainty
30.52	.5

System: octanedioic acid; phases: Crystal, Liquid, Air at 1 atmosphere
Property: Normal melting temperature, K (Crystal); method: DSC/DTA
Normal melting temperature, K	uncertainty
414.44	1

System: 3-methylheptanedioic acid; phases: Crystal, Liquid, Air at 1 atmosphere
Property: Molar enthalpy of transition or fusion, kJ/mol (Crystal); method: DSC/DTA
Molar enthalpy of transition or fusion, kJ/mol	uncertainty
28.98	.04

System: 3-methylheptanedioic acid; phases: Crystal, Liquid, Air at 1 atmosphere
Property: Normal melting temperature, K (Crystal); method: DSC/DTA
Normal melting temperature, K	uncertainty
358.61	1

System: pentanedioic acid + 3-methylheptanedioic acid; phases: Liquid, Crystal, Crystal, Air at 1 atmosphere
Fixed: Pressure, kPa = 101.325
Property: Eutectic temperature, K (Liquid); method: DSC/DTA
Eutectic temperature, K	uncertainty
328.95	1

System: pentanedioic acid + 3-methylheptanedioic acid; phases: Liquid, Crystal, Crystal, Air at 1 atmosphere
Fixed: Pressure, kPa = 101.325
Property: Eutectic composition: mole fraction of pentanedioic acid (Liquid); method: Derived from phase diagram analysis
Eutectic composition: mole fraction of pentanedioic acid	uncertainty
.504	

System: pentanedioic acid + 3-methylheptanedioic acid; phases: Liquid, Crystal
Fixed: Pressure, kPa = 101
Property: Solid-liquid equilibrium temperature, K (Liquid); method: DSC/DTA
Mole fraction of pentanedioic acid	Solid-liquid equilibrium temperature, K	uncertainty
0	358.61	1
.0495	356.78	1
.0986	354.58	1
.1505	351.39	1
.2057	348.91	1
.2536	346.99	1
.3031	344.61	1
.3527	340.6	1

System: pentanedioic acid + 3-methylheptanedioic acid; phases: Liquid, Crystal
Fixed: Pressure, kPa = 101
Property: Solid-liquid equilibrium temperature, K (Liquid); method: DSC/DTA
Mole fraction of pentanedioic acid	Solid-liquid equilibrium temperature, K	uncertainty
.6474	343.69	1
.6981	347.99	1
.7464	351.64	1
.7953	356.39	1
.8554	358.78	1
.8995	362.15	1
.9443	364.56	1
1	369.13	1

System: pentanedioic acid + 2,2-dimethylbutanedioic acid; phases: Liquid, Crystal, Crystal, Air at 1 atmosphere
Fixed: Pressure, kPa = 101.325
Property: Eutectic temperature, K (Liquid); method: DSC/DTA
Eutectic temperature, K	uncertainty
351.81	1

System: pentanedioic acid + 2,2-dimethylbutanedioic acid; phases: Liquid, Crystal, Crystal, Air at 1 atmosphere
Fixed: Pressure, kPa = 101.325
Property: Eutectic composition: mole fraction of pentanedioic acid (Liquid); method: Derived from phase diagram analysis
Eutectic composition: mole fraction of pentanedioic acid	uncertainty
.741	

System: pentanedioic acid + 2,2-dimethylbutanedioic acid; phases: Liquid, Crystal
Fixed: Pressure, kPa = 101
Property: Solid-liquid equilibrium temperature, K (Liquid); method: DSC/DTA
Mole fraction of pentanedioic acid	Solid-liquid equilibrium temperature, K	uncertainty
0	412.95	1
.0417	408.03	1
.0986	404.3	1
.1491	402.03	1
.2011	399.24	1
.2536	396.58	1
.3019	393.01	1
.3518	390.44	1
.4012	386.21	1
.4495	383.5	1
.5013	379.27	1
.5508	375.28	1
.5988	369.58	1
.6474	362.87	1
.6994	360.65	1

System: pentanedioic acid + 2,2-dimethylbutanedioic acid; phases: Liquid, Crystal
Fixed: Pressure, kPa = 101
Property: Solid-liquid equilibrium temperature, K (Liquid); method: DSC/DTA
Mole fraction of pentanedioic acid	Solid-liquid equilibrium temperature, K	uncertainty
.8505	359.35	1
.8995	362.02	1
.9519	365.34	1
1	369.13	1

System: pentanedioic acid + 1,4-butanedioic acid, 2,3-dimethyl-; phases: Liquid, Crystal, Crystal, Air at 1 atmosphere
Fixed: Pressure, kPa = 101.325
Property: Eutectic temperature, K (Liquid); method: DSC/DTA
Eutectic temperature, K	uncertainty
336.36	1

System: pentanedioic acid + 1,4-butanedioic acid, 2,3-dimethyl-; phases: Liquid, Crystal, Crystal, Air at 1 atmosphere
Fixed: Pressure, kPa = 101.325
Property: Eutectic composition: mole fraction of pentanedioic acid (Liquid); method: Derived from phase diagram analysis
Eutectic composition: mole fraction of pentanedioic acid	uncertainty
.485	

System: pentanedioic acid + 1,4-butanedioic acid, 2,3-dimethyl-; phases: Liquid, Crystal
Fixed: Pressure, kPa = 101
Property: Solid-liquid equilibrium temperature, K (Liquid); method: DSC/DTA
Mole fraction of pentanedioic acid	Solid-liquid equilibrium temperature, K	uncertainty
0	392.48	1
.0554	385.78	1
.1016	381.81	1
.1456	378.35	1
.2039	374.6	1
.2451	366.84	1
.3082	358.14	1

System: pentanedioic acid + 1,4-butanedioic acid, 2,3-dimethyl-; phases: Liquid, Crystal
Fixed: Pressure, kPa = 101
Property: Solid-liquid equilibrium temperature, K (Liquid); method: DSC/DTA
Mole fraction of pentanedioic acid	Solid-liquid equilibrium temperature, K	uncertainty
.5952	346.85	1
.6514	349.94	1
.6975	351.45	1
.7528	352.85	1
.7992	356.63	1
.8484	358.98	1
.8947	361.63	1
.9488	365.6	1
1	369.13	1

System: octanedioic acid + 3-methylheptanedioic acid; phases: Liquid, Crystal, Crystal, Air at 1 atmosphere
Fixed: Pressure, kPa = 101.325
Property: Eutectic temperature, K (Liquid); method: DSC/DTA
Eutectic temperature, K	uncertainty
356.42	1

System: octanedioic acid + 3-methylheptanedioic acid; phases: Liquid, Crystal, Crystal, Air at 1 atmosphere
Fixed: Pressure, kPa = 101.325
Property: Eutectic composition: mole fraction of octanedioic acid (Liquid); method: Derived from phase diagram analysis
Eutectic composition: mole fraction of octanedioic acid	uncertainty
.136	

System: octanedioic acid + 3-methylheptanedioic acid; phases: Liquid, Crystal
Fixed: Pressure, kPa = 101
Property: Solid-liquid equilibrium temperature, K (Liquid); method: DSC/DTA
Mole fraction of octanedioic acid	Solid-liquid equilibrium temperature, K	uncertainty
0	358.61	1
.0211	357.54	1
.0488	356.26	1
.0809	354.89	1

System: octanedioic acid + 3-methylheptanedioic acid; phases: Liquid, Crystal
Fixed: Pressure, kPa = 101
Property: Solid-liquid equilibrium temperature, K (Liquid); method: DSC/DTA
Mole fraction of octanedioic acid	Solid-liquid equilibrium temperature, K	uncertainty
.2004	361.96	1
.2496	365.86	1
.2986	369.05	1
.3491	373.92	1
.4	380.96	1
.4488	384.27	1
.5001	388	1
.5495	390.78	1
.5996	393.47	1
.6512	395.2	1
.6987	397.65	1
.7511	400.41	1
.801	404.74	1
.8513	406.75	1
.901	409.16	1
.9497	411.65	1
1	414.44	1

System: octanedioic acid + 2,2-dimethylbutanedioic acid; phases: Liquid, Crystal, Crystal, Air at 1 atmosphere
Fixed: Pressure, kPa = 101.325
Property: Eutectic temperature, K (Liquid); method: DSC/DTA
Eutectic temperature, K	uncertainty
379.1	1

System: octanedioic acid + 2,2-dimethylbutanedioic acid; phases: Liquid, Crystal, Crystal, Air at 1 atmosphere
Fixed: Pressure, kPa = 101.325
Property: Eutectic composition: mole fraction of octanedioic acid (Liquid); method: Derived from phase diagram analysis
Eutectic composition: mole fraction of octanedioic acid	uncertainty
.465	

System: octanedioic acid + 2,2-dimethylbutanedioic acid; phases: Liquid, Crystal
Fixed: Pressure, kPa = 101
Property: Solid-liquid equilibrium temperature, K (Liquid); method: DSC/DTA
Mole fraction of octanedioic acid	Solid-liquid equilibrium temperature, K	uncertainty
0	412.95	1
.0528	407.22	1
.1005	405.06	1
.1533	401.62	1
.1986	397.81	1
.2499	395.2	1
.2986	392.95	1
.3473	388.8	1

System: octanedioic acid + 2,2-dimethylbutanedioic acid; phases: Liquid, Crystal
Fixed: Pressure, kPa = 101
Property: Solid-liquid equilibrium temperature, K (Liquid); method: DSC/DTA
Mole fraction of octanedioic acid	Solid-liquid equilibrium temperature, K	uncertainty
.6003	393.84	1
.6512	396.19	1
.6987	397.77	1
.7527	400.54	1
.8005	401.09	1
.8488	405.69	1
.8977	409.28	1
.9526	413.48	1
1	414.44	1

System: octanedioic acid + 1,4-butanedioic acid, 2,3-dimethyl-; phases: Liquid, Crystal, Crystal, Air at 1 atmosphere
Fixed: Pressure, kPa = 101.325
Property: Eutectic temperature, K (Liquid); method: DSC/DTA
Eutectic temperature, K	uncertainty
371.38	1

System: octanedioic acid + 1,4-butanedioic acid, 2,3-dimethyl-; phases: Liquid, Crystal, Crystal, Air at 1 atmosphere
Fixed: Pressure, kPa = 101.325
Property: Eutectic composition: mole fraction of octanedioic acid (Liquid); method: Derived from phase diagram analysis
Eutectic composition: mole fraction of octanedioic acid	uncertainty
.245	

System: octanedioic acid + 1,4-butanedioic acid, 2,3-dimethyl-; phases: Liquid, Crystal
Fixed: Pressure, kPa = 101
Property: Solid-liquid equilibrium temperature, K (Liquid); method: DSC/DTA
Mole fraction of octanedioic acid	Solid-liquid equilibrium temperature, K	uncertainty
0	392.48	1
.0508	384.96	1
.0985	380.85	1
.1529	377.37	1

System: octanedioic acid + 1,4-butanedioic acid, 2,3-dimethyl-; phases: Liquid, Crystal
Fixed: Pressure, kPa = 101
Property: Solid-liquid equilibrium temperature, K (Liquid); method: DSC/DTA
Mole fraction of octanedioic acid	Solid-liquid equilibrium temperature, K	uncertainty
.3002	375.43	1
.3467	381.91	1
.3997	384.26	1
.45	384.93	1
.5012	388.92	1
.5505	389.47	1
.602	393.79	1
.6521	394.71	1
.7007	397.41	1
.749	402.36	1
.7992	403.86	1
.8464	405.65	1
.9003	409.05	1
.9499	411.38	1
1	414.44	1
