Measured thermophysical data. Heat Capacity and Thermodynamic Property Studies of Diethyl Acetamidomalonate (C9H15NO5)
Source: J. Chem. Eng. Data, 2013, 10.1021/je400159e
Compound 1: diethyl 2-acetamidomalonate, C9H15NO5, purity 99%

System: diethyl 2-acetamidomalonate; phases: Crystal, Liquid, Gas
Property: Triple point temperature, K (Crystal); method: Adiabatic calorimetry
Triple point temperature, K	uncertainty
368.72	.1

System: diethyl 2-acetamidomalonate; phases: Crystal, Liquid, Gas
Property: Molar enthalpy of transition or fusion, kJ/mol (Crystal); method: Adiabatic calorimetry
Molar enthalpy of transition or fusion, kJ/mol	uncertainty
34.3	.1

System: diethyl 2-acetamidomalonate; phases: Crystal
Fixed: Pressure, kPa = 101.325
Property: Molar heat capacity at constant pressure, J/K/mol (Crystal); method: Vacuum adiabatic calorimetry
Temperature, K	Molar heat capacity at constant pressure, J/K/mol	uncertainty
78.24	110.9	.3327
80.92	118.8	.3564
84.07	125.4	.3762
87.1	128.6	.3858
90.03	132.3	.3969
92.96	137.3	.4119
95.86	140.8	.4224
98.72	143.3	.4299
102.57	147.5	.4425
106.44	151.4	.4542
109.33	154.8	.4644
112.24	157.6	.4728
115.17	161.2	.4836
118.1	164.5	.4935
121.02	167.2	.5016
123.94	169.6	.5088
126.84	172.1	.5163
129.74	174.4	.5232
132.64	176.4	.5292
135.54	179.1	.5373
138.43	181.8	.5454
141.33	184	.552
144.22	186.7	.5601
147.11	188.2	.5646
149.99	190.2	.5706
153.39	192.9	.5787
157.07	195.6	.5868
160.22	198.3	.5949
163.12	200.2	.6006
166.04	202.4	.6072
168.95	204.2	.6126
171.83	206.6	.6198
174.74	208.8	.6264
177.68	211	.633
180.6	213.6	.6408
183.5	216.3	.6489
186.43	218.3	.6549
189.39	219.7	.6591
192.32	222.4	.6672
195.24	225	.675
198.14	227.4	.6822
201.06	229.4	.6882
204.69	233	.699
208.24	235.4	.7062
211.12	237.9	.7137
214.07	239.9	.7197
216.99	243.1	.7293
219.9	244	.732
222.8	246.7	.7401
225.75	249.4	.7482
228.73	251.2	.7536
231.68	254.7	.7641
234.64	256.9	.7707
237.58	259.4	.7782
240.49	260.9	.7827
244	264.3	.7929
247.5	267.7	.8031
250.46	269.6	.8088
253.49	272.7	.8181
256.52	275	.825
259.52	277.5	.8325
262.52	280.1	.8403
265.5	282.4	.8472
268.47	283.8	.8514
271.42	286.1	.8583
274.37	289.5	.8685
277.31	290.7	.8721
280.26	293.6	.8808
283.28	297.4	.8922
286.35	300.4	.9012
289.39	302.9	.9087
292.4	306.6	.9198
295.4	308.5	.9255
298.4	312	.936
301.4	314.7	.9441
304.39	318.4	.9552
307.37	321.4	.9642
310.35	325.7	.9771
313.32	329.7	.9891
316.34	332.9	.9987
319.44	336.2	1.0086
322.53	340.6	1.0218
325.61	343	1.029
328.68	346.8	1.0404
331.74	350.7	1.0521
334.79	354.3	1.0629
337.83	358	1.074
340.85	362.6	1.0878
343.87	367.1	1.1013

System: diethyl 2-acetamidomalonate; phases: Liquid
Fixed: Pressure, kPa = 101.325
Property: Molar heat capacity at constant pressure, J/K/mol (Liquid); method: Vacuum adiabatic calorimetry
Temperature, K	Molar heat capacity at constant pressure, J/K/mol	uncertainty
372.62	463.3	1.3899
375.92	465.4	1.3962
379.02	467.3	1.4019
382.13	468.9	1.4067
385.23	470.4	1.4112
388.37	472.1	1.4163
391.51	473.6	1.4208
394.65	475.2	1.4256

System: diethyl 2-acetamidomalonate; phases: Crystal
Fixed: Pressure, kPa = 101.325
Property: Molar heat capacity at constant pressure, J/K/mol (Crystal); method: Vacuum adiabatic calorimetry
Temperature, K	Molar heat capacity at constant pressure, J/K/mol	uncertainty
80	117.6	.3528
85	125.6	.3768
90	132.8	.3984
95	139.4	.4182
100	145.5	.4365
105	151	.453
110	156.2	.4686
115	161	.483
120	165.6	.4968
125	170	.51
130	174.2	.5226
135	178.3	.5349
140	182.4	.5472
145	186.3	.5589
150	190.2	.5706
155	194.1	.5823
160	197.9	.5937
165	201.8	.6054
170	205.6	.6168
175	209.5	.6285
180	213.4	.6402
185	217.3	.6519
190	221.2	.6636
195	225.1	.6753
200	229	.687
205	232.9	.6987
210	236.8	.7104
215	240.8	.7224
220	244.7	.7341
225	248.7	.7461
230	252.7	.7581
235	256.7	.7701
240	260.7	.7821
245	264.8	.7944
250	268.8	.8064
255	273	.819
260	277.2	.8316
265	281.4	.8442
270	285.7	.8571
275	290.2	.8706
280	294.7	.8841
285	299.3	.8979
290	304.1	.9123
295	309	.927
298.15	312.2	.9366
300	314.1	.9423
305	319.3	.9579
310	324.7	.9741
315	330.4	.9912
320	336.2	1.0086
325	342.2	1.0266
330	348.5	1.0455
335	355	1.065
340	361.7	1.0851
345	368.6	1.1058

System: diethyl 2-acetamidomalonate; phases: Liquid
Fixed: Pressure, kPa = 101.325
Property: Molar heat capacity at constant pressure, J/K/mol (Liquid); method: Vacuum adiabatic calorimetry
Temperature, K	Molar heat capacity at constant pressure, J/K/mol	uncertainty
375	465	1.395
380	467.7	1.4031
385	470.4	1.4112
390	472.9	1.4187
395	475.3	1.4259
