Measured thermophysical data. Isobaric Vapor Liquid Equilibrium for the Extractive Distillation of Acetonitrile + Water Mixtures Using Dimethyl Sulfoxide at 101.3 kPa
Source: J. Chem. Eng. Data, 2013, 10.1021/je400531a
Compound 1: acetonitrile, C2H3N, purity 99.7%
Compound 2: water, H2O, purity 99.9%
Compound 3: DMSO, C2H6OS, purity 99.9%

System: acetonitrile; phases: Liquid
Fixed: Pressure, kPa = 101.325
Property: Refractive index (Na D-line) (Liquid); method: Standard Abbe refractometry
Temperature, K	Refractive index (Na D-line)	uncertainty
293.15	1.3425	.0002

System: acetonitrile; phases: Liquid
Fixed: Pressure, kPa = 101.325
Property: Mass density, kg/m3 (Liquid); method: Vibrating tube method
Temperature, K	Mass density, kg/m3	uncertainty
293.15	782	1

System: acetonitrile; phases: Liquid, Gas
Property: Vapor or sublimation pressure, kPa (Liquid); method: Ebulliometric method (Recirculating still)
Temperature, K	Vapor or sublimation pressure, kPa	uncertainty
307.22	18.08	.5
311.3	21.45	.5
314.05	24	.5
316.73	26.73	.5
320.8	31.35	.5
323.52	34.82	.5
325.8	37.88	.5
328.95	42.59	.5
330.5	45.06	.5
333.02	49.34	.5
335.2	53.31	.5
338.45	59.68	.5
341.17	65.47	.5
343.43	70.59	.5
346.6	78.43	.5
350.67	89.46	.5
354.75	101.64	.5
354.75	101.3	.5

System: water; phases: Liquid
Fixed: Pressure, kPa = 101.325
Property: Refractive index (Na D-line) (Liquid); method: Standard Abbe refractometry
Temperature, K	Refractive index (Na D-line)	uncertainty
293.15	1.3312	.0002

System: water; phases: Liquid, Gas
Property: Vapor or sublimation pressure, kPa (Liquid); method: Ebulliometric method (Recirculating still)
Temperature, K	Vapor or sublimation pressure, kPa	uncertainty
320.37	10.74	.5
324.33	13.09	.5
326.63	14.66	.5
328.29	15.86	.5
333.57	20.33	.5
340.16	27.37	.5
343.85	32.16	.5
345.44	34.4	.5
347.83	38.07	.5
349.4	40.62	.5
351.8	44.82	.5
354.68	50.37	.5
358.64	58.91	.5
361.08	64.72	.5
362.59	68.63	.5
367.87	83.63	.5
373.15	101.31	.5
373.15	101.3	.5

System: DMSO; phases: Liquid
Fixed: Pressure, kPa = 101.325
Property: Refractive index (Na D-line) (Liquid); method: Standard Abbe refractometry
Temperature, K	Refractive index (Na D-line)	uncertainty
293.15	1.4751	.0002

System: DMSO; phases: Liquid
Fixed: Pressure, kPa = 101.325
Property: Mass density, kg/m3 (Liquid); method: Vibrating tube method
Temperature, K	Mass density, kg/m3	uncertainty
293.15	1101	1

System: DMSO; phases: Liquid, Gas
Property: Vapor or sublimation pressure, kPa (Liquid); method: Ebulliometric method (Recirculating still)
Temperature, K	Vapor or sublimation pressure, kPa	uncertainty
401.95	15.28	.5
405.11	17.11	.5
408.75	19.42	.5
411.45	21.32	.5
414.6	23.72	.5
419.36	27.76	.5
421.15	29.41	.5
424.1	32.35	.5
430.45	39.43	.5
436.75	47.75	.5
433.59	43.43	.5
436.75	47.75	.5
439.92	52.42	.5
442.85	57.05	.5
447.83	65.75	.5
455.74	81.72	.5
463.45	100.76	.5
463.45	101.3	.5
463.43	101.3	.5

System: DMSO + acetonitrile + water; phases: Liquid, Gas
Fixed: Pressure, kPa = 101.3
Property: Mole fraction of water (Liquid); method: Chromatography
Property: Mole fraction of acetonitrile (Gas); method: Chromatography
Property: Mole fraction of water (Gas); method: Chromatography
Temperature, K	Mole fraction of acetonitrile	Mole fraction of water	uncertainty	Mole fraction of acetonitrile	uncertainty	Mole fraction of water	uncertainty
371.85	.007	.947	.002	.109	.002	.891	.002
357.57	.838	.049	.002	.924	.002	.075	.002
375	.011	.853	.002	.116	.002	.883	.002
369.21	.037	.822	.002	.303	.002	.696	.002
365.18	.066	.788	.002	.419	.002	.581	.002
362.48	.097	.752	.002	.492	.002	.507	.002
359.26	.176	.659	.002	.588	.002	.411	.002
358.26	.249	.574	.002	.637	.002	.362	.002
358.08	.333	.476	.002	.681	.002	.318	.002
358.52	.416	.378	.002	.723	.002	.275	.002
360.62	.568	.2	.002	.818	.002	.18	.002
363.36	.042	.901	.002	.373	.002	.626	.002
363.96	.692	.054	.002	.935	.002	.06	.002
381.29	.014	.721	.002	.111	.002	.882	.002
376.1	.049	.675	.002	.306	.002	.688	.002
372.32	.087	.623	.002	.44	.002	.555	.002
369.85	.13	.567	.002	.534	.002	.461	.002
368.44	.177	.504	.002	.605	.002	.39	.002
367.87	.229	.435	.002	.665	.002	.33	.002
368.04	.287	.357	.002	.722	.002	.272	.002
368.98	.352	.271	.002	.782	.002	.21	.002
370.81	.426	.173	.002	.853	.002	.136	.002
359.05	.078	.862	.002	.482	.002	.518	.002
373.77	.509	.061	.002	.936	.002	.047	.002
356.14	.131	.805	.002	.551	.002	.449	.002
354.42	.208	.722	.002	.597	.002	.402	.002
353.62	.3	.624	.002	.63	.002	.37	.002
353.32	.448	.466	.002	.674	.002	.326	.002
354	.625	.277	.002	.745	.002	.255	.002
355.22	.734	.16	.002	.814	.002	.185	.002

System: acetonitrile + water; phases: Liquid, Gas
Fixed: Pressure, kPa = 101.3
Property: Boiling temperature at pressure P, K (Liquid); method: Ebulliometric method (Recirculating still)
Mole fraction of acetonitrile	Boiling temperature at pressure P, K	uncertainty
0	373.15	.01
.012	367.56	.01
.017	365.88	.01
.028	363.15	.01
.049	360.05	.01
.061	358.09	.01
.09	355.25	.01
.111	353.91	.01
.161	352.44	.01
.187	351.95	.01
.355	350.65	.01
.654	349.95	.01
.729	350	.01
.885	350.77	.01
.916	351.24	.01
.939	351.88	.01
.947	352.29	.01
.951	352.75	.01
.967	353.25	.01
.982	353.91	.01
1	354.75	.01

System: acetonitrile + water; phases: Gas, Liquid
Fixed: Pressure, kPa = 101.3
Property: Mole fraction of acetonitrile (Gas); method: Chromatography
Mole fraction of acetonitrile	Mole fraction of acetonitrile	uncertainty
0	0	.002
.012	.176	.002
.017	.226	.002
.028	.319	.002
.049	.391	.002
.061	.453	.002
.09	.503	.002
.111	.547	.002
.161	.578	.002
.187	.593	.002
.355	.612	.002
.654	.637	.002
.729	.692	.002
.885	.797	.002
.916	.833	.002
.939	.857	.002
.947	.88	.002
.951	.901	.002
.967	.925	.002
.982	.964	.002
1	1	.002

System: acetonitrile + water; phases: Liquid, Gas
Property: Azeotropic temperature, K (Liquid); method: By X=Y
Pressure, kPa	Azeotropic temperature, K	uncertainty
101.3	349.85	.01

System: acetonitrile + water; phases: Liquid, Gas
Property: Azeotropic composition: mole fraction of acetonitrile (Liquid); method: By X=Y
Pressure, kPa	Azeotropic composition: mole fraction of acetonitrile	uncertainty
101.3	.714	.002

System: DMSO + acetonitrile; phases: Liquid, Gas
Fixed: Pressure, kPa = 101.3
Property: Boiling temperature at pressure P, K (Liquid); method: Ebulliometric method (Recirculating still)
Mole fraction of acetonitrile	Boiling temperature at pressure P, K	uncertainty
0	463.45	.01
.034	455.42	.01
.079	441.73	.01
.135	424.08	.01
.169	415.37	.01
.214	406.38	.01
.258	399.6	.01
.292	395.5	.01
.337	390.92	.01
.382	387.04	.01
.416	384.46	.01
.506	378.42	.01
.584	373.77	.01
.629	371.26	.01
.674	368.85	.01
.719	366.53	.01
.798	362.68	.01
.843	360.64	.01
.913	357.83	.01
.966	355.75	.01
1	354.75	.01

System: DMSO + acetonitrile; phases: Gas, Liquid
Fixed: Pressure, kPa = 101.3
Property: Mole fraction of acetonitrile (Gas); method: Chromatography
Mole fraction of acetonitrile	Mole fraction of acetonitrile	uncertainty
0	0	.002
.034	.228	.002
.079	.498	.002
.135	.725	.002
.169	.801	.002
.214	.862	.002
.258	.898	.002
.292	.916	.002
.337	.934	.002
.382	.947	.002
.416	.955	.002
.506	.971	.002
.584	.981	.002
.629	.985	.002
.674	.989	.002
.719	.992	.002
.798	.996	.002
.843	.997	.002
.913	.999	.002
.966	1	.002
1	1	.002

System: DMSO + water; phases: Liquid, Gas
Fixed: Pressure, kPa = 101.3
Property: Boiling temperature at pressure P, K (Liquid); method: Ebulliometric method (Recirculating still)
Mole fraction of water	Boiling temperature at pressure P, K	uncertainty
0	463.43	.01
.036	456.4	.01
.061	450.25	.01
.085	446.96	.01
.12	439.65	.01
.17	434.03	.01
.207	427.85	.01
.366	411.35	.01
.389	408.9	.01
.458	403.75	.01
.554	395.87	.01
.576	392.84	.01
.64	389.25	.01
.681	385.05	.01
.731	382.05	.01
.779	380.11	.01
.822	379.06	.01
.874	377.25	.01
.898	375.8	.01
.923	374.55	.01
1	373.15	.01

System: DMSO + water; phases: Gas, Liquid
Fixed: Pressure, kPa = 101.3
Property: Mole fraction of water (Gas); method: Chromatography
Mole fraction of water	Mole fraction of water	uncertainty
0	0	.002
.036	.207	.002
.061	.351	.002
.085	.424	.002
.12	.569	.002
.17	.647	.002
.207	.742	.002
.366	.878	.002
.389	.899	.002
.458	.933	.002
.554	.957	.002
.576	.969	.002
.64	.981	.002
.681	.991	.002
.731	.995	.002
.779	.994	.002
.822	.996	.002
.874	.997	.002
.898	.999	.002
.923	.999	.002
1	1	.002
