Measured thermophysical data. Evaluation of the 2-Methoxyethanol as Entrainer in Ethanol Water and 1-Propanol Water Mixtures
Source: J. Chem. Eng. Data, 2013, 10.1021/je400791n
Compound 1: ethanol, C2H6O, purity 99.5%
Compound 2: 1-propanol, C3H8O, purity 99.5%
Compound 3: water, H2O, purity 99%
Compound 4: 2-methoxyethanol, C3H8O2, purity 99.8%

System: ethanol; phases: Liquid, Gas
Property: Vapor or sublimation pressure, kPa (Liquid); method: Ebulliometric method (Recirculating still)
Temperature, K	Vapor or sublimation pressure, kPa	uncertainty
351.91	101.3	.1

System: 1-propanol; phases: Liquid, Gas
Property: Vapor or sublimation pressure, kPa (Liquid); method: Ebulliometric method (Recirculating still)
Temperature, K	Vapor or sublimation pressure, kPa	uncertainty
370.4	101.3	.1

System: water; phases: Liquid, Gas
Property: Vapor or sublimation pressure, kPa (Liquid); method: Ebulliometric method (Recirculating still)
Temperature, K	Vapor or sublimation pressure, kPa	uncertainty
373.15	101.3	.1

System: 2-methoxyethanol; phases: Liquid, Gas
Property: Vapor or sublimation pressure, kPa (Liquid); method: Ebulliometric method (Recirculating still)
Temperature, K	Vapor or sublimation pressure, kPa	uncertainty
397.58	101.3	.1

System: ethanol + 2-methoxyethanol; phases: Liquid, Gas
Fixed: Pressure, kPa = 101.3
Property: Boiling temperature at pressure P, K (Liquid); method: Ebulliometric method (Recirculating still)
Mole fraction of ethanol	Boiling temperature at pressure P, K	uncertainty
0	397.58	.02
.052	391.95	.02
.101	387.48	.02
.15	383.4	.02
.208	379.16	.02
.264	375.64	.02
.313	372.83	.02
.365	370.33	.02
.423	367.65	.02
.485	365.22	.02
.537	363.42	.02
.589	361.62	.02
.64	360.2	.02
.696	358.64	.02
.75	357.32	.02
.799	356.11	.02
.858	354.78	.02
.902	353.83	.02
.944	353.07	.02
.979	352.29	.02
1	351.91	.02

System: ethanol + 2-methoxyethanol; phases: Gas, Liquid
Fixed: Pressure, kPa = 101.3
Property: Mole fraction of ethanol (Gas); method: Chromatography
Mole fraction of ethanol	Mole fraction of ethanol	uncertainty
0	0	.002
.052	.212	.002
.101	.355	.002
.15	.467	.002
.208	.575	.002
.264	.648	.002
.313	.707	.002
.365	.751	.002
.423	.795	.002
.485	.835	.002
.537	.86	.002
.589	.882	.002
.64	.902	.002
.696	.924	.002
.75	.941	.002
.799	.954	.002
.858	.969	.002
.902	.979	.002
.944	.988	.002
.979	.995	.002
1	1	.002

System: 1-propanol + 2-methoxyethanol; phases: Liquid, Gas
Fixed: Pressure, kPa = 101.3
Property: Boiling temperature at pressure P, K (Liquid); method: Ebulliometric method (Recirculating still)
Mole fraction of 1-propanol	Boiling temperature at pressure P, K	uncertainty
0	397.58	.02
.106	392.3	.02
.166	389.75	.02
.199	388.45	.02
.233	387.18	.02
.269	385.95	.02
.306	384.73	.02
.347	383.46	.02
.385	382.35	.02
.461	380.34	.02
.5	379.37	.02
.539	378.46	.02
.576	377.64	.02
.612	376.87	.02
.671	375.72	.02
.732	374.58	.02
.786	373.65	.02
.832	372.87	.02
.891	371.93	.02
.946	371.12	.02
1	370.4	.02

System: 1-propanol + 2-methoxyethanol; phases: Gas, Liquid
Fixed: Pressure, kPa = 101.3
Property: Mole fraction of 1-propanol (Gas); method: Chromatography
Mole fraction of 1-propanol	Mole fraction of 1-propanol	uncertainty
0	0	.002
.106	.245	.002
.166	.351	.002
.199	.403	.002
.233	.451	.002
.269	.497	.002
.306	.542	.002
.347	.586	.002
.385	.623	.002
.461	.69	.002
.5	.721	.002
.539	.75	.002
.576	.775	.002
.612	.799	.002
.671	.835	.002
.732	.869	.002
.786	.897	.002
.832	.921	.002
.891	.949	.002
.946	.975	.002
1	1	.002

System: 2-methoxyethanol + water; phases: Liquid, Gas
Fixed: Pressure, kPa = 101.3
Property: Boiling temperature at pressure P, K (Liquid); method: Ebulliometric method (Recirculating still)
Mole fraction of water	Boiling temperature at pressure P, K	uncertainty
0	397.58	.02
.026	395.63	.02
.051	393.86	.02
.072	392.4	.02
.099	390.75	.02
.158	387.62	.02
.176	386.8	.02
.205	385.45	.02
.267	383.28	.02
.332	381.34	.02
.415	379.26	.02
.492	377.65	.02
.542	376.82	.02
.608	375.83	.02
.675	375	.02
.711	374.59	.02
.768	374.15	.02
.79	373.93	.02
.839	373.6	.02
.882	373.35	.02
.911	373.17	.02
.949	373.07	.02
.986	373.12	.02
1	373.15	.02

System: 2-methoxyethanol + water; phases: Gas, Liquid
Fixed: Pressure, kPa = 101.3
Property: Mole fraction of water (Gas); method: Chromatography
Mole fraction of water	Mole fraction of water	uncertainty
0	0	.002
.026	.088	.002
.051	.162	.002
.072	.215	.002
.099	.277	.002
.158	.392	.002
.176	.419	.002
.205	.462	.002
.267	.538	.002
.332	.6	.002
.415	.665	.002
.492	.719	.002
.542	.743	.002
.608	.779	.002
.675	.809	.002
.711	.826	.002
.768	.851	.002
.79	.861	.002
.839	.887	.002
.882	.911	.002
.911	.925	.002
.949	.951	.002
.986	.984	.002
1	1	.002

System: 2-methoxyethanol + water; phases: Liquid, Gas
Property: Azeotropic temperature, K (Liquid); method: By X=Y
Pressure, kPa	Azeotropic temperature, K	uncertainty
101.3	373.05	.02

System: 2-methoxyethanol + water; phases: Liquid, Gas
Property: Azeotropic composition: mole fraction of water (Liquid); method: By X=Y
Pressure, kPa	Azeotropic composition: mole fraction of water	uncertainty
101.3	.969	.002

System: ethanol + 2-methoxyethanol + water; phases: Liquid, Gas
Fixed: Pressure, kPa = 101.3
Property: Mole fraction of water (Liquid); method: Chromatography
Property: Mole fraction of ethanol (Gas); method: Chromatography
Property: Mole fraction of water (Gas); method: Chromatography
Temperature, K	Mole fraction of ethanol	Mole fraction of water	uncertainty	Mole fraction of ethanol	uncertainty	Mole fraction of water	uncertainty
363.92	.063	.891	.002	.315	.002	.666	.002
359.18	.351	.475	.002	.588	.002	.377	.002
362.17	.358	.283	.002	.614	.002	.294	.002
369.7	.065	.647	.002	.211	.002	.663	.002
356.51	.423	.438	.002	.633	.002	.342	.002
361.5	.439	.194	.002	.689	.002	.212	.002
358.24	.479	.271	.002	.686	.002	.257	.002
362.13	.479	.113	.002	.754	.002	.134	.002
353.95	.5	.457	.002	.662	.002	.331	.002
353.74	.505	.457	.002	.663	.002	.332	.002
361.87	.536	.056	.002	.817	.002	.068	.002
360.29	.245	.579	.002	.511	.002	.447	.002
358.26	.546	.186	.002	.751	.002	.189	.002
359.23	.575	.11	.002	.801	.002	.121	.002
355.42	.579	.27	.002	.729	.002	.241	.002
385.05	.088	.057	.002	.295	.002	.139	.002
356.12	.656	.188	.002	.792	.002	.178	.002
356.78	.666	.104	.002	.839	.002	.11	.002
352.53	.704	.261	.002	.77	.002	.224	.002
357.53	.723	.054	.002	.887	.002	.059	.002
353.04	.751	.18	.002	.818	.002	.169	.002
354.67	.751	.104	.002	.865	.002	.107	.002
366.94	.247	.284	.002	.509	.002	.34	.002
352.87	.838	.095	.002	.891	.002	.096	.002
352.41	.901	.055	.002	.933	.002	.059	.002
361.91	.113	.806	.002	.402	.002	.572	.002
369.6	.128	.438	.002	.321	.002	.514	.002
376.63	.155	.141	.002	.407	.002	.249	.002
373.04	.173	.209	.002	.417	.002	.317	.002
362.95	.232	.487	.002	.483	.002	.443	.002
363.85	.242	.423	.002	.498	.002	.41	.002
371.1	.252	.136	.002	.555	.002	.205	.002
356.06	.28	.68	.002	.569	.002	.424	.002
365.47	.327	.205	.002	.602	.002	.248	.002
369.75	.332	.059	.002	.675	.002	.09	.002
359.8	.335	.429	.002	.579	.002	.368	.002
356.25	.341	.579	.002	.584	.002	.402	.002

System: 1-propanol + 2-methoxyethanol + water; phases: Liquid, Gas
Fixed: Pressure, kPa = 101.3
Property: Mole fraction of water (Liquid); method: Chromatography
Property: Mole fraction of 1-propanol (Gas); method: Chromatography
Property: Mole fraction of water (Gas); method: Chromatography
Temperature, K	Mole fraction of 1-propanol	Mole fraction of water	uncertainty	Mole fraction of 1-propanol	uncertainty	Mole fraction of water	uncertainty
392.23	.041	.042	.002	.102	.002	.137	.002
371.91	.256	.328	.002	.347	.002	.496	.002
369.32	.263	.407	.002	.38	.002	.54	.002
365.62	.048	.905	.002	.282	.002	.697	.002
368.6	.272	.422	.002	.356	.002	.544	.002
380.76	.274	.09	.002	.442	.002	.212	.002
369.84	.278	.375	.002	.36	.002	.521	.002
365.75	.286	.52	.002	.372	.002	.576	.002
362.16	.359	.593	.002	.414	.002	.576	.002
368.68	.376	.324	.002	.432	.002	.474	.002
366.11	.388	.402	.002	.426	.002	.515	.002
386.05	.106	.096	.002	.211	.002	.252	.002
363.25	.396	.502	.002	.421	.002	.556	.002
376.7	.405	.094	.002	.556	.002	.213	.002
378.57	.438	.045	.002	.63	.002	.11	.002
370.21	.051	.742	.002	.155	.002	.749	.002
366.46	.486	.311	.002	.483	.002	.46	.002
374.57	.504	.091	.002	.625	.002	.199	.002
362.41	.549	.402	.002	.478	.002	.512	.002
372.26	.606	.094	.002	.674	.002	.209	.002
364.95	.628	.263	.002	.549	.002	.422	.002
374.04	.645	.045	.002	.757	.002	.108	.002
370.08	.114	.591	.002	.222	.002	.665	.002
370.5	.697	.095	.002	.72	.002	.201	.002
368.75	.793	.09	.002	.757	.002	.201	.002
369.73	.872	.047	.002	.854	.002	.115	.002
392.23	.041	.042	.002	.102	.002	.137	.002
374.21	.062	.509	.002	.127	.002	.676	.002
365.62	.048	.905	.002	.282	.002	.697	.002
370.21	.051	.742	.002	.155	.002	.749	.002
374.21	.062	.509	.002	.127	.002	.676	.002
374.23	.071	.485	.002	.139	.002	.657	.002
379.33	.097	.285	.002	.16	.002	.495	.002
371.88	.18	.414	.002	.274	.002	.571	.002
374.23	.071	.485	.002	.139	.002	.657	.002
379.33	.097	.285	.002	.16	.002	.495	.002
365.85	.101	.801	.002	.299	.002	.667	.002
377.57	.102	.225	.002	.181	.002	.446	.002
376.22	.104	.355	.002	.178	.002	.56	.002
363.82	.198	.713	.002	.356	.002	.621	.002
382.53	.205	.095	.002	.36	.002	.236	.002
366.24	.205	.606	.002	.327	.002	.617	.002
368.16	.211	.516	.002	.316	.002	.598	.002
384.3	.238	.045	.002	.43	.002	.123	.002
