Measured thermophysical data. Volumetric and Viscometric Behavior of Binary Systems 2-Butanol + PEG 200, + PEG 400, + Tetraethylene Glycol Dimethyl Ether, and + N-Methyl-2-pyrrolidone
Source: J. Chem. Eng. Data, 2013, 10.1021/je400486p
Compound 1: 2-butanol, C4H10O, purity 99.5%
Compound 2: tetraethylene glycol, dimethyl ether, C10H22O5, purity 99%
Compound 3: 1-methyl-2-pyrrolidinone, C5H9NO, purity 99%

System: 2-butanol; phases: Liquid
Property: Mass density, kg/m3 (Liquid); method: Vibrating tube method
Temperature, K	Pressure, kPa	Mass density, kg/m3	uncertainty
288.15	101.3	810.654	.02
293.15	101.3	806.62	.02
298.15	101.3	802.502	.02
303.15	101.3	798.302	.02
308.15	101.3	794.003	.02
313.15	101.3	789.609	.02
318.15	101.3	785.109	.02
323.15	101.3	780.499	.02

System: 2-butanol; phases: Liquid
Property: Viscosity, Pa*s (Liquid); method: Concentric cylinders viscometry
Temperature, K	Pressure, kPa	Viscosity, Pa*s	uncertainty
288.15	101.3	.0042905	.000042905
293.15	101.3	.0035763	.000035763
298.15	101.3	.0029542	.000029542
303.15	101.3	.0024687	.000024687
308.15	101.3	.0020803	.000020803
313.15	101.3	.0017662	.000017662
318.15	101.3	.0015116	.000015116
323.15	101.3	.0013033	.000013033

System: 2-butanol; phases: Liquid
Fixed: Pressure, kPa = 101.325
Property: Refractive index (Na D-line) (Liquid); method: Standard Abbe refractometry
Temperature, K	Refractive index (Na D-line)	uncertainty
288.15	1.39959	.00006
293.15	1.39748	.00006
298.15	1.39534	.00006
303.15	1.39314	.00006
308.15	1.39086	.00006
313.15	1.38851	.00006
318.15	1.38617	.00006
323.15	1.38372	.00006

System: tetraethylene glycol, dimethyl ether; phases: Liquid
Property: Mass density, kg/m3 (Liquid); method: Vibrating tube method
Temperature, K	Pressure, kPa	Mass density, kg/m3	uncertainty
288.15	101.3	1015.63	.02
293.15	101.3	1010.995	.02
298.15	101.3	1006.359	.02
303.15	101.3	1001.732	.02
308.15	101.3	997.104	.02
313.15	101.3	992.481	.02
318.15	101.3	987.859	.02
323.15	101.3	983.234	.02

System: tetraethylene glycol, dimethyl ether; phases: Liquid
Property: Viscosity, Pa*s (Liquid); method: Concentric cylinders viscometry
Temperature, K	Pressure, kPa	Viscosity, Pa*s	uncertainty
288.15	101.3	.0043415	.000043415
293.15	101.3	.0038338	.000038338
298.15	101.3	.0033801	.000033801
303.15	101.3	.0030042	.000030042
308.15	101.3	.0026913	.000026913
313.15	101.3	.0024258	.000024258
318.15	101.3	.0021994	.000021994
323.15	101.3	.0020063	.000020063

System: tetraethylene glycol, dimethyl ether; phases: Liquid
Fixed: Pressure, kPa = 101.325
Property: Refractive index (Na D-line) (Liquid); method: Standard Abbe refractometry
Temperature, K	Refractive index (Na D-line)	uncertainty
288.15	1.4345	.00006
293.15	1.43238	.00006
298.15	1.43027	.00006
303.15	1.42815	.00006
308.15	1.42603	.00006
313.15	1.42394	.00006
318.15	1.42183	.00006
323.15	1.41973	.00006

System: 1-methyl-2-pyrrolidinone; phases: Liquid
Property: Mass density, kg/m3 (Liquid); method: Vibrating tube method
Temperature, K	Pressure, kPa	Mass density, kg/m3	uncertainty
288.15	101.3	1037.298	.02
293.15	101.3	1032.84	.02
298.15	101.3	1028.382	.02
303.15	101.3	1023.925	.02
308.15	101.3	1019.462	.02
313.15	101.3	1015	.02
318.15	101.3	1010.533	.02
323.15	101.3	1006.061	.02

System: 1-methyl-2-pyrrolidinone; phases: Liquid
Property: Viscosity, Pa*s (Liquid); method: Concentric cylinders viscometry
Temperature, K	Pressure, kPa	Viscosity, Pa*s	uncertainty
288.15	101.3	.0019896	.000019896
293.15	101.3	.0018232	.000018232
298.15	101.3	.0016795	.000016795
303.15	101.3	.0015546	.000015546
308.15	101.3	.0014443	.000014443
313.15	101.3	.0013464	.000013464
318.15	101.3	.0012593	.000012593
323.15	101.3	.0011816	.000011816

System: 1-methyl-2-pyrrolidinone; phases: Liquid
Fixed: Pressure, kPa = 101.325
Property: Refractive index (Na D-line) (Liquid); method: Standard Abbe refractometry
Temperature, K	Refractive index (Na D-line)	uncertainty
288.15	1.47166	.00006
293.15	1.46952	.00006
298.15	1.46736	.00006
303.15	1.4652	.00006
308.15	1.46306	.00006
313.15	1.46095	.00006
318.15	1.45891	.00006
323.15	1.4568	.00006

System: 2-butanol + tetraethylene glycol, dimethyl ether; phases: Liquid
Fixed: Pressure, kPa = 101.3
Property: Mass density, kg/m3 (Liquid); method: Vibrating tube method
Temperature, K	Mole fraction of 2-butanol	Mass density, kg/m3	uncertainty
288.15	0	1015.63	.02
288.15	.1007	1006.229	.02
288.15	.2003	995.702	.02
288.15	.3015	983.46	.02
288.15	.3991	969.921	.02
288.15	.5011	953.53	.02
288.15	.6024	934.399	.02
288.15	.6997	912.674	.02
288.15	.7998	885.897	.02
288.15	.9004	852.63	.02
288.15	1	810.654	.02
293.15	0	1010.995	.02
293.15	.1007	1001.607	.02
293.15	.2003	991.093	.02
293.15	.3015	978.877	.02
293.15	.3991	965.365	.02
293.15	.5011	949.011	.02
293.15	.6024	929.939	.02
293.15	.6997	908.32	.02
293.15	.7998	881.561	.02
293.15	.9004	848.418	.02
293.15	1	806.62	.02
298.15	0	1006.359	.02
298.15	.1007	996.991	.02
298.15	.2003	986.495	.02
298.15	.3015	974.305	.02
298.15	.3991	960.825	.02
298.15	.5011	944.498	.02
298.15	.6024	925.479	.02
298.15	.6997	903.877	.02
298.15	.7998	877.228	.02
298.15	.9004	844.144	.02
298.15	1	802.502	.02
303.15	0	1001.732	.02
303.15	.1007	992.377	.02
303.15	.2003	981.894	.02
303.15	.3015	969.723	.02
303.15	.3991	956.258	.02
303.15	.5011	939.966	.02
303.15	.6024	920.978	.02
303.15	.6997	899.43	.02
303.15	.7998	872.81	.02
303.15	.9004	839.81	.02
303.15	1	798.302	.02
308.15	0	997.104	.02
308.15	.1007	987.755	.02
308.15	.2003	977.28	.02
308.15	.3015	965.119	.02
308.15	.3991	951.674	.02
308.15	.5011	935.407	.02
308.15	.6024	916.445	.02
308.15	.6997	894.917	.02
308.15	.7998	868.357	.02
308.15	.9004	835.418	.02
308.15	1	794.003	.02
313.15	0	992.481	.02
313.15	.1007	983.135	.02
313.15	.2003	972.669	.02
313.15	.3015	960.509	.02
313.15	.3991	947.072	.02
313.15	.5011	930.813	.02
313.15	.6024	911.86	.02
313.15	.6997	890.367	.02
313.15	.7998	863.83	.02
313.15	.9004	830.95	.02
313.15	1	789.609	.02
318.15	0	987.859	.02
318.15	.1007	978.511	.02
318.15	.2003	968.041	.02
318.15	.3015	955.883	.02
318.15	.3991	942.446	.02
318.15	.5011	926.193	.02
318.15	.6024	907.25	.02
318.15	.6997	885.759	.02
318.15	.7998	859.246	.02
318.15	.9004	826.396	.02
318.15	1	785.109	.02
323.15	0	983.234	.02
323.15	.1007	973.877	.02
323.15	.2003	963.397	.02
323.15	.3015	951.237	.02
323.15	.3991	937.792	.02
323.15	.5011	921.533	.02
323.15	.6024	902.591	.02
323.15	.6997	881.097	.02
323.15	.7998	854.581	.02
323.15	.9004	821.735	.02
323.15	1	780.499	.02

System: 2-butanol + tetraethylene glycol, dimethyl ether; phases: Liquid
Fixed: Pressure, kPa = 101.3
Property: Viscosity, Pa*s (Liquid); method: Concentric cylinders viscometry
Temperature, K	Mole fraction of 2-butanol	Viscosity, Pa*s	uncertainty
288.15	0	.0043415	.000043415
288.15	.1007	.0040922	.000040922
288.15	.2003	.0037925	.000037925
288.15	.3015	.0035309	.000035309
288.15	.3991	.0033424	.000033424
288.15	.5011	.0031569	.000031569
288.15	.6024	.002972	.00002972
288.15	.6997	.0028525	.000028525
288.15	.7998	.0028737	.000028737
288.15	.9004	.0031657	.000031657
288.15	1	.0042905	.000042905
293.15	0	.0038338	.000038338
293.15	.1007	.0035816	.000035816
293.15	.2003	.0033196	.000033196
293.15	.3015	.003099	.00003099
293.15	.3991	.0029406	.000029406
293.15	.5011	.0027762	.000027762
293.15	.6024	.0026102	.000026102
293.15	.6997	.002498	.00002498
293.15	.7998	.0024967	.000024967
293.15	.9004	.002705	.00002705
293.15	1	.0035763	.000035763
298.15	0	.0033801	.000033801
298.15	.1007	.0031575	.000031575
298.15	.2003	.0029374	.000029374
298.15	.3015	.0027497	.000027497
298.15	.3991	.0026034	.000026034
298.15	.5011	.0024608	.000024608
298.15	.6024	.0023156	.000023156
298.15	.6997	.0022105	.000022105
298.15	.7998	.0021866	.000021866
298.15	.9004	.0023368	.000023368
298.15	1	.0029542	.000029542
303.15	0	.0030042	.000030042
303.15	.1007	.0028052	.000028052
303.15	.2003	.0026274	.000026274
303.15	.3015	.0024722	.000024722
303.15	.3991	.0023444	.000023444
303.15	.5011	.0022046	.000022046
303.15	.6024	.002068	.00002068
303.15	.6997	.0019671	.000019671
303.15	.7998	.001933	.00001933
303.15	.9004	.0020374	.000020374
303.15	1	.0024687	.000024687
308.15	0	.0026913	.000026913
308.15	.1007	.0025133	.000025133
308.15	.2003	.0023629	.000023629
308.15	.3015	.0022293	.000022293
308.15	.3991	.0021114	.000021114
308.15	.5011	.0019835	.000019835
308.15	.6024	.0018592	.000018592
308.15	.6997	.0017622	.000017622
308.15	.7998	.0017196	.000017196
308.15	.9004	.0017857	.000017857
308.15	1	.0020803	.000020803
313.15	0	.0024258	.000024258
313.15	.1007	.0022687	.000022687
313.15	.2003	.0021394	.000021394
313.15	.3015	.0020219	.000020219
313.15	.3991	.0019139	.000019139
313.15	.5011	.001796	.00001796
313.15	.6024	.0016814	.000016814
313.15	.6997	.0015903	.000015903
313.15	.7998	.0015401	.000015401
313.15	.9004	.0015751	.000015751
313.15	1	.0017662	.000017662
318.15	0	.0021994	.000021994
318.15	.1007	.0020685	.000020685
318.15	.2003	.0019487	.000019487
318.15	.3015	.0018362	.000018362
318.15	.3991	.0017299	.000017299
318.15	.5011	.0016288	.000016288
318.15	.6024	.0015286	.000015286
318.15	.6997	.0014446	.000014446
318.15	.7998	.0013849	.000013849
318.15	.9004	.0013967	.000013967
318.15	1	.0015116	.000015116
323.15	0	.0020063	.000020063
323.15	.1007	.0018916	.000018916
323.15	.2003	.001787	.00001787
323.15	.3015	.0016866	.000016866
323.15	.3991	.0015907	.000015907
323.15	.5011	.0014948	.000014948
323.15	.6024	.0014019	.000014019
323.15	.6997	.0013198	.000013198
323.15	.7998	.0012594	.000012594
323.15	.9004	.0012434	.000012434
323.15	1	.0013033	.000013033

System: 2-butanol + tetraethylene glycol, dimethyl ether; phases: Liquid
Fixed: Pressure, kPa = 101.3
Property: Refractive index (Na D-line) (Liquid); method: Standard Abbe refractometry
Temperature, K	Mole fraction of 2-butanol	Refractive index (Na D-line)	uncertainty
288.15	0	1.4345	.00006
288.15	.1007	1.43266	.00006
288.15	.2003	1.43063	.00006
288.15	.3015	1.42851	.00006
288.15	.3991	1.42627	.00006
288.15	.5011	1.42333	.00006
288.15	.6024	1.41994	.00006
288.15	.6997	1.41632	.00006
288.15	.7998	1.41171	.00006
288.15	.9004	1.40624	.00006
288.15	1	1.39959	.00006
293.15	0	1.43238	.00006
293.15	.1007	1.43054	.00006
293.15	.2003	1.42851	.00006
293.15	.3015	1.42637	.00006
293.15	.3991	1.42412	.00006
293.15	.5011	1.42118	.00006
293.15	.6024	1.41778	.00006
293.15	.6997	1.41418	.00006
293.15	.7998	1.4096	.00006
293.15	.9004	1.40412	.00006
293.15	1	1.39748	.00006
298.15	0	1.43027	.00006
298.15	.1007	1.42843	.00006
298.15	.2003	1.42637	.00006
298.15	.3015	1.42424	.00006
298.15	.3991	1.42197	.00006
298.15	.5011	1.41902	.00006
298.15	.6024	1.41562	.00006
298.15	.6997	1.41202	.00006
298.15	.7998	1.40743	.00006
298.15	.9004	1.40197	.00006
298.15	1	1.39534	.00006
303.15	0	1.42815	.00006
303.15	.1007	1.42631	.00006
303.15	.2003	1.42424	.00006
303.15	.3015	1.4221	.00006
303.15	.3991	1.41983	.00006
303.15	.5011	1.41687	.00006
303.15	.6024	1.41347	.00006
303.15	.6997	1.40983	.00006
303.15	.7998	1.40522	.00006
303.15	.9004	1.39977	.00006
303.15	1	1.39314	.00006
308.15	0	1.42603	.00006
308.15	.1007	1.4242	.00006
308.15	.2003	1.42212	.00006
308.15	.3015	1.41998	.00006
308.15	.3991	1.41768	.00006
308.15	.5011	1.41473	.00006
308.15	.6024	1.41133	.00006
308.15	.6997	1.40765	.00006
308.15	.7998	1.40302	.00006
308.15	.9004	1.39751	.00006
308.15	1	1.39086	.00006
313.15	0	1.42394	.00006
313.15	.1007	1.42209	.00006
313.15	.2003	1.42001	.00006
313.15	.3015	1.41785	.00006
313.15	.3991	1.4155	.00006
313.15	.5011	1.41255	.00006
313.15	.6024	1.40915	.00006
313.15	.6997	1.40543	.00006
313.15	.7998	1.40077	.00006
313.15	.9004	1.39524	.00006
313.15	1	1.38851	.00006
318.15	0	1.42183	.00006
318.15	.1007	1.42003	.00006
318.15	.2003	1.4179	.00006
318.15	.3015	1.41571	.00006
318.15	.3991	1.41339	.00006
318.15	.5011	1.41039	.00006
318.15	.6024	1.40698	.00006
318.15	.6997	1.40327	.00006
318.15	.7998	1.39857	.00006
318.15	.9004	1.393	.00006
318.15	1	1.38617	.00006
323.15	0	1.41973	.00006
323.15	.1007	1.41794	.00006
323.15	.2003	1.4158	.00006
323.15	.3015	1.4136	.00006
323.15	.3991	1.41127	.00006
323.15	.5011	1.40823	.00006
323.15	.6024	1.40477	.00006
323.15	.6997	1.40104	.00006
323.15	.7998	1.39628	.00006
323.15	.9004	1.39067	.00006
323.15	1	1.38372	.00006

System: 2-butanol + 1-methyl-2-pyrrolidinone; phases: Liquid
Fixed: Pressure, kPa = 101.3
Property: Mass density, kg/m3 (Liquid); method: Vibrating tube method
Temperature, K	Mole fraction of 2-butanol	Mass density, kg/m3	uncertainty
288.15	0	1037.298	.02
288.15	.1049	1014.525	.02
288.15	.2001	993.63	.02
288.15	.3009	971.257	.02
288.15	.4019	948.589	.02
288.15	.5003	926.282	.02
288.15	.5995	903.599	.02
288.15	.7004	880.362	.02
288.15	.7985	857.64	.02
288.15	.899	834.259	.02
288.15	1	810.654	.02
293.15	0	1032.84	.02
293.15	.1049	1010.108	.02
293.15	.2001	989.247	.02
293.15	.3009	966.914	.02
293.15	.4019	944.287	.02
293.15	.5003	922.02	.02
293.15	.5995	899.376	.02
293.15	.7004	876.183	.02
293.15	.7985	853.51	.02
293.15	.899	830.183	.02
293.15	1	806.62	.02
298.15	0	1028.382	.02
298.15	.1049	1005.691	.02
298.15	.2001	984.854	.02
298.15	.3009	962.556	.02
298.15	.4019	939.97	.02
298.15	.5003	917.742	.02
298.15	.5995	895.133	.02
298.15	.7004	871.975	.02
298.15	.7985	849.341	.02
298.15	.899	826.054	.02
298.15	1	802.502	.02
303.15	0	1023.925	.02
303.15	.1049	1001.27	.02
303.15	.2001	980.46	.02
303.15	.3009	958.194	.02
303.15	.4019	935.644	.02
303.15	.5003	913.448	.02
303.15	.5995	890.869	.02
303.15	.7004	867.739	.02
303.15	.7985	845.132	.02
303.15	.899	821.864	.02
303.15	1	798.302	.02
308.15	0	1019.462	.02
308.15	.1049	996.845	.02
308.15	.2001	976.091	.02
308.15	.3009	953.86	.02
308.15	.4019	931.323	.02
308.15	.5003	909.136	.02
308.15	.5995	886.575	.02
308.15	.7004	863.468	.02
308.15	.7985	840.874	.02
308.15	.899	817.592	.02
308.15	1	794.003	.02
313.15	0	1015	.02
313.15	.1049	992.413	.02
313.15	.2001	971.652	.02
313.15	.3009	949.443	.02
313.15	.4019	926.949	.02
313.15	.5003	904.8	.02
313.15	.5995	882.258	.02
313.15	.7004	859.157	.02
313.15	.7985	836.567	.02
313.15	.899	813.284	.02
313.15	1	789.609	.02
318.15	0	1010.533	.02
318.15	.1049	987.978	.02
318.15	.2001	967.237	.02
318.15	.3009	945.05	.02
318.15	.4019	922.578	.02
318.15	.5003	900.445	.02
318.15	.5995	877.912	.02
318.15	.7004	854.81	.02
318.15	.7985	832.207	.02
318.15	.899	808.882	.02
318.15	1	785.109	.02
323.15	0	1006.061	.02
323.15	.1049	983.533	.02
323.15	.2001	962.815	.02
323.15	.3009	940.651	.02
323.15	.4019	918.196	.02
323.15	.5003	896.069	.02
323.15	.5995	873.531	.02
323.15	.7004	850.415	.02
323.15	.7985	827.785	.02
323.15	.899	804.404	.02
323.15	1	780.499	.02

System: 2-butanol + 1-methyl-2-pyrrolidinone; phases: Liquid
Fixed: Pressure, kPa = 101.3
Property: Viscosity, Pa*s (Liquid); method: Concentric cylinders viscometry
Temperature, K	Mole fraction of 2-butanol	Viscosity, Pa*s	uncertainty
288.15	0	.0019896	.000019896
288.15	.1049	.0019841	.000019841
288.15	.2001	.0019741	.000019741
288.15	.3009	.0019721	.000019721
288.15	.4019	.0020052	.000020052
288.15	.5003	.0020319	.000020319
288.15	.5995	.0021177	.000021177
288.15	.7004	.0023023	.000023023
288.15	.7985	.0026183	.000026183
288.15	.899	.003227	.00003227
288.15	1	.0042905	.000042905
293.15	0	.0018232	.000018232
293.15	.1049	.0018151	.000018151
293.15	.2001	.0018015	.000018015
293.15	.3009	.001798	.00001798
293.15	.4019	.0018167	.000018167
293.15	.5003	.0018385	.000018385
293.15	.5995	.0019052	.000019052
293.15	.7004	.0020482	.000020482
293.15	.7985	.00229	.0000229
293.15	.899	.0027571	.000027571
293.15	1	.0035763	.000035763
298.15	0	.0016795	.000016795
298.15	.1049	.0016645	.000016645
298.15	.2001	.0016523	.000016523
298.15	.3009	.001647	.00001647
298.15	.4019	.0016553	.000016553
298.15	.5003	.0016697	.000016697
298.15	.5995	.0017198	.000017198
298.15	.7004	.0018316	.000018316
298.15	.7985	.0020194	.000020194
298.15	.899	.0023684	.000023684
298.15	1	.0029542	.000029542
303.15	0	.0015546	.000015546
303.15	.1049	.0015376	.000015376
303.15	.2001	.0015237	.000015237
303.15	.3009	.0015135	.000015135
303.15	.4019	.0015159	.000015159
303.15	.5003	.0015225	.000015225
303.15	.5995	.0015602	.000015602
303.15	.7004	.0016455	.000016455
303.15	.7985	.0017919	.000017919
303.15	.899	.0020508	.000020508
303.15	1	.0024687	.000024687
308.15	0	.0014443	.000014443
308.15	.1049	.0014266	.000014266
308.15	.2001	.0014113	.000014113
308.15	.3009	.0013995	.000013995
308.15	.4019	.0013932	.000013932
308.15	.5003	.0013972	.000013972
308.15	.5995	.0014242	.000014242
308.15	.7004	.0014888	.000014888
308.15	.7985	.0015976	.000015976
308.15	.899	.0017858	.000017858
308.15	1	.0020803	.000020803
313.15	0	.0013464	.000013464
313.15	.1049	.0013273	.000013273
313.15	.2001	.0013109	.000013109
313.15	.3009	.001297	.00001297
313.15	.4019	.0012854	.000012854
313.15	.5003	.0012853	.000012853
313.15	.5995	.0013034	.000013034
313.15	.7004	.0013506	.000013506
313.15	.7985	.0014314	.000014314
313.15	.899	.0015658	.000015658
313.15	1	.0017662	.000017662
318.15	0	.0012593	.000012593
318.15	.1049	.0012393	.000012393
318.15	.2001	.0012213	.000012213
318.15	.3009	.0012059	.000012059
318.15	.4019	.0011895	.000011895
318.15	.5003	.0011863	.000011863
318.15	.5995	.0011967	.000011967
318.15	.7004	.0012297	.000012297
318.15	.7985	.0012864	.000012864
318.15	.899	.0013791	.000013791
318.15	1	.0015116	.000015116
323.15	0	.0011816	.000011816
323.15	.1049	.0011608	.000011608
323.15	.2001	.0011414	.000011414
323.15	.3009	.0011243	.000011243
323.15	.4019	.001104	.00001104
323.15	.5003	.0010984	.000010984
323.15	.5995	.0011026	.000011026
323.15	.7004	.0011238	.000011238
323.15	.7985	.0011617	.000011617
323.15	.899	.001222	.00001222
323.15	1	.0013033	.000013033

System: 2-butanol + 1-methyl-2-pyrrolidinone; phases: Liquid
Fixed: Pressure, kPa = 101.3
Property: Refractive index (Na D-line) (Liquid); method: Standard Abbe refractometry
Temperature, K	Mole fraction of 2-butanol	Refractive index (Na D-line)	uncertainty
288.15	0	1.47166	.00006
288.15	.1049	1.46489	.00006
288.15	.2001	1.45851	.00006
288.15	.3009	1.45151	.00006
288.15	.4019	1.44431	.00006
288.15	.5003	1.43715	.00006
288.15	.5995	1.42982	.00006
288.15	.7004	1.42227	.00006
288.15	.7985	1.41487	.00006
288.15	.899	1.40724	.00006
288.15	1	1.39959	.00006
293.15	0	1.46952	.00006
293.15	.1049	1.46273	.00006
293.15	.2001	1.45634	.00006
293.15	.3009	1.44937	.00006
293.15	.4019	1.44219	.00006
293.15	.5003	1.43504	.00006
293.15	.5995	1.42772	.00006
293.15	.7004	1.42016	.00006
293.15	.7985	1.41275	.00006
293.15	.899	1.40512	.00006
293.15	1	1.39748	.00006
298.15	0	1.46736	.00006
298.15	.1049	1.46061	.00006
298.15	.2001	1.45418	.00006
298.15	.3009	1.4473	.00006
298.15	.4019	1.44013	.00006
298.15	.5003	1.43298	.00006
298.15	.5995	1.42564	.00006
298.15	.7004	1.41806	.00006
298.15	.7985	1.41063	.00006
298.15	.899	1.40302	.00006
298.15	1	1.39534	.00006
303.15	0	1.4652	.00006
303.15	.1049	1.45844	.00006
303.15	.2001	1.45203	.00006
303.15	.3009	1.44515	.00006
303.15	.4019	1.43799	.00006
303.15	.5003	1.43083	.00006
303.15	.5995	1.42349	.00006
303.15	.7004	1.41587	.00006
303.15	.7985	1.40842	.00006
303.15	.899	1.40081	.00006
303.15	1	1.39314	.00006
308.15	0	1.46306	.00006
308.15	.1049	1.45632	.00006
308.15	.2001	1.44987	.00006
308.15	.3009	1.44301	.00006
308.15	.4019	1.43583	.00006
308.15	.5003	1.42867	.00006
308.15	.5995	1.42131	.00006
308.15	.7004	1.41372	.00006
308.15	.7985	1.40626	.00006
308.15	.899	1.39861	.00006
308.15	1	1.39086	.00006
313.15	0	1.46095	.00006
313.15	.1049	1.45416	.00006
313.15	.2001	1.44773	.00006
313.15	.3009	1.44083	.00006
313.15	.4019	1.43366	.00006
313.15	.5003	1.42651	.00006
313.15	.5995	1.41919	.00006
313.15	.7004	1.41155	.00006
313.15	.7985	1.40406	.00006
313.15	.899	1.39638	.00006
313.15	1	1.38851	.00006
318.15	0	1.45891	.00006
318.15	.1049	1.45204	.00006
318.15	.2001	1.44559	.00006
318.15	.3009	1.43868	.00006
318.15	.4019	1.43152	.00006
318.15	.5003	1.42436	.00006
318.15	.5995	1.41701	.00006
318.15	.7004	1.40934	.00006
318.15	.7985	1.40181	.00006
318.15	.899	1.39408	.00006
318.15	1	1.38617	.00006
323.15	0	1.4568	.00006
323.15	.1049	1.44996	.00006
323.15	.2001	1.4435	.00006
323.15	.3009	1.43654	.00006
323.15	.4019	1.42934	.00006
323.15	.5003	1.42215	.00006
323.15	.5995	1.41481	.00006
323.15	.7004	1.40711	.00006
323.15	.7985	1.39955	.00006
323.15	.899	1.39172	.00006
323.15	1	1.38372	.00006
