Measured thermophysical data. Heat Capacities of Four Promising Alternatives to Lithium Bromide Aqueous Solution in Absorption Refrigerators
Source: J. Chem. Eng. Data, 2013, 10.1021/je400605x
Compound 1: lithium bromide, BrLi, purity 99.9%
Compound 2: sodium formate, CHNaO2, purity 99.99%
Compound 3: potassium formate, CHKO2, purity 99%
Compound 4: propylene glycol, C3H8O2, purity 99%
Compound 5: triethylene glycol, C6H14O4, purity 99.5%
Compound 6: water, H2O

System: triethylene glycol + lithium bromide + water; phases: Liquid
Fixed: Pressure, kPa = 101
Property: Molar heat capacity at constant pressure, J/K/mol (Liquid); method: Large sample (1 g) DSC
Temperature, K	Mass fraction of lithium bromide	Mass fraction of triethylene glycol	Molar heat capacity at constant pressure, J/K/mol	uncertainty
308.15	.1	.2	92.6965675964047	.169330890703245
313.15	.1	.2	93.0352293778112	.169330890703245
318.15	.1	.2	93.325510904731	.169330890703245
323.15	.1	.2	93.5674121771643	.169330890703245
328.15	.1	.2	93.8093134495975	.169330890703245
333.15	.1	.2	94.002834467544	.169330890703245
338.15	.1	.2	94.1721653582473	.169330890703245
343.15	.1	.2	94.1721653582473	.169330890703245
308.15	.133	.267	99.168429850102	.191181219760593
313.15	.133	.267	99.5781038924462	.191181219760593
318.15	.133	.267	99.9604663319673	.191181219760593
323.15	.133	.267	100.288205565843	.191181219760593
328.15	.133	.267	100.615944799718	.191181219760593
333.15	.133	.267	100.889060827947	.191181219760593
338.15	.133	.267	101.080242047708	.191181219760593
343.15	.133	.267	101.189488459	.191181219760593
308.15	.167	.333	104.03006164563	.219472703893733
313.15	.167	.333	104.563066783657	.219472703893733
318.15	.167	.333	105.033365434858	.219472703893733
323.15	.167	.333	105.503664086059	.219472703893733
328.15	.167	.333	105.942609493846	.219472703893733
333.15	.167	.333	106.35020165822	.219472703893733
338.15	.167	.333	106.632380848941	.219472703893733
343.15	.167	.333	106.789147066008	.219472703893733
308.15	.2	.4	107.619002377552	.257637830589215
313.15	.2	.4	108.31830506058	.257637830589215
318.15	.2	.4	108.943996934868	.257637830589215
323.15	.2	.4	109.532883404786	.257637830589215
328.15	.2	.4	110.084964470335	.257637830589215
333.15	.2	.4	110.637045535883	.257637830589215
338.15	.2	.4	111.078710388322	.257637830589215
343.15	.2	.4	111.409959027651	.257637830589215
308.15	.233	.467	111.827824114507	.311870425817349
313.15	.233	.467	112.496117884115	.311870425817349
318.15	.233	.467	113.164411653724	.311870425817349
323.15	.233	.467	113.877258341306	.311870425817349
328.15	.233	.467	114.545552110915	.311870425817349
333.15	.233	.467	115.124740044576	.311870425817349
338.15	.233	.467	115.659375060263	.311870425817349
343.15	.233	.467	115.97124548608	.311870425817349

System: propylene glycol + lithium bromide + water; phases: Liquid
Fixed: Pressure, kPa = 101
Property: Molar heat capacity at constant pressure, J/K/mol (Liquid); method: Large sample (1 g) DSC
Temperature, K	Mass fraction of lithium bromide	Mass fraction of propylene glycol	Molar heat capacity at constant pressure, J/K/mol	uncertainty
308.15	.1	.2	84.15483801188	.164181679510357
313.15	.1	.2	84.3190196913904	.164181679510357
318.15	.1	.2	84.5066558965451	.164181679510357
323.15	.1	.2	84.6473830504111	.164181679510357
328.15	.1	.2	84.8350192555658	.164181679510357
333.15	.1	.2	84.9757464094318	.164181679510357
338.15	.1	.2	85.0695645120092	.164181679510357
343.15	.1	.2	84.9522918837875	.164181679510357
308.15	.133	.267	87.5204501151554	.182551594399907
313.15	.133	.267	87.6508441111553	.182551594399907
318.15	.133	.267	87.8594745047552	.182551594399907
323.15	.133	.267	88.1202624967551	.182551594399907
328.15	.133	.267	88.328892890355	.182551594399907
333.15	.133	.267	88.4592868863549	.182551594399907
338.15	.133	.267	88.6157596815548	.182551594399907
343.15	.133	.267	88.5896808823548	.182551594399907
308.15	.167	.333	90.6519383428592	.205559950890837
313.15	.167	.333	91.0336925373707	.205559950890837
318.15	.167	.333	91.3860810246122	.205559950890837
323.15	.167	.333	91.7091038045835	.205559950890837
328.15	.167	.333	92.0027608772847	.205559950890837
333.15	.167	.333	92.2376865354456	.205559950890837
338.15	.167	.333	92.3845150717962	.205559950890837
343.15	.167	.333	92.3845150717962	.205559950890837
308.15	.2	.4	94.6142619204841	.235191702217113
313.15	.2	.4	95.1518429541232	.235191702217113
318.15	.2	.4	95.5550287293526	.235191702217113
323.15	.2	.4	95.9582145045819	.235191702217113
328.15	.2	.4	96.3614002798112	.235191702217113
333.15	.2	.4	96.6973884258357	.235191702217113
338.15	.2	.4	96.9325801280528	.235191702217113
343.15	.2	.4	97.0333765718601	.235191702217113
308.15	.233	.467	100.107630708131	.27480526076742
313.15	.233	.467	100.735757018457	.27480526076742
318.15	.233	.467	101.206851751201	.27480526076742
323.15	.233	.467	101.717204378341	.27480526076742
328.15	.233	.467	102.22755700548	.27480526076742
333.15	.233	.467	102.698651738224	.27480526076742
338.15	.233	.467	103.051972787782	.27480526076742
343.15	.233	.467	103.640841203713	.27480526076742

System: sodium formate + lithium bromide + water; phases: Liquid
Fixed: Pressure, kPa = 101
Property: Molar heat capacity at constant pressure, J/K/mol (Liquid); method: Large sample (1 g) DSC
Temperature, K	Mass fraction of lithium bromide	Mass fraction of sodium formate	Molar heat capacity at constant pressure, J/K/mol	uncertainty
308.15	.133	.067	72.4372033747993	.213113278537215
313.16	.133	.067	72.5437600140679	.213113278537215
318.15	.133	.067	72.6503166533365	.213113278537215
323.15	.133	.067	72.7355619647514	.213113278537215
328.15	.133	.067	72.7994959483126	.213113278537215
333.15	.133	.067	72.84211860402	.213113278537215
338.15	.133	.067	72.8634299318737	.213113278537215
343.15	.133	.067	72.8847412597274	.213113278537215
348.15	.133	.067	72.8847412597274	.213113278537215
353.15	.133	.067	72.84211860402	.213113278537215
308.15	.2	.1	72.6964950714507	.234580493938208
313.16	.2	.1	72.8372433678137	.234580493938208
318.15	.2	.1	72.9545336147828	.234580493938208
323.15	.2	.1	73.048365812358	.234580493938208
328.15	.2	.1	73.1187399605395	.234580493938208
333.15	.2	.1	73.189114108721	.234580493938208
338.15	.2	.1	73.2360302075086	.234580493938208
343.15	.2	.1	73.2594882569024	.234580493938208
348.15	.2	.1	73.2594882569024	.234580493938208
353.15	.2	.1	73.3064043556901	.234580493938208
308.15	.267	.133	71.6574194086601	.260857005492028
313.16	.267	.133	71.7095908097585	.260857005492028
318.15	.267	.133	71.7878479114061	.260857005492028
323.15	.267	.133	71.8139336119553	.260857005492028
328.15	.267	.133	71.8400193125045	.260857005492028
333.15	.267	.133	71.8400193125045	.260857005492028
338.15	.267	.133	71.8400193125045	.260857005492028
343.15	.267	.133	71.8400193125045	.260857005492028
348.15	.267	.133	71.8139336119553	.260857005492028
353.15	.267	.133	71.7878479114061	.260857005492028
308.15	.3	.15	72.7002071187912	.276321577798522
313.16	.3	.15	72.7278392765711	.276321577798522
318.15	.3	.15	72.7554714343509	.276321577798522
323.15	.3	.15	72.7831035921308	.276321577798522
328.15	.3	.15	72.7831035921308	.276321577798522
333.15	.3	.15	72.7831035921308	.276321577798522
338.15	.3	.15	72.7831035921308	.276321577798522
343.15	.3	.15	72.7554714343509	.276321577798522
348.15	.3	.15	72.7554714343509	.276321577798522
353.15	.3	.15	72.8107357499106	.276321577798522

System: potassium formate + lithium bromide + water; phases: Liquid
Fixed: Pressure, kPa = 101
Property: Molar heat capacity at constant pressure, J/K/mol (Liquid); method: Large sample (1 g) DSC
Temperature, K	Mass fraction of lithium bromide	Mass fraction of potassium formate	Molar heat capacity at constant pressure, J/K/mol	uncertainty
308.15	.133	.067	71.3388038308491	.34235778683071
313.16	.133	.067	71.4029959158799	.34235778683071
318.15	.133	.067	71.4029959158799	.34235778683071
323.15	.133	.067	71.4029959158799	.34235778683071
328.15	.133	.067	71.381598554203	.34235778683071
333.15	.133	.067	71.381598554203	.34235778683071
338.15	.133	.067	71.4243932775568	.34235778683071
343.15	.133	.067	71.4671880009107	.34235778683071
348.15	.133	.067	71.4885853625876	.34235778683071
353.15	.133	.067	71.5099827242645	.34235778683071
308.15	.2	.1	71.4796853197036	.377824567266355
313.16	.2	.1	71.5977554969743	.377824567266355
318.15	.2	.1	71.6685976033368	.377824567266355
323.15	.2	.1	71.715825674245	.377824567266355
328.15	.2	.1	71.715825674245	.377824567266355
333.15	.2	.1	71.6922116387909	.377824567266355
338.15	.2	.1	71.6213695324285	.377824567266355
343.15	.2	.1	71.5269133906119	.377824567266355
348.15	.2	.1	71.4324572487953	.377824567266355
353.15	.2	.1	71.3380011069787	.377824567266355
308.15	.267	.133	69.1505386696423	.421488997605439
313.16	.267	.133	69.3085970437444	.421488997605439
318.15	.267	.133	69.4666554178464	.421488997605439
323.15	.267	.133	69.5720276672478	.421488997605439
328.15	.267	.133	69.6773999166491	.421488997605439
333.15	.267	.133	69.7300860413498	.421488997605439
338.15	.267	.133	69.7564291037002	.421488997605439
343.15	.267	.133	69.7827721660505	.421488997605439
348.15	.267	.133	69.7827721660505	.421488997605439
353.15	.267	.133	69.8354582907512	.421488997605439
