Measured thermophysical data. Isobaric Vapor Liquid Equilibrium for the Binary Systems (Diethylamine + Ethanol), (Ethanol + N,N-Diethylethanolamine), and (Diethylamine + N,N-Diethylethanolamine) at p = (80.0 and 40.0) kPa
Source: J. Chem. Eng. Data, 2014, 10.1021/je4008712
Compound 1: diethylamine, C4H11N, purity 99%
Compound 2: ethanol, C2H6O, purity 99.9%
Compound 3: N,N-diethylethanolamine, C6H15NO, purity 98%

System: diethylamine; phases: Liquid, Gas
Property: Normal boiling temperature, K (Liquid); method: Ebulliometric method (Recirculating still)
Normal boiling temperature, K	uncertainty
328.65	.1

System: diethylamine; phases: Liquid, Gas
Property: Vapor or sublimation pressure, kPa (Liquid); method: Ebulliometric method (Recirculating still)
Temperature, K	Vapor or sublimation pressure, kPa	uncertainty
321.68	80	.3
303.58	40	.3

System: ethanol; phases: Liquid, Gas
Property: Normal boiling temperature, K (Liquid); method: Ebulliometric method (Recirculating still)
Normal boiling temperature, K	uncertainty
351.65	.1

System: ethanol; phases: Liquid, Gas
Property: Vapor or sublimation pressure, kPa (Liquid); method: Ebulliometric method (Recirculating still)
Temperature, K	Vapor or sublimation pressure, kPa	uncertainty
345.58	80	.3
329.63	40	.3

System: N,N-diethylethanolamine; phases: Liquid, Gas
Property: Normal boiling temperature, K (Liquid); method: Ebulliometric method (Recirculating still)
Normal boiling temperature, K	uncertainty
435.85	.1

System: N,N-diethylethanolamine; phases: Liquid, Gas
Property: Vapor or sublimation pressure, kPa (Liquid); method: Ebulliometric method (Recirculating still)
Temperature, K	Vapor or sublimation pressure, kPa	uncertainty
428.11	80	.3
406	40	.3

System: ethanol + diethylamine; phases: Liquid, Gas
Property: Boiling temperature at pressure P, K (Liquid); method: Ebulliometric method (Recirculating still)
Mole fraction of diethylamine	Pressure, kPa	Boiling temperature at pressure P, K	uncertainty
0	80	345.58	.1
.093	80	345.52	.1
.189	80	344.94	.1
.281	80	343.17	.1
.333	80	341.84	.1
.388	80	340.23	.1
.452	80	338.13	.1
.542	80	335.06	.1
.682	80	330.35	.1
.75	80	328.23	.1
.865	80	324.97	.1
.911	80	323.79	.1
1	80	321.68	.1
0	40	329.63	.1
.095	40	329.58	.1
.188	40	328.97	.1
.292	40	327.43	.1
.338	40	326.42	.1
.389	40	324.98	.1
.453	40	322.95	.1
.547	40	319.43	.1
.684	40	313.91	.1
.756	40	311.09	.1
.87	40	307.08	.1
.915	40	305.75	.1
1	40	303.58	.1

System: ethanol + diethylamine; phases: Gas, Liquid
Property: Mole fraction of diethylamine (Gas); method: Chromatography
Mole fraction of diethylamine	Pressure, kPa	Mole fraction of diethylamine	uncertainty
0	80	0	.001
.093	80	.111	.001
.189	80	.245	.001
.281	80	.399	.001
.333	80	.487	.001
.388	80	.578	.001
.452	80	.658	.001
.542	80	.759	.001
.682	80	.868	.001
.75	80	.916	.001
.865	80	.966	.001
.911	80	.989	.001
1	80	1	.001
0	40	0	.001
.095	40	.112	.001
.188	40	.236	.001
.292	40	.416	.001
.338	40	.507	.001
.389	40	.587	.001
.453	40	.676	.001
.547	40	.804	.001
.684	40	.913	.001
.756	40	.959	.001
.87	40	.989	.001
.915	40	.994	.001
1	40	1	.001

System: ethanol + N,N-diethylethanolamine; phases: Liquid, Gas
Property: Boiling temperature at pressure P, K (Liquid); method: Ebulliometric method (Recirculating still)
Mole fraction of ethanol	Pressure, kPa	Boiling temperature at pressure P, K	uncertainty
0	80	428.11	.1
.018	80	422.34	.1
.026	80	420.05	.1
.043	80	415.62	.1
.069	80	409.65	.1
.125	80	399.09	.1
.214	80	387.12	.1
.291	80	379.45	.1
.342	80	374.98	.1
.48	80	365.82	.1
.596	80	359.78	.1
.649	80	357.47	.1
.723	80	354.24	.1
.843	80	350.38	.1
.93	80	347.29	.1
1	80	345.58	.1
0	40	406	.1
.015	40	401.36	.1
.023	40	398.98	.1
.042	40	394.04	.1
.068	40	388.27	.1
.123	40	378.5	.1
.208	40	367.63	.1
.289	40	359.95	.1
.339	40	356.07	.1
.478	40	347.45	.1
.591	40	342.39	.1
.644	40	339.94	.1
.72	40	337.18	.1
.839	40	333.54	.1
.924	40	331.35	.1
1	40	329.63	.1

System: ethanol + N,N-diethylethanolamine; phases: Gas, Liquid
Property: Mole fraction of ethanol (Gas); method: Chromatography
Mole fraction of ethanol	Pressure, kPa	Mole fraction of ethanol	uncertainty
0	80	0	.001
.018	80	.174	.001
.026	80	.238	.001
.043	80	.351	.001
.069	80	.481	.001
.125	80	.666	.001
.214	80	.805	.001
.291	80	.87	.001
.342	80	.899	.001
.48	80	.946	.001
.596	80	.968	.001
.649	80	.975	.001
.723	80	.983	.001
.843	80	.992	.001
.93	80	.997	.001
1	80	1	.001
0	40	0	.001
.015	40	.158	.001
.023	40	.231	.001
.042	40	.367	.001
.068	40	.501	.001
.123	40	.677	.001
.208	40	.815	.001
.289	40	.886	.001
.339	40	.912	.001
.478	40	.954	.001
.591	40	.972	.001
.644	40	.979	.001
.72	40	.986	.001
.839	40	.994	.001
.924	40	.998	.001
1	40	1	.001

System: N,N-diethylethanolamine + diethylamine; phases: Liquid, Gas
Property: Boiling temperature at pressure P, K (Liquid); method: Ebulliometric method (Recirculating still)
Mole fraction of diethylamine	Pressure, kPa	Boiling temperature at pressure P, K	uncertainty
0	80	428.11	.1
.012	80	423.72	.1
.024	80	419.13	.1
.036	80	414.68	.1
.052	80	409.49	.1
.06	80	406.81	.1
.128	80	389.18	.1
.214	80	373.74	.1
.325	80	359.56	.1
.409	80	351.61	.1
.513	80	343.33	.1
.641	80	335.69	.1
.785	80	328.92	.1
.886	80	325.08	.1
1	80	321.68	.1
0	40	406	.1
.002	40	404.91	.1
.019	40	396.63	.1
.029	40	391.89	.1
.046	40	384.94	.1
.059	40	380.28	.1
.126	40	362.15	.1
.207	40	348.08	.1
.319	40	335.33	.1
.399	40	328.76	.1
.502	40	322.13	.1
.638	40	315.26	.1
.779	40	309.86	.1
.877	40	306.85	.1
1	40	303.58	.1

System: N,N-diethylethanolamine + diethylamine; phases: Gas, Liquid
Property: Mole fraction of diethylamine (Gas); method: Chromatography
Mole fraction of diethylamine	Pressure, kPa	Mole fraction of diethylamine	uncertainty
0	80	0	.001
.012	80	.135	.001
.024	80	.258	.001
.036	80	.366	.001
.052	80	.478	.001
.06	80	.527	.001
.128	80	.764	.001
.214	80	.883	.001
.325	80	.945	.001
.409	80	.967	.001
.513	80	.983	.001
.641	80	.992	.001
.785	80	.997	.001
.886	80	.999	.001
1	80	1	.001
0	40	0	.001
.002	40	.034	.001
.019	40	.285	.001
.029	40	.394	.001
.046	40	.532	.001
.059	40	.613	.001
.126	40	.831	.001
.207	40	.924	.001
.319	40	.966	.001
.399	40	.979	.001
.502	40	.988	.001
.638	40	.992	.001
.779	40	.998	.001
.877	40	.999	.001
1	40	1	.001
