Measured thermophysical data. Isothermal Vapor Liquid Equilibrium Data for the Butan-2-one + Methanol or Ethanol Systems Using a Static-Analytic Microcell
Source: J. Chem. Eng. Data, 2013, 10.1021/je400065j
Compound 1: methyl alcohol, CH4O, purity 99.9%
Compound 2: ethanol, C2H6O, purity 99.5%
Compound 3: ethyl methyl ketone, C4H8O, purity 99.5%

System: methyl alcohol; phases: Liquid
Fixed: Pressure, kPa = 101.325
Property: Refractive index (Na D-line) (Liquid); method: Standard Abbe refractometry
Temperature, K	Refractive index (Na D-line)	uncertainty
293.15	1.3287	.0001

System: methyl alcohol; phases: Liquid, Gas
Property: Vapor or sublimation pressure, kPa (Liquid); method: Closed cell (Static) method
Temperature, K	Vapor or sublimation pressure, kPa	uncertainty
383.3	480.7	.7
398.1	733.7	.7
413.2	1086	.7

System: ethanol; phases: Liquid
Fixed: Pressure, kPa = 101.325
Property: Refractive index (Na D-line) (Liquid); method: Standard Abbe refractometry
Temperature, K	Refractive index (Na D-line)	uncertainty
293.15	1.3618	.0001

System: ethanol; phases: Liquid, Gas
Property: Vapor or sublimation pressure, kPa (Liquid); method: Closed cell (Static) method
Temperature, K	Vapor or sublimation pressure, kPa	uncertainty
383.3	315.6	.7
398.2	498.3	.7
413.2	757	.7

System: ethyl methyl ketone; phases: Liquid
Fixed: Pressure, kPa = 101.325
Property: Refractive index (Na D-line) (Liquid); method: Standard Abbe refractometry
Temperature, K	Refractive index (Na D-line)	uncertainty
293.15	1.3788	.0001

System: ethyl methyl ketone; phases: Liquid, Gas
Property: Vapor or sublimation pressure, kPa (Liquid); method: Closed cell (Static) method
Temperature, K	Vapor or sublimation pressure, kPa	uncertainty
383.3	245.6	.7
398.1	358.5	.7
413.2	506.6	.7
398.2	358.5	.7

System: methyl alcohol + ethyl methyl ketone; phases: Liquid, Gas
Property: Vapor or sublimation pressure, kPa (Liquid); method: Closed cell (Static) method
Mole fraction of methyl alcohol	Temperature, K	Vapor or sublimation pressure, kPa	uncertainty
0	383.3	245.6	.7
.131	383.3	305.9	.7
.292	383.3	359.3	.7
.385	383.3	387	.7
.545	383.3	427.1	.7
.599	383.3	436.4	.7
.72	383.3	455.3	.7
.778	383.3	463.5	.7
.863	383.3	472.1	.7
.906	383.3	476.3	.7
.974	383.3	479.4	.7
1	383.3	480.7	.7
0	398.1	358.5	.7
.165	398.1	466.3	.7
.305	398.1	540.7	.7
.382	398.1	576.7	.7
.459	398.1	608	.7
.548	398.1	637	.7
.693	398.1	678.7	.7
.849	398.1	713.2	.7
1	398.1	733.7	.7
0	413.2	506.6	.7
.113	413.2	619.8	.7
.171	413.2	668	.7
.254	413.2	731.7	.7
.351	413.2	800.6	.7
.434	413.2	853.5	.7
.55	413.2	920.2	.7
.673	413.2	981.1	.7
.78	413.2	1024.6	.7
.889	413.2	1059.5	.7
1	413.2	1086	.7

System: methyl alcohol + ethyl methyl ketone; phases: Gas, Liquid
Property: Mole fraction of methyl alcohol (Gas); method: Chromatography
Mole fraction of methyl alcohol	Temperature, K	Mole fraction of methyl alcohol	uncertainty
0	383.3	0	.004
.131	383.3	.266	.004
.292	383.3	.48	.004
.385	383.3	.573	.004
.545	383.3	.701	.004
.599	383.3	.731	.004
.72	383.3	.8	.004
.778	383.3	.834	.004
.863	383.3	.89	.004
.906	383.3	.917	.004
.974	383.3	.975	.004
1	383.3	1	.004
0	398.1	0	.004
.165	398.1	.338	.004
.305	398.1	.521	.004
.382	398.1	.591	.004
.459	398.1	.656	.004
.548	398.1	.703	.004
.693	398.1	.798	.004
.849	398.1	.887	.004
1	398.1	1	.004
0	413.2	0	.004
.113	413.2	.256	.004
.171	413.2	.348	.004
.254	413.2	.459	.004
.351	413.2	.551	.004
.434	413.2	.628	.004
.55	413.2	.715	.004
.673	413.2	.786	.004
.78	413.2	.85	.004
.889	413.2	.914	.004
1	413.2	1	.004

System: ethanol + ethyl methyl ketone; phases: Liquid, Gas
Property: Vapor or sublimation pressure, kPa (Liquid); method: Closed cell (Static) method
Mole fraction of ethanol	Temperature, K	Vapor or sublimation pressure, kPa	uncertainty
0	383.3	245.6	.7
.111	383.3	271.6	.7
.16	383.3	279.8	.7
.231	383.3	290.3	.7
.29	383.3	297.9	.7
.358	383.3	304.5	.7
.465	383.3	314	.7
.645	383.3	321.8	.7
.755	383.3	323.1	.7
.858	383.3	322	.7
1	383.3	315.6	.7
0	398.2	358.5	.7
.135	398.2	405.6	.7
.202	398.2	423.5	.7
.244	398.2	433.9	.7
.358	398.2	457.4	.7
.537	398.2	483.3	.7
.588	398.2	488.4	.7
.749	398.2	499.3	.7
.842	398.2	501.4	.7
1	398.2	498.3	.7
0	413.2	506.6	.7
.122	413.2	572.6	.7
.208	413.2	607.7	.7
.295	413.2	639.5	.7
.37	413.2	662.7	.7
.492	413.2	695.7	.7
.554	413.2	710.2	.7
.641	413.2	726.7	.7
.718	413.2	740.7	.7
.835	413.2	753.8	.7
.9	413.2	756.9	.7
.916	413.2	758.7	.7
1	413.2	757	.7

System: ethanol + ethyl methyl ketone; phases: Gas, Liquid
Property: Mole fraction of ethanol (Gas); method: Chromatography
Mole fraction of ethanol	Temperature, K	Mole fraction of ethanol	uncertainty
0	383.3	0	.004
.111	383.3	.187	.004
.16	383.3	.244	.004
.231	383.3	.328	.004
.29	383.3	.393	.004
.358	383.3	.45	.004
.465	383.3	.527	.004
.645	383.3	.67	.004
.755	383.3	.752	.004
.858	383.3	.842	.004
1	383.3	1	.004
0	398.2	0	.004
.135	398.2	.221	.004
.202	398.2	.304	.004
.244	398.2	.358	.004
.358	398.2	.47	.004
.537	398.2	.607	.004
.588	398.2	.651	.004
.749	398.2	.768	.004
.842	398.2	.843	.004
1	398.2	1	.004
0	413.2	0	.004
.122	413.2	.207	.004
.208	413.2	.32	.004
.295	413.2	.419	.004
.37	413.2	.491	.004
.492	413.2	.592	.004
.554	413.2	.64	.004
.641	413.2	.703	.004
.718	413.2	.759	.004
.835	413.2	.843	.004
.9	413.2	.903	.004
.916	413.2	.919	.004
1	413.2	1	.004
