Measured thermophysical data. Experimental Measurement and Modeling of Phase Diagrams of Binary Systems Encountered in the Gasoline Desulfurization Process Using Ionic Liquids
Source: J. Chem. Eng. Data, 2014, 10.1021/je400510j
Compound 1: 1,3-dimethylimidazolium methylphosphonate, C6H13N2O3P, purity 98%
Compound 2: 1-ethyl-3-methylimidazolium thiocyanate, C7H11N3S, purity 95%
Compound 3: pyridine, C5H5N, purity 99.8%
Compound 4: thiophene, C4H4S, purity 99.8%
Compound 5: toluene, C7H8, purity 99%
Compound 6: water, H2O

System: 1,3-dimethylimidazolium methylphosphonate; phases: Liquid
Fixed: Pressure, kPa = 101.325
Property: Mass density, kg/m3 (Liquid); method: Vibrating tube method
Temperature, K	Mass density, kg/m3	uncertainty
298.15	1230.6	.1
299.45	1229.8	.1
300.75	1229.3	.1
302.15	1228.6	.1
303.45	1227.9	.1
304.75	1227.3	.1
305.85	1226.6	.1
307.15	1225.8	.1
308.65	1224.9	.1
310.35	1223.9	.1
311.75	1223.1	.1
313.05	1222.4	.1
314.45	1221.5	.1
315.85	1220.7	.1
317.25	1219.9	.1
318.75	1219.2	.1

System: pyridine; phases: Liquid, Gas
Property: Vapor or sublimation pressure, kPa (Liquid); method: Closed cell (Static) method
Temperature, K	Vapor or sublimation pressure, kPa	uncertainty
288.15	1.65	.05
293.15	2.2	.05
298.15	2.83	.05
288.15	1.72	.05
293.15	2.25	.05
298.15	2.85	.05
303.15	3.45	.05

System: thiophene; phases: Liquid, Gas
Property: Vapor or sublimation pressure, kPa (Liquid); method: Closed cell (Static) method
Temperature, K	Vapor or sublimation pressure, kPa	uncertainty
288.15	6.78	.05
293.15	8.7	.05
298.15	10.37	.05
288.15	6.75	.05
293.15	8.74	.05
298.15	10.58	.05
303.15	12.98	.05

System: toluene; phases: Liquid, Gas
Property: Vapor or sublimation pressure, kPa (Liquid); method: Closed cell (Static) method
Temperature, K	Vapor or sublimation pressure, kPa	uncertainty
288.15	2.42	.05
293.15	3.18	.05
288.15	2.35	.05
293.15	3.05	.05
298.15	3.84	.05
303.15	4.73	.05

System: water; phases: Liquid, Gas
Property: Vapor or sublimation pressure, kPa (Liquid); method: Closed cell (Static) method
Temperature, K	Vapor or sublimation pressure, kPa	uncertainty
283.15	1.27	.05
288.15	1.73	.05
293.15	2.33	.05
298.15	3.2	.05

System: water + 1-ethyl-3-methylimidazolium thiocyanate; phases: Liquid, Gas
Property: Vapor or sublimation pressure, kPa (Liquid); method: Closed cell (Static) method
Temperature, K	Mole fraction of water	Vapor or sublimation pressure, kPa	uncertainty
283.15	1	1.27	.05
283.15	.8971	1.2	.05
283.15	.8016	.97	.05
283.15	.7061	.79	.05
283.15	.6183	.63	.05
283.15	.511	.45	.05
283.15	.4113	.32	.05
283.15	.3253	.23	.05
283.15	.2642	.2	.05
283.15	.1229	.15	.05
288.15	1	1.73	.05
288.15	.8971	1.62	.05
288.15	.8016	1.37	.05
288.15	.7061	1.09	.05
288.15	.6183	.84	.05
288.15	.511	.65	.05
288.15	.4113	.46	.05
288.15	.3253	.36	.05
288.15	.2642	.3	.05
288.15	.1229	.21	.05
293.15	1	2.33	.05
293.15	.8971	2.19	.05
293.15	.8016	1.78	.05
293.15	.7061	1.48	.05
293.15	.6183	1.19	.05
293.15	.511	.85	.05
293.15	.4113	.62	.05
293.15	.3253	.46	.05
293.15	.2642	.37	.05
293.15	.1229	.25	.05
298.15	1	3.2	.05
298.15	.8971	2.93	.05
298.15	.8016	2.45	.05
298.15	.7061	1.96	.05
298.15	.6183	1.53	.05
298.15	.511	1.13	.05
298.15	.4113	.82	.05
298.15	.3253	.58	.05
298.15	.2642	.5	.05
298.15	.1229	.3	.05

System: toluene + 1-ethyl-3-methylimidazolium thiocyanate; phases: Liquid, Gas
Property: Vapor or sublimation pressure, kPa (Liquid); method: Closed cell (Static) method
Temperature, K	Mole fraction of toluene	Vapor or sublimation pressure, kPa	uncertainty
288.15	1	2.42	.05
288.15	.8879	2.38	.05
288.15	.1872	1.98	.05
288.15	.0957	1.28	.05
288.15	.0438	.63	.05
293.15	1	3.18	.05
293.15	.8879	3.1	.05
293.15	.1872	2.68	.05
293.15	.0957	1.62	.05
293.15	.0438	.86	.05
298.15	.1872	3.2	.05
298.15	.0957	1.96	.05
298.15	.0438	1.15	.05

System: toluene + 1-ethyl-3-methylimidazolium thiocyanate; phases: Liquid mixture 1, Liquid mixture 2, Gas
Property: Vapor or sublimation pressure, kPa (Liquid mixture 1); method: Closed cell (Static) method
Temperature, K	Vapor or sublimation pressure, kPa	uncertainty
288.15	2.328	.05
293.15	3.04	.05
298.15	3.76	.05

System: thiophene + 1-ethyl-3-methylimidazolium thiocyanate; phases: Liquid, Gas
Property: Vapor or sublimation pressure, kPa (Liquid); method: Closed cell (Static) method
Temperature, K	Mole fraction of thiophene	Vapor or sublimation pressure, kPa	uncertainty
288.15	1	6.78	.05
288.15	.6009	5.83	.05
288.15	.4941	4.94	.05
288.15	.3985	4.01	.05
288.15	.2999	3.11	.05
288.15	.2028	2.28	.05
288.15	.098	1.15	.05
288.15	.0526	.68	.05
293.15	1	8.7	.05
293.15	.6954	8.38	.05
293.15	.6009	7.64	.05
293.15	.4941	6.33	.05
293.15	.3985	5.2	.05
293.15	.2999	3.82	.05
293.15	.2028	2.8	.05
293.15	.098	1.52	.05
293.15	.0526	.92	.05
298.15	1	10.37	.05
298.15	.6009	9.73	.05
298.15	.4941	8.13	.05
298.15	.3985	6.7	.05
298.15	.2999	5.14	.05
298.15	.2028	3.63	.05
298.15	.098	1.89	.05
298.15	.0526	1.18	.05
288.15	.6954	6.64	.05
298.15	.6954	10.25	.05

System: thiophene + 1-ethyl-3-methylimidazolium thiocyanate; phases: Liquid mixture 1, Liquid mixture 2, Gas
Property: Vapor or sublimation pressure, kPa (Liquid mixture 1); method: Closed cell (Static) method
Temperature, K	Vapor or sublimation pressure, kPa	uncertainty
288.15	6.663	.05
293.15	8.54	.05
298.15	10.327	.05

System: pyridine + 1-ethyl-3-methylimidazolium thiocyanate; phases: Liquid, Gas
Property: Vapor or sublimation pressure, kPa (Liquid); method: Closed cell (Static) method
Temperature, K	Mole fraction of pyridine	Vapor or sublimation pressure, kPa	uncertainty
288.15	1	1.65	.05
288.15	.9022	1.59	.05
288.15	.8001	1.45	.05
288.15	.7185	1.36	.05
288.15	.5964	1.14	.05
288.15	.4948	.96	.05
288.15	.3971	.8	.05
288.15	.305	.59	.05
288.15	.1956	.44	.05
288.15	.11	.28	.05
293.15	1	2.2	.05
293.15	.9022	2.13	.05
293.15	.8001	1.95	.05
293.15	.7185	1.84	.05
293.15	.5964	1.53	.05
293.15	.4948	1.3	.05
293.15	.3971	1.08	.05
293.15	.305	.8	.05
293.15	.1956	.63	.05
293.15	.11	.38	.05
298.15	1	2.83	.05
298.15	.9022	2.71	.05
298.15	.8001	2.54	.05
298.15	.7185	2.38	.05
298.15	.5964	2.03	.05
298.15	.4948	1.7	.05
298.15	.3971	1.42	.05
298.15	.305	1.12	.05
298.15	.1956	.82	.05
298.15	.11	.57	.05

System: water + 1,3-dimethylimidazolium methylphosphonate; phases: Liquid, Gas
Property: Vapor or sublimation pressure, kPa (Liquid); method: Closed cell (Static) method
Temperature, K	Mole fraction of water	Vapor or sublimation pressure, kPa	uncertainty
283.15	1	1.27	.05
283.15	.8981	.96	.05
283.15	.8003	.72	.05
283.15	.7072	.47	.05
283.15	.6093	.35	.05
283.15	.5232	.26	.05
283.15	.416	.17	.05
283.15	.3274	.13	.05
283.15	.2154	.1	.05
288.15	1	1.73	.05
288.15	.8981	1.37	.05
288.15	.8003	.93	.05
288.15	.7072	.67	.05
288.15	.6093	.5	.05
288.15	.5232	.36	.05
288.15	.416	.25	.05
288.15	.3274	.2	.05
288.15	.2154	.15	.05
293.15	1	2.33	.05
293.15	.8981	1.86	.05
293.15	.8003	1.28	.05
293.15	.7072	.89	.05
293.15	.6093	.62	.05
293.15	.5232	.49	.05
293.15	.416	.35	.05
293.15	.3274	.26	.05
293.15	.2154	.2	.05
298.15	1	3.2	.05
298.15	.8981	2.43	.05
298.15	.8003	1.92	.05
298.15	.7072	1.16	.05
298.15	.6093	.85	.05
298.15	.5232	.7	.05
298.15	.416	.47	.05
298.15	.3274	.35	.05
298.15	.2154	.25	.05

System: toluene + 1,3-dimethylimidazolium methylphosphonate; phases: Liquid, Gas
Property: Vapor or sublimation pressure, kPa (Liquid); method: Closed cell (Static) method
Temperature, K	Mole fraction of toluene	Vapor or sublimation pressure, kPa	uncertainty
288.15	1	2.35	.05
288.15	.8916	2.3	.05
288.15	.1004	2.17	.05
288.15	.0654	1.45	.05
288.15	.0434	.9	.05
293.15	1	3.05	.05
293.15	.9235	2.96	.05
293.15	.1139	2.79	.05
293.15	.0651	1.86	.05
293.15	.0414	1.23	.05
298.15	1	3.84	.05
298.15	.9235	3.82	.05
298.15	.1139	3.68	.05
298.15	.0651	2.2	.05
298.15	.0414	1.48	.05
303.15	1	4.73	.05
303.15	.9235	4.68	.05
303.15	.8532	4.63	.05
303.15	.1139	4.5	.05
303.15	.0651	2.9	.05
303.15	.0414	1.88	.05

System: toluene + 1,3-dimethylimidazolium methylphosphonate; phases: Liquid mixture 1, Liquid mixture 2, Gas
Property: Vapor or sublimation pressure, kPa (Liquid mixture 1); method: Closed cell (Static) method
Temperature, K	Vapor or sublimation pressure, kPa	uncertainty
288.15	2.259	.05
293.15	2.881	.05
298.15	3.763	.05
303.15	4.573	.05

System: thiophene + 1,3-dimethylimidazolium methylphosphonate; phases: Liquid, Gas
Property: Vapor or sublimation pressure, kPa (Liquid); method: Closed cell (Static) method
Temperature, K	Mole fraction of thiophene	Vapor or sublimation pressure, kPa	uncertainty
288.15	1	6.75	.05
288.15	.9507	6.69	.05
288.15	.9155	6.6	.05
288.15	.3724	5.9	.05
288.15	.3001	5.18	.05
288.15	.2353	4.16	.05
288.15	.1071	2.54	.05
293.15	1	8.74	.05
293.15	.9497	8.69	.05
293.15	.3646	7.58	.05
293.15	.2308	4.84	.05
293.15	.1187	3.16	.05
298.15	1	10.58	.05
298.15	.3646	9.29	.05
298.15	.2308	5.93	.05
298.15	.1187	3.7	.05
303.15	1	12.98	.05
303.15	.4985	11.24	.05
303.15	.3646	10.57	.05
303.15	.2308	7.2	.05
303.15	.1187	4.29	.05

System: thiophene + 1,3-dimethylimidazolium methylphosphonate; phases: Liquid mixture 1, Liquid mixture 2, Gas
Property: Vapor or sublimation pressure, kPa (Liquid mixture 1); method: Closed cell (Static) method
Temperature, K	Vapor or sublimation pressure, kPa	uncertainty
288.15	6.548	.05
293.15	8.474	.05
298.15	10.34	.05
303.15	12.4	.05

System: pyridine + 1,3-dimethylimidazolium methylphosphonate; phases: Liquid, Gas
Property: Vapor or sublimation pressure, kPa (Liquid); method: Closed cell (Static) method
Temperature, K	Mole fraction of pyridine	Vapor or sublimation pressure, kPa	uncertainty
288.15	1	1.72	.05
288.15	.9013	1.66	.05
288.15	.7794	1.58	.05
288.15	.7066	1.58	.05
288.15	.5934	1.57	.05
288.15	.5061	1.48	.05
288.15	.4364	1.38	.05
288.15	.301	1.08	.05
288.15	.2201	.84	.05
288.15	.1242	.53	.05
293.15	1	2.25	.05
293.15	.9013	2.13	.05
293.15	.7794	2.05	.05
293.15	.7066	2.06	.05
293.15	.5934	1.98	.05
293.15	.5061	1.91	.05
293.15	.4364	1.79	.05
293.15	.301	1.46	.05
293.15	.2201	1.09	.05
293.15	.1242	.69	.05
298.15	1	2.85	.05
298.15	.9013	2.76	.05
298.15	.7794	2.57	.05
298.15	.7066	2.56	.05
298.15	.5934	2.43	.05
298.15	.5061	2.32	.05
298.15	.4364	2.26	.05
298.15	.301	1.86	.05
298.15	.2201	1.4	.05
298.15	.1242	.91	.05
303.15	1	3.45	.05
303.15	.9013	3.37	.05
303.15	.7794	3.12	.05
303.15	.7066	3.08	.05
303.15	.5934	2.9	.05
303.15	.5061	2.82	.05
303.15	.4364	2.75	.05
303.15	.301	2.41	.05
303.15	.2201	1.78	.05
303.15	.1242	1.16	.05
