Measured thermophysical data. Volumetric Properties of Binary Mixtures of 1-Butyl-1-Methylpyrrolidinium Tris(pentafluoroethyl)trifluorophosphate with N-Methylformamide, N-Ethylformamide, N,N-Dimethylformamide, N,N-Dibutylformamide, and N,N-Dimethylacetamide from (293.15 to 323.15) K
Source: J. Chem. Eng. Data, 2014, 10.1021/je400803f
Compound 1: 1-butyl-1-methylpyrrolidinium tris(pentafluoroethyl)trifluorophosphate, C15H20F18NP
Compound 2: N-methylformamide, C2H5NO
Compound 3: N-ethylformamide, C3H7NO
Compound 4: N,N-dimethylformamide, C3H7NO
Compound 5: N,N-dibutylformamide, C9H19NO
Compound 6: N,N-dimethylacetamide, C4H9NO

System: 1-butyl-1-methylpyrrolidinium tris(pentafluoroethyl)trifluorophosphate; phases: Liquid
Fixed: Pressure, kPa = 101.325
Property: Mass density, kg/m3 (Liquid); method: Vibrating tube method
Temperature, K	Mass density, kg/m3	uncertainty
293.15	1588.56	.02
298.15	1583.15	.02
303.15	1577.67	.02
308.15	1572.16	.02
313.15	1566.62	.02
318.15	1561.06	.02
323.15	1555.48	.02

System: N-methylformamide; phases: Liquid
Fixed: Pressure, kPa = 101.325
Property: Mass density, kg/m3 (Liquid); method: Vibrating tube method
Temperature, K	Mass density, kg/m3	uncertainty
293.15	1003.35	.02
298.15	998.91	.02
303.15	994.49	.02
308.15	990.01	.02
313.15	985.47	.02
318.15	980.88	.02
323.15	976.24	.02

System: N-ethylformamide; phases: Liquid
Fixed: Pressure, kPa = 101.325
Property: Mass density, kg/m3 (Liquid); method: Vibrating tube method
Temperature, K	Mass density, kg/m3	uncertainty
293.15	951.59	.02
298.15	947.48	.02
303.15	943.29	.02
308.15	939.04	.02
313.15	934.78	.02
318.15	930.45	.02
323.15	926.06	.02

System: N,N-dimethylformamide; phases: Liquid
Fixed: Pressure, kPa = 101.325
Property: Mass density, kg/m3 (Liquid); method: Vibrating tube method
Temperature, K	Mass density, kg/m3	uncertainty
293.15	948.72	.02
298.15	943.86	.02
303.15	939	.02
308.15	934.08	.02
313.15	929.13	.02
318.15	924.06	.02
323.15	918.96	.02

System: N,N-dibutylformamide; phases: Liquid
Fixed: Pressure, kPa = 101.325
Property: Mass density, kg/m3 (Liquid); method: Vibrating tube method
Temperature, K	Mass density, kg/m3	uncertainty
293.15	879.05	.02
298.15	875.12	.02
303.15	871.17	.02
308.15	867.15	.02
313.15	863.11	.02
318.15	859.01	.02
323.15	854.82	.02

System: N,N-dimethylacetamide; phases: Liquid
Fixed: Pressure, kPa = 101.325
Property: Mass density, kg/m3 (Liquid); method: Vibrating tube method
Temperature, K	Mass density, kg/m3	uncertainty
293.15	940.92	.02
298.15	936.3	.02
303.15	931.62	.02
308.15	926.89	.02
313.15	922.09	.02
318.15	917.23	.02
323.15	912.23	.02

System: N-methylformamide + 1-butyl-1-methylpyrrolidinium tris(pentafluoroethyl)trifluorophosphate; phases: Liquid
Fixed: Pressure, kPa = 101
Property: Mass density, kg/m3 (Liquid); method: Vibrating tube method
Temperature, K	Mole fraction of 1-butyl-1-methylpyrrolidinium tris(pentafluoroethyl)trifluorophosphate	Mass density, kg/m3	uncertainty
293.15	.017	1058.37	.02
293.15	.038	1115.08	.02
293.15	.064	1172.33	.02
293.15	.1395	1288.62	.02
293.15	.1994	1349.8	.02
293.15	.2991	1419.35	.02
293.15	.4005	1466.49	.02
293.15	.5044	1501.13	.02
293.15	.5964	1524.64	.02
293.15	.6471	1535.54	.02
293.15	.7548	1555.34	.02
293.15	.8413	1568.65	.02
293.15	.9029	1577.04	.02
298.15	.017	1053.77	.02
298.15	.038	1110.31	.02
298.15	.064	1167.39	.02
298.15	.1395	1283.34	.02
298.15	.1994	1344.44	.02
298.15	.2991	1413.93	.02
298.15	.4005	1460.95	.02
298.15	.5044	1495.58	.02
298.15	.5964	1519.12	.02
298.15	.6471	1530.04	.02
298.15	.7548	1549.77	.02
298.15	.8413	1563.05	.02
298.15	.9029	1571.47	.02
303.15	.017	1049.14	.02
303.15	.038	1105.47	.02
303.15	.064	1162.43	.02
303.15	.1395	1278.09	.02
303.15	.1994	1339.03	.02
303.15	.2991	1408.4	.02
303.15	.4005	1455.39	.02
303.15	.5044	1490.07	.02
303.15	.5964	1513.49	.02
303.15	.6471	1524.39	.02
303.15	.7548	1544.13	.02
303.15	.8413	1557.45	.02
303.15	.9029	1565.91	.02
308.15	.017	1044.53	.02
308.15	.038	1100.72	.02
308.15	.064	1157.5	.02
308.15	.1395	1272.85	.02
308.15	.1994	1333.6	.02
308.15	.2991	1402.86	.02
308.15	.4005	1449.79	.02
308.15	.5044	1484.49	.02
308.15	.5964	1507.92	.02
308.15	.6471	1518.85	.02
308.15	.7548	1538.58	.02
308.15	.8413	1551.88	.02
308.15	.9029	1560.34	.02
313.15	.017	1039.79	.02
313.15	.038	1095.79	.02
313.15	.064	1152.45	.02
313.15	.1395	1267.61	.02
313.15	.1994	1328.11	.02
313.15	.2991	1397.22	.02
313.15	.4005	1444.2	.02
313.15	.5044	1478.87	.02
313.15	.5964	1502.28	.02
313.15	.6471	1513.18	.02
313.15	.7548	1532.92	.02
313.15	.8413	1546.25	.02
313.15	.9029	1554.73	.02
318.15	.017	1035.11	.02
318.15	.038	1091	.02
318.15	.064	1147.53	.02
318.15	.1395	1262.38	.02
318.15	.1994	1322.58	.02
318.15	.2991	1391.56	.02
318.15	.4005	1438.48	.02
318.15	.5044	1473.25	.02
318.15	.5964	1496.79	.02
318.15	.6471	1507.72	.02
318.15	.7548	1527.43	.02
318.15	.8413	1540.73	.02
318.15	.9029	1549.18	.02
323.15	.017	1030.3	.02
323.15	.038	1085.98	.02
323.15	.064	1142.27	.02
323.15	.1395	1256.78	.02
323.15	.1994	1317.13	.02
323.15	.2991	1385.88	.02
323.15	.4005	1432.75	.02
323.15	.5044	1467.48	.02
323.15	.5964	1491.13	.02
323.15	.6471	1502.01	.02
323.15	.7548	1521.8	.02
323.15	.8413	1535.12	.02
323.15	.9029	1543.58	.02

System: N,N-dimethylformamide + 1-butyl-1-methylpyrrolidinium tris(pentafluoroethyl)trifluorophosphate; phases: Liquid
Fixed: Pressure, kPa = 101
Property: Mass density, kg/m3 (Liquid); method: Vibrating tube method
Temperature, K	Mole fraction of 1-butyl-1-methylpyrrolidinium tris(pentafluoroethyl)trifluorophosphate	Mass density, kg/m3	uncertainty
293.15	.0165	993.84	.02
293.15	.0379	1045.32	.02
293.15	.0636	1098.24	.02
293.15	.0999	1160.65	.02
293.15	.1381	1214.48	.02
293.15	.2002	1284.15	.02
293.15	.3038	1367.83	.02
293.15	.3944	1420.86	.02
293.15	.4946	1465.66	.02
293.15	.5997	1502.25	.02
293.15	.6972	1529.32	.02
293.15	.7887	1550.58	.02
293.15	.8853	1569.6	.02
298.15	.0165	988.9	.02
298.15	.0379	1040.31	.02
298.15	.0636	1093.11	.02
298.15	.0999	1155.44	.02
298.15	.1381	1209.17	.02
298.15	.2002	1278.78	.02
298.15	.3038	1362.38	.02
298.15	.3944	1415.36	.02
298.15	.4946	1460.2	.02
298.15	.5997	1496.77	.02
298.15	.6972	1523.85	.02
298.15	.7887	1545.07	.02
298.15	.8853	1564.14	.02
303.15	.0165	983.96	.02
303.15	.0379	1035.26	.02
303.15	.0636	1087.96	.02
303.15	.0999	1150.21	.02
303.15	.1381	1203.86	.02
303.15	.2002	1273.37	.02
303.15	.3038	1356.95	.02
303.15	.3944	1409.86	.02
303.15	.4946	1454.71	.02
303.15	.5997	1491.29	.02
303.15	.6972	1518.39	.02
303.15	.7887	1539.56	.02
303.15	.8853	1558.67	.02
308.15	.0165	978.95	.02
308.15	.0379	1030.17	.02
308.15	.0636	1082.78	.02
308.15	.0999	1144.9	.02
308.15	.1381	1198.5	.02
308.15	.2002	1267.93	.02
308.15	.3038	1351.43	.02
308.15	.3944	1404.36	.02
308.15	.4946	1449.18	.02
308.15	.5997	1485.78	.02
308.15	.6972	1512.87	.02
308.15	.7887	1534.11	.02
308.15	.8853	1553.16	.02
313.15	.0165	973.88	.02
313.15	.0379	1024.98	.02
313.15	.0636	1077.52	.02
313.15	.0999	1139.55	.02
313.15	.1381	1193.09	.02
313.15	.2002	1262.4	.02
313.15	.3038	1345.95	.02
313.15	.3944	1398.78	.02
313.15	.4946	1443.63	.02
313.15	.5997	1480.25	.02
313.15	.6972	1507.34	.02
313.15	.7887	1528.58	.02
313.15	.8853	1547.65	.02
318.15	.0165	968.76	.02
318.15	.0379	1019.76	.02
318.15	.0636	1072.2	.02
318.15	.0999	1134.13	.02
318.15	.1381	1187.58	.02
318.15	.2002	1256.85	.02
318.15	.3038	1340.13	.02
318.15	.3944	1393.18	.02
318.15	.4946	1438.04	.02
318.15	.5997	1474.66	.02
318.15	.6972	1501.77	.02
318.15	.7887	1523.04	.02
318.15	.8853	1542.09	.02
323.15	.0165	963.52	.02
323.15	.0379	1014.46	.02
323.15	.0636	1066.82	.02
323.15	.0999	1128.66	.02
323.15	.1381	1182.02	.02
323.15	.2002	1251.25	.02
323.15	.3038	1334.59	.02
323.15	.3944	1387.5	.02
323.15	.4946	1432.36	.02
323.15	.5997	1469.03	.02
323.15	.6972	1496.17	.02
323.15	.7887	1517.43	.02
323.15	.8853	1536.51	.02

System: N-ethylformamide + 1-butyl-1-methylpyrrolidinium tris(pentafluoroethyl)trifluorophosphate; phases: Liquid
Fixed: Pressure, kPa = 101
Property: Mass density, kg/m3 (Liquid); method: Vibrating tube method
Temperature, K	Mole fraction of 1-butyl-1-methylpyrrolidinium tris(pentafluoroethyl)trifluorophosphate	Mass density, kg/m3	uncertainty
293.15	.0355	1046.38	.02
293.15	.0753	1128.67	.02
293.15	.0995	1169.56	.02
293.15	.1508	1240.4	.02
293.15	.2001	1293.64	.02
293.15	.3045	1375.94	.02
293.15	.3996	1429.28	.02
293.15	.5028	1472.71	.02
293.15	.5527	1489.92	.02
293.15	.5989	1504.15	.02
293.15	.7015	1531.11	.02
293.15	.7983	1552.06	.02
293.15	.8866	1568.75	.02
293.15	.951	1580.11	.02
298.15	.0355	1042.01	.02
298.15	.0753	1124.07	.02
298.15	.0995	1164.94	.02
298.15	.1508	1235.52	.02
298.15	.2001	1288.61	.02
298.15	.3045	1370.73	.02
298.15	.3996	1424.04	.02
298.15	.5028	1467.38	.02
298.15	.5527	1484.53	.02
298.15	.5989	1498.78	.02
298.15	.7015	1525.64	.02
298.15	.7983	1546.66	.02
298.15	.8866	1563.32	.02
298.15	.951	1574.66	.02
303.15	.0355	1037.61	.02
303.15	.0753	1119.47	.02
303.15	.0995	1160.15	.02
303.15	.1508	1230.53	.02
303.15	.2001	1283.5	.02
303.15	.3045	1365.53	.02
303.15	.3996	1418.68	.02
303.15	.5028	1462.01	.02
303.15	.5527	1479.12	.02
303.15	.5989	1493.4	.02
303.15	.7015	1520.2	.02
303.15	.7983	1541.23	.02
303.15	.8866	1557.82	.02
303.15	.951	1569.19	.02
308.15	.0355	1033.05	.02
308.15	.0753	1114.62	.02
308.15	.0995	1155.23	.02
308.15	.1508	1225.54	.02
308.15	.2001	1278.35	.02
308.15	.3045	1360.23	.02
308.15	.3996	1413.37	.02
308.15	.5028	1456.63	.02
308.15	.5527	1473.75	.02
308.15	.5989	1487.95	.02
308.15	.7015	1514.75	.02
308.15	.7983	1535.76	.02
308.15	.8866	1552.35	.02
308.15	.951	1563.71	.02
313.15	.0355	1028.58	.02
313.15	.0753	1109.94	.02
313.15	.0995	1150.34	.02
313.15	.1508	1220.42	.02
313.15	.2001	1273.19	.02
313.15	.3045	1354.95	.02
313.15	.3996	1407.95	.02
313.15	.5028	1451.21	.02
313.15	.5527	1468.31	.02
313.15	.5989	1482.48	.02
313.15	.7015	1509.27	.02
313.15	.7983	1530.25	.02
313.15	.8866	1546.84	.02
313.15	.951	1558.18	.02
318.15	.0355	1024.03	.02
318.15	.0753	1105.19	.02
318.15	.0995	1145.54	.02
318.15	.1508	1215.44	.02
318.15	.2001	1267.97	.02
318.15	.3045	1349.61	.02
318.15	.3996	1402.56	.02
318.15	.5028	1445.76	.02
318.15	.5527	1462.86	.02
318.15	.5989	1477.03	.02
318.15	.7015	1503.82	.02
318.15	.7983	1524.73	.02
318.15	.8866	1541.33	.02
318.15	.951	1552.64	.02
323.15	.0355	1019.35	.02
323.15	.0753	1100.26	.02
323.15	.0995	1140.56	.02
323.15	.1508	1210.24	.02
323.15	.2001	1262.79	.02
323.15	.3045	1344.26	.02
323.15	.3996	1397.21	.02
323.15	.5028	1440.28	.02
323.15	.5527	1457.36	.02
323.15	.5989	1471.54	.02
323.15	.7015	1498.32	.02
323.15	.7983	1519.18	.02
323.15	.8866	1535.77	.02
323.15	.951	1547.05	.02

System: N,N-dibutylformamide + 1-butyl-1-methylpyrrolidinium tris(pentafluoroethyl)trifluorophosphate; phases: Liquid
Fixed: Pressure, kPa = 101
Property: Mass density, kg/m3 (Liquid); method: Vibrating tube method
Temperature, K	Mole fraction of 1-butyl-1-methylpyrrolidinium tris(pentafluoroethyl)trifluorophosphate	Mass density, kg/m3	uncertainty
293.15	.0351	928.01	.02
293.15	.0697	972.58	.02
293.15	.0998	1008.79	.02
293.15	.1498	1064.17	.02
293.15	.1994	1114.29	.02
293.15	.2999	1204.19	.02
293.15	.4003	1281.29	.02
293.15	.499	1347.44	.02
293.15	.5993	1406.59	.02
293.15	.6799	1449.07	.02
293.15	.7754	1494.51	.02
293.15	.8021	1506.51	.02
293.15	.9011	1548.52	.02
293.15	.949	1568.08	.02
298.15	.0351	923.97	.02
298.15	.0697	968.41	.02
298.15	.0998	1004.57	.02
298.15	.1498	1059.81	.02
298.15	.1994	1109.89	.02
298.15	.2999	1199.58	.02
298.15	.4003	1276.52	.02
298.15	.499	1342.55	.02
298.15	.5993	1401.54	.02
298.15	.6799	1443.87	.02
298.15	.7754	1489.34	.02
298.15	.8021	1501.2	.02
298.15	.9011	1543.24	.02
298.15	.949	1562.74	.02
303.15	.0351	919.87	.02
303.15	.0697	964.18	.02
303.15	.0998	1000.33	.02
303.15	.1498	1055.39	.02
303.15	.1994	1105.41	.02
303.15	.2999	1194.89	.02
303.15	.4003	1271.65	.02
303.15	.499	1337.52	.02
303.15	.5993	1396.37	.02
303.15	.6799	1438.69	.02
303.15	.7754	1483.96	.02
303.15	.8021	1495.89	.02
303.15	.9011	1537.81	.02
303.15	.949	1557.33	.02
308.15	.0351	915.81	.02
308.15	.0697	960.06	.02
308.15	.0998	996.06	.02
308.15	.1498	1051.03	.02
308.15	.1994	1100.9	.02
308.15	.2999	1190.17	.02
308.15	.4003	1266.78	.02
308.15	.499	1332.49	.02
308.15	.5993	1391.2	.02
308.15	.6799	1433.45	.02
308.15	.7754	1478.61	.02
308.15	.8021	1490.51	.02
308.15	.9011	1532.31	.02
308.15	.949	1551.79	.02
313.15	.0351	911.67	.02
313.15	.0697	955.82	.02
313.15	.0998	991.74	.02
313.15	.1498	1046.54	.02
313.15	.1994	1096.39	.02
313.15	.2999	1185.45	.02
313.15	.4003	1261.89	.02
313.15	.499	1327.52	.02
313.15	.5993	1386.12	.02
313.15	.6799	1428.23	.02
313.15	.7754	1473.39	.02
313.15	.8021	1485.21	.02
313.15	.9011	1526.89	.02
313.15	.949	1546.31	.02
318.15	.0351	907.43	.02
318.15	.0697	951.45	.02
318.15	.0998	987.31	.02
318.15	.1498	1042.09	.02
318.15	.1994	1091.73	.02
318.15	.2999	1180.61	.02
318.15	.4003	1256.88	.02
318.15	.499	1322.34	.02
318.15	.5993	1380.87	.02
318.15	.6799	1422.89	.02
318.15	.7754	1467.94	.02
318.15	.8021	1479.75	.02
318.15	.9011	1521.4	.02
318.15	.949	1540.77	.02
323.15	.0351	903.16	.02
323.15	.0697	947.14	.02
323.15	.0998	982.93	.02
323.15	.1498	1037.62	.02
323.15	.1994	1087.01	.02
323.15	.2999	1175.67	.02
323.15	.4003	1251.71	.02
323.15	.499	1317.03	.02
323.15	.5993	1375.47	.02
323.15	.6799	1417.48	.02
323.15	.7754	1462.42	.02
323.15	.8021	1474.28	.02
323.15	.9011	1515.91	.02
323.15	.949	1535.23	.02

System: N,N-dimethylacetamide + 1-butyl-1-methylpyrrolidinium tris(pentafluoroethyl)trifluorophosphate; phases: Liquid
Fixed: Pressure, kPa = 101
Property: Mass density, kg/m3 (Liquid); method: Vibrating tube method
Temperature, K	Mole fraction of 1-butyl-1-methylpyrrolidinium tris(pentafluoroethyl)trifluorophosphate	Mass density, kg/m3	uncertainty
293.15	.0182	983.51	.02
293.15	.0658	1076.12	.02
293.15	.099	1128.83	.02
293.15	.1925	1243.41	.02
293.15	.2995	1334.81	.02
293.15	.4032	1399.72	.02
293.15	.5012	1446.97	.02
293.15	.6048	1487.12	.02
293.15	.7078	1520.04	.02
293.15	.806	1546.68	.02
293.15	.8469	1556.58	.02
293.15	.9176	1572.41	.02
298.15	.0182	978.8	.02
298.15	.0658	1071.23	.02
298.15	.099	1123.84	.02
298.15	.1925	1238.24	.02
298.15	.2995	1329.56	.02
298.15	.4032	1394.36	.02
298.15	.5012	1441.77	.02
298.15	.6048	1482	.02
298.15	.7078	1514.92	.02
298.15	.806	1541.65	.02
298.15	.8469	1551.46	.02
298.15	.9176	1567.01	.02
303.15	.0182	974.05	.02
303.15	.0658	1066.29	.02
303.15	.099	1118.81	.02
303.15	.1925	1233.05	.02
303.15	.2995	1324.29	.02
303.15	.4032	1389.05	.02
303.15	.5012	1436.59	.02
303.15	.6048	1476.86	.02
303.15	.7078	1509.86	.02
303.15	.806	1536.23	.02
303.15	.8469	1546.01	.02
303.15	.9176	1561.51	.02
308.15	.0182	969.23	.02
308.15	.0658	1061.3	.02
308.15	.099	1113.75	.02
308.15	.1925	1227.86	.02
308.15	.2995	1318.96	.02
308.15	.4032	1383.7	.02
308.15	.5012	1431.01	.02
308.15	.6048	1470.97	.02
308.15	.7078	1504.04	.02
308.15	.806	1530.12	.02
308.15	.8469	1539.99	.02
308.15	.9176	1555.89	.02
313.15	.0182	964.38	.02
313.15	.0658	1056.27	.02
313.15	.099	1108.63	.02
313.15	.1925	1222.59	.02
313.15	.2995	1313.61	.02
313.15	.4032	1378.3	.02
313.15	.5012	1425.38	.02
313.15	.6048	1465.48	.02
313.15	.7078	1498.52	.02
313.15	.806	1524.91	.02
313.15	.8469	1534.65	.02
313.15	.9176	1550.24	.02
318.15	.0182	959.48	.02
318.15	.0658	1051.2	.02
318.15	.099	1103.46	.02
318.15	.1925	1217.27	.02
318.15	.2995	1308.22	.02
318.15	.4032	1372.86	.02
318.15	.5012	1420.2	.02
318.15	.6048	1460.22	.02
318.15	.7078	1492.71	.02
318.15	.806	1519.13	.02
318.15	.8469	1528.99	.02
318.15	.9176	1544.79	.02
323.15	.0182	954.43	.02
323.15	.0658	1046.01	.02
323.15	.099	1098.22	.02
323.15	.1925	1211.86	.02
323.15	.2995	1302.76	.02
323.15	.4032	1367.34	.02
323.15	.5012	1414.53	.02
323.15	.6048	1454.65	.02
323.15	.7078	1487.58	.02
323.15	.806	1513.85	.02
323.15	.8469	1523.64	.02
323.15	.9176	1539.24	.02
