Measured thermophysical data. Density and Refractive Index of Binary Mixtures of Two 1-Alkyl-3-methylimidazolium Ionic Liquids with 1,4-Dioxane and Ethylene Glycol
Source: J. Chem. Eng. Data, 2014, 10.1021/je400659p
Compound 1: 1-butyl-3-methylimidazolium tetrafluoroborate, C8H15BF4N2, purity 99%
Compound 2: 1-ethyl-3-methylimidazolium tetrafluoroborate, C6H11BF4N2, purity 98%
Compound 3: 1,4-dioxane, C4H8O2, purity 99%
Compound 4: ethylene glycol, C2H6O2, purity 99.5%

System: 1-butyl-3-methylimidazolium tetrafluoroborate; phases: Liquid
Property: Mass density, kg/m3 (Liquid); method: Vibrating tube method
Temperature, K	Pressure, kPa	Mass density, kg/m3	uncertainty
293.15	101	1204.44	.05
298.15	101	1200.89	.05
303.15	101	1197.34	.05
313.15	101	1190.27	.05
323.15	101	1183.24	.05
333.15	101	1176.25	.05
343.15	101	1169.32	.05
353.15	101	1162.44	.05

System: 1-butyl-3-methylimidazolium tetrafluoroborate; phases: Liquid
Fixed: Pressure, kPa = 101.325
Property: Refractive index (Na D-line) (Liquid); method: Standard Abbe refractometry
Temperature, K	Refractive index (Na D-line)	uncertainty
298.15	1.4215	.0001
303.15	1.4202	.0001
313.15	1.4179	.0001
323.15	1.4153	.0001

System: 1-ethyl-3-methylimidazolium tetrafluoroborate; phases: Liquid
Property: Mass density, kg/m3 (Liquid); method: Vibrating tube method
Temperature, K	Pressure, kPa	Mass density, kg/m3	uncertainty
293.15	101	1290.63	.05
298.15	101	1286.82	.05
303.15	101	1283.02	.05
313.15	101	1275.45	.05
323.15	101	1267.97	.05
333.15	101	1260.55	.05
343.15	101	1253.18	.05
353.15	101	1245.87	.05

System: 1-ethyl-3-methylimidazolium tetrafluoroborate; phases: Liquid
Fixed: Pressure, kPa = 101.325
Property: Refractive index (Na D-line) (Liquid); method: Standard Abbe refractometry
Temperature, K	Refractive index (Na D-line)	uncertainty
298.15	1.4111	.0001
303.15	1.41	.0001
313.15	1.4073	.0001
323.15	1.4051	.0001

System: 1,4-dioxane; phases: Liquid
Property: Mass density, kg/m3 (Liquid); method: Vibrating tube method
Temperature, K	Pressure, kPa	Mass density, kg/m3	uncertainty
293.15	101	1033.57	.05
298.15	101	1027.92	.05
303.15	101	1022.27	.05
313.15	101	1010.91	.05
323.15	101	999.49	.05
333.15	101	987.97	.05
343.15	101	976.37	.05
353.15	101	964.63	.05

System: 1,4-dioxane; phases: Liquid
Fixed: Pressure, kPa = 101.325
Property: Refractive index (Na D-line) (Liquid); method: Standard Abbe refractometry
Temperature, K	Refractive index (Na D-line)	uncertainty
298.15	1.4205	.0001
303.15	1.4171	.0001
313.15	1.4112	.0001
323.15	1.4063	.0001

System: ethylene glycol; phases: Liquid
Property: Mass density, kg/m3 (Liquid); method: Vibrating tube method
Temperature, K	Pressure, kPa	Mass density, kg/m3	uncertainty
293.15	101	1113.45	.05
298.15	101	1109.96	.05
303.15	101	1106.45	.05
313.15	101	1099.38	.05
323.15	101	1092.24	.05
333.15	101	1085	.05
343.15	101	1077.65	.05
353.15	101	1070.17	.05

System: ethylene glycol; phases: Liquid
Fixed: Pressure, kPa = 101.325
Property: Refractive index (Na D-line) (Liquid); method: Standard Abbe refractometry
Temperature, K	Refractive index (Na D-line)	uncertainty
298.15	1.43	.0001
303.15	1.4285	.0001
313.15	1.4258	.0001
323.15	1.4229	.0001

System: 1,4-dioxane + 1-butyl-3-methylimidazolium tetrafluoroborate; phases: Liquid mixture 1, Liquid mixture 2
Fixed: Pressure, kPa = 101
Property: Liquid-liquid equilibrium temperature, K (Liquid mixture 1); method: Visual observation
Mole fraction of 1-butyl-3-methylimidazolium tetrafluoroborate	Liquid-liquid equilibrium temperature, K	uncertainty
.1897	293.2	1
.2201	309.2	1
.2332	329.2	1
.238	343.2	1
.245	353.2	1

System: 1,4-dioxane + 1-butyl-3-methylimidazolium tetrafluoroborate; phases: Liquid
Fixed: Pressure, kPa = 101
Property: Mass density, kg/m3 (Liquid); method: Vibrating tube method
Temperature, K	Mole fraction of 1-butyl-3-methylimidazolium tetrafluoroborate	Mass density, kg/m3	uncertainty
293.15	0	1033.57	.05
293.15	.2559	1118.75	.05
293.15	.3956	1146.31	.05
293.15	.4988	1161.37	.05
293.15	.6	1173.1	.05
293.15	.7021	1183.04	.05
293.15	.8993	1198.09	.05
293.15	1	1204.44	.05
298.15	0	1027.92	.05
298.15	.2559	1114.31	.05
298.15	.3956	1142.23	.05
298.15	.4988	1157.44	.05
298.15	.6	1169.26	.05
298.15	.7021	1179.3	.05
298.15	.8993	1194.53	.05
298.15	1	1200.89	.05
303.15	0	1022.27	.05
303.15	.2559	1109.87	.05
303.15	.3956	1138.14	.05
303.15	.4988	1153.51	.05
303.15	.6	1165.45	.05
303.15	.7021	1175.57	.05
303.15	.8993	1190.95	.05
303.15	1	1197.34	.05
313.15	0	1010.91	.05
313.15	.2559	1101.06	.05
313.15	.3956	1130.01	.05
313.15	.4988	1145.69	.05
313.15	.6	1157.84	.05
313.15	.7021	1168.15	.05
313.15	.8993	1183.8	.05
313.15	1	1190.27	.05
323.15	0	999.49	.05
323.15	.2559	1092.28	.05
323.15	.3956	1121.91	.05
323.15	.4988	1137.92	.05
323.15	.6	1150.29	.05
323.15	.7021	1160.77	.05
323.15	.8993	1176.68	.05
323.15	1	1183.24	.05
333.15	0	987.97	.05
333.15	.2559	1083.47	.05
333.15	.3956	1113.85	.05
333.15	.4988	1130.18	.05
333.15	.6	1142.79	.05
333.15	.7021	1153.44	.05
333.15	.8993	1169.6	.05
333.15	1	1176.25	.05
343.15	0	976.37	.05
343.15	.2559	1074.65	.05
343.15	.3956	1105.8	.05
343.15	.4988	1122.47	.05
343.15	.6	1135.31	.05
343.15	.7021	1146.14	.05
343.15	.8993	1162.53	.05
343.15	1	1169.32	.05
353.15	0	964.63	.05
353.15	.2559	1065.8	.05
353.15	.3956	1097.77	.05
353.15	.4988	1114.8	.05
353.15	.6	1127.87	.05
353.15	.7021	1138.89	.05
353.15	.8993	1155.57	.05
353.15	1	1162.44	.05

System: 1,4-dioxane + 1-butyl-3-methylimidazolium tetrafluoroborate; phases: Liquid
Fixed: Pressure, kPa = 101
Property: Refractive index (Na D-line) (Liquid); method: Standard Abbe refractometry
Temperature, K	Mole fraction of 1-butyl-3-methylimidazolium tetrafluoroborate	Refractive index (Na D-line)	uncertainty
298.15	0	1.4205	.0001
298.15	.2559	1.4253	.0001
298.15	.3956	1.4258	.0001
298.15	.4988	1.4256	.0001
298.15	.6	1.4249	.0001
298.15	.7021	1.4241	.0001
298.15	.8993	1.4222	.0001
298.15	1	1.4215	.0001
303.15	0	1.4171	.0001
303.15	.2559	1.4236	.0001
303.15	.3956	1.4244	.0001
303.15	.4988	1.4242	.0001
303.15	.6	1.4235	.0001
303.15	.7021	1.4225	.0001
303.15	.8993	1.4207	.0001
303.15	1	1.4202	.0001
313.15	0	1.4112	.0001
313.15	.2559	1.4196	.0001
313.15	.3956	1.421	.0001
313.15	.4988	1.4211	.0001
313.15	.6	1.4206	.0001
313.15	.7021	1.4199	.0001
313.15	.8993	1.4183	.0001
313.15	1	1.4179	.0001
323.15	0	1.4063	.0001
323.15	.2559	1.4161	.0001
323.15	.3956	1.4179	.0001
323.15	.4988	1.4181	.0001
323.15	.6	1.4177	.0001
323.15	.7021	1.4169	.0001
323.15	.8993	1.4155	.0001
323.15	1	1.4153	.0001

System: 1,4-dioxane + 1-ethyl-3-methylimidazolium tetrafluoroborate; phases: Liquid mixture 1, Liquid mixture 2
Fixed: Pressure, kPa = 101
Property: Liquid-liquid equilibrium temperature, K (Liquid mixture 1); method: Visual observation
Mole fraction of 1-ethyl-3-methylimidazolium tetrafluoroborate	Liquid-liquid equilibrium temperature, K	uncertainty
.1452	293.2	1
.1591	310.2	1
.1806	330.2	1
.183	353.2	1

System: 1,4-dioxane + 1-ethyl-3-methylimidazolium tetrafluoroborate; phases: Liquid
Fixed: Pressure, kPa = 101
Property: Mass density, kg/m3 (Liquid); method: Vibrating tube method
Temperature, K	Mole fraction of 1-ethyl-3-methylimidazolium tetrafluoroborate	Mass density, kg/m3	uncertainty
293.15	0	1033.57	.05
293.15	.3292	1171.62	.05
293.15	.4547	1203.47	.05
293.15	.4923	1211.84	.05
293.15	.6409	1240.74	.05
293.15	.6838	1246.89	.05
293.15	.7851	1263.5	.05
293.15	.8336	1270.18	.05
293.15	1	1290.63	.05
298.15	0	1027.92	.05
298.15	.3292	1167.26	.05
298.15	.4547	1199.31	.05
298.15	.4923	1207.73	.05
298.15	.6409	1236.77	.05
298.15	.6838	1242.94	.05
298.15	.7851	1259.61	.05
298.15	.8336	1266.32	.05
298.15	1	1286.82	.05
303.15	0	1022.27	.05
303.15	.3292	1163	.05
303.15	.4547	1195.16	.05
303.15	.4923	1203.63	.05
303.15	.6409	1232.79	.05
303.15	.6838	1238.89	.05
303.15	.7851	1255.72	.05
303.15	.8336	1262.45	.05
303.15	1	1283.02	.05
313.15	0	1010.91	.05
313.15	.3292	1154.24	.05
313.15	.4547	1186.92	.05
313.15	.4923	1195.48	.05
313.15	.6409	1224.92	.05
313.15	.6838	1231.17	.05
313.15	.7851	1248.01	.05
313.15	.8336	1254.79	.05
313.15	1	1275.45	.05
323.15	0	999.49	.05
323.15	.3292	1145.14	.05
323.15	.4547	1178.43	.05
323.15	.4923	1187.38	.05
323.15	.6409	1217.1	.05
323.15	.6838	1223.4	.05
323.15	.7851	1240.36	.05
323.15	.8336	1247.18	.05
323.15	1	1267.97	.05
333.15	0	987.97	.05
333.15	.3292	1136.98	.05
333.15	.4547	1170.56	.05
333.15	.4923	1179.33	.05
333.15	.6409	1209.33	.05
333.15	.6838	1215.68	.05
333.15	.7851	1232.77	.05
333.15	.8336	1239.64	.05
333.15	1	1260.55	.05
343.15	0	976.37	.05
343.15	.3292	1128.37	.05
343.15	.4547	1162.44	.05
343.15	.4923	1171.31	.05
343.15	.6409	1201.62	.05
343.15	.6838	1208.02	.05
343.15	.7851	1225.24	.05
343.15	.8336	1232.15	.05
343.15	1	1253.18	.05
353.15	0	964.63	.05
353.15	.3292	1120.41	.05
353.15	.4547	1154.35	.05
353.15	.4923	1163.32	.05
353.15	.6409	1193.95	.05
353.15	.6838	1200.41	.05
353.15	.7851	1217.75	.05
353.15	.8336	1225.41	.05
353.15	1	1245.87	.05

System: 1,4-dioxane + 1-ethyl-3-methylimidazolium tetrafluoroborate; phases: Liquid
Fixed: Pressure, kPa = 101
Property: Refractive index (Na D-line) (Liquid); method: Standard Abbe refractometry
Temperature, K	Mole fraction of 1-ethyl-3-methylimidazolium tetrafluoroborate	Refractive index (Na D-line)	uncertainty
298.15	0	1.4205	.0001
298.15	.3292	1.4214	.0001
298.15	.4547	1.4197	.0001
298.15	.4923	1.4191	.0001
298.15	.6409	1.4165	.0001
298.15	.6838	1.4157	.0001
298.15	.7851	1.414	.0001
298.15	.8336	1.4132	.0001
298.15	1	1.4111	.0001
303.15	0	1.4171	.0001
303.15	.3292	1.4195	.0001
303.15	.4547	1.4181	.0001
303.15	.4923	1.4176	.0001
303.15	.6409	1.415	.0001
303.15	.6838	1.4143	.0001
303.15	.7851	1.4125	.0001
303.15	.8336	1.4118	.0001
303.15	1	1.41	.0001
313.15	0	1.4112	.0001
313.15	.3292	1.4163	.0001
313.15	.4547	1.4154	.0001
313.15	.4923	1.4149	.0001
313.15	.6409	1.4126	.0001
313.15	.6838	1.4118	.0001
313.15	.7851	1.41	.0001
313.15	.8336	1.4092	.0001
313.15	1	1.4073	.0001
323.15	0	1.4063	.0001
323.15	.3292	1.4129	.0001
323.15	.4547	1.4123	.0001
323.15	.4923	1.4119	.0001
323.15	.6409	1.4097	.0001
323.15	.6838	1.409	.0001
323.15	.7851	1.4074	.0001
323.15	.8336	1.4067	.0001
323.15	1	1.4051	.0001

System: ethylene glycol + 1-ethyl-3-methylimidazolium tetrafluoroborate; phases: Liquid
Fixed: Pressure, kPa = 101
Property: Mass density, kg/m3 (Liquid); method: Vibrating tube method
Temperature, K	Mole fraction of 1-ethyl-3-methylimidazolium tetrafluoroborate	Mass density, kg/m3	uncertainty
293.15	0	1113.45	.05
293.15	.1249	1161.63	.05
293.15	.2084	1184.1	.05
293.15	.3046	1205.75	.05
293.15	.4124	1224.93	.05
293.15	.4763	1234.72	.05
293.15	.5565	1245.69	.05
293.15	.717	1264.34	.05
293.15	.7826	1271.14	.05
293.15	.901	1282.2	.05
293.15	1	1290.63	.05
298.15	0	1109.96	.05
298.15	.1249	1157.85	.05
298.15	.2084	1180.23	.05
298.15	.3046	1201.79	.05
298.15	.4124	1220.94	.05
298.15	.4763	1230.74	.05
298.15	.5565	1241.72	.05
298.15	.717	1260.43	.05
298.15	.7826	1267.25	.05
298.15	.901	1278.35	.05
298.15	1	1286.82	.05
303.15	0	1106.45	.05
303.15	.1249	1154.08	.05
303.15	.2084	1176.36	.05
303.15	.3046	1197.84	.05
303.15	.4124	1216.96	.05
303.15	.4763	1226.77	.05
303.15	.5565	1237.77	.05
303.15	.717	1256.53	.05
303.15	.7826	1263.37	.05
303.15	.901	1274.51	.05
303.15	1	1283.02	.05
313.15	0	1099.38	.05
313.15	.1249	1146.54	.05
313.15	.2084	1168.63	.05
313.15	.3046	1189.98	.05
313.15	.4124	1209.07	.05
313.15	.4763	1218.9	.05
313.15	.5565	1229.92	.05
313.15	.717	1248.81	.05
313.15	.7826	1255.69	.05
313.15	.901	1266.9	.05
313.15	1	1275.45	.05
323.15	0	1092.24	.05
323.15	.1249	1138.98	.05
323.15	.2084	1160.91	.05
323.15	.3046	1182.17	.05
323.15	.4124	1201.24	.05
323.15	.4763	1211.09	.05
323.15	.5565	1222.17	.05
323.15	.717	1241.18	.05
323.15	.7826	1248.09	.05
323.15	.901	1259.36	.05
323.15	1	1267.97	.05
333.15	0	1085	.05
333.15	.1249	1131.39	.05
333.15	.2084	1153.19	.05
333.15	.3046	1174.39	.05
333.15	.4124	1193.47	.05
333.15	.4763	1203.36	.05
333.15	.5565	1214.49	.05
333.15	.717	1233.6	.05
333.15	.7826	1240.56	.05
333.15	.901	1251.89	.05
333.15	1	1260.55	.05
343.15	0	1077.65	.05
343.15	.1249	1123.78	.05
343.15	.2084	1145.48	.05
343.15	.3046	1166.65	.05
343.15	.4124	1185.76	.05
343.15	.4763	1195.68	.05
343.15	.5565	1206.88	.05
343.15	.717	1226.11	.05
343.15	.7826	1233.11	.05
343.15	.901	1244.49	.05
343.15	1	1253.18	.05
353.15	0	1070.17	.05
353.15	.1249	1116.15	.05
353.15	.2084	1137.77	.05
353.15	.3046	1158.94	.05
353.15	.4124	1178.1	.05
353.15	.4763	1188.07	.05
353.15	.5565	1199.33	.05
353.15	.717	1218.68	.05
353.15	.7826	1225.73	.05
353.15	.901	1237.16	.05
353.15	1	1245.87	.05

System: ethylene glycol + 1-ethyl-3-methylimidazolium tetrafluoroborate; phases: Liquid
Fixed: Pressure, kPa = 101
Property: Refractive index (Na D-line) (Liquid); method: Standard Abbe refractometry
Temperature, K	Mole fraction of 1-ethyl-3-methylimidazolium tetrafluoroborate	Refractive index (Na D-line)	uncertainty
298.15	0	1.43	.0001
298.15	.1249	1.4239	.0001
298.15	.2084	1.4206	.0001
298.15	.3046	1.4176	.0001
298.15	.4124	1.4151	.0001
298.15	.4763	1.414	.0001
298.15	.5565	1.413	.0001
298.15	.717	1.412	.0001
298.15	.7826	1.4118	.0001
298.15	.901	1.4115	.0001
298.15	1	1.4111	.0001
303.15	0	1.4285	.0001
303.15	.1249	1.4224	.0001
303.15	.2084	1.4192	.0001
303.15	.3046	1.4163	.0001
303.15	.4124	1.4138	.0001
303.15	.4763	1.4127	.0001
303.15	.5565	1.4117	.0001
303.15	.717	1.4105	.0001
303.15	.7826	1.4103	.0001
303.15	.901	1.4101	.0001
303.15	1	1.41	.0001
313.15	0	1.4258	.0001
313.15	.1249	1.4199	.0001
313.15	.2084	1.4167	.0001
313.15	.3046	1.4136	.0001
313.15	.4124	1.411	.0001
313.15	.4763	1.4099	.0001
313.15	.5565	1.4089	.0001
313.15	.717	1.4079	.0001
313.15	.7826	1.4077	.0001
313.15	.901	1.4076	.0001
313.15	1	1.4073	.0001
323.15	0	1.4229	.0001
323.15	.1249	1.4174	.0001
323.15	.2084	1.4142	.0001
323.15	.3046	1.4111	.0001
323.15	.4124	1.4085	.0001
323.15	.4763	1.4074	.0001
323.15	.5565	1.4064	.0001
323.15	.717	1.4054	.0001
323.15	.7826	1.4054	.0001
323.15	.901	1.4053	.0001
323.15	1	1.4051	.0001

System: ethylene glycol + 1-butyl-3-methylimidazolium tetrafluoroborate; phases: Liquid
Fixed: Pressure, kPa = 101
Property: Refractive index (Na D-line) (Liquid); method: Standard Abbe refractometry
Temperature, K	Mole fraction of 1-butyl-3-methylimidazolium tetrafluoroborate	Refractive index (Na D-line)	uncertainty
298.15	0	1.43	.0001
298.15	.0895	1.4276	.0001
298.15	.1758	1.4257	.0001
298.15	.3578	1.4231	.0001
298.15	.4397	1.4224	.0001
298.15	.6482	1.4217	.0001
298.15	.8121	1.4216	.0001
298.15	1	1.4215	.0001
303.15	0	1.4285	.0001
303.15	.0895	1.4258	.0001
303.15	.1758	1.4239	.0001
303.15	.3578	1.4216	.0001
303.15	.4397	1.4211	.0001
303.15	.6482	1.4205	.0001
303.15	.8121	1.4204	.0001
303.15	1	1.4202	.0001
313.15	0	1.4258	.0001
313.15	.0895	1.4231	.0001
313.15	.1758	1.4212	.0001
313.15	.3578	1.4188	.0001
313.15	.4397	1.4182	.0001
313.15	.6482	1.4178	.0001
313.15	.8121	1.4179	.0001
313.15	1	1.4179	.0001
323.15	0	1.4229	.0001
323.15	.0895	1.4203	.0001
323.15	.1758	1.4184	.0001
323.15	.3578	1.4159	.0001
323.15	.4397	1.4154	.0001
323.15	.6482	1.415	.0001
323.15	.8121	1.4152	.0001
323.15	1	1.4153	.0001
