Measured thermophysical data. Vapor Liquid Equilibria for Three Binary Systems of N-Methylethanolamine, N-Methyldiethanolamine, and Ethylene Glycol at P = (40.0, 30.0, and 20.0) kPa
Source: J. Chem. Eng. Data, 2013, 10.1021/je400373d
Compound 1: N-methyldiethanolamine, C5H13NO2, purity 99.5%
Compound 2: 1,2-dihydroxyethane, C2H6O2, purity 99.8%
Compound 3: N-methylethanolamine, C3H9NO, purity 95%

System: N-methyldiethanolamine; phases: Liquid, Gas
Property: Vapor or sublimation pressure, kPa (Liquid); method: Ebulliometric method (Recirculating still)
Temperature, K	Vapor or sublimation pressure, kPa	uncertainty
488.14	40	.13
479.4	30	.13
467.34	20	.13
488.17	40	.13
479.37	30	.13
467.4	20	.13
520.28	101.3	.13

System: 1,2-dihydroxyethane; phases: Liquid, Gas
Property: Vapor or sublimation pressure, kPa (Liquid); method: Ebulliometric method (Recirculating still)
Temperature, K	Vapor or sublimation pressure, kPa	uncertainty
441.7	40	.13
433.71	30	.13
422.8	20	.13
441.66	40	.13
433.66	30	.13
422.75	20	.13
470.47	101.3	.13

System: N-methylethanolamine; phases: Liquid, Gas
Property: Boiling temperature at pressure P, K (Liquid); method: Ebulliometric method (Recirculating still)
Pressure, kPa	Boiling temperature at pressure P, K	uncertainty
101.33	431.2	.1

System: N-methylethanolamine; phases: Liquid, Gas
Property: Vapor or sublimation pressure, kPa (Liquid); method: Ebulliometric method (Recirculating still)
Temperature, K	Vapor or sublimation pressure, kPa	uncertainty
405.45	40	.13
397.95	30	.13
388.04	20	.13
405.48	40	.13
397.89	30	.13
388	20	.13
431.2	101.3	.13

System: N-methyldiethanolamine + N-methylethanolamine; phases: Liquid, Gas
Property: Boiling temperature at pressure P, K (Liquid); method: Ebulliometric method (Recirculating still)
Mole fraction of N-methylethanolamine	Pressure, kPa	Boiling temperature at pressure P, K	uncertainty
1	40	405.45	.1
.926	40	407.51	.1
.864	40	409.22	.1
.76	40	412.81	.1
.64	40	417.32	.1
.562	40	420.65	.1
.48	40	424.55	.1
.362	40	430.98	.1
.328	40	433.08	.1
.246	40	438.98	.1
.181	40	444.8	.1
.136	40	450.34	.1
.074	40	460.96	.1
0	40	488.14	.1
1	30	397.95	.1
.919	30	400.04	.1
.859	30	401.82	.1
.749	30	405.37	.1
.612	30	410.48	.1
.554	30	412.88	.1
.476	30	416.44	.1
.35	30	423.15	.1
.32	30	425.07	.1
.25	30	429.83	.1
.173	30	436.77	.1
.127	30	442.53	.1
.059	30	455.68	.1
0	30	479.4	.1
1	20	388.04	.1
.921	20	389.92	.1
.852	20	391.97	.1
.748	20	395.23	.1
.638	20	399.05	.1
.558	20	402.18	.1
.475	20	405.77	.1
.356	20	411.95	.1
.322	20	413.97	.1
.249	20	418.83	.1
.177	20	424.84	.1
.122	20	431.53	.1
.053	20	445.3	.1
0	20	467.34	.1

System: N-methyldiethanolamine + N-methylethanolamine; phases: Gas, Liquid
Property: Mole fraction of N-methylethanolamine (Gas); method: Chromatography
Mole fraction of N-methylethanolamine	Pressure, kPa	Mole fraction of N-methylethanolamine	uncertainty
1	40	1	.005
.926	40	.995	.005
.864	40	.99	.005
.76	40	.986	.005
.64	40	.972	.005
.562	40	.96	.005
.48	40	.947	.005
.362	40	.915	.005
.328	40	.903	.005
.246	40	.867	.005
.181	40	.812	.005
.136	40	.762	.005
.074	40	.63	.005
0	40	0	.005
1	30	1	.005
.919	30	.996	.005
.859	30	.989	.005
.749	30	.984	.005
.612	30	.97	.005
.554	30	.961	.005
.476	30	.949	.005
.35	30	.915	.005
.32	30	.906	.005
.25	30	.874	.005
.173	30	.816	.005
.127	30	.76	.005
.059	30	.584	.005
0	30	0	.005
1	20	1	.005
.921	20	.992	.005
.852	20	.989	.005
.748	20	.986	.005
.638	20	.976	.005
.558	20	.965	.005
.475	20	.95	.005
.356	20	.923	.005
.322	20	.912	.005
.249	20	.881	.005
.177	20	.833	.005
.122	20	.767	.005
.053	20	.577	.005
0	20	0	.005

System: 1,2-dihydroxyethane + N-methylethanolamine; phases: Liquid, Gas
Property: Boiling temperature at pressure P, K (Liquid); method: Ebulliometric method (Recirculating still)
Mole fraction of N-methylethanolamine	Pressure, kPa	Boiling temperature at pressure P, K	uncertainty
1	40	405.48	.1
.949	40	406.46	.1
.906	40	407.35	.1
.876	40	408.15	.1
.795	40	409.57	.1
.73	40	410.83	.1
.681	40	412.6	.1
.563	40	415.15	.1
.466	40	417.97	.1
.371	40	421.4	.1
.251	40	427.2	.1
.122	40	433.27	.1
.076	40	436.39	.1
0	40	441.7	.1
1	30	397.89	.1
.951	30	398.99	.1
.903	30	399.94	.1
.877	30	400.58	.1
.789	30	402.42	.1
.73	30	403.66	.1
.677	30	404.95	.1
.571	30	407.87	.1
.47	30	410.75	.1
.389	30	413.43	.1
.243	30	419.5	.1
.121	30	425.62	.1
.08	30	427.89	.1
0	30	433.71	.1
1	20	388	.1
.949	20	389.03	.1
.906	20	389.82	.1
.876	20	390.4	.1
.795	20	392.14	.1
.73	20	393.76	.1
.681	20	394.7	.1
.563	20	397.97	.1
.466	20	400.54	.1
.371	20	404.08	.1
.251	20	408.6	.1
.122	20	415.06	.1
.076	20	417.71	.1
0	20	422.8	.1

System: 1,2-dihydroxyethane + N-methylethanolamine; phases: Gas, Liquid
Property: Mole fraction of N-methylethanolamine (Gas); method: Chromatography
Mole fraction of N-methylethanolamine	Pressure, kPa	Mole fraction of N-methylethanolamine	uncertainty
1	40	1	.005
.949	40	.992	.005
.906	40	.979	.005
.876	40	.972	.005
.795	40	.948	.005
.73	40	.927	.005
.681	40	.903	.005
.563	40	.851	.005
.466	40	.784	.005
.371	40	.711	.005
.251	40	.581	.005
.122	40	.356	.005
.076	40	.249	.005
0	40	0	.005
1	30	1	.005
.951	30	.988	.005
.903	30	.979	.005
.877	30	.972	.005
.789	30	.944	.005
.73	30	.916	.005
.677	30	.897	.005
.571	30	.846	.005
.47	30	.783	.005
.389	30	.719	.005
.243	30	.559	.005
.121	30	.346	.005
.08	30	.256	.005
0	30	0	.005
1	20	1	.005
.949	20	.992	.005
.906	20	.979	.005
.876	20	.972	.005
.795	20	.948	.005
.73	20	.927	.005
.681	20	.903	.005
.563	20	.851	.005
.466	20	.784	.005
.371	20	.711	.005
.251	20	.581	.005
.122	20	.356	.005
.076	20	.249	.005
0	20	0	.005

System: N-methyldiethanolamine + 1,2-dihydroxyethane; phases: Liquid, Gas
Property: Boiling temperature at pressure P, K (Liquid); method: Ebulliometric method (Recirculating still)
Mole fraction of 1,2-dihydroxyethane	Pressure, kPa	Boiling temperature at pressure P, K	uncertainty
1	40	441.66	.1
.953	40	443.12	.1
.898	40	444.69	.1
.853	40	446.18	.1
.742	40	450.1	.1
.658	40	453.35	.1
.569	40	457.25	.1
.485	40	461.06	.1
.429	40	464.06	.1
.363	40	467.31	.1
.261	40	472.82	.1
.166	40	478.36	.1
0	40	488.17	.1
1	30	433.66	.1
.952	30	434.91	.1
.903	30	436.1	.1
.842	30	437.83	.1
.738	30	441.07	.1
.642	30	444.25	.1
.537	30	448.26	.1
.46	30	451.44	.1
.422	30	453.47	.1
.357	30	456.47	.1
.258	30	461.93	.1
.157	30	468.1	.1
0	30	479.37	.1
1	20	422.75	.1
.952	20	423.98	.1
.9	20	425.32	.1
.842	20	426.92	.1
.736	20	430.37	.1
.641	20	433.63	.1
.53	20	437.92	.1
.461	20	441	.1
.421	20	443.03	.1
.354	20	446.06	.1
.254	20	451.5	.1
.156	20	457.08	.1
0	20	467.4	.1

System: N-methyldiethanolamine + 1,2-dihydroxyethane; phases: Gas, Liquid
Property: Mole fraction of 1,2-dihydroxyethane (Gas); method: Chromatography
Mole fraction of 1,2-dihydroxyethane	Pressure, kPa	Mole fraction of 1,2-dihydroxyethane	uncertainty
1	40	1	.005
.953	40	.998	.005
.898	40	.983	.005
.853	40	.976	.005
.742	40	.947	.005
.658	40	.912	.005
.569	40	.869	.005
.485	40	.808	.005
.429	40	.766	.005
.363	40	.693	.005
.261	40	.561	.005
.166	40	.402	.005
0	40	0	.005
1	30	1	.005
.952	30	.999	.005
.903	30	.978	.005
.842	30	.963	.005
.738	30	.937	.005
.642	30	.901	.005
.537	30	.852	.005
.46	30	.806	.005
.422	30	.779	.005
.357	30	.711	.005
.258	30	.594	.005
.157	30	.426	.005
0	30	0	.005
1	20	1	.005
.952	20	.999	.005
.9	20	.978	.005
.842	20	.965	.005
.736	20	.945	.005
.641	20	.91	.005
.53	20	.85	.005
.461	20	.811	.005
.421	20	.781	.005
.354	20	.709	.005
.254	20	.584	.005
.156	20	.416	.005
0	20	0	.005
