Measured thermophysical data. Electrical Conductivity in Dimethyl Sulfoxide + Potassium Iodide Solutions at Different Concentrations and Temperatures
Source: J. Chem. Eng. Data, 2014, 10.1021/je4010678
Compound 1: dimethyl sulfoxide, C2H6OS, purity 99.9%
Compound 2: potassium iodide, IK, purity 99.4%

System: dimethyl sulfoxide + potassium iodide; phases: Liquid
Fixed: Pressure, kPa = 101
Property: Electrical conductivity, S/m (Liquid); method: Scientific instruments device model 9700
Temperature, K	Mole fraction of potassium iodide	Electrical conductivity, S/m	uncertainty
293.15	.0001281	.00573	.00001719
295.15	.0001281	.00602	.00001806
297.15	.0001281	.0063	.0000189
299.15	.0001281	.00656	.00001968
301.15	.0001281	.00683	.00002049
303.15	.0001281	.00711	.00002133
305.15	.0001281	.00737	.00002211
307.15	.0001281	.00763	.00002289
309.15	.0001281	.0079	.0000237
311.15	.0001281	.00818	.00002454
313.15	.0001281	.00848	.00002544
315.15	.0001281	.00879	.00002637
317.15	.0001281	.00918	.00002754
319.15	.0001281	.00954	.00002862
321.15	.0001281	.01	.00003
323.15	.0001281	.01042	.00003126
293.15	.0001586	.00687	.00002061
295.15	.0001586	.00718	.00002154
297.15	.0001586	.00749	.00002247
299.15	.0001586	.00782	.00002346
301.15	.0001586	.00814	.00002442
303.15	.0001586	.00847	.00002541
305.15	.0001586	.0088	.0000264
307.15	.0001586	.0092	.0000276
309.15	.0001586	.00954	.00002862
311.15	.0001586	.00991	.00002973
313.15	.0001586	.01027	.00003081
315.15	.0001586	.01066	.00003198
317.15	.0001586	.01102	.00003306
319.15	.0001586	.01142	.00003426
321.15	.0001586	.0118	.0000354
323.15	.0001586	.01223	.00003669
293.15	.0003312	.0147	.0000441
295.15	.0003312	.01528	.00004584
297.15	.0003312	.01586	.00004758
299.15	.0003312	.01646	.00004938
301.15	.0003312	.01709	.00005127
303.15	.0003312	.01773	.00005319
305.15	.0003312	.01842	.00005526
307.15	.0003312	.01908	.00005724
309.15	.0003312	.01981	.00005943
311.15	.0003312	.02051	.00006153
313.15	.0003312	.02122	.00006366
315.15	.0003312	.02198	.00006594
317.15	.0003312	.02274	.00006822
319.15	.0003312	.0236	.0000708
321.15	.0003312	.02451	.00007353
323.15	.0003312	.02544	.00007632
293.15	.0006135	.02675	.00008025
295.15	.0006135	.02792	.00008376
297.15	.0006135	.0291	.0000873
299.15	.0006135	.0303	.0000909
301.15	.0006135	.03152	.00009456
303.15	.0006135	.03276	.00009828
305.15	.0006135	.03397	.00010191
307.15	.0006135	.0352	.0001056
309.15	.0006135	.03643	.00010929
311.15	.0006135	.03764	.00011292
313.15	.0006135	.03887	.00011661
315.15	.0006135	.04006	.00012018
317.15	.0006135	.04125	.00012375
319.15	.0006135	.04241	.00012723
321.15	.0006135	.04356	.00013068
323.15	.0006135	.04467	.00013401
293.15	.001095	.04573	.00013719
295.15	.001095	.04749	.00014247
297.15	.001095	.04929	.00014787
299.15	.001095	.05108	.00015324
301.15	.001095	.05291	.00015873
303.15	.001095	.05472	.00016416
305.15	.001095	.05657	.00016971
307.15	.001095	.05841	.00017523
309.15	.001095	.06027	.00018081
311.15	.001095	.06212	.00018636
313.15	.001095	.06399	.00019197
315.15	.001095	.06581	.00019743
317.15	.001095	.06763	.00020289
319.15	.001095	.06941	.00020823
321.15	.001095	.07115	.00021345
323.15	.001095	.07287	.00021861
293.15	.002002	.07783	.00023349
295.15	.002002	.08093	.00024279
297.15	.002002	.08406	.00025218
299.15	.002002	.08722	.00026166
301.15	.002002	.0904	.0002712
303.15	.002002	.0936	.0002808
305.15	.002002	.09685	.00029055
307.15	.002002	.1	.0003
309.15	.002002	.1033	.0003099
311.15	.002002	.1065	.0003195
313.15	.002002	.1097	.0003291
315.15	.002002	.1128	.0003384
317.15	.002002	.1159	.0003477
319.15	.002002	.1189	.0003567
321.15	.002002	.1219	.0003657
323.15	.002002	.1246	.0003738
293.15	.005707	.1829	.0005487
295.15	.005707	.1903	.0005709
297.15	.005707	.1977	.0005931
299.15	.005707	.2052	.0006156
301.15	.005707	.2127	.0006381
303.15	.005707	.2202	.0006606
305.15	.005707	.2278	.0006834
307.15	.005707	.2353	.0007059
309.15	.005707	.243	.000729
311.15	.005707	.2506	.0007518
313.15	.005707	.2582	.0007746
315.15	.005707	.2659	.0007977
317.15	.005707	.2736	.0008208
319.15	.005707	.2813	.0008439
321.15	.005707	.2889	.0008667
323.15	.005707	.2964	.0008892
293.15	.01	.3481	.0010443
295.15	.01	.3625	.0010875
297.15	.01	.377	.001131
299.15	.01	.3916	.0011748
301.15	.01	.4064	.0012192
303.15	.01	.4212	.0012636
305.15	.01	.4361	.0013083
307.15	.01	.4507	.0013521
309.15	.01	.4652	.0013956
311.15	.01	.48	.00144
313.15	.01	.4942	.0014826
315.15	.01	.5082	.0015246
317.15	.01	.5223	.0015669
319.15	.01	.5356	.0016068
321.15	.01	.5491	.0016473
323.15	.01	.5628	.0016884
293.15	.0197	.6047	.0018141
295.15	.0197	.6316	.0018948
297.15	.0197	.6592	.0019776
299.15	.0197	.6861	.0020583
301.15	.0197	.7134	.0021402
303.15	.0197	.7409	.0022227
305.15	.0197	.7676	.0023028
307.15	.0197	.7943	.0023829
309.15	.0197	.8225	.0024675
311.15	.0197	.8486	.0025458
313.15	.0197	.8736	.0026208
315.15	.0197	.8996	.0026988
317.15	.0197	.922	.002766
319.15	.0197	.9452	.0028356
321.15	.0197	.9682	.0029046
323.15	.0197	.9875	.0029625
293.15	.04	.8279	.0024837
295.15	.04	.8651	.0025953
297.15	.04	.9006	.0027018
299.15	.04	.9366	.0028098
301.15	.04	.9737	.0029211
303.15	.04	1.011	.003033
305.15	.04	1.047	.003141
307.15	.04	1.083	.003249
309.15	.04	1.124	.003372
311.15	.04	1.161	.003483
313.15	.04	1.195	.003585
315.15	.04	1.233	.003699
317.15	.04	1.271	.003813
319.15	.04	1.309	.003927
321.15	.04	1.344	.004032
323.15	.04	1.386	.004158
293.15	.0499	.9283	.0027849
295.15	.0499	.9694	.0029082
297.15	.0499	1.013	.003039
299.15	.0499	1.051	.003153
301.15	.0499	1.09	.00327
303.15	.0499	1.132	.003396
305.15	.0499	1.169	.003507
307.15	.0499	1.208	.003624
309.15	.0499	1.246	.003738
311.15	.0499	1.282	.003846
313.15	.0499	1.319	.003957
315.15	.0499	1.366	.004098
317.15	.0499	1.39	.00417
319.15	.0499	1.434	.004302
321.15	.0499	1.466	.004398
323.15	.0499	1.523	.004569
293.15	.0707	.9369	.0028107
295.15	.0707	.9785	.0029355
297.15	.0707	1.023	.003069
299.15	.0707	1.067	.003201
301.15	.0707	1.112	.003336
303.15	.0707	1.152	.003456
305.15	.0707	1.199	.003597
307.15	.0707	1.244	.003732
309.15	.0707	1.286	.003858
311.15	.0707	1.342	.004026
313.15	.0707	1.374	.004122
315.15	.0707	1.408	.004224
317.15	.0707	1.469	.004407
319.15	.0707	1.527	.004581
321.15	.0707	1.567	.004701
323.15	.0707	1.607	.004821
