Measured thermophysical data. Vapor Liquid Equilibrium for the 1,1,1-Trifluorotrichloroethane + Sulfuryl Chloride System at 101.3 kPa
Source: J. Chem. Eng. Data, 2014, 10.1021/je400544h
Compound 1: acetone, C3H6O, purity 99%
Compound 2: ethanol, C2H6O, purity 99%
Compound 3: sulfuryl chloride, Cl2O2S, purity 98%
Compound 4: 1,1,1-trifluorotrichloroethane, C2Cl3F3, purity 99%

System: acetone; phases: Liquid, Gas
Property: Vapor or sublimation pressure, kPa (Liquid); method: Ebulliometric method (Recirculating still)
Temperature, K	Vapor or sublimation pressure, kPa	uncertainty
329.37	101.3	.4

System: ethanol; phases: Liquid, Gas
Property: Vapor or sublimation pressure, kPa (Liquid); method: Ebulliometric method (Recirculating still)
Temperature, K	Vapor or sublimation pressure, kPa	uncertainty
351.45	101.3	.4

System: sulfuryl chloride; phases: Liquid, Gas
Property: Vapor or sublimation pressure, kPa (Liquid); method: Ebulliometric method (Recirculating still)
Temperature, K	Vapor or sublimation pressure, kPa	uncertainty
342.6	101.3	.4

System: 1,1,1-trifluorotrichloroethane; phases: Liquid, Gas
Property: Vapor or sublimation pressure, kPa (Liquid); method: Ebulliometric method (Recirculating still)
Temperature, K	Vapor or sublimation pressure, kPa	uncertainty
319.15	101.3	.4

System: ethanol + acetone; phases: Liquid, Gas
Property: Boiling temperature at pressure P, K (Liquid); method: Ebulliometric method (Recirculating still)
Mole fraction of acetone	Pressure, kPa	Boiling temperature at pressure P, K	uncertainty
1	101.3	329.37	.15
.891	101.3	330.15	.15
.743	101.3	331.71	.15
.659	101.3	332.8	.15
.564	101.3	334.09	.15
.495	101.3	335.31	.15
.402	101.3	336.88	.15
.326	101.3	338.49	.15
.24	101.3	340.68	.15
.166	101.3	343.14	.15
.11	101.3	345.41	.15
.076	101.3	346.97	.15
0	101.3	351.45	.15

System: ethanol + acetone; phases: Gas, Liquid
Property: Mole fraction of acetone (Gas); method: Chromatography
Mole fraction of acetone	Pressure, kPa	Mole fraction of acetone	uncertainty
1	101.3	1	
.891	101.3	.933	.002
.743	101.3	.842	.004
.659	101.3	.79	.001
.564	101.3	.735	.001
.495	101.3	.68	.002
.402	101.3	.624	.002
.326	101.3	.56	.002
.24	101.3	.474	.003
.166	101.3	.391	.002
.11	101.3	.291	.002
.076	101.3	.227	.002
0	101.3	0	

System: 1,1,1-trifluorotrichloroethane + sulfuryl chloride; phases: Liquid, Gas
Property: Boiling temperature at pressure P, K (Liquid); method: Ebulliometric method (Recirculating still)
Mole fraction of 1,1,1-trifluorotrichloroethane	Pressure, kPa	Boiling temperature at pressure P, K	uncertainty
1	101.3	319.15	.15
.939	101.3	319.85	.15
.884	101.3	320.51	.15
.775	101.3	321.92	.15
.696	101.3	322.81	.15
.642	101.3	323.74	.15
.57	101.3	324.6	.15
.523	101.3	325.75	.15
.477	101.3	326.47	.15
.388	101.3	327.56	.15
.359	101.3	328.02	.15
.318	101.3	329.23	.15
.237	101.3	331.5	.15
.205	101.3	332.16	.15
.159	101.3	333.88	.15
.155	101.3	334.4	.15
.122	101.3	335.65	.15
.088	101.3	336.9	.15
.072	101.3	337.88	.15
.06	101.3	338.4	.15
.052	101.3	338.91	.15
0	101.3	342.6	.15

System: 1,1,1-trifluorotrichloroethane + sulfuryl chloride; phases: Gas, Liquid
Property: Mole fraction of 1,1,1-trifluorotrichloroethane (Gas); method: Chromatography
Mole fraction of 1,1,1-trifluorotrichloroethane	Pressure, kPa	Mole fraction of 1,1,1-trifluorotrichloroethane	uncertainty
1	101.3	1	
.939	101.3	.962	.001
.884	101.3	.926	.003
.775	101.3	.858	.003
.696	101.3	.815	.003
.642	101.3	.77	.001
.57	101.3	.737	.001
.523	101.3	.69	.001
.477	101.3	.66	.007
.388	101.3	.606	.001
.359	101.3	.586	.001
.318	101.3	.549	.001
.237	101.3	.459	.001
.205	101.3	.431	.004
.159	101.3	.372	.004
.155	101.3	.345	.003
.122	101.3	.287	.001
.088	101.3	.247	.002
.072	101.3	.2	.002
.06	101.3	.181	.003
.052	101.3	.158	.002
0	101.3	0	
