Measured thermophysical data. Solubility Determination and Correlation of (2R,3S,4S,5S)-6-(Hydroxymethyl)-tetrahydro-2H-pyran-2,3,4, 5-tetraol in Fatty Alcohol
Source: J. Chem. Eng. Data, 2014, 10.1021/je4011097
Compound 1: D-glucose, C6H12O6, purity 99%
Compound 2: 1-dodecanol, C12H26O, purity 98%
Compound 3: 1-decanol, C10H22O, purity 98%
Compound 4: 1-octanol, C8H18O, purity 98%

System: D-glucose + 1-dodecanol; phases: Liquid, Crystal
Fixed: Pressure, kPa = 101
Property: Mole fraction of D-glucose (Liquid); method: Chromatography
Temperature, K	Mole fraction of D-glucose	uncertainty
349.15	.00762	.00012192
355.15	.00802	.00012832
360.15	.00865	.0001384
365.15	.011	.000176
370.15	.01298	.00020768
375.15	.01401	.00022416
382.15	.01563	.00025008
387.15	.01857	.00029712
393.15	.02029	.00032464

System: D-glucose + 1-decanol; phases: Liquid, Crystal
Fixed: Pressure, kPa = 101
Property: Mole fraction of D-glucose (Liquid); method: Chromatography
Temperature, K	Mole fraction of D-glucose	uncertainty
348.15	.00902	.00014432
353.15	.00984	.00015744
357.15	.01186	.00018976
367.15	.01536	.00024576
372.15	.01782	.00028512
377.15	.0204	.0003264
382.15	.02394	.00038304
387.15	.0264	.0004224
392.15	.03266	.00052256

System: D-glucose + 1-octanol; phases: Liquid, Crystal
Fixed: Pressure, kPa = 101
Property: Mole fraction of D-glucose (Liquid); method: Chromatography
Temperature, K	Mole fraction of D-glucose	uncertainty
345.15	.0098	.0001568
355.15	.01529	.00024464
364.15	.0192	.0003072
369.15	.02279	.00036464
374.15	.02407	.00038512
379.15	.02895	.0004632
383.15	.03408	.00054528
