Measured thermophysical data. Measurement of High-Pressure Densities and Atmospheric Viscosities of Ionic Liquids: 1-Hexyl-3-methylimidazolium Bis(trifluoromethylsulfonyl)imide and 1-Hexyl-3-methylimidazolium Chloride
Source: J. Chem. Eng. Data, 2014, 10.1021/je4007844
Compound 1: 1-hexyl-3-methylimidazolium bis(trifluoromethylsulfonyl)imide, C12H19F6N3O4S2, purity 99%
Compound 2: 1-hexyl-3-methylimidazolium chloride, C10H19ClN2, purity 97%

System: 1-hexyl-3-methylimidazolium bis(trifluoromethylsulfonyl)imide; phases: Liquid
Fixed: Pressure, kPa = 101.325
Property: Mass density, kg/m3 (Liquid); method: Vibrating tube method
Temperature, K	Mass density, kg/m3	uncertainty
293.15	1376.3	1
303.15	1367.1	1
313.15	1358	1
323.15	1348.9	1
333.15	1339.9	1
343.15	1331	1
353.15	1322.2	1
363.15	1313.3	1
373.15	1304.7	1

System: 1-hexyl-3-methylimidazolium bis(trifluoromethylsulfonyl)imide; phases: Liquid
Fixed: Pressure, kPa = 101.325
Property: Viscosity, Pa*s (Liquid); method: Concentric cylinders viscometry
Temperature, K	Viscosity, Pa*s	uncertainty
293.15	.09006	.00076551
303.15	.05625	.000478125
313.15	.03744	.00031824
323.15	.02625	.000223125
333.15	.01921	.000163285
343.15	.01455	.000123675
353.15	.01136	.00009656
363.15	.009091	.0000772735
373.15	.007434	.000063189

System: 1-hexyl-3-methylimidazolium bis(trifluoromethylsulfonyl)imide; phases: Liquid
Property: Mass density, kg/m3 (Liquid); method: Bellows volumetry
Temperature, K	Pressure, kPa	Mass density, kg/m3	uncertainty
312.6	100	1358.5	1.8
312.6	10000	1365.7	1.8
312.6	20000	1373	1.8
312.6	30000	1380.1	1.8
312.6	40000	1386.7	1.8
312.6	50000	1392.8	1.8
312.6	60000	1399	1.8
312.6	70000	1404.6	1.8
312.6	80000	1410.2	1.8
312.6	90000	1415.5	1.8
312.6	100000	1420.7	1.8
312.6	110000	1425.8	1.8
312.6	120000	1430.8	1.8
312.6	130000	1435.5	1.8
312.6	140000	1440.1	1.8
312.6	150000	1444.5	1.8
312.6	160000	1448.9	1.8
312.6	170000	1453	1.8
312.6	180000	1457.6	1.8
312.6	190000	1461.6	1.8
312.6	200000	1465.9	1.8
332.4	100	1340	1.8
332.4	10000	1348.1	1.8
332.4	20000	1355.9	1.8
332.4	30000	1363.3	1.8
332.4	40000	1370.4	1.8
332.4	50000	1377	1.8
332.4	60000	1383.2	1.8
332.4	70000	1389.3	1.8
332.4	80000	1395.1	1.8
332.4	90000	1400.5	1.8
332.4	100000	1406.3	1.8
332.4	110000	1411.5	1.8
332.4	120000	1416.5	1.8
332.4	130000	1421.3	1.8
332.4	140000	1426.1	1.8
332.4	150000	1430.9	1.8
332.4	160000	1435.4	1.8
332.4	170000	1439.7	1.8
332.4	180000	1444	1.8
332.4	190000	1448.4	1.8
332.4	200000	1452.6	1.8
352.3	100	1322.2	1.8
352.3	10000	1330.9	1.8
352.3	20000	1339.3	1.8
352.3	30000	1347.3	1.8
352.3	40000	1354.5	1.8
352.3	50000	1361.5	1.8
352.3	60000	1368.2	1.8
352.3	70000	1374.6	1.8
352.3	80000	1380.6	1.8
352.3	90000	1386.5	1.8
352.3	100000	1392	1.8
352.3	110000	1397.5	1.8
352.3	120000	1402.7	1.8
352.3	130000	1408	1.8
352.3	140000	1412.8	1.8
352.3	150000	1417.6	1.8
352.3	160000	1422.1	1.8
352.3	170000	1426.8	1.8
352.3	180000	1431.4	1.8
352.3	190000	1435.5	1.8
352.3	200000	1439.9	1.8
372.5	100	1304.4	1.8
372.5	10000	1313.7	1.8
372.5	20000	1322.6	1.8
372.5	30000	1330.9	1.8
372.5	40000	1338.6	1.8
372.5	50000	1346	1.8
372.5	60000	1353	1.8
372.5	70000	1359.6	1.8
372.5	80000	1366	1.8
372.5	90000	1372.1	1.8
372.5	100000	1378	1.8
372.5	110000	1383.7	1.8
372.5	120000	1389.1	1.8
372.5	130000	1394.3	1.8
372.5	140000	1399.4	1.8
372.5	150000	1404.4	1.8
372.5	160000	1409.3	1.8
372.5	170000	1414	1.8
372.5	180000	1418.5	1.8
372.5	190000	1423.1	1.8
372.5	200000	1427.4	1.8
392.7	100	1286.8	1.8
392.7	10000	1296.8	1.8
392.7	20000	1306.3	1.8
392.7	30000	1315.1	1.8
392.7	40000	1323.4	1.8
392.7	50000	1331.1	1.8
392.7	60000	1338.5	1.8
392.7	70000	1345.4	1.8
392.7	80000	1352.1	1.8
392.7	90000	1358.3	1.8
392.7	100000	1364.5	1.8
392.7	110000	1370.3	1.8
392.7	120000	1376	1.8
392.7	130000	1381.5	1.8
392.7	140000	1386.8	1.8
392.7	150000	1391.9	1.8
392.7	160000	1397	1.8
392.7	170000	1401.8	1.8
392.7	180000	1406.5	1.8
392.7	190000	1411.1	1.8
392.7	200000	1415.7	1.8
412.7	100	1269.8	1.8
412.7	10000	1280.4	1.8
412.7	20000	1290.4	1.8
412.7	30000	1299.8	1.8
412.7	40000	1308.4	1.8
412.7	50000	1316.5	1.8
412.7	60000	1324.3	1.8
412.7	70000	1331.5	1.8
412.7	80000	1338.5	1.8
412.7	90000	1345	1.8
412.7	100000	1351.3	1.8
412.7	110000	1357.5	1.8
412.7	120000	1363.2	1.8
412.7	130000	1368.9	1.8
412.7	140000	1374.3	1.8
412.7	150000	1379.8	1.8
412.7	160000	1384.9	1.8
412.7	170000	1389.9	1.8
412.7	180000	1394.7	1.8
412.7	190000	1399.4	1.8
412.7	200000	1404	1.8
432.6	100	1252.4	1.8
432.6	10000	1263.7	1.8
432.6	20000	1274.3	1.8
432.6	30000	1284.2	1.8
432.6	40000	1293.3	1.8
432.6	50000	1301.7	1.8
432.6	60000	1309.7	1.8
432.6	70000	1317.3	1.8
432.6	80000	1324.5	1.8
432.6	90000	1331.2	1.8
432.6	100000	1337.8	1.8
432.6	110000	1344.1	1.8
432.6	120000	1350.3	1.8
432.6	130000	1356.1	1.8
432.6	140000	1361.9	1.8
432.6	150000	1367.3	1.8
432.6	160000	1372.4	1.8
432.6	170000	1377.5	1.8
432.6	180000	1382.5	1.8
432.6	190000	1387.4	1.8
432.6	200000	1392.2	1.8
452.3	100	1235.6	1.8
452.3	10000	1247.6	1.8
452.3	20000	1258.8	1.8
452.3	30000	1269.2	1.8
452.3	40000	1278.8	1.8
452.3	50000	1287.6	1.8
452.3	60000	1295.9	1.8
452.3	70000	1303.9	1.8
452.3	80000	1311.3	1.8
452.3	90000	1318.3	1.8
452.3	100000	1325.1	1.8
452.3	110000	1331.8	1.8
452.3	120000	1338	1.8
452.3	130000	1344.1	1.8
452.3	140000	1349.9	1.8
452.3	150000	1355.5	1.8
452.3	160000	1360.8	1.8
452.3	170000	1366.2	1.8
452.3	180000	1371.3	1.8
452.3	190000	1376.4	1.8
452.3	200000	1381.2	1.8

System: 1-hexyl-3-methylimidazolium chloride; phases: Liquid
Fixed: Pressure, kPa = 101.325
Property: Mass density, kg/m3 (Liquid); method: Vibrating tube method
Temperature, K	Mass density, kg/m3	uncertainty
303.15	1035.1	1.1
313.15	1029.5	1.1
323.15	1023.9	1.1
333.15	1018.4	1.1
343.15	1012.8	1.1
353.15	1007.4	1.1
363.15	1002.1	1.1
373.15	997.1	1.1

System: 1-hexyl-3-methylimidazolium chloride; phases: Liquid
Fixed: Pressure, kPa = 101.325
Property: Viscosity, Pa*s (Liquid); method: Concentric cylinders viscometry
Temperature, K	Viscosity, Pa*s	uncertainty
323.15	1.806	.0287154
333.15	.8103	.01288377
343.15	.4043	.00642837
353.15	.2206	.00350754
363.15	.1297	.00206223
373.15	.08134	.001293306
