Measured thermophysical data. Thermodynamics of Mixtures Containing Amines. XII. Volumetric and Speed of Sound Data at (293.15, 298.15, and 303.15) K for N-Methylaniline + Hydrocarbon Systems
Source: J. Chem. Eng. Data, 2013, 10.1021/je400134d
Compound 1: methylaniline, C7H9N, purity 98%
Compound 2: n-heptane, C7H16, purity 99.5%
Compound 3: cyclohexane, C6H12, purity 99.5%
Compound 4: methylbenzene, C7H8, purity 99.7%

System: methylaniline; phases: Liquid
Fixed: Pressure, kPa = 101.325
Property: Mass density, kg/m3 (Liquid); method: Vibrating tube method
Temperature, K	Mass density, kg/m3	uncertainty
293.15	986.444	.01
298.15	982.487	.01
303.15	978.541	.01

System: methylaniline; phases: Liquid
Fixed: Pressure, kPa = 101.325
Property: Speed of sound, m/s (Liquid); method: Pulse-echo method
Temperature, K	Speed of sound, m/s	uncertainty
293.15	1582.7	.1
298.15	1564.7	.1
303.15	1545.8	.1

System: n-heptane; phases: Liquid
Fixed: Pressure, kPa = 101.325
Property: Mass density, kg/m3 (Liquid); method: Vibrating tube method
Temperature, K	Mass density, kg/m3	uncertainty
293.15	683.845	.01
298.15	679.603	.01
303.15	675.532	.01

System: n-heptane; phases: Liquid
Fixed: Pressure, kPa = 101.325
Property: Speed of sound, m/s (Liquid); method: Pulse-echo method
Temperature, K	Speed of sound, m/s	uncertainty
293.15	1150.9	.1
298.15	1129.6	.1
303.15	1111.2	.1

System: cyclohexane; phases: Liquid
Fixed: Pressure, kPa = 101.325
Property: Mass density, kg/m3 (Liquid); method: Vibrating tube method
Temperature, K	Mass density, kg/m3	uncertainty
293.15	778.706	.01
298.15	774.018	.01
303.15	769.297	.01

System: cyclohexane; phases: Liquid
Fixed: Pressure, kPa = 101.325
Property: Speed of sound, m/s (Liquid); method: Pulse-echo method
Temperature, K	Speed of sound, m/s	uncertainty
293.15	1278	.1
298.15	1253.6	.1
303.15	1229.9	.1

System: methylbenzene; phases: Liquid
Fixed: Pressure, kPa = 101.325
Property: Mass density, kg/m3 (Liquid); method: Vibrating tube method
Temperature, K	Mass density, kg/m3	uncertainty
293.15	866.98	.01
298.15	862.295	.01
303.15	857.725	.01

System: methylbenzene; phases: Liquid
Fixed: Pressure, kPa = 101.325
Property: Speed of sound, m/s (Liquid); method: Pulse-echo method
Temperature, K	Speed of sound, m/s	uncertainty
293.15	1325.8	.1
298.15	1304.4	.1
303.15	1283.7	.1

System: methylaniline + n-heptane; phases: Liquid
Fixed: Pressure, kPa = 100
Property: Mass density, kg/m3 (Liquid); method: Vibrating tube method
Temperature, K	Mole fraction of methylaniline	Mass density, kg/m3	uncertainty
293.15	.054	695.999	.02
293.15	.1084	708.778	.02
293.15	.1536	719.814	.02
293.15	.2	731.341	.02
293.15	.2556	745.704	.02
293.15	.2976	756.81	.02
293.15	.3473	770.261	.02
293.15	.3944	783.41	.02
293.15	.4485	798.879	.02
293.15	.4953	812.615	.02
293.15	.5355	824.725	.02
293.15	.599	844.458	.02
293.15	.6436	858.711	.02
293.15	.7024	878.07	.02
293.15	.7457	892.769	.02
293.15	.7858	906.675	.02
293.15	.8459	928.153	.02
293.15	.8952	946.22	.02
293.15	.9491	966.608	.02
298.15	.0577	692.58	.02
298.15	.1072	704.27	.02
298.15	.1473	713.999	.02
298.15	.2055	728.558	.02
298.15	.2595	742.491	.02
298.15	.3033	754.107	.02
298.15	.3401	764.024	.02
298.15	.3955	779.471	.02
298.15	.4559	796.765	.02
298.15	.503	810.692	.02
298.15	.5431	822.843	.02
298.15	.5956	839.178	.02
298.15	.6441	854.671	.02
298.15	.6995	872.931	.02
298.15	.7491	889.715	.02
298.15	.7964	906.279	.02
298.15	.8446	923.55	.02
298.15	.8949	942.036	.02
298.15	.9465	961.528	.02
303.15	.0615	689.386	.02
303.15	.1111	701.082	.02
303.15	.1548	711.723	.02
303.15	.2069	724.76	.02
303.15	.2501	735.88	.02
303.15	.2964	748.035	.02
303.15	.348	762.057	.02
303.15	.3979	775.964	.02
303.15	.4513	791.356	.02
303.15	.5003	805.793	.02
303.15	.5583	823.48	.02
303.15	.5988	836.196	.02
303.15	.647	851.618	.02
303.15	.7026	869.963	.02
303.15	.7475	885.221	.02
303.15	.7954	901.919	.02
303.15	.8446	919.525	.02
303.15	.8917	936.846	.02
303.15	.9404	955.244	.02

System: methylaniline + n-heptane; phases: Liquid
Fixed: Pressure, kPa = 100
Property: Speed of sound, m/s (Liquid); method: Pulse-echo method
Temperature, K	Mole fraction of methylaniline	Speed of sound, m/s	uncertainty
293.15	.054	1164.13	.2
293.15	.1084	1177.21	.2
293.15	.1536	1188.4	.2
293.15	.2	1199.96	.2
293.15	.2556	1214.55	.2
293.15	.2976	1226.12	.2
293.15	.3473	1240.59	.2
293.15	.3944	1255.22	.2
293.15	.4485	1273.49	.2
293.15	.4953	1290.98	.2
293.15	.5355	1306.87	.2
293.15	.599	1334.98	.2
293.15	.6436	1356.59	.2
293.15	.7024	1387.65	.2
293.15	.7457	1412.52	.2
293.15	.7858	1436.65	.2
293.15	.8459	1474.73	.2
293.15	.8952	1507.91	.2
293.15	.9491	1545.53	.2
298.15	.0577	1143.9	.2
298.15	.1072	1156.24	.2
298.15	.1473	1166.33	.2
298.15	.2055	1181.37	.2
298.15	.2595	1193.92	.2
298.15	.3033	1208.28	.2
298.15	.3401	1219.16	.2
298.15	.3955	1236.72	.2
298.15	.4559	1257.57	.2
298.15	.503	1275.48	.2
298.15	.5431	1291.9	.2
298.15	.5956	1315.3	.2
298.15	.6441	1338.79	.2
298.15	.6995	1368.11	.2
298.15	.7491	1396.25	.2
298.15	.7964	1425.14	.2
298.15	.8446	1455.89	.2
298.15	.8949	1489.57	.2
298.15	.9465	1525.56	.2
303.15	.0615	1124.94	.2
303.15	.1111	1137.53	.2
303.15	.1548	1148.81	.2
303.15	.2069	1162.57	.2
303.15	.2501	1174.36	.2
303.15	.2964	1187.49	.2
303.15	.348	1203.16	.2
303.15	.3979	1219.16	.2
303.15	.4513	1238.04	.2
303.15	.5003	1256.55	.2
303.15	.5583	1280.79	.2
303.15	.5988	1299.21	.2
303.15	.647	1322.6	.2
303.15	.7026	1351.94	.2
303.15	.7475	1377.44	.2
303.15	.7954	1406.27	.2
303.15	.8446	1437.49	.2
303.15	.8917	1468.76	.2
303.15	.9404	1502.43	.2

System: methylaniline + cyclohexane; phases: Liquid
Fixed: Pressure, kPa = 100
Property: Mass density, kg/m3 (Liquid); method: Vibrating tube method
Temperature, K	Mole fraction of methylaniline	Mass density, kg/m3	uncertainty
293.15	.0516	787.947	.02
293.15	.1047	798.075	.02
293.15	.1522	807.416	.02
293.15	.2023	817.479	.02
293.15	.2482	826.755	.02
293.15	.3018	837.718	.02
293.15	.3462	846.906	.02
293.15	.4049	859.091	.02
293.15	.4478	868.011	.02
293.15	.4972	878.435	.02
293.15	.5444	888.383	.02
293.15	.5942	898.936	.02
293.15	.6445	909.64	.02
293.15	.6931	920.029	.02
293.15	.7564	933.633	.02
293.15	.7917	941.225	.02
293.15	.8372	951.07	.02
293.15	.89	962.5	.02
293.15	.9446	974.383	.02
298.15	.0673	786.236	.02
298.15	.1073	793.946	.02
298.15	.1609	804.548	.02
298.15	.2065	813.772	.02
298.15	.2536	823.353	.02
298.15	.2963	832.165	.02
298.15	.3554	844.401	.02
298.15	.3981	853.363	.02
298.15	.4479	863.765	.02
298.15	.5055	875.962	.02
298.15	.5537	886.222	.02
298.15	.5968	895.414	.02
298.15	.6482	906.388	.02
298.15	.6939	916.254	.02
298.15	.753	928.945	.02
298.15	.795	938.08	.02
298.15	.8347	946.748	.02
298.15	.8896	958.645	.02
298.15	.9399	969.599	.02
303.15	.0581	779.854	.02
303.15	.1038	788.651	.02
303.15	.1557	798.906	.02
303.15	.2015	808.134	.02
303.15	.2526	818.565	.02
303.15	.2975	827.884	.02
303.15	.3479	838.328	.02
303.15	.3974	848.695	.02
303.15	.451	859.961	.02
303.15	.5005	870.442	.02
303.15	.5512	881.294	.02
303.15	.5922	890.064	.02
303.15	.6575	904.033	.02
303.15	.6956	912.351	.02
303.15	.7501	924.185	.02
303.15	.7995	934.921	.02
303.15	.8447	944.844	.02
303.15	.8956	955.901	.02
303.15	.9411	965.875	.02

System: methylaniline + cyclohexane; phases: Liquid
Fixed: Pressure, kPa = 100
Property: Speed of sound, m/s (Liquid); method: Pulse-echo method
Temperature, K	Mole fraction of methylaniline	Speed of sound, m/s	uncertainty
293.15	.0516	1285.67	.2
293.15	.1047	1294.42	.2
293.15	.1522	1303.03	.2
293.15	.2023	1313.16	.2
293.15	.2482	1322.87	.2
293.15	.3018	1335.29	.2
293.15	.3462	1346.35	.2
293.15	.4049	1362.01	.2
293.15	.4478	1374.11	.2
293.15	.4972	1389.07	.2
293.15	.5444	1404.09	.2
293.15	.5942	1420.72	.2
293.15	.6445	1438.28	.2
293.15	.6931	1456.03	.2
293.15	.7564	1480.34	.2
293.15	.7917	1494.21	.2
293.15	.8372	1512.7	.2
293.15	.89	1534.78	.2
293.15	.9446	1558.2	.2
298.15	.0673	1264.5	.2
298.15	.1073	1271.66	.2
298.15	.1609	1282	.2
298.15	.2065	1291.75	.2
298.15	.2536	1302.33	.2
298.15	.2963	1312.64	.2
298.15	.3554	1327.8	.2
298.15	.3981	1339.58	.2
298.15	.4479	1353.95	.2
298.15	.5055	1371.78	.2
298.15	.5537	1387.51	.2
298.15	.5968	1402.54	.2
298.15	.6482	1420.6	.2
298.15	.6939	1437.64	.2
298.15	.753	1460.4	.2
298.15	.795	1477.24	.2
298.15	.8347	1493.58	.2
298.15	.8896	1516.7	.2
298.15	.9399	1538.51	.2
303.15	.0581	1239.83	.2
303.15	.1038	1248.41	.2
303.15	.1557	1258.84	.2
303.15	.2015	1268.76	.2
303.15	.2526	1280.59	.2
303.15	.2975	1291.71	.2
303.15	.3479	1304.89	.2
303.15	.3974	1318.71	.2
303.15	.451	1334.45	.2
303.15	.5005	1351.46	.2
303.15	.5512	1366.73	.2
303.15	.5922	1380.83	.2
303.15	.6575	1404.18	.2
303.15	.6956	1418.63	.2
303.15	.7501	1439.86	.2
303.15	.7995	1459.72	.2
303.15	.8447	1478.59	.2
303.15	.8956	1500.05	.2
303.15	.9411	1520.04	.2

System: methylaniline + methylbenzene; phases: Liquid
Fixed: Pressure, kPa = 100
Property: Mass density, kg/m3 (Liquid); method: Vibrating tube method
Temperature, K	Mole fraction of methylaniline	Mass density, kg/m3	uncertainty
293.15	.0541	873.9	.02
293.15	.0986	879.611	.02
293.15	.1502	886.145	.02
293.15	.1989	892.268	.02
293.15	.2473	898.297	.02
293.15	.2982	904.623	.02
293.15	.35	910.972	.02
293.15	.3898	915.862	.02
293.15	.446	922.654	.02
293.15	.4872	927.615	.02
293.15	.5426	934.227	.02
293.15	.5859	939.349	.02
293.15	.6441	946.179	.02
293.15	.6894	951.429	.02
293.15	.7385	957.096	.02
293.15	.7823	962.1	.02
293.15	.8377	968.392	.02
293.15	.8834	973.522	.02
293.15	.9299	978.698	.02
298.15	.0532	869.146	.02
298.15	.0998	875.098	.02
298.15	.1518	881.77	.02
298.15	.1906	886.675	.02
298.15	.2452	893.525	.02
298.15	.2887	898.955	.02
298.15	.3417	905.492	.02
298.15	.39	911.437	.02
298.15	.4434	917.945	.02
298.15	.49	923.58	.02
298.15	.5415	929.747	.02
298.15	.5792	934.236	.02
298.15	.6432	941.787	.02
298.15	.6868	946.88	.02
298.15	.7407	953.128	.02
298.15	.7823	957.907	.02
298.15	.8378	964.233	.02
298.15	.8844	969.501	.02
298.15	.934	975.057	.02
303.15	.053	864.574	.02
303.15	.0982	870.409	.02
303.15	.1501	877.091	.02
303.15	.1929	882.501	.02
303.15	.2456	889.168	.02
303.15	.2837	893.953	.02
303.15	.3444	901.518	.02
303.15	.3919	907.37	.02
303.15	.4478	914.21	.02
303.15	.4918	919.549	.02
303.15	.5391	925.243	.02
303.15	.5886	931.18	.02
303.15	.6395	937.212	.02
303.15	.6846	942.503	.02
303.15	.7398	948.933	.02
303.15	.7782	953.381	.02
303.15	.842	960.67	.02
303.15	.879	964.897	.02
303.15	.934	971.087	.02

System: methylaniline + methylbenzene; phases: Liquid
Fixed: Pressure, kPa = 100
Property: Speed of sound, m/s (Liquid); method: Pulse-echo method
Temperature, K	Mole fraction of methylaniline	Speed of sound, m/s	uncertainty
293.15	.0541	1339.33	.2
293.15	.0986	1350.47	.2
293.15	.1502	1363.16	.2
293.15	.1989	1375.13	.2
293.15	.2473	1387.04	.2
293.15	.2982	1399.69	.2
293.15	.35	1412.64	.2
293.15	.3898	1422.69	.2
293.15	.446	1436.81	.2
293.15	.4872	1447.31	.2
293.15	.5426	1461.51	.2
293.15	.5859	1472.7	.2
293.15	.6441	1487.85	.2
293.15	.6894	1499.7	.2
293.15	.7385	1512.65	.2
293.15	.7823	1524.26	.2
293.15	.8377	1539.61	.2
293.15	.8834	1551.26	.2
293.15	.9299	1563.71	.2
298.15	.0532	1317.89	.2
298.15	.0998	1329.56	.2
298.15	.1518	1342.7	.2
298.15	.1906	1352.39	.2
298.15	.2452	1366.05	.2
298.15	.2887	1376.96	.2
298.15	.3417	1390.29	.2
298.15	.39	1402.65	.2
298.15	.4434	1416.3	.2
298.15	.49	1428.34	.2
298.15	.5415	1441.67	.2
298.15	.5792	1451.54	.2
298.15	.6432	1468.43	.2
298.15	.6868	1479.92	.2
298.15	.7407	1494.33	.2
298.15	.7823	1505.44	.2
298.15	.8378	1520.36	.2
298.15	.8844	1532.95	.2
298.15	.934	1546.39	.2
303.15	.053	1297.27	.2
303.15	.0982	1308.76	.2
303.15	.1501	1321.93	.2
303.15	.1929	1332.69	.2
303.15	.2456	1346.06	.2
303.15	.2837	1355.72	.2
303.15	.3444	1371.22	.2
303.15	.3919	1383.4	.2
303.15	.4478	1397.84	.2
303.15	.4918	1409.26	.2
303.15	.5391	1421.66	.2
303.15	.5886	1434.72	.2
303.15	.6395	1448.21	.2
303.15	.6846	1460.22	.2
303.15	.7398	1474.99	.2
303.15	.7782	1485.35	.2
303.15	.842	1502.33	.2
303.15	.879	1512.66	.2
303.15	.934	1527.58	.2
