Measured thermophysical data. Excess Molar Volume along with Viscosity, Flash Point, and Refractive Index for Binary Mixtures of cis-Decalin or trans-Decalin with C9 to C11 n-Alkanes
Source: J. Chem. Eng. Data, 2013, 10.1021/je400250u
Compound 1: cis-decahydronaphthalene, C10H18, purity 98%
Compound 2: naphthalene, decahydro-, trans-, C10H18, purity 98%
Compound 3: n-nonane, C9H20, purity 99%
Compound 4: n-decane, C10H22, purity 99%
Compound 5: undecane, C11H24, purity 99%

System: cis-decahydronaphthalene; phases: Liquid
Property: Mass density, kg/m3 (Liquid); method: Vibrating tube method
Temperature, K	Pressure, kPa	Mass density, kg/m3	uncertainty
293.15	100	896.85	.05
298.15	100	893.06	.05
303.15	100	889.26	.05
308.15	100	885.46	.05
313.15	100	881.65	.05
318.15	100	877.85	.05
323.15	100	874.05	.05

System: cis-decahydronaphthalene; phases: Liquid
Property: Viscosity, Pa*s (Liquid); method: Capillary tube (Ostwald; Ubbelohde) method
Temperature, K	Pressure, kPa	Viscosity, Pa*s	uncertainty
293.15	100	.003355	.000005
298.15	100	.003011	.000005
303.15	100	.002718	.000005
308.15	100	.00247	.000005
313.15	100	.002252	.000005
318.15	100	.002079	.000005
323.15	100	.001912	.000005
318.15	100	.002063	.000005
323.15	100	.001898	.000005

System: cis-decahydronaphthalene; phases: Liquid
Fixed: Pressure, kPa = 101.325
Property: Refractive index (Na D-line) (Liquid); method: Standard Abbe refractometry
Temperature, K	Refractive index (Na D-line)	uncertainty
298.15	1.4776	.0006
308.15	1.4736	.0006
318.15	1.4696	.0006

System: naphthalene, decahydro-, trans-; phases: Liquid
Property: Mass density, kg/m3 (Liquid); method: Vibrating tube method
Temperature, K	Pressure, kPa	Mass density, kg/m3	uncertainty
293.15	100	869.78	.05
298.15	100	866.07	.05
303.15	100	862.34	.05
308.15	100	858.61	.05
313.15	100	854.88	.05
318.15	100	851.14	.05
323.15	100	847.4	.05

System: naphthalene, decahydro-, trans-; phases: Liquid
Property: Viscosity, Pa*s (Liquid); method: Capillary tube (Ostwald; Ubbelohde) method
Temperature, K	Pressure, kPa	Viscosity, Pa*s	uncertainty
293.15	100	.002112	.000005
298.15	100	.001925	.000005
303.15	100	.001769	.000005
308.15	100	.001628	.000005
313.15	100	.001505	.000005
318.15	100	.001394	.000005
323.15	100	.001295	.000005

System: naphthalene, decahydro-, trans-; phases: Liquid
Fixed: Pressure, kPa = 101.325
Property: Refractive index (Na D-line) (Liquid); method: Standard Abbe refractometry
Temperature, K	Refractive index (Na D-line)	uncertainty
298.15	1.4662	.0006
308.15	1.4618	.0006
318.15	1.4581	.0006

System: n-nonane; phases: Liquid
Property: Mass density, kg/m3 (Liquid); method: Vibrating tube method
Temperature, K	Pressure, kPa	Mass density, kg/m3	uncertainty
293.15	100	717.94	.05
298.15	100	714.11	.05
303.15	100	710.2	.05
308.15	100	706.29	.05
313.15	100	702.35	.05
318.15	100	698.4	.05
323.15	100	694.43	.05

System: n-nonane; phases: Liquid
Property: Viscosity, Pa*s (Liquid); method: Capillary tube (Ostwald; Ubbelohde) method
Temperature, K	Pressure, kPa	Viscosity, Pa*s	uncertainty
293.15	100	.000724	.000005
298.15	100	.000681	.000005
303.15	100	.00064	.000005
308.15	100	.000604	.000005
313.15	100	.000571	.000005
318.15	100	.000547	.000005
323.15	100	.000521	.000005

System: n-nonane; phases: Liquid
Fixed: Pressure, kPa = 101.325
Property: Refractive index (Na D-line) (Liquid); method: Standard Abbe refractometry
Temperature, K	Refractive index (Na D-line)	uncertainty
298.15	1.4026	.0006
308.15	1.3983	.0006
318.15	1.3937	.0006

System: n-decane; phases: Liquid
Property: Mass density, kg/m3 (Liquid); method: Vibrating tube method
Temperature, K	Pressure, kPa	Mass density, kg/m3	uncertainty
293.15	100	731.14	.05
298.15	100	727.43	.05
303.15	100	723.64	.05
308.15	100	719.84	.05
313.15	100	716.03	.05
318.15	100	712.2	.05
323.15	100	708.36	.05

System: n-decane; phases: Liquid
Property: Viscosity, Pa*s (Liquid); method: Capillary tube (Ostwald; Ubbelohde) method
Temperature, K	Pressure, kPa	Viscosity, Pa*s	uncertainty
293.15	100	.000916	.000005
298.15	100	.000852	.000005
303.15	100	.000799	.000005
308.15	100	.000751	.000005
313.15	100	.000709	.000005
318.15	100	.000667	.000005
323.15	100	.000632	.000005

System: n-decane; phases: Liquid
Fixed: Pressure, kPa = 101.325
Property: Refractive index (Na D-line) (Liquid); method: Standard Abbe refractometry
Temperature, K	Refractive index (Na D-line)	uncertainty
298.15	1.4098	.0006
308.15	1.4052	.0006
318.15	1.4	.0006

System: undecane; phases: Liquid
Property: Mass density, kg/m3 (Liquid); method: Vibrating tube method
Temperature, K	Pressure, kPa	Mass density, kg/m3	uncertainty
293.15	100	740.28	.05
298.15	100	736.63	.05
303.15	100	732.93	.05
308.15	100	729.22	.05
313.15	100	725.51	.05
318.15	100	721.78	.05
323.15	100	718.04	.05

System: undecane; phases: Liquid
Property: Viscosity, Pa*s (Liquid); method: Capillary tube (Ostwald; Ubbelohde) method
Temperature, K	Pressure, kPa	Viscosity, Pa*s	uncertainty
293.15	100	.00117	.000005
298.15	100	.001086	.000005
303.15	100	.001004	.000005
308.15	100	.000931	.000005
313.15	100	.000862	.000005
318.15	100	.000801	.000005
323.15	100	.000749	.000005

System: undecane; phases: Liquid
Fixed: Pressure, kPa = 101.325
Property: Refractive index (Na D-line) (Liquid); method: Standard Abbe refractometry
Temperature, K	Refractive index (Na D-line)	uncertainty
298.15	1.4138	.0006
308.15	1.4095	.0006
318.15	1.4058	.0006

System: n-nonane + cis-decahydronaphthalene; phases: Liquid
Fixed: Pressure, kPa = 100
Property: Mass density, kg/m3 (Liquid); method: Vibrating tube method
Temperature, K	Mole fraction of cis-decahydronaphthalene	Mass density, kg/m3	uncertainty
293.15	0	717.94	.05
293.15	.1031	734.59	.05
293.15	.2033	751.1	.05
293.15	.2973	766.96	.05
293.15	.3997	784.54	.05
293.15	.4978	801.87	.05
293.15	.6044	821.02	.05
293.15	.6961	837.96	.05
293.15	.8014	857.86	.05
293.15	.8976	876.48	.05
293.15	1	896.85	.05
298.15	0	714.11	.05
298.15	.1031	730.75	.05
298.15	.2033	747.26	.05
298.15	.2973	763.14	.05
298.15	.3997	780.74	.05
298.15	.4978	798.1	.05
298.15	.6044	817.23	.05
298.15	.6961	834.18	.05
298.15	.8014	854.08	.05
298.15	.8976	872.72	.05
298.15	1	893.06	.05
303.15	0	710.2	.05
303.15	.1031	726.86	.05
303.15	.2033	743.4	.05
303.15	.2973	759.3	.05
303.15	.3997	776.91	.05
303.15	.4978	794.29	.05
303.15	.6044	813.43	.05
303.15	.6961	830.38	.05
303.15	.8014	850.29	.05
303.15	.8976	868.92	.05
303.15	1	889.26	.05
308.15	0	706.29	.05
308.15	.1031	722.96	.05
308.15	.2033	739.52	.05
308.15	.2973	755.44	.05
308.15	.3997	773.07	.05
308.15	.4978	790.46	.05
308.15	.6044	809.61	.05
308.15	.6961	826.58	.05
308.15	.8014	846.49	.05
308.15	.8976	865.13	.05
308.15	1	885.46	.05
313.15	0	702.35	.05
313.15	.1031	719.05	.05
313.15	.2033	735.63	.05
313.15	.2973	751.56	.05
313.15	.3997	769.21	.05
313.15	.4978	786.62	.05
313.15	.6044	805.79	.05
313.15	.6961	822.76	.05
313.15	.8014	842.68	.05
313.15	.8976	861.33	.05
313.15	1	881.65	.05
318.15	0	698.4	.05
318.15	.1031	715.12	.05
318.15	.2033	731.73	.05
318.15	.2973	747.68	.05
318.15	.3997	765.35	.05
318.15	.4978	782.77	.05
318.15	.6044	801.95	.05
318.15	.6961	818.94	.05
318.15	.8014	838.88	.05
318.15	.8976	857.52	.05
318.15	1	877.85	.05
323.15	0	694.43	.05
323.15	.1031	711.17	.05
323.15	.2033	727.8	.05
323.15	.2973	743.78	.05
323.15	.3997	761.47	.05
323.15	.4978	778.9	.05
323.15	.6044	798.11	.05
323.15	.6961	815.11	.05
323.15	.8014	835.06	.05
323.15	.8976	853.71	.05
323.15	1	874.05	.05

System: n-nonane + cis-decahydronaphthalene; phases: Liquid
Fixed: Pressure, kPa = 100
Property: Viscosity, Pa*s (Liquid); method: Capillary tube (Ostwald; Ubbelohde) method
Temperature, K	Mole fraction of cis-decahydronaphthalene	Viscosity, Pa*s	uncertainty
293.15	0	.000724	.000005
293.15	.1031	.000788	.000005
293.15	.2033	.000899	.000005
293.15	.2973	.00102	.000005
293.15	.3997	.001139	.000005
293.15	.4978	.001268	.000005
293.15	.6044	.001507	.000005
293.15	.6961	.001769	.000005
293.15	.8014	.002111	.000005
293.15	.8976	.002526	.000005
293.15	1	.003355	.000005
298.15	0	.000681	.000005
298.15	.1031	.000737	.000005
298.15	.2033	.000826	.000005
298.15	.2973	.000956	.000005
298.15	.3997	.001064	.000005
298.15	.4978	.001171	.000005
298.15	.6044	.001385	.000005
298.15	.6961	.001624	.000005
298.15	.8014	.001919	.000005
298.15	.8976	.002288	.000005
298.15	1	.003011	.000005
303.15	0	.00064	.000005
303.15	.1031	.000695	.000005
303.15	.2033	.000786	.000005
303.15	.2973	.000883	.000005
303.15	.3997	.000986	.000005
303.15	.4978	.001086	.000005
303.15	.6044	.001276	.000005
303.15	.6961	.00149	.000005
303.15	.8014	.001748	.000005
303.15	.8976	.002081	.000005
303.15	1	.002718	.000005
308.15	0	.000604	.000005
308.15	.1031	.000655	.000005
308.15	.2033	.000739	.000005
308.15	.2973	.000826	.000005
308.15	.3997	.000917	.000005
308.15	.4978	.00101	.000005
308.15	.6044	.001182	.000005
308.15	.6961	.001372	.000005
308.15	.8014	.001606	.000005
308.15	.8976	.001891	.000005
308.15	1	.00247	.000005
313.15	0	.000571	.000005
313.15	.1031	.000617	.000005
313.15	.2033	.000698	.000005
313.15	.2973	.00077	.000005
313.15	.3997	.000852	.000005
313.15	.4978	.000943	.000005
313.15	.6044	.001099	.000005
313.15	.6961	.00126	.000005
313.15	.8014	.001476	.000005
313.15	.8976	.001732	.000005
313.15	1	.002252	.000005
318.15	0	.000547	.000005
318.15	.1031	.000588	.000005
318.15	.2033	.000662	.000005
318.15	.2973	.000728	.000005
318.15	.3997	.000802	.000005
318.15	.4978	.00089	.000005
318.15	.6044	.001033	.000005
318.15	.6961	.001174	.000005
318.15	.8014	.001374	.000005
318.15	.8976	.001604	.000005
318.15	1	.002079	.000005
323.15	0	.000521	.000005
323.15	.1031	.000559	.000005
323.15	.2033	.000626	.000005
323.15	.2973	.000681	.000005
323.15	.3997	.000753	.000005
323.15	.4978	.000835	.000005
323.15	.6044	.000965	.000005
323.15	.6961	.001094	.000005
323.15	.8014	.001262	.000005
323.15	.8976	.001477	.000005
323.15	1	.001912	.000005

System: n-nonane + cis-decahydronaphthalene; phases: Liquid
Fixed: Pressure, kPa = 100
Property: Refractive index (Na D-line) (Liquid); method: Standard Abbe refractometry
Temperature, K	Mole fraction of cis-decahydronaphthalene	Refractive index (Na D-line)	uncertainty
298.15	0	1.4026	.0006
298.15	.1031	1.4095	.0006
298.15	.2033	1.4168	.0006
298.15	.2973	1.4232	.0006
298.15	.3997	1.4311	.0006
298.15	.4978	1.438	.0006
298.15	.6044	1.4459	.0006
298.15	.6961	1.4533	.0006
298.15	.8014	1.4613	.0006
298.15	.8976	1.4688	.0006
298.15	1	1.4776	.0006
308.15	0	1.3983	.0006
308.15	.1031	1.4047	.0006
308.15	.2033	1.4121	.0006
308.15	.2973	1.4189	.0006
308.15	.3997	1.4269	.0006
308.15	.4978	1.4336	.0006
308.15	.6044	1.4425	.0006
308.15	.6961	1.4492	.0006
308.15	.8014	1.4572	.0006
308.15	.8976	1.4654	.0006
308.15	1	1.4736	.0006
318.15	0	1.3937	.0006
318.15	.1031	1.4002	.0006
318.15	.2033	1.4077	.0006
318.15	.2973	1.4145	.0006
318.15	.3997	1.4223	.0006
318.15	.4978	1.4294	.0006
318.15	.6044	1.4379	.0006
318.15	.6961	1.4452	.0006
318.15	.8014	1.4533	.0006
318.15	.8976	1.4616	.0006
318.15	1	1.4696	.0006

System: n-decane + cis-decahydronaphthalene; phases: Liquid
Fixed: Pressure, kPa = 100
Property: Mass density, kg/m3 (Liquid); method: Vibrating tube method
Temperature, K	Mole fraction of cis-decahydronaphthalene	Mass density, kg/m3	uncertainty
293.15	0	731.14	.05
293.15	.1006	744.89	.05
293.15	.2055	759.79	.05
293.15	.3009	773.95	.05
293.15	.3965	788.64	.05
293.15	.508	806.55	.05
293.15	.6026	822.35	.05
293.15	.7012	839.6	.05
293.15	.7763	853.24	.05
293.15	.8985	876.48	.05
293.15	1	896.85	.05
298.15	0	727.43	.05
298.15	.1006	741.18	.05
298.15	.2055	756.08	.05
298.15	.3009	770.21	.05
298.15	.3965	784.9	.05
298.15	.508	802.83	.05
298.15	.6026	818.62	.05
298.15	.7012	835.86	.05
298.15	.7763	849.49	.05
298.15	.8985	872.71	.05
298.15	1	893.06	.05
303.15	0	723.64	.05
303.15	.1006	737.4	.05
303.15	.2055	752.31	.05
303.15	.3009	766.45	.05
303.15	.3965	781.15	.05
303.15	.508	799.07	.05
303.15	.6026	814.86	.05
303.15	.7012	832.1	.05
303.15	.7763	845.72	.05
303.15	.8985	868.93	.05
303.15	1	889.26	.05
308.15	0	719.84	.05
308.15	.1006	733.61	.05
308.15	.2055	748.53	.05
308.15	.3009	762.68	.05
308.15	.3965	777.38	.05
308.15	.508	795.31	.05
308.15	.6026	811.1	.05
308.15	.7012	828.33	.05
308.15	.7763	841.96	.05
308.15	.8985	865.15	.05
308.15	1	885.46	.05
313.15	0	716.03	.05
313.15	.1006	729.8	.05
313.15	.2055	744.74	.05
313.15	.3009	758.9	.05
313.15	.3965	773.6	.05
313.15	.508	791.54	.05
313.15	.6026	807.33	.05
313.15	.7012	824.56	.05
313.15	.7763	838.18	.05
313.15	.8985	861.37	.05
313.15	1	881.65	.05
318.15	0	712.2	.05
318.15	.1006	725.99	.05
318.15	.2055	740.94	.05
318.15	.3009	755.1	.05
318.15	.3965	769.81	.05
318.15	.508	787.76	.05
318.15	.6026	803.55	.05
318.15	.7012	820.78	.05
318.15	.7763	834.4	.05
318.15	.8985	857.58	.05
318.15	1	877.85	.05
323.15	0	708.36	.05
323.15	.1006	722.16	.05
323.15	.2055	737.12	.05
323.15	.3009	751.29	.05
323.15	.3965	766.01	.05
323.15	.508	783.96	.05
323.15	.6026	799.76	.05
323.15	.7012	816.99	.05
323.15	.7763	830.61	.05
323.15	.8985	853.78	.05
323.15	1	874.05	.05

System: n-decane + cis-decahydronaphthalene; phases: Liquid
Fixed: Pressure, kPa = 100
Property: Viscosity, Pa*s (Liquid); method: Capillary tube (Ostwald; Ubbelohde) method
Temperature, K	Mole fraction of cis-decahydronaphthalene	Viscosity, Pa*s	uncertainty
293.15	0	.000916	.000005
293.15	.1006	.001006	.000005
293.15	.2055	.00109	.000005
293.15	.3009	.001197	.000005
293.15	.3965	.001366	.000005
293.15	.508	.001481	.000005
293.15	.6026	.001669	.000005
293.15	.7012	.001954	.000005
293.15	.7763	.002163	.000005
293.15	.8985	.002647	.000005
293.15	1	.003355	.000005
298.15	0	.000852	.000005
298.15	.1006	.000933	.000005
298.15	.2055	.001015	.000005
298.15	.3009	.001107	.000005
298.15	.3965	.00126	.000005
298.15	.508	.001361	.000005
298.15	.6026	.00153	.000005
298.15	.7012	.001781	.000005
298.15	.7763	.001964	.000005
298.15	.8985	.00239	.000005
298.15	1	.003011	.000005
303.15	0	.000799	.000005
303.15	.1006	.000868	.000005
303.15	.2055	.000939	.000005
303.15	.3009	.001022	.000005
303.15	.3965	.001162	.000005
303.15	.508	.001255	.000005
303.15	.6026	.001406	.000005
303.15	.7012	.001633	.000005
303.15	.7763	.001792	.000005
303.15	.8985	.002168	.000005
303.15	1	.002718	.000005
308.15	0	.000751	.000005
308.15	.1006	.000812	.000005
308.15	.2055	.000876	.000005
308.15	.3009	.00095	.000005
308.15	.3965	.001076	.000005
308.15	.508	.001162	.000005
308.15	.6026	.001298	.000005
308.15	.7012	.001503	.000005
308.15	.7763	.001644	.000005
308.15	.8985	.001979	.000005
308.15	1	.00247	.000005
313.15	0	.000709	.000005
313.15	.1006	.00076	.000005
313.15	.2055	.00082	.000005
313.15	.3009	.000887	.000005
313.15	.3965	.000996	.000005
313.15	.508	.001079	.000005
313.15	.6026	.001204	.000005
313.15	.7012	.001389	.000005
313.15	.7763	.001517	.000005
313.15	.8985	.001811	.000005
313.15	1	.002252	.000005
318.15	0	.000667	.000005
318.15	.1006	.000715	.000005
318.15	.2055	.000771	.000005
318.15	.3009	.000832	.000005
318.15	.3965	.000924	.000005
318.15	.508	.001007	.000005
318.15	.6026	.00112	.000005
318.15	.7012	.001286	.000005
318.15	.7763	.001401	.000005
318.15	.8985	.001666	.000005
318.15	1	.002063	.000005
323.15	0	.000632	.000005
323.15	.1006	.000674	.000005
323.15	.2055	.000725	.000005
323.15	.3009	.000781	.000005
323.15	.3965	.000859	.000005
323.15	.508	.000941	.000005
323.15	.6026	.001045	.000005
323.15	.7012	.001193	.000005
323.15	.7763	.001299	.000005
323.15	.8985	.001539	.000005
323.15	1	.001898	.000005

System: n-decane + cis-decahydronaphthalene; phases: Liquid
Fixed: Pressure, kPa = 100
Property: Refractive index (Na D-line) (Liquid); method: Standard Abbe refractometry
Temperature, K	Mole fraction of cis-decahydronaphthalene	Refractive index (Na D-line)	uncertainty
298.15	0	1.4098	.0006
298.15	.1006	1.415	.0006
298.15	.2055	1.421	.0006
298.15	.3009	1.427	.0006
298.15	.3965	1.4326	.0006
298.15	.508	1.4403	.0006
298.15	.6026	1.4464	.0006
298.15	.7012	1.4539	.0006
298.15	.7763	1.4594	.0006
298.15	.8985	1.4688	.0006
298.15	1	1.4776	.0006
308.15	0	1.4052	.0006
308.15	.1006	1.4109	.0006
308.15	.2055	1.4167	.0006
308.15	.3009	1.4227	.0006
308.15	.3965	1.4284	.0006
308.15	.508	1.4358	.0006
308.15	.6026	1.4422	.0006
308.15	.7012	1.4496	.0006
308.15	.7763	1.455	.0006
308.15	.8985	1.4647	.0006
308.15	1	1.4736	.0006
318.15	0	1.4	.0006
318.15	.1006	1.4065	.0006
318.15	.2055	1.4127	.0006
318.15	.3009	1.4188	.0006
318.15	.3965	1.4251	.0006
318.15	.508	1.4319	.0006
318.15	.6026	1.4384	.0006
318.15	.7012	1.4456	.0006
318.15	.7763	1.4515	.0006
318.15	.8985	1.4611	.0006
318.15	1	1.4696	.0006

System: cis-decahydronaphthalene + undecane; phases: Liquid
Fixed: Pressure, kPa = 100
Property: Mass density, kg/m3 (Liquid); method: Vibrating tube method
Temperature, K	Mole fraction of cis-decahydronaphthalene	Mass density, kg/m3	uncertainty
293.15	0	740.28	.05
293.15	.1086	753.22	.05
293.15	.2072	765.62	.05
293.15	.3066	778.83	.05
293.15	.4031	792.39	.05
293.15	.5028	807.23	.05
293.15	.5976	822.17	.05
293.15	.6835	836.42	.05
293.15	.7983	856.82	.05
293.15	.8954	875.37	.05
293.15	1	896.85	.05
298.15	0	736.63	.05
298.15	.1086	749.55	.05
298.15	.2072	761.95	.05
298.15	.3066	775.16	.05
298.15	.4031	788.74	.05
298.15	.5028	803.55	.05
298.15	.5976	818.48	.05
298.15	.6835	832.71	.05
298.15	.7983	853.1	.05
298.15	.8954	871.62	.05
298.15	1	893.06	.05
303.15	0	732.93	.05
303.15	.1086	745.85	.05
303.15	.2072	758.26	.05
303.15	.3066	771.47	.05
303.15	.4031	785.05	.05
303.15	.5028	799.85	.05
303.15	.5976	814.77	.05
303.15	.6835	828.99	.05
303.15	.7983	849.36	.05
303.15	.8954	867.86	.05
303.15	1	889.26	.05
308.15	0	729.22	.05
308.15	.1086	742.15	.05
308.15	.2072	754.56	.05
308.15	.3066	767.77	.05
308.15	.4031	781.35	.05
308.15	.5028	796.14	.05
308.15	.5976	811.05	.05
308.15	.6835	825.27	.05
308.15	.7983	845.62	.05
308.15	.8954	864.1	.05
308.15	1	885.46	.05
313.15	0	725.51	.05
313.15	.1086	738.44	.05
313.15	.2072	750.84	.05
313.15	.3066	764.05	.05
313.15	.4031	777.64	.05
313.15	.5028	792.42	.05
313.15	.5976	807.33	.05
313.15	.6835	821.53	.05
313.15	.7983	841.87	.05
313.15	.8954	860.33	.05
313.15	1	881.65	.05
318.15	0	721.78	.05
318.15	.1086	734.71	.05
318.15	.2072	747.12	.05
318.15	.3066	760.33	.05
318.15	.4031	773.91	.05
318.15	.5028	788.7	.05
318.15	.5976	803.6	.05
318.15	.6835	817.79	.05
318.15	.7983	838.11	.05
318.15	.8954	856.55	.05
318.15	1	877.85	.05
323.15	0	718.04	.05
323.15	.1086	730.98	.05
323.15	.2072	743.39	.05
323.15	.3066	756.6	.05
323.15	.4031	770.18	.05
323.15	.5028	784.96	.05
323.15	.5976	799.86	.05
323.15	.6835	814.05	.05
323.15	.7983	834.35	.05
323.15	.8954	852.77	.05
323.15	1	874.05	.05

System: cis-decahydronaphthalene + undecane; phases: Liquid
Fixed: Pressure, kPa = 100
Property: Viscosity, Pa*s (Liquid); method: Capillary tube (Ostwald; Ubbelohde) method
Temperature, K	Mole fraction of cis-decahydronaphthalene	Viscosity, Pa*s	uncertainty
293.15	0	.00117	.000005
298.15	0	.001086	.000005
303.15	0	.001004	.000005
308.15	0	.000931	.000005
313.15	0	.000862	.000005
318.15	0	.000801	.000005
323.15	0	.000749	.000005
293.15	.1086	.00124	.000005
298.15	.1086	.001148	.000005
303.15	.1086	.001062	.000005
308.15	.1086	.000977	.000005
313.15	.1086	.000903	.000005
318.15	.1086	.000843	.000005
323.15	.1086	.000786	.000005
293.15	.2072	.00131	.000005
303.15	.2072	.001112	.000005
308.15	.2072	.001034	.000005
313.15	.2072	.000962	.000005
318.15	.2072	.000899	.000005
298.15	.2072	.001208	.000005
323.15	.2072	.000841	.000005
298.15	.3066	.0013	.000005
303.15	.3066	.001201	.000005
293.15	.3066	.001415	.000005
308.15	.3066	.001111	.000005
313.15	.3066	.001034	.000005
318.15	.3066	.000964	.000005
323.15	.3066	.0009	.000005
298.15	.4031	.001415	.000005
308.15	.4031	.001215	.000005
293.15	.4031	.001542	.000005
313.15	.4031	.001115	.000005
303.15	.4031	.001326	.000005
318.15	.4031	.001038	.000005
323.15	.4031	.00097	.000005
298.15	.5028	.001554	.000005
308.15	.5028	.001307	.000005
313.15	.5028	.001204	.000005
293.15	.5028	.00169	.000005
318.15	.5028	.001119	.000005
303.15	.5028	.001424	.000005
323.15	.5028	.001043	.000005
298.15	.5976	.00167	.000005
313.15	.5976	.001303	.000005
303.15	.5976	.00153	.000005
308.15	.5976	.00141	.000005
318.15	.5976	.001209	.000005
293.15	.5976	.001829	.000005
323.15	.5976	.001124	.000005
303.15	.6835	.001682	.000005
313.15	.6835	.001426	.000005
298.15	.6835	.00184	.000005
293.15	.6835	.002021	.000005
318.15	.6835	.001319	.000005
308.15	.6835	.001546	.000005
323.15	.6835	.001225	.000005
293.15	.7983	.002368	.000005
313.15	.7983	.001673	.000005
318.15	.7983	.001505	.000005
298.15	.7983	.002139	.000005
308.15	.7983	.001818	.000005
303.15	.7983	.001949	.000005
323.15	.7983	.001392	.000005
318.15	.8954	.00171	.000005
293.15	.8954	.002726	.000005
298.15	.8954	.002458	.000005
303.15	.8954	.002233	.000005
308.15	.8954	.002035	.000005
313.15	.8954	.001859	.000005
323.15	.8954	.001577	.000005
293.15	1	.003355	.000005
308.15	1	.00247	.000005
298.15	1	.003011	.000005
303.15	1	.002718	.000005
318.15	1	.002063	.000005
313.15	1	.002252	.000005
323.15	1	.001898	.000005

System: cis-decahydronaphthalene + undecane; phases: Liquid
Fixed: Pressure, kPa = 100
Property: Refractive index (Na D-line) (Liquid); method: Standard Abbe refractometry
Temperature, K	Mole fraction of cis-decahydronaphthalene	Refractive index (Na D-line)	uncertainty
298.15	0	1.4138	.0006
298.15	.1086	1.4192	.0006
298.15	.2072	1.4242	.0006
298.15	.3066	1.4294	.0006
298.15	.4075	1.4352	.0006
298.15	.5059	1.4411	.0006
298.15	.592	1.4469	.0006
298.15	.6835	1.4532	.0006
298.15	.7983	1.4609	.0006
298.15	.8954	1.4686	.0006
298.15	1	1.4776	.0006
308.15	0	1.4095	.0006
308.15	.1086	1.4151	.0006
308.15	.2072	1.4198	.0006
308.15	.3066	1.4251	.0006
308.15	.4075	1.431	.0006
308.15	.5059	1.4366	.0006
308.15	.592	1.4426	.0006
308.15	.6835	1.4487	.0006
308.15	.7983	1.4565	.0006
308.15	.8954	1.464	.0006
308.15	1	1.4736	.0006
318.15	0	1.4058	.0006
318.15	.1086	1.4114	.0006
318.15	.2072	1.416	.0006
318.15	.3066	1.4213	.0006
318.15	.4075	1.4275	.0006
318.15	.5059	1.4331	.0006
318.15	.592	1.4383	.0006
318.15	.6835	1.4448	.0006
318.15	.7983	1.4536	.0006
318.15	.8954	1.4612	.0006
318.15	1	1.4696	.0006

System: n-nonane + naphthalene, decahydro-, trans-; phases: Liquid
Fixed: Pressure, kPa = 100
Property: Mass density, kg/m3 (Liquid); method: Vibrating tube method
Temperature, K	Mole fraction of naphthalene, decahydro-, trans-	Mass density, kg/m3	uncertainty
293.15	0	717.94	.05
293.15	.1036	732.72	.05
293.15	.2018	746.84	.05
293.15	.3016	761.45	.05
293.15	.4042	776.68	.05
293.15	.4954	790.42	.05
293.15	.6009	806.55	.05
293.15	.6984	821.69	.05
293.15	.8001	837.66	.05
293.15	.8933	852.53	.05
293.15	1	869.78	.05
298.15	0	714.11	.05
298.15	.1036	728.87	.05
298.15	.2018	743	.05
298.15	.3016	757.63	.05
298.15	.4042	772.88	.05
298.15	.4954	786.63	.05
298.15	.6009	802.78	.05
298.15	.6984	817.94	.05
298.15	.8001	833.93	.05
298.15	.8933	848.8	.05
298.15	1	866.07	.05
303.15	0	710.2	.05
303.15	.1036	724.99	.05
303.15	.2018	739.14	.05
303.15	.3016	753.79	.05
303.15	.4042	769.06	.05
303.15	.4954	782.83	.05
303.15	.6009	798.99	.05
303.15	.6984	814.17	.05
303.15	.8001	830.18	.05
303.15	.8933	845.07	.05
303.15	1	862.34	.05
308.15	0	706.29	.05
308.15	.1036	721.09	.05
308.15	.2018	735.26	.05
308.15	.3016	749.94	.05
308.15	.4042	765.23	.05
308.15	.4954	779.01	.05
308.15	.6009	795.19	.05
308.15	.6984	810.39	.05
308.15	.8001	826.41	.05
308.15	.8933	841.33	.05
308.15	1	858.61	.05
313.15	0	702.35	.05
313.15	.1036	717.18	.05
313.15	.2018	731.37	.05
313.15	.3016	746.07	.05
313.15	.4042	761.38	.05
313.15	.4954	775.18	.05
313.15	.6009	791.38	.05
313.15	.6984	806.6	.05
313.15	.8001	822.64	.05
313.15	.8933	837.57	.05
313.15	1	854.88	.05
318.15	0	698.4	.05
318.15	.1036	713.25	.05
318.15	.2018	727.46	.05
318.15	.3016	742.18	.05
318.15	.4042	757.52	.05
318.15	.4954	771.34	.05
318.15	.6009	787.56	.05
318.15	.6984	802.8	.05
318.15	.8001	818.86	.05
318.15	.8933	833.81	.05
318.15	1	851.14	.05
323.15	0	694.43	.05
323.15	.1036	709.3	.05
323.15	.2018	723.54	.05
323.15	.3016	738.28	.05
323.15	.4042	753.64	.05
323.15	.4954	767.48	.05
323.15	.6009	783.73	.05
323.15	.6984	798.99	.05
323.15	.8001	815.08	.05
323.15	.8933	830.05	.05
323.15	1	847.4	.05

System: n-nonane + naphthalene, decahydro-, trans-; phases: Liquid
Fixed: Pressure, kPa = 100
Property: Viscosity, Pa*s (Liquid); method: Capillary tube (Ostwald; Ubbelohde) method
Temperature, K	Mole fraction of naphthalene, decahydro-, trans-	Viscosity, Pa*s	uncertainty
293.15	0	.000724	.000005
293.15	.1036	.000772	.000005
293.15	.2018	.000836	.000005
293.15	.3016	.000912	.000005
293.15	.4042	.001004	.000005
293.15	.4954	.001109	.000005
293.15	.6009	.001253	.000005
293.15	.6984	.001409	.000005
293.15	.8001	.001635	.000005
293.15	.8933	.001864	.000005
293.15	1	.002112	.000005
298.15	0	.000681	.000005
298.15	.1036	.000725	.000005
298.15	.2018	.000781	.000005
298.15	.3016	.000849	.000005
298.15	.4042	.000934	.000005
298.15	.4954	.001028	.000005
298.15	.6009	.001154	.000005
298.15	.6984	.001305	.000005
298.15	.8001	.001505	.000005
298.15	.8933	.001701	.000005
298.15	1	.001925	.000005
303.15	0	.00064	.000005
303.15	.1036	.000681	.000005
303.15	.2018	.000732	.000005
303.15	.3016	.000795	.000005
303.15	.4042	.000871	.000005
303.15	.4954	.000957	.000005
303.15	.6009	.001075	.000005
303.15	.6984	.001213	.000005
303.15	.8001	.001393	.000005
303.15	.8933	.001568	.000005
303.15	1	.001769	.000005
308.15	0	.000604	.000005
308.15	.1036	.000642	.000005
308.15	.2018	.000688	.000005
308.15	.3016	.000746	.000005
308.15	.4042	.000816	.000005
308.15	.4954	.000893	.000005
308.15	.6009	.000998	.000005
308.15	.6984	.001127	.000005
308.15	.8001	.00129	.000005
308.15	.8933	.001447	.000005
308.15	1	.001628	.000005
313.15	0	.000571	.000005
313.15	.1036	.000607	.000005
313.15	.2018	.00065	.000005
313.15	.3016	.000704	.000005
313.15	.4042	.000766	.000005
313.15	.4954	.000838	.000005
313.15	.6009	.000929	.000005
313.15	.6984	.001052	.000005
313.15	.8001	.001202	.000005
313.15	.8933	.001334	.000005
313.15	1	.001505	.000005
318.15	0	.000547	.000005
318.15	.1036	.000576	.000005
318.15	.2018	.000614	.000005
318.15	.3016	.000663	.000005
318.15	.4042	.000723	.000005
318.15	.4954	.000786	.000005
318.15	.6009	.000869	.000005
318.15	.6984	.000984	.000005
318.15	.8001	.001118	.000005
318.15	.8933	.001241	.000005
318.15	1	.001394	.000005
323.15	0	.000521	.000005
323.15	.1036	.000547	.000005
323.15	.2018	.000583	.000005
323.15	.3016	.000627	.000005
323.15	.4042	.000682	.000005
323.15	.4954	.000742	.000005
323.15	.6009	.000821	.000005
323.15	.6984	.000922	.000005
323.15	.8001	.001041	.000005
323.15	.8933	.001156	.000005
323.15	1	.001295	.000005

System: n-nonane + naphthalene, decahydro-, trans-; phases: Liquid
Fixed: Pressure, kPa = 100
Property: Refractive index (Na D-line) (Liquid); method: Standard Abbe refractometry
Temperature, K	Mole fraction of naphthalene, decahydro-, trans-	Refractive index (Na D-line)	uncertainty
298.15	0	1.4026	.0006
298.15	.1036	1.4084	.0006
298.15	.2018	1.4146	.0006
298.15	.3016	1.4205	.0006
298.15	.4042	1.4273	.0006
298.15	.4954	1.4326	.0006
298.15	.6009	1.4397	.0006
298.15	.6984	1.4459	.0006
298.15	.8001	1.4526	.0006
298.15	.8933	1.4591	.0006
298.15	1	1.4662	.0006
308.15	0	1.3983	.0006
308.15	.1036	1.4038	.0006
308.15	.2018	1.4105	.0006
308.15	.3016	1.4163	.0006
308.15	.4042	1.423	.0006
308.15	.4954	1.4286	.0006
308.15	.6009	1.435	.0006
308.15	.6984	1.4418	.0006
308.15	.8001	1.4486	.0006
308.15	.8933	1.455	.0006
308.15	1	1.4618	.0006
318.15	0	1.3937	.0006
318.15	.1036	1.3993	.0006
318.15	.2018	1.406	.0006
318.15	.3016	1.4122	.0006
318.15	.4042	1.4187	.0006
318.15	.4954	1.4249	.0006
318.15	.6009	1.4312	.0006
318.15	.6984	1.4379	.0006
318.15	.8001	1.4445	.0006
318.15	.8933	1.4509	.0006
318.15	1	1.4581	.0006

System: n-decane + naphthalene, decahydro-, trans-; phases: Liquid
Fixed: Pressure, kPa = 100
Property: Mass density, kg/m3 (Liquid); method: Vibrating tube method
Temperature, K	Mole fraction of naphthalene, decahydro-, trans-	Mass density, kg/m3	uncertainty
293.15	0	731.14	.05
293.15	.1035	743.5	.05
293.15	.2016	755.54	.05
293.15	.3001	768	.05
293.15	.3994	781.01	.05
293.15	.5036	795.1	.05
293.15	.6062	809.53	.05
293.15	.6989	822.98	.05
293.15	.7891	836.46	.05
293.15	.8949	852.8	.05
293.15	1	869.78	.05
298.15	0	727.43	.05
298.15	.1035	739.74	.05
298.15	.2016	751.79	.05
298.15	.3001	764.27	.05
298.15	.3994	777.28	.05
298.15	.5036	791.38	.05
298.15	.6062	805.81	.05
298.15	.6989	819.26	.05
298.15	.7891	832.75	.05
298.15	.8949	849.09	.05
298.15	1	866.07	.05
303.15	0	723.64	.05
303.15	.1035	735.97	.05
303.15	.2016	748.02	.05
303.15	.3001	760.51	.05
303.15	.3994	773.52	.05
303.15	.5036	787.63	.05
303.15	.6062	802.07	.05
303.15	.6989	815.53	.05
303.15	.7891	829.02	.05
303.15	.8949	845.37	.05
303.15	1	862.34	.05
308.15	0	719.84	.05
308.15	.1035	732.17	.05
308.15	.2016	744.24	.05
308.15	.3001	756.74	.05
308.15	.3994	769.76	.05
308.15	.5036	783.88	.05
308.15	.6062	798.32	.05
308.15	.6989	811.79	.05
308.15	.7891	825.29	.05
308.15	.8949	841.64	.05
308.15	1	858.61	.05
313.15	0	716.03	.05
313.15	.1035	728.37	.05
313.15	.2016	740.45	.05
313.15	.3001	752.95	.05
313.15	.3994	765.99	.05
313.15	.5036	780.11	.05
313.15	.6062	794.56	.05
313.15	.6989	808.04	.05
313.15	.7891	821.54	.05
313.15	.8949	837.9	.05
313.15	1	854.88	.05
318.15	0	712.2	.05
318.15	.1035	724.55	.05
318.15	.2016	736.64	.05
318.15	.3001	749.16	.05
318.15	.3994	762.2	.05
318.15	.5036	776.34	.05
318.15	.6062	790.8	.05
318.15	.6989	804.28	.05
318.15	.7891	817.79	.05
318.15	.8949	834.16	.05
318.15	1	851.14	.05
323.15	0	708.36	.05
323.15	.1035	720.72	.05
323.15	.2016	732.82	.05
323.15	.3001	745.35	.05
323.15	.3994	758.4	.05
323.15	.5036	772.55	.05
323.15	.6062	787.02	.05
323.15	.6989	800.51	.05
323.15	.7891	814.04	.05
323.15	.8949	830.41	.05
323.15	1	847.4	.05

System: n-decane + naphthalene, decahydro-, trans-; phases: Liquid
Fixed: Pressure, kPa = 100
Property: Viscosity, Pa*s (Liquid); method: Capillary tube (Ostwald; Ubbelohde) method
Temperature, K	Mole fraction of naphthalene, decahydro-, trans-	Viscosity, Pa*s	uncertainty
293.15	0	.000916	.000005
293.15	.1035	.00098	.000005
293.15	.2016	.001035	.000005
293.15	.3001	.001099	.000005
293.15	.3994	.001175	.000005
293.15	.5036	.001272	.000005
293.15	.6062	.001388	.000005
293.15	.6989	.001514	.000005
293.15	.7891	.001649	.000005
293.15	.8949	.001848	.000005
293.15	1	.002112	.000005
298.15	0	.000852	.000005
298.15	.1035	.00091	.000005
298.15	.2016	.000958	.000005
298.15	.3001	.001019	.000005
298.15	.3994	.001087	.000005
298.15	.5036	.001174	.000005
298.15	.6062	.00128	.000005
298.15	.6989	.001394	.000005
298.15	.7891	.001514	.000005
298.15	.8949	.001694	.000005
298.15	1	.001925	.000005
303.15	0	.000799	.000005
303.15	.1035	.000848	.000005
303.15	.2016	.00089	.000005
303.15	.3001	.000946	.000005
303.15	.3994	.00101	.000005
303.15	.5036	.00109	.000005
303.15	.6062	.001185	.000005
303.15	.6989	.001285	.000005
303.15	.7891	.001396	.000005
303.15	.8949	.001555	.000005
303.15	1	.001769	.000005
308.15	0	.000751	.000005
308.15	.1035	.000794	.000005
308.15	.2016	.000834	.000005
308.15	.3001	.000884	.000005
308.15	.3994	.000941	.000005
308.15	.5036	.001013	.000005
308.15	.6062	.001101	.000005
308.15	.6989	.001197	.000005
308.15	.7891	.001293	.000005
308.15	.8949	.001436	.000005
308.15	1	.001628	.000005
313.15	0	.000709	.000005
313.15	.1035	.000744	.000005
313.15	.2016	.000778	.000005
313.15	.3001	.000828	.000005
313.15	.3994	.000881	.000005
313.15	.5036	.000947	.000005
313.15	.6062	.001024	.000005
313.15	.6989	.001113	.000005
313.15	.7891	.001201	.000005
313.15	.8949	.00133	.000005
313.15	1	.001505	.000005
318.15	0	.000667	.000005
318.15	.1035	.000702	.000005
318.15	.2016	.000734	.000005
318.15	.3001	.000777	.000005
318.15	.3994	.000826	.000005
318.15	.5036	.000887	.000005
318.15	.6062	.000959	.000005
318.15	.6989	.001032	.000005
318.15	.7891	.001119	.000005
318.15	.8949	.001237	.000005
318.15	1	.001394	.000005
323.15	0	.000632	.000005
323.15	.1035	.000662	.000005
323.15	.2016	.000696	.000005
323.15	.3001	.000732	.000005
323.15	.3994	.000777	.000005
323.15	.5036	.000834	.000005
323.15	.6062	.000896	.000005
323.15	.6989	.000966	.000005
323.15	.7891	.001046	.000005
323.15	.8949	.001154	.000005
323.15	1	.001295	.000005

System: n-decane + naphthalene, decahydro-, trans-; phases: Liquid
Fixed: Pressure, kPa = 101
Property: Refractive index (Na D-line) (Liquid); method: Standard Abbe refractometry
Temperature, K	Mole fraction of naphthalene, decahydro-, trans-	Refractive index (Na D-line)	uncertainty
298.15	0	1.4098	.0006
298.15	.1035	1.4144	.0006
298.15	.2016	1.4192	.0006
298.15	.3001	1.4243	.0006
298.15	.3994	1.4301	.0006
298.15	.5036	1.4355	.0006
298.15	.6062	1.4414	.0006
298.15	.6989	1.4471	.0006
298.15	.7891	1.4524	.0006
298.15	.8949	1.4592	.0006
298.15	1	1.4662	.0006
308.15	0	1.4052	.0006
308.15	.1035	1.4099	.0006
308.15	.2016	1.4153	.0006
308.15	.3001	1.4204	.0006
308.15	.3994	1.4256	.0006
308.15	.5036	1.4317	.0006
308.15	.6062	1.4371	.0006
308.15	.6989	1.4431	.0006
308.15	.7891	1.4484	.0006
308.15	.8949	1.4553	.0006
308.15	1	1.4618	.0006
318.15	0	1.4	.0006
318.15	.1035	1.4055	.0006
318.15	.2016	1.4112	.0006
318.15	.3001	1.4162	.0006
318.15	.3994	1.4211	.0006
318.15	.5036	1.4271	.0006
318.15	.6062	1.4336	.0006
318.15	.6989	1.4389	.0006
318.15	.7891	1.4448	.0006
318.15	.8949	1.4518	.0006
318.15	1	1.4581	.0006

System: naphthalene, decahydro-, trans- + undecane; phases: Liquid
Fixed: Pressure, kPa = 100
Property: Mass density, kg/m3 (Liquid); method: Vibrating tube method
Temperature, K	Mole fraction of naphthalene, decahydro-, trans-	Mass density, kg/m3	uncertainty
293.15	0	740.28	.05
293.15	.1041	751.02	.05
293.15	.2052	761.89	.05
293.15	.3027	772.86	.05
293.15	.3999	784.34	.05
293.15	.4997	796.76	.05
293.15	.5991	809.74	.05
293.15	.6991	823.47	.05
293.15	.8019	838.4	.05
293.15	.8992	853.35	.05
293.15	1	869.78	.05
298.15	0	736.63	.05
298.15	.1041	747.37	.05
298.15	.2052	758.22	.05
298.15	.3027	769.19	.05
298.15	.3999	780.66	.05
298.15	.4997	793.09	.05
298.15	.5991	806.06	.05
298.15	.6991	819.79	.05
298.15	.8019	834.72	.05
298.15	.8992	849.65	.05
298.15	1	866.07	.05
303.15	0	732.93	.05
303.15	.1041	743.67	.05
303.15	.2052	754.53	.05
303.15	.3027	765.5	.05
303.15	.3999	776.97	.05
303.15	.4997	789.4	.05
303.15	.5991	802.37	.05
303.15	.6991	816.09	.05
303.15	.8019	831.02	.05
303.15	.8992	845.94	.05
303.15	1	862.34	.05
308.15	0	729.22	.05
308.15	.1041	739.97	.05
308.15	.2052	750.83	.05
308.15	.3027	761.8	.05
308.15	.3999	773.28	.05
308.15	.4997	785.7	.05
308.15	.5991	798.67	.05
308.15	.6991	812.39	.05
308.15	.8019	827.31	.05
308.15	.8992	842.22	.05
308.15	1	858.61	.05
313.15	0	725.51	.05
313.15	.1041	736.25	.05
313.15	.2052	747.11	.05
313.15	.3027	758.09	.05
313.15	.3999	769.57	.05
313.15	.4997	781.99	.05
313.15	.5991	794.96	.05
313.15	.6991	808.67	.05
313.15	.8019	823.59	.05
313.15	.8992	838.5	.05
313.15	1	854.88	.05
318.15	0	721.78	.05
318.15	.1041	732.53	.05
318.15	.2052	743.39	.05
318.15	.3027	754.37	.05
318.15	.3999	765.85	.05
318.15	.4997	778.27	.05
318.15	.5991	791.24	.05
318.15	.6991	804.95	.05
318.15	.8019	819.87	.05
318.15	.8992	834.77	.05
318.15	1	851.14	.05
323.15	0	718.04	.05
323.15	.1041	728.79	.05
323.15	.2052	739.66	.05
323.15	.3027	750.64	.05
323.15	.3999	762.12	.05
323.15	.4997	774.54	.05
323.15	.5991	787.51	.05
323.15	.6991	801.22	.05
323.15	.8019	816.14	.05
323.15	.8992	831.03	.05
323.15	1	847.4	.05

System: naphthalene, decahydro-, trans- + undecane; phases: Liquid
Fixed: Pressure, kPa = 100
Property: Viscosity, Pa*s (Liquid); method: Capillary tube (Ostwald; Ubbelohde) method
Temperature, K	Mole fraction of naphthalene, decahydro-, trans-	Viscosity, Pa*s	uncertainty
293.15	0	.00117	.000005
293.15	.1041	.001214	.000005
293.15	.2052	.001258	.000005
293.15	.3027	.001315	.000005
293.15	.3999	.001369	.000005
293.15	.4997	.001444	.000005
293.15	.5991	.001529	.000005
293.15	.6991	.001625	.000005
293.15	.8019	.001752	.000005
293.15	.8992	.001899	.000005
293.15	1	.002112	.000005
298.15	0	.001086	.000005
298.15	.1041	.00112	.000005
298.15	.2052	.001159	.000005
298.15	.3027	.001212	.000005
298.15	.3999	.00126	.000005
298.15	.4997	.001326	.000005
298.15	.5991	.001406	.000005
298.15	.6991	.001492	.000005
298.15	.8019	.001606	.000005
298.15	.8992	.001741	.000005
298.15	1	.001925	.000005
303.15	0	.001004	.000005
303.15	.1041	.001037	.000005
303.15	.2052	.001073	.000005
303.15	.3027	.001121	.000005
303.15	.3999	.001165	.000005
303.15	.4997	.001222	.000005
303.15	.5991	.001296	.000005
303.15	.6991	.001376	.000005
303.15	.8019	.001478	.000005
303.15	.8992	.001597	.000005
303.15	1	.001769	.000005
308.15	0	.000931	.000005
308.15	.1041	.000965	.000005
308.15	.2052	.000996	.000005
308.15	.3027	.001041	.000005
308.15	.3999	.001081	.000005
308.15	.4997	.001136	.000005
308.15	.5991	.001201	.000005
308.15	.6991	.001274	.000005
308.15	.8019	.001366	.000005
308.15	.8992	.001473	.000005
308.15	1	.001628	.000005
313.15	0	.000862	.000005
313.15	.1041	.0009	.000005
313.15	.2052	.000929	.000005
313.15	.3027	.000972	.000005
313.15	.3999	.001006	.000005
313.15	.4997	.001058	.000005
313.15	.5991	.001117	.000005
313.15	.6991	.001182	.000005
313.15	.8019	.001267	.000005
313.15	.8992	.001364	.000005
313.15	1	.001505	.000005
318.15	0	.000801	.000005
318.15	.1041	.000842	.000005
318.15	.2052	.000869	.000005
318.15	.3027	.000908	.000005
318.15	.3999	.00094	.000005
318.15	.4997	.000988	.000005
318.15	.5991	.001042	.000005
318.15	.6991	.001101	.000005
318.15	.8019	.00118	.000005
318.15	.8992	.001267	.000005
318.15	1	.001394	.000005
323.15	0	.000749	.000005
323.15	.1041	.000789	.000005
323.15	.2052	.000815	.000005
323.15	.3027	.000852	.000005
323.15	.3999	.000881	.000005
323.15	.4997	.000924	.000005
323.15	.5991	.000975	.000005
323.15	.6991	.001028	.000005
323.15	.8019	.0011	.000005
323.15	.8992	.00118	.000005
323.15	1	.001295	.000005

System: naphthalene, decahydro-, trans- + undecane; phases: Liquid
Fixed: Pressure, kPa = 100
Property: Refractive index (Na D-line) (Liquid); method: Standard Abbe refractometry
Temperature, K	Mole fraction of naphthalene, decahydro-, trans-	Refractive index (Na D-line)	uncertainty
298.15	0	1.4138	.0006
298.15	.1041	1.4188	.0006
298.15	.2052	1.423	.0006
298.15	.3027	1.4272	.0006
298.15	.3999	1.4319	.0006
298.15	.4997	1.4367	.0006
298.15	.5991	1.4421	.0006
298.15	.6991	1.4476	.0006
298.15	.8019	1.4535	.0006
298.15	.8992	1.4594	.0006
298.15	1	1.4662	.0006
308.15	0	1.4095	.0006
308.15	.1041	1.4143	.0006
308.15	.2052	1.419	.0006
308.15	.3027	1.4232	.0006
308.15	.3999	1.428	.0006
308.15	.4997	1.4331	.0006
308.15	.5991	1.4378	.0006
308.15	.6991	1.4434	.0006
308.15	.8019	1.4496	.0006
308.15	.8992	1.4559	.0006
308.15	1	1.4618	.0006
318.15	0	1.4058	.0006
318.15	.1041	1.4099	.0006
318.15	.2052	1.4146	.0006
318.15	.3027	1.4191	.0006
318.15	.3999	1.4236	.0006
318.15	.4997	1.4281	.0006
318.15	.5991	1.4332	.0006
318.15	.6991	1.439	.0006
318.15	.8019	1.4452	.0006
318.15	.8992	1.4515	.0006
318.15	1	1.4581	.0006
