Measured thermophysical data. Isopiestic Measurements on Aqueous Solutions of Heavy Metal Sulfates: MSO4 + H2O (M = Mn, Co, Ni, Cu, Zn). 1. T = 323.15 K
Source: J. Chem. Eng. Data, 2014, 10.1021/je4008475
Compound 1: water, H2O
Compound 2: manganese sulfate(1:1), MnO4S
Compound 3: cobalt(II) sulfate, CoO4S
Compound 4: nickel monosulfate, NiO4S
Compound 5: copper monosulfate, CuO4S
Compound 6: sulfuric acid, zinc salt, O4SZn

System: water + manganese sulfate(1:1); phases: Liquid, Gas
Fixed: Temperature, K = 323.15
Property: Osmotic coefficient (Liquid); method: Isopiestic method
Molality, mol/kg of manganese sulfate(1:1)	Osmotic coefficient	uncertainty
.1301	.534	.000534
.1818	.5199	.0005199
.3461	.4826	.0004826
.4387	.4699	.0004699
.4863	.4642	.0004642
.5601	.453	.000453
.6511	.4543	.0004543
.7796	.4514	.0004514
1.0601	.4542	.0004542
1.3744	.4657	.0004657
1.6141	.4848	.0004848
1.6915	.4913	.0004913
1.7031	.493	.000493
1.7701	.5002	.0005002
2.0308	.5252	.0005252
2.084	.534	.000534
2.4465	.5819	.0005819
2.778	.6363	.0006363
3.1391	.6998	.0006998
3.4669	.7656	.0007656
3.7333	.8197	.0008197

System: water + cobalt(II) sulfate; phases: Liquid, Gas
Fixed: Temperature, K = 323.15
Property: Osmotic coefficient (Liquid); method: Isopiestic method
Molality, mol/kg of cobalt(II) sulfate	Osmotic coefficient	uncertainty
.1262	.5505	.0005505
.1794	.5269	.0005269
.3467	.4818	.0004818
.4416	.4668	.0004668
.4864	.4641	.0004641
.5617	.4517	.0004517
.6529	.453	.000453
.78	.4512	.0004512
1.0571	.4555	.0004555
1.3626	.4698	.0004698
1.5906	.4919	.0004919
1.6641	.4994	.0004994
1.6742	.5015	.0005015
1.7377	.5096	.0005096
1.9746	.5401	.0005401
2.0309	.5479	.0005479
2.3573	.6039	.0006039
2.6542	.6659	.0006659
2.9618	.7417	.0007417
3.2482	.8171	.0008171

System: water + nickel monosulfate; phases: Liquid, Gas
Fixed: Temperature, K = 323.15
Property: Osmotic coefficient (Liquid); method: Isopiestic method
Molality, mol/kg of nickel monosulfate	Osmotic coefficient	uncertainty
.126	.5514	.0005514
.35	.4772	.0004772
.5673	.4472	.0004472
.6588	.4489	.0004489
.7876	.4468	.0004468
1.0677	.451	.000451
1.3722	.4665	.0004665
1.599	.4894	.0004894
1.6716	.4972	.0004972
1.6824	.4991	.0004991
1.7434	.5079	.0005079
1.9796	.5388	.0005388
2.0337	.5472	.0005472
2.3554	.6044	.0006044
2.6468	.6678	.0006678
2.9517	.7442	.0007442
3.2251	.823	.000823

System: water + copper monosulfate; phases: Liquid, Gas
Fixed: Temperature, K = 323.15
Property: Osmotic coefficient (Liquid); method: Isopiestic method
Molality, mol/kg of copper monosulfate	Osmotic coefficient	uncertainty
.1289	.539	.000539
.184	.5137	.0005137
.3532	.4729	.0004729
.4478	.4604	.0004604
.4941	.4568	.0004568
.5709	.4444	.0004444
.662	.4468	.0004468
.7909	.445	.000445
1.0695	.4502	.0004502
1.3748	.4656	.0004656
1.6066	.4871	.0004871
1.6812	.4943	.0004943
1.6902	.4968	.0004968
1.7558	.5043	.0005043
2.056	.5412	.0005412

System: water + sulfuric acid, zinc salt; phases: Liquid, Gas
Fixed: Temperature, K = 323.15
Property: Osmotic coefficient (Liquid); method: Isopiestic method
Molality, mol/kg of sulfuric acid, zinc salt	Osmotic coefficient	uncertainty
.1301	.534	.000534
.1852	.5104	.0005104
.3452	.4839	.0004839
.4386	.47	.00047
.4827	.4676	.0004676
.5438	.4666	.0004666
.6476	.4567	.0004567
.7734	.455	.000455
1.0473	.4598	.0004598
1.3484	.4747	.0004747
1.576	.4965	.0004965
1.6482	.5042	.0005042
1.6583	.5063	.0005063
1.7226	.514	.000514
1.9605	.544	.000544
2.0164	.5519	.0005519
2.344	.6073	.0006073
2.596	.6809	.0006809
2.9671	.7404	.0007404
3.2526	.816	.000816
3.4784	.8798	.0008798
4.107	1.0776	.0010776
4.1114	1.0796	.0010796
4.7062	1.2829	.0012829
