Measured thermophysical data. Liquid Liquid Solid Triple-Phase Data for Aqueous Two-Phase Systems comprising Ethanol 1-Propanol 2-Propanol Acetone and Salts
Source: J. Chem. Eng. Data, 2013, 10.1021/je400364b
Compound 1: ethanol, C2H6O
Compound 2: ammonium sulfate, H8N2O4S
Compound 3: water, H2O, purity 99.8%

System: ethanol + water + ammonium sulfate; phases: Liquid mixture 1, Liquid mixture 2
Fixed: Pressure, kPa = 100
Fixed: Temperature, K = 298.15
Property: Mass fraction of ammonium sulfate (Liquid mixture 1); method: Titration method
Mass fraction of ethanol	Mass fraction of ammonium sulfate	uncertainty
.055	.378	.0002
.0569	.3719	.0002
.0607	.3621	.0002
.0638	.3556	.0002
.0743	.3369	.0002
.0851	.318	.0002
.0907	.3094	.0002
.103	.2922	.0002
.1142	.2786	.0002
.1255	.2667	.0002
.131	.2614	.0002
.1434	.2486	.0002
.1557	.2367	.0002
.1615	.2316	.0002
.174	.2211	.0002
.1856	.2108	.0002
.1932	.2052	.0002
.2054	.1958	.0002
.2106	.1918	.0002
.2209	.1838	.0002
.2313	.1763	.0002
.2409	.1691	.0002
.2506	.1624	.0002
.2629	.1534	.0002
.2709	.1477	.0002
.2827	.1397	.0002
.2923	.1332	.0002
.3063	.1238	.0002
.315	.1183	.0002
.326	.1113	.0002
.3359	.1055	.0002
.3458	.0996	.0002
.3551	.0946	.0002
.3644	.0892	.0002
.3746	.0842	.0002
.3839	.0799	.0002
.398	.0732	.0002
.4096	.068	.0002
.4226	.0628	.0002
.4345	.0581	.0002
.4464	.0535	.0002
.462	.0483	.0002
.4757	.0443	.0002
.4863	.0408	.0002
.5084	.0351	.0002
.5184	.0327	.0002
.5285	.0302	.0002
.5359	.0284	.0002
.5601	.0235	.0002
.5805	.0198	.0002
.5934	.0173	.0002
