Measured thermophysical data. Vapor Pressure Osmometry Determination of the Osmotic and Activity Coefficients of Dilute Aqueous Solutions of Symmetrical Tetraalkyl Ammonium Halides at 308.15 K
Source: J. Chem. Eng. Data, 2014, 10.1021/je400821q
Compound 1: tetramethylammonium bromide, C4H12BrN
Compound 2: tetraethylammonium bromide, C8H20BrN
Compound 3: tetrapropylammonium bromide, C12H28BrN
Compound 4: tetrabutylammonium bromide, C16H36BrN
Compound 5: tetramethylammonium chloride, C4H12ClN
Compound 6: tetramethylammonium iodide, C4H12IN
Compound 7: sodium chloride, ClNa
Compound 8: water, H2O, purity 99.9%

System: tetramethylammonium bromide + water; phases: Liquid, Gas
Fixed: Temperature, K = 308.15
Property: Osmotic coefficient (Liquid); method: Osmomat K-7000
Molality, mol/kg of tetramethylammonium bromide	Osmotic coefficient	uncertainty
.01285	.9931	.0005
.02557	.9742	.0005
.03787	.9583	.0005
.0549	.948	.0005
.06504	.94	.0005
.07726	.9311	.0005
.0956	.9195	.0005
.13257	.8936	.0005
.16775	.8796	.0005
.20297	.8696	.0005
.23829	.8623	.0005
.30826	.8489	.0005

System: tetraethylammonium bromide + water; phases: Liquid, Gas
Fixed: Temperature, K = 308.15
Property: Osmotic coefficient (Liquid); method: Osmomat K-7000
Molality, mol/kg of tetraethylammonium bromide	Osmotic coefficient	uncertainty
.00966	.9933	.0005
.01943	.9737	.0005
.03868	.9492	.0005
.0491	.9327	.0005
.05837	.9256	.0005
.07077	.916	.0005
.09678	.8994	.0005
.11969	.8851	.0005
.1561	.869	.0005
.2146	.85	.0005
.27993	.8376	.0005
.33984	.8275	.0005

System: tetrapropylammonium bromide + water; phases: Liquid, Gas
Fixed: Temperature, K = 308.15
Property: Osmotic coefficient (Liquid); method: Osmomat K-7000
Molality, mol/kg of tetrapropylammonium bromide	Osmotic coefficient	uncertainty
.00795	.989	.0005
.01468	.9667	.0005
.03035	.9379	.0005
.03901	.9265	.0005
.04468	.9201	.0005
.0568	.9063	.0005
.07479	.8896	.0005
.09397	.8732	.0005
.13712	.8524	.0005
.17223	.8415	.0005
.21495	.8321	.0005
.25307	.8261	.0005
.29694	.8201	.0005

System: tetrabutylammonium bromide + water; phases: Liquid, Gas
Fixed: Temperature, K = 308.15
Property: Osmotic coefficient (Liquid); method: Osmomat K-7000
Molality, mol/kg of tetrabutylammonium bromide	Osmotic coefficient	uncertainty
.00627	.9763	.0005
.0125	.9517	.0005
.02562	.9279	.0005
.03159	.9191	.0005
.03774	.9126	.0005
.04597	.9006	.0005
.06502	.8805	.0005
.07496	.8725	.0005
.11296	.8403	.0005
.14589	.8228	.0005
.17754	.8131	.0005
.21263	.8046	.0005
.25577	.7941	.0005
.33047	.7854	.0005

System: tetramethylammonium chloride + water; phases: Liquid, Gas
Fixed: Temperature, K = 308.15
Property: Osmotic coefficient (Liquid); method: Osmomat K-7000
Molality, mol/kg of tetramethylammonium chloride	Osmotic coefficient	uncertainty
.01861	.9937	.0005
.03679	.9747	.0005
.05507	.958	.0005
.07403	.9487	.0005
.09359	.9393	.0005
.11118	.9297	.0005
.13967	.9173	.0005
.18769	.8997	.0005
.23516	.8878	.0005
.28397	.8757	.0005
.333	.8675	.0005

System: tetramethylammonium iodide + water; phases: Liquid, Gas
Fixed: Temperature, K = 308.15
Property: Osmotic coefficient (Liquid); method: Osmomat K-7000
Molality, mol/kg of tetramethylammonium iodide	Osmotic coefficient	uncertainty
.01012	.9766	.0005
.02006	.9573	.0005
.0301	.9365	.0005
.04063	.9245	.0005
.04966	.9108	.0005
.05912	.8995	.0005
.07116	.883	.0005
.10259	.8569	.0005
.12857	.8396	.0005
.1527	.8277	.0005
.1802	.8188	.0005
