Measured thermophysical data. Phase Equilibria of the Carbon Dioxide + 1-Decanol System at High Pressures
Source: J. Chem. Eng. Data, 2013, 10.1021/je4005239
Compound 1: carbon dioxide, CO2, purity 99.7%
Compound 2: 1-decanol, C10H22O, purity 99%

System: 1-decanol + carbon dioxide; phases: Liquid, Gas
Property: Vapor or sublimation pressure, kPa (Liquid); method: Closed cell (Static) method
Temperature, K	Mole fraction of carbon dioxide	Vapor or sublimation pressure, kPa	uncertainty
303.2	.201	1850	10
303.2	.199	2010	10
303.2	.245	2750	10
303.2	.277	2830	10
303.2	.355	4010	10
303.2	.499	5660	10
303.2	.539	6190	10
303.2	.557	6450	10
303.2	.557	6450	10
303.2	.592	7650	10
303.2	.608	10030	10
303.2	.626	12630	10
303.2	.63	15080	10
308.2	.115	1680	10
308.2	.186	2560	10
308.2	.234	3160	10
308.2	.238	3220	10
308.2	.242	3300	10
308.2	.266	3660	10
308.2	.287	3840	10
308.2	.32	4400	10
308.2	.325	4410	10
308.2	.343	4640	10
308.2	.405	5560	10
323.2	.164	2360	10
323.2	.225	3300	10
323.2	.287	4070	10
323.2	.332	4910	10
323.2	.412	6180	10
323.2	.475	7360	10
323.2	.509	8120	10
323.2	.558	9030	10
323.2	.608	10150	10
323.2	.645	11240	10
323.2	.66	12080	10
333.2	.142	2300	10
333.2	.188	2990	10
333.2	.229	3890	10
333.2	.283	4800	10
333.2	.311	5150	10
333.2	.388	6320	10
333.2	.428	7380	10
333.2	.492	8380	10
333.2	.514	9400	10
333.2	.536	9860	10
333.2	.552	10210	10
333.2	.582	11180	10
333.2	.635	12830	10
333.2	.65	13260	10
343.2	.125	1920	10
343.2	.184	2950	10
343.2	.237	3960	10
343.2	.295	5130	10
343.2	.345	6030	10
343.2	.389	7140	10
343.2	.433	7970	10
343.2	.497	9350	10
343.2	.543	10390	10
343.2	.571	11490	10
343.2	.607	12630	10

System: 1-decanol + carbon dioxide; phases: Liquid mixture 1, Liquid mixture 2, Gas
Property: Vapor or sublimation pressure, kPa (Liquid mixture 1); method: Closed cell (Static) method
Temperature, K	Vapor or sublimation pressure, kPa	uncertainty
289.5	5110	10
290.3	5260	10
291.2	5330	10
292.2	5470	10
292.9	5570	10
293.7	5710	10
295.4	5970	10
296.4	6120	10
298.1	6370	10
299.8	6630	10
301.4	6870	10
301.5	6880	10
303.2	7170	10
304.2	7320	10
306.1	7650	10
306.2	7670	10
306.4	7710	10
307	7810	10
307.1	7820	10
307.2	7840	10
307.3	7860	10
307.9	7900	10
