Measured thermophysical data. Equilibrium Solubility of Sodium 2,4-Diaminobenzenesulfonate in Binary NaCl + H2O, Na2SO4 + H2O, and C2H5OH + H2O Solvent Mixtures at Elevated Temperatures from 273.15 K to 323.15 K
Source: J. Chem. Eng. Data, 2013, 10.1021/je4006079
Compound 1: sodium 2,4-diaminobenzenesulfonate, C6H7N2NaO3S, purity 99.5%
Compound 2: water, H2O
Compound 3: sodium sulfate, Na2O4S, purity 99.8%
Compound 4: sodium chloride, ClNa, purity 99.6%
Compound 5: ethanol, C2H6O, purity 99.9%

System: sodium 2,4-diaminobenzenesulfonate + water + sodium sulfate; phases: Liquid, Crystal
Fixed: Pressure, kPa = 101
Property: Mole fraction of sodium 2,4-diaminobenzenesulfonate (Liquid); method: Chromatography
Solvent: Mass fraction of sodium sulfate	Temperature, K	Mole fraction of sodium 2,4-diaminobenzenesulfonate	uncertainty
0	273.15	.01187	.0002374
0	278.15	.01291	.0002582
0	283.15	.01454	.0002908
0	288.15	.0164	.000328
0	293.15	.01893	.0003786
0	298.15	.02134	.0004268
0	303.15	.02421	.0004842
0	308.15	.02724	.0005448
0	313.15	.03127	.0006254
0	318.15	.03495	.000699
0	323.15	.03856	.0007712
.02	273.15	.00943	.0001886
.02	278.15	.01031	.0002062
.02	283.15	.0115	.00023
.02	288.15	.01369	.0002738
.02	293.15	.01569	.0003138
.02	298.15	.01815	.000363
.02	303.15	.02134	.0004268
.02	308.15	.02472	.0004944
.02	313.15	.02747	.0005494
.02	318.15	.03102	.0006204
.02	323.15	.03603	.0007206
.05	273.15	.0066	.000132
.05	278.15	.00719	.0001438
.05	283.15	.00815	.000163
.05	288.15	.0095	.00019
.05	293.15	.0114	.000228
.05	298.15	.01328	.0002656
.05	303.15	.01552	.0003104
.05	308.15	.01787	.0003574
.05	313.15	.02075	.000415
.05	318.15	.02341	.0004682
.05	323.15	.02692	.0005384
.1	273.15	.00339	.0000678
.1	278.15	.0037	.000074
.1	283.15	.00457	.0000914
.1	288.15	.00548	.0001096
.1	293.15	.00688	.0001376
.1	298.15	.00854	.0001708
.1	303.15	.01046	.0002092
.1	308.15	.0128	.000256
.1	313.15	.0152	.000304
.1	318.15	.01799	.0003598
.1	323.15	.02136	.0004272
.2	273.15	.00088	.0000176
.2	278.15	.0012	.000024
.2	283.15	.00155	.000031
.2	288.15	.00185	.000037
.2	293.15	.00222	.0000444
.2	298.15	.00264	.0000528
.2	303.15	.0035	.00007
.2	308.15	.00439	.0000878
.2	313.15	.00547	.0001094
.2	318.15	.0076	.000152
.2	323.15	.00983	.0001966

System: sodium 2,4-diaminobenzenesulfonate + sodium chloride + water; phases: Liquid, Crystal
Fixed: Pressure, kPa = 101
Property: Mole fraction of sodium 2,4-diaminobenzenesulfonate (Liquid); method: Chromatography
Solvent: Mass fraction of sodium chloride	Temperature, K	Mole fraction of sodium 2,4-diaminobenzenesulfonate	uncertainty
.01	273.15	.00819	.0001638
.01	278.15	.00902	.0001804
.01	283.15	.01036	.0002072
.01	288.15	.01221	.0002442
.01	293.15	.01489	.0002978
.01	298.15	.01736	.0003472
.01	303.15	.02001	.0004002
.01	308.15	.0225	.00045
.01	313.15	.0254	.000508
.01	318.15	.0293	.000586
.01	323.15	.03465	.000693
.05	273.15	.00404	.0000808
.05	278.15	.00459	.0000918
.05	283.15	.00583	.0001166
.05	288.15	.0076	.000152
.05	293.15	.00953	.0001906
.05	298.15	.01178	.0002356
.05	303.15	.01418	.0002836
.05	308.15	.01635	.000327
.05	313.15	.01875	.000375
.05	318.15	.02223	.0004446
.05	323.15	.02732	.0005464
.1	273.15	.00184	.0000368
.1	278.15	.0024	.000048
.1	283.15	.00307	.0000614
.1	288.15	.00407	.0000814
.1	293.15	.00565	.000113
.1	298.15	.00708	.0001416
.1	303.15	.00893	.0001786
.1	308.15	.01045	.000209
.1	313.15	.01187	.0002374
.1	318.15	.01394	.0002788
.1	323.15	.01646	.0003292
.2	273.15	.00049	.0000098
.2	278.15	.00075	.000015
.2	283.15	.00104	.0000208
.2	288.15	.00135	.000027
.2	293.15	.00186	.0000372
.2	298.15	.00238	.0000476
.2	303.15	.0028	.000056
.2	308.15	.00349	.0000698
.2	313.15	.00438	.0000876
.2	318.15	.00492	.0000984
.2	323.15	.00587	.0001174

System: ethanol + sodium 2,4-diaminobenzenesulfonate + water; phases: Liquid, Crystal
Fixed: Pressure, kPa = 101
Property: Mole fraction of sodium 2,4-diaminobenzenesulfonate (Liquid); method: Chromatography
Solvent: Mass fraction of ethanol	Temperature, K	Mole fraction of sodium 2,4-diaminobenzenesulfonate	uncertainty
.08	273.15	.00856	.0001712
.08	278.15	.00926	.0001852
.08	283.15	.01026	.0002052
.08	288.15	.01262	.0002524
.08	293.15	.01531	.0003062
.08	298.15	.01731	.0003462
.08	303.15	.02044	.0004088
.08	308.15	.02345	.000469
.08	313.15	.02564	.0005128
.08	318.15	.02892	.0005784
.17	273.15	.00595	.000119
.17	278.15	.00652	.0001304
.17	283.15	.00753	.0001506
.17	288.15	.00948	.0001896
.17	293.15	.01168	.0002336
.17	298.15	.01423	.0002846
.17	303.15	.01687	.0003374
.17	308.15	.01929	.0003858
.17	313.15	.02193	.0004386
.17	318.15	.02493	.0004986
.35	273.15	.00383	.0000766
.35	278.15	.00396	.0000792
.35	283.15	.0048	.000096
.35	288.15	.0061	.000122
.35	293.15	.00762	.0001524
.35	298.15	.00928	.0001856
.35	303.15	.01132	.0002264
.35	308.15	.01312	.0002624
.35	313.15	.01494	.0002988
.35	318.15	.0178	.000356
.54	273.15	.00289	.0000578
.54	278.15	.00303	.0000606
.54	283.15	.00348	.0000696
.54	288.15	.00413	.0000826
.54	293.15	.00476	.0000952
.54	298.15	.00545	.000109
.54	303.15	.0064	.000128
.54	308.15	.00796	.0001592
.54	313.15	.00927	.0001854
.54	318.15	.01102	.0002204
.7	273.15	.00217	.0000434
.7	278.15	.00244	.0000488
.7	283.15	.00266	.0000532
.7	288.15	.00299	.0000598
.7	293.15	.00309	.0000618
.7	298.15	.00327	.0000654
.7	303.15	.00372	.0000744
.7	308.15	.00384	.0000768
.7	313.15	.00419	.0000838
.7	318.15	.00465	.000093

System: sodium 2,4-diaminobenzenesulfonate + water; phases: Liquid, Crystal
Property: Mole fraction of sodium 2,4-diaminobenzenesulfonate (Liquid); method: Chromatography
Temperature, K	Pressure, kPa	Mole fraction of sodium 2,4-diaminobenzenesulfonate	uncertainty
273.15	101.325	.01187	.0002374
278.15	101.325	.01291	.0002582
283.15	101.325	.01454	.0002908
288.15	101.325	.0164	.000328
293.15	101.325	.01893	.0003786
298.15	101.325	.02134	.0004268
303.15	101.325	.02421	.0004842
308.15	101.325	.02724	.0005448
313.15	101.325	.03127	.0006254
318.15	101.325	.03495	.000699
323.15	101.325	.03856	.0007712
