Measured thermophysical data. Isobaric Vapor Liquid Equilibria of Binary Systems (Propyl Acetate + n-Pentanol), (Propyl Acetate + 1-Methyl-1-butanol), and (Propyl Acetate + 3-Methyl-1-butanol) at 101.3 kPa
Source: J. Chem. Eng. Data, 2013, 10.1021/je4007184
Compound 1: propyl acetate, C5H10O2, purity 99.5%
Compound 2: 1-pentanol, C5H12O, purity 99.8%
Compound 3: 3-methyl-1-butanol, C5H12O, purity 99.8%
Compound 4: 2-pentanol, C5H12O, purity 99.5%

System: propyl acetate; phases: Liquid
Fixed: Pressure, kPa = 101.325
Property: Mass density, kg/m3 (Liquid); method: Pycnometric method
Temperature, K	Mass density, kg/m3	uncertainty
298.15	882.8	

System: propyl acetate; phases: Liquid
Fixed: Pressure, kPa = 101.325
Property: Refractive index (Na D-line) (Liquid); method: Standard Abbe refractometry
Temperature, K	Refractive index (Na D-line)	uncertainty
298.15	1.3821	

System: propyl acetate; phases: Liquid, Gas
Property: Boiling temperature at pressure P, K (Liquid); method: Ebulliometric method (Recirculating still)
Pressure, kPa	Boiling temperature at pressure P, K	uncertainty
101.325	374.6	.2

System: 1-pentanol; phases: Liquid
Fixed: Pressure, kPa = 101.325
Property: Mass density, kg/m3 (Liquid); method: Pycnometric method
Temperature, K	Mass density, kg/m3	uncertainty
298.15	810.12	

System: 1-pentanol; phases: Liquid
Fixed: Pressure, kPa = 101.325
Property: Refractive index (Na D-line) (Liquid); method: Standard Abbe refractometry
Temperature, K	Refractive index (Na D-line)	uncertainty
298.15	1.4078	

System: 1-pentanol; phases: Liquid, Gas
Property: Boiling temperature at pressure P, K (Liquid); method: Ebulliometric method (Recirculating still)
Pressure, kPa	Boiling temperature at pressure P, K	uncertainty
101.325	410.9	.2

System: 3-methyl-1-butanol; phases: Liquid
Fixed: Pressure, kPa = 101.325
Property: Mass density, kg/m3 (Liquid); method: Pycnometric method
Temperature, K	Mass density, kg/m3	uncertainty
298.15	811.04	

System: 3-methyl-1-butanol; phases: Liquid
Fixed: Pressure, kPa = 101.325
Property: Refractive index (Na D-line) (Liquid); method: Standard Abbe refractometry
Temperature, K	Refractive index (Na D-line)	uncertainty
298.15	1.4155	

System: 3-methyl-1-butanol; phases: Liquid, Gas
Property: Boiling temperature at pressure P, K (Liquid); method: Ebulliometric method (Recirculating still)
Pressure, kPa	Boiling temperature at pressure P, K	uncertainty
101.325	404.2	.2

System: 2-pentanol; phases: Liquid
Fixed: Pressure, kPa = 101.325
Property: Mass density, kg/m3 (Liquid); method: Pycnometric method
Temperature, K	Mass density, kg/m3	uncertainty
298.15	806.57	

System: 2-pentanol; phases: Liquid
Fixed: Pressure, kPa = 101.325
Property: Refractive index (Na D-line) (Liquid); method: Standard Abbe refractometry
Temperature, K	Refractive index (Na D-line)	uncertainty
298.15	1.4048	

System: 2-pentanol; phases: Liquid, Gas
Property: Boiling temperature at pressure P, K (Liquid); method: Ebulliometric method (Recirculating still)
Pressure, kPa	Boiling temperature at pressure P, K	uncertainty
101.325	392.2	.2

System: 1-pentanol + propyl acetate; phases: Liquid, Gas
Property: Boiling temperature at pressure P, K (Liquid); method: Ebulliometric method (Recirculating still)
Mole fraction of propyl acetate	Pressure, kPa	Boiling temperature at pressure P, K	uncertainty
.943	101.3	376.3	.2
.895	101.3	377.6	.2
.842	101.3	379	.2
.787	101.3	380.3	.2
.735	101.3	381.8	.2
.684	101.3	383.2	.2
.628	101.3	384.6	.2
.584	101.3	386.2	.2
.533	101.3	387.7	.2
.472	101.3	389.3	.2
.424	101.3	390.9	.2
.361	101.3	393.9	.2
.317	101.3	395.3	.2
.266	101.3	397.1	.2
.219	101.3	399.8	.2
.178	101.3	401.5	.2
.12	101.3	403.9	.2
.079	101.3	406.1	.2
.032	101.3	409.5	.2

System: 1-pentanol + propyl acetate; phases: Gas, Liquid
Property: Mole fraction of propyl acetate (Gas); method: Chromatography
Mole fraction of propyl acetate	Pressure, kPa	Mole fraction of propyl acetate	uncertainty
.943	101.3	.978	.003
.895	101.3	.949	.003
.842	101.3	.942	.003
.787	101.3	.921	.003
.735	101.3	.892	.003
.684	101.3	.873	.003
.628	101.3	.848	.003
.584	101.3	.827	.003
.533	101.3	.796	.003
.472	101.3	.756	.003
.424	101.3	.722	.003
.361	101.3	.647	.003
.317	101.3	.6	.003
.266	101.3	.567	.003
.219	101.3	.486	.003
.178	101.3	.411	.003
.12	101.3	.331	.003
.079	101.3	.229	.003
.032	101.3	.108	.003

System: propyl acetate + 3-methyl-1-butanol; phases: Liquid, Gas
Property: Boiling temperature at pressure P, K (Liquid); method: Ebulliometric method (Recirculating still)
Mole fraction of propyl acetate	Pressure, kPa	Boiling temperature at pressure P, K	uncertainty
.941	101.3	376.3	.2
.891	101.3	377.4	.2
.841	101.3	378.3	.2
.792	101.3	379.4	.2
.739	101.3	380.9	.2
.687	101.3	382	.2
.636	101.3	383.3	.2
.584	101.3	384.6	.2
.527	101.3	385.8	.2
.482	101.3	387.1	.2
.432	101.3	388.7	.2
.375	101.3	390.2	.2
.331	101.3	391.6	.2
.276	101.3	393	.2
.23	101.3	395.1	.2
.182	101.3	396.3	.2
.133	101.3	398	.2
.083	101.3	400.3	.2
.034	101.3	402.3	.2

System: propyl acetate + 3-methyl-1-butanol; phases: Gas, Liquid
Property: Mole fraction of propyl acetate (Gas); method: Chromatography
Mole fraction of propyl acetate	Pressure, kPa	Mole fraction of propyl acetate	uncertainty
.941	101.3	.968	.003
.891	101.3	.952	.003
.841	101.3	.925	.003
.792	101.3	.902	.003
.739	101.3	.882	.003
.687	101.3	.845	.003
.636	101.3	.822	.003
.584	101.3	.791	.003
.527	101.3	.755	.003
.482	101.3	.713	.003
.432	101.3	.683	.003
.375	101.3	.646	.003
.331	101.3	.577	.003
.276	101.3	.526	.003
.23	101.3	.466	.003
.182	101.3	.404	.003
.133	101.3	.319	.003
.083	101.3	.217	.003
.034	101.3	.108	.003

System: propyl acetate + 2-pentanol; phases: Liquid, Gas
Property: Boiling temperature at pressure P, K (Liquid); method: Ebulliometric method (Recirculating still)
Mole fraction of propyl acetate	Pressure, kPa	Boiling temperature at pressure P, K	uncertainty
.951	101.3	375.7	.2
.887	101.3	376.7	.2
.839	101.3	377.3	.2
.787	101.3	378	.2
.739	101.3	378.8	.2
.69	101.3	379.6	.2
.637	101.3	380.3	.2
.587	101.3	381.1	.2
.54	101.3	381.8	.2
.486	101.3	382.8	.2
.438	101.3	383.7	.2
.386	101.3	384.7	.2
.337	101.3	385.5	.2
.29	101.3	386.5	.2
.233	101.3	387.5	.2
.19	101.3	388.6	.2
.142	101.3	389.7	.2
.094	101.3	390.6	.2
.049	101.3	391.7	.2

System: propyl acetate + 2-pentanol; phases: Gas, Liquid
Property: Mole fraction of propyl acetate (Gas); method: Chromatography
Mole fraction of propyl acetate	Pressure, kPa	Mole fraction of propyl acetate	uncertainty
.951	101.3	.967	.003
.887	101.3	.932	.003
.839	101.3	.895	.003
.787	101.3	.868	.003
.739	101.3	.831	.003
.69	101.3	.791	.003
.637	101.3	.759	.003
.587	101.3	.724	.003
.54	101.3	.682	.003
.486	101.3	.643	.003
.438	101.3	.59	.003
.386	101.3	.541	.003
.337	101.3	.494	.003
.29	101.3	.443	.003
.233	101.3	.373	.003
.19	101.3	.314	.003
.142	101.3	.245	.003
.094	101.3	.175	.003
.049	101.3	.09	.003
