Measured thermophysical data. Solute Solvent Interactions of Alkyl Acetoacetates in Aqueous {1-Butyl-3-methylimidazolium Chloride [bmim][Cl]} Ionic Liquid Solutions in the Temperature Interval (288.15 308.15) K
Source: J. Chem. Eng. Data, 2014, 10.1021/je4009987
Compound 1: 1-butyl-3-methylimidazolium chloride, C8H15ClN2, purity 98%
Compound 2: methyl acetoacetate, C5H8O3, purity 99.5%
Compound 3: ethyl acetoacetate, C6H10O3, purity 99.5%
Compound 4: water, H2O

System: methyl acetoacetate + water + 1-butyl-3-methylimidazolium chloride; phases: Liquid
Fixed: Pressure, kPa = 101
Property: Mass density, kg/m3 (Liquid); method: Vibrating tube method
Solvent: Molality, mol/kg of 1-butyl-3-methylimidazolium chloride	Temperature, K	Molality, mol/kg of methyl acetoacetate	Mass density, kg/m3	uncertainty
0	288.15	0	999.113	.999113
0	288.15	.0809	1000.362	1.000362
0	288.15	.1654	1001.65	1.00165
0	288.15	.285	1003.438	1.003438
0	288.15	.386	1004.9	1.0049
0	288.15	.4607	1005.978	1.005978
0	288.15	.5604	1007.367	1.007367
0	288.15	.6367	1008.404	1.008404
0	288.15	.7871	1010.4	1.0104
0	288.15	.8429	1011.132	1.011132
0	293.15	0	998.227	.998227
0	293.15	.0809	999.43	.99943
0	293.15	.1654	1000.66	1.00066
0	293.15	.285	1002.36	1.00236
0	293.15	.386	1003.749	1.003749
0	293.15	.4607	1004.75	1.00475
0	293.15	.5604	1006.06	1.00606
0	293.15	.6367	1007.01	1.00701
0	293.15	.7871	1008.9	1.0089
0	293.15	.8429	1009.58	1.00958
0	298.15	0	997.072	.997072
0	298.15	.0809	998.205	.998205
0	298.15	.1654	999.37	.99937
0	298.15	.285	1001	1.001
0	298.15	.386	1002.33	1.00233
0	298.15	.4607	1003.3	1.0033
0	298.15	.5604	1004.56	1.00456
0	298.15	.6367	1005.532	1.005532
0	298.15	.7871	1007.35	1.00735
0	298.15	.8429	1008	1.008
0	303.15	0	995.677	.995677
0	303.15	.0809	996.78	.99678
0	303.15	.1654	997.9	.9979
0	303.15	.285	999.454	.999454
0	303.15	.386	1000.73	1.00073
0	303.15	.4607	1001.65	1.00165
0	303.15	.5604	1002.85	1.00285
0	303.15	.6367	1003.74	1.00374
0	303.15	.7871	1005.47	1.00547
0	303.15	.8429	1006.11	1.00611
0	308.15	0	994.062	.994062
0	308.15	.0809	995.12	.99512
0	308.15	.1654	996.2	.9962
0	308.15	.285	997.68	.99768
0	308.15	.386	998.91	.99891
0	308.15	.4607	999.79	.99979
0	308.15	.5604	1000.938	1.000938
0	308.15	.6367	1001.795	1.001795
0	308.15	.7871	1003.453	1.003453
0	308.15	.8429	1004.037	1.004037
.1106	288.15	.0635	1000.23	1.00023
.1106	288.15	.1163	1001.035	1.001035
.1106	288.15	.2201	1002.59	1.00259
.1106	288.15	.3039	1003.813	1.003813
.1106	288.15	.4105	1005.35	1.00535
.1106	288.15	.496	1006.555	1.006555
.1106	288.15	.5933	1007.9	1.0079
.1106	288.15	.7089	1009.47	1.00947
.1106	288.15	.8361	1011.14	1.01114
.1106	288.15	.9081	1012.042	1.012042
.1106	293.15	.0635	999.295	.999295
.1106	293.15	.1163	1000.06	1.00006
.1106	293.15	.2201	1001.543	1.001543
.1106	293.15	.3039	1002.72	1.00272
.1106	293.15	.4105	1004.18	1.00418
.1106	293.15	.496	1005.32	1.00532
.1106	293.15	.5933	1006.603	1.006603
.1106	293.15	.7089	1008.07	1.00807
.1106	293.15	.8361	1009.65	1.00965
.1106	293.15	.9081	1010.533	1.010533
.1106	298.15	.0635	998.095	.998095
.1106	298.15	.1163	998.825	.998825
.1106	298.15	.2201	1000.235	1.000235
.1106	298.15	.3039	1001.355	1.001355
.1106	298.15	.4105	1002.74	1.00274
.1106	298.15	.496	1003.83	1.00383
.1106	298.15	.5933	1005.05	1.00505
.1106	298.15	.7089	1006.45	1.00645
.1106	298.15	.8361	1007.95	1.00795
.1106	298.15	.9081	1008.808	1.008808
.1106	303.15	.0635	996.651	.996651
.1106	303.15	.1163	997.35	.99735
.1106	303.15	.2201	998.7	.9987
.1106	303.15	.3039	999.76	.99976
.1106	303.15	.4105	1001.095	1.001095
.1106	303.15	.496	1002.143	1.002143
.1106	303.15	.5933	1003.3	1.0033
.1106	303.15	.7089	1004.63	1.00463
.1106	303.15	.8361	1006.09	1.00609
.1106	303.15	.9081	1006.881	1.006881
.1106	308.15	.0635	995.01	.99501
.1106	308.15	.1163	995.688	.995688
.1106	308.15	.2201	996.99	.99699
.1106	308.15	.3039	998.02	.99802
.1106	308.15	.4105	999.299	.999299
.1106	308.15	.496	1000.3	1.0003
.1106	308.15	.5933	1001.4	1.0014
.1106	308.15	.7089	1002.695	1.002695
.1106	308.15	.8361	1004.05	1.00405
.1106	308.15	.9081	1004.814	1.004814
.3068	288.15	.0781	1000.773	1.000773
.3068	288.15	.1696	1002.16	1.00216
.3068	288.15	.2825	1003.844	1.003844
.3068	288.15	.3681	1005.08	1.00508
.3068	288.15	.4597	1006.38	1.00638
.3068	288.15	.5583	1007.75	1.00775
.3068	288.15	.6657	1009.2	1.0092
.3068	288.15	.8225	1011.25	1.01125
.3068	288.15	.894	1012.143	1.012143
.3068	293.15	.0781	999.819	.999819
.3068	293.15	.1696	1001.161	1.001161
.3068	293.15	.2825	1002.77	1.00277
.3068	293.15	.3681	1003.955	1.003955
.3068	293.15	.4597	1005.189	1.005189
.3068	293.15	.5583	1006.49	1.00649
.3068	293.15	.6657	1007.86	1.00786
.3068	293.15	.8225	1009.8	1.0098
.3068	293.15	.894	1010.65	1.01065
.3068	298.15	.0781	998.597	.998597
.3068	298.15	.1696	999.87	.99987
.3068	298.15	.2825	1001.399	1.001399
.3068	298.15	.3681	1002.532	1.002532
.3068	298.15	.4597	1003.71	1.00371
.3068	298.15	.5583	1004.95	1.00495
.3068	298.15	.6657	1006.28	1.00628
.3068	298.15	.8225	1008.11	1.00811
.3068	298.15	.894	1008.927	1.008927
.3068	303.15	.0781	997.134	.997134
.3068	303.15	.1696	998.348	.998348
.3068	303.15	.2825	999.815	.999815
.3068	303.15	.3681	1000.899	1.000899
.3068	303.15	.4597	1002.02	1.00202
.3068	303.15	.5583	1003.2	1.0032
.3068	303.15	.6657	1004.47	1.00447
.3068	303.15	.8225	1006.21	1.00621
.3068	303.15	.894	1006.997	1.006997
.3068	308.15	.0781	995.46	.99546
.3068	308.15	.1696	996.625	.996625
.3068	308.15	.2825	998.02	.99802
.3068	308.15	.3681	999.05	.99905
.3068	308.15	.4597	1000.13	1.00013
.3068	308.15	.5583	1001.25	1.00125
.3068	308.15	.6657	1002.45	1.00245
.3068	308.15	.8225	1004.14	1.00414
.3068	308.15	.894	1004.885	1.004885

System: methyl acetoacetate + water + 1-butyl-3-methylimidazolium chloride; phases: Liquid
Fixed: Pressure, kPa = 101
Property: Speed of sound, m/s (Liquid); method: Sing-around technique in a fixed-path interferometer
Solvent: Molality, mol/kg of 1-butyl-3-methylimidazolium chloride	Temperature, K	Molality, mol/kg of methyl acetoacetate	Speed of sound, m/s	uncertainty
0	288.15	0	1466.69	.3
0	288.15	.0809	1472.46	.3
0	288.15	.1654	1477.31	.3
0	288.15	.285	1484.66	.3
0	288.15	.386	1490.14	.3
0	288.15	.4607	1494.18	.3
0	288.15	.5604	1499.61	.3
0	288.15	.6367	1502.99	.3
0	288.15	.7871	1509.83	.3
0	288.15	.8429	1512.22	.3
0	293.15	0	1482.47	.3
0	293.15	.0809	1487.68	.3
0	293.15	.1654	1491.86	.3
0	293.15	.285	1498.34	.3
0	293.15	.386	1503.11	.3
0	293.15	.4607	1506.62	.3
0	293.15	.5604	1511.38	.3
0	293.15	.6367	1514.25	.3
0	293.15	.7871	1520.15	.3
0	293.15	.8429	1522.2	.3
0	298.15	0	1496.62	.3
0	298.15	.0809	1501.27	.3
0	298.15	.1654	1504.84	.3
0	298.15	.285	1510.5	.3
0	298.15	.386	1514.57	.3
0	298.15	.4607	1517.59	.3
0	298.15	.5604	1521.72	.3
0	298.15	.6367	1524.12	.3
0	298.15	.7871	1529.11	.3
0	298.15	.8429	1530.86	.3
0	303.15	0	1508.98	.3
0	303.15	.0809	1513.1	.3
0	303.15	.1654	1516.09	.3
0	303.15	.285	1520.98	.3
0	303.15	.386	1524.42	.3
0	303.15	.4607	1526.98	.3
0	303.15	.5604	1530.54	.3
0	303.15	.6367	1532.5	.3
0	303.15	.7871	1536.68	.3
0	303.15	.8429	1538.12	.3
0	308.15	0	1519.62	.3
0	308.15	.0809	1523.24	.3
0	308.15	.1654	1525.69	.3
0	308.15	.285	1529.88	.3
0	308.15	.386	1532.74	.3
0	308.15	.4607	1534.88	.3
0	308.15	.5604	1537.9	.3
0	308.15	.6367	1539.46	.3
0	308.15	.7871	1542.89	.3
0	308.15	.8429	1544.04	.3
.1106	288.15	.0635	1472.35	.3
.1106	288.15	.1163	1475.7	.3
.1106	288.15	.2201	1482.15	.3
.1106	288.15	.3039	1486.99	.3
.1106	288.15	.4105	1492.92	.3
.1106	288.15	.496	1497.33	.3
.1106	288.15	.5933	1502.33	.3
.1106	288.15	.7089	1507.73	.3
.1106	288.15	.8361	1513.26	.3
.1106	288.15	.9081	1516.05	.3
.1106	293.15	.0635	1487.5	.3
.1106	293.15	.1163	1490.86	.3
.1106	293.15	.2201	1496.05	.3
.1106	293.15	.3039	1500.77	.3
.1106	293.15	.4105	1505.55	.3
.1106	293.15	.496	1509.75	.3
.1106	293.15	.5933	1513.69	.3
.1106	293.15	.7089	1518.71	.3
.1106	293.15	.8361	1523.17	.3
.1106	293.15	.9081	1525.8	.3
.1106	298.15	.0635	1501.12	.3
.1106	298.15	.1163	1504.12	.3
.1106	298.15	.2201	1508.57	.3
.1106	298.15	.3039	1512.73	.3
.1106	298.15	.4105	1516.75	.3
.1106	298.15	.496	1520.43	.3
.1106	298.15	.5933	1523.73	.3
.1106	298.15	.7089	1528.08	.3
.1106	298.15	.8361	1531.79	.3
.1106	298.15	.9081	1534.05	.3
.1106	303.15	.0635	1513	.3
.1106	303.15	.1163	1515.57	.3
.1106	303.15	.2201	1519.38	.3
.1106	303.15	.3039	1522.95	.3
.1106	303.15	.4105	1526.38	.3
.1106	303.15	.496	1529.57	.3
.1106	303.15	.5933	1532.28	.3
.1106	303.15	.7089	1535.93	.3
.1106	303.15	.8361	1538.99	.3
.1106	303.15	.9081	1540.87	.3
.1106	308.15	.0635	1523.16	.3
.1106	308.15	.1163	1525.16	.3
.1106	308.15	.2201	1528.6	.3
.1106	308.15	.3039	1531.47	.3
.1106	308.15	.4105	1534.5	.3
.1106	308.15	.496	1537	.3
.1106	308.15	.5933	1539.4	.3
.1106	308.15	.7089	1542.26	.3
.1106	308.15	.8361	1544.87	.3
.1106	308.15	.9081	1546.28	.3
.3068	288.15	.0781	1476.82	.3
.3068	288.15	.1696	1482.46	.3
.3068	288.15	.2825	1489.08	.3
.3068	288.15	.3681	1493.84	.3
.3068	288.15	.4597	1498.8	.3
.3068	288.15	.5583	1503.84	.3
.3068	288.15	.6657	1508.68	.3
.3068	288.15	.8225	1515.44	.3
.3068	288.15	.894	1518.47	.3
.3068	293.15	.0781	1491.57	.3
.3068	293.15	.1696	1496.65	.3
.3068	293.15	.2825	1502.45	.3
.3068	293.15	.3681	1506.92	.3
.3068	293.15	.4597	1510.8	.3
.3068	293.15	.5583	1515.29	.3
.3068	293.15	.6657	1519.45	.3
.3068	293.15	.8225	1525.51	.3
.3068	293.15	.894	1527.8	.3
.3068	298.15	.0781	1504.9	.3
.3068	298.15	.1696	1509.29	.3
.3068	298.15	.2825	1514.3	.3
.3068	298.15	.3681	1518.24	.3
.3068	298.15	.4597	1521.48	.3
.3068	298.15	.5583	1525.36	.3
.3068	298.15	.6657	1528.87	.3
.3068	298.15	.8225	1534.08	.3
.3068	298.15	.894	1535.92	.3
.3068	303.15	.0781	1516.43	.3
.3068	303.15	.1696	1520.23	.3
.3068	303.15	.2825	1524.53	.3
.3068	303.15	.3681	1527.89	.3
.3068	303.15	.4597	1530.63	.3
.3068	303.15	.5583	1533.93	.3
.3068	303.15	.6657	1536.84	.3
.3068	303.15	.8225	1541.18	.3
.3068	303.15	.894	1542.69	.3
.3068	308.15	.0781	1526.34	.3
.3068	308.15	.1696	1529.57	.3
.3068	308.15	.2825	1533.19	.3
.3068	308.15	.3681	1535.84	.3
.3068	308.15	.4597	1538.3	.3
.3068	308.15	.5583	1541.06	.3
.3068	308.15	.6657	1534.42	.3
.3068	308.15	.8225	1546.78	.3
.3068	308.15	.894	1548.14	.3

System: ethyl acetoacetate + water + 1-butyl-3-methylimidazolium chloride; phases: Liquid
Fixed: Pressure, kPa = 101
Property: Mass density, kg/m3 (Liquid); method: Vibrating tube method
Solvent: Molality, mol/kg of 1-butyl-3-methylimidazolium chloride	Temperature, K	Molality, mol/kg of ethyl acetoacetate	Mass density, kg/m3	uncertainty
0	288.15	0	999.113	.999113
0	288.15	.076	1000.052	1.000052
0	288.15	.1625	1001.1	1.0011
0	288.15	.2495	1002.14	1.00214
0	288.15	.3767	1003.62	1.00362
0	288.15	.4725	1004.7	1.0047
0	288.15	.5324	1005.38	1.00538
0	288.15	.6848	1007.03	1.00703
0	288.15	.7843	1008.1	1.0081
0	288.15	.9019	1009.309	1.009309
0	293.15	0	998.227	.998227
0	293.15	.076	999.128	.999128
0	293.15	.1625	1000.13	1.00013
0	293.15	.2495	1001.1	1.0011
0	293.15	.3767	1002.48	1.00248
0	293.15	.4725	1003.48	1.00348
0	293.15	.5324	1004.1	1.0041
0	293.15	.6848	1005.6	1.0056
0	293.15	.7843	1006.56	1.00656
0	293.15	.9019	1007.65	1.00765
0	298.15	0	997.072	.997072
0	298.15	.076	997.91	.99791
0	298.15	.1625	998.838	.998838
0	298.15	.2495	999.76	.99976
0	298.15	.3767	1001.05	1.00105
0	298.15	.4725	1002.005	1.002005
0	298.15	.5324	1002.58	1.00258
0	298.15	.6848	1004	1.004
0	298.15	.7843	1004.9	1.0049
0	298.15	.9019	1005.934	1.005934
0	303.15	0	995.677	.995677
0	303.15	.076	996.474	.996474
0	303.15	.1625	997.358	.997358
0	303.15	.2495	998.22	.99822
0	303.15	.3767	999.44	.99944
0	303.15	.4725	1000.32	1.00032
0	303.15	.5324	1000.86	1.00086
0	303.15	.6848	1002.18	1.00218
0	303.15	.7843	1003.01	1.00301
0	303.15	.9019	1003.938	1.003938
0	308.15	0	994.062	.994062
0	308.15	.076	994.809	.994809
0	308.15	.1625	995.64	.99564
0	308.15	.2495	996.445	.996445
0	308.15	.3767	997.59	.99759
0	308.15	.4725	998.41	.99841
0	308.15	.5324	998.9	.9989
0	308.15	.6848	1000.125	1.000125
0	308.15	.7843	1000.902	1.000902
0	308.15	.9019	1001.757	1.001757
.1106	288.15	.0761	1000.21	1.00021
.1106	288.15	.1187	1000.74	1.00074
.1106	288.15	.215	1001.912	1.001912
.1106	288.15	.3	1002.913	1.002913
.1106	288.15	.4329	1004.44	1.00444
.1106	288.15	.5074	1005.278	1.005278
.1106	288.15	.5913	1006.17	1.00617
.1106	288.15	.721	1007.55	1.00755
.1106	288.15	.7852	1008.2	1.0082
.1106	288.15	.9267	1009.612	1.009612
.1106	293.15	.0761	999.26	.99926
.1106	293.15	.1187	999.757	.999757
.1106	293.15	.215	1000.85	1.00085
.1106	293.15	.3	1001.797	1.001797
.1106	293.15	.4329	1003.22	1.00322
.1106	293.15	.5074	1004	1.004
.1106	293.15	.5913	1004.82	1.00482
.1106	293.15	.721	1006.1	1.0061
.1106	293.15	.7852	1006.7	1.0067
.1106	293.15	.9267	1008.027	1.008027
.1106	298.15	.0761	998.04	.99804
.1106	298.15	.1187	998.495	.998495
.1106	298.15	.215	999.505	.999505
.1106	298.15	.3	1000.38	1.00038
.1106	298.15	.4329	1001.7	1.0017
.1106	298.15	.5074	1002.42	1.00242
.1106	298.15	.5913	1003.2	1.0032
.1106	298.15	.721	1004.38	1.00438
.1106	298.15	.7852	1004.95	1.00495
.1106	298.15	.9267	1006.2	1.0062
.1106	303.15	.0761	996.59	.99659
.1106	303.15	.1187	997.025	.997025
.1106	303.15	.215	997.98	.99798
.1106	303.15	.3	998.8	.9988
.1106	303.15	.4329	1000.04	1.00004
.1106	303.15	.5074	1000.73	1.00073
.1106	303.15	.5913	1001.45	1.00145
.1106	303.15	.721	1002.573	1.002573
.1106	303.15	.7852	1003.1	1.0031
.1106	303.15	.9267	1004.194	1.004194
.1106	308.15	.0761	994.92	.99492
.1106	308.15	.1187	995.325	.995325
.1106	308.15	.215	996.215	.996215
.1106	308.15	.3	996.985	.996985
.1106	308.15	.4329	998.145	.998145
.1106	308.15	.5074	998.76	.99876
.1106	308.15	.5913	999.44	.99944
.1106	308.15	.721	1000.48	1.00048
.1106	308.15	.7852	1000.95	1.00095
.1106	308.15	.9267	1001.998	1.001998
.3068	288.15	.0717	1000.47	1.00047
.3068	288.15	.1596	1001.56	1.00156
.3068	288.15	.2518	1002.68	1.00268
.3068	288.15	.3727	1004.089	1.004089
.3068	288.15	.475	1005.25	1.00525
.3068	288.15	.5432	1006.01	1.00601
.3068	288.15	.6753	1007.425	1.007425
.3068	288.15	.7895	1008.582	1.008582
.3068	288.15	.9015	1009.747	1.009747
.3068	293.15	.0717	999.505	.999505
.3068	293.15	.1596	1000.53	1.00053
.3068	293.15	.2518	1001.566	1.001566
.3068	293.15	.3727	1002.897	1.002897
.3068	293.15	.475	1003.97	1.00397
.3068	293.15	.5432	1004.67	1.00467
.3068	293.15	.6753	1005.989	1.005989
.3068	293.15	.7895	1007.082	1.007082
.3068	293.15	.9015	1008.141	1.008141
.3068	298.15	.0717	998.273	.998273
.3068	298.15	.1596	999.22	.99922
.3068	298.15	.2518	1000.18	1.00018
.3068	298.15	.3727	1001.41	1.00141
.3068	298.15	.475	1002.42	1.00242
.3068	298.15	.5432	1003.055	1.003055
.3068	298.15	.6753	1004.31	1.00431
.3068	298.15	.7895	1005.32	1.00532
.3068	298.15	.9015	1006.314	1.006314
.3068	303.15	.0717	996.81	.99681
.3068	303.15	.1596	997.695	.997695
.3068	303.15	.2518	998.6	.9986
.3068	303.15	.3727	999.75	.99975
.3068	303.15	.475	1000.69	1.00069
.3068	303.15	.5432	1001.28	1.00128
.3068	303.15	.6753	1002.43	1.00243
.3068	303.15	.7895	1003.405	1.003405
.3068	303.15	.9015	1004.299	1.004299
.3068	308.15	.0717	995.138	.995138
.3068	308.15	.1596	995.965	.995965
.3068	308.15	.2518	996.81	.99681
.3068	308.15	.3727	997.88	.99788
.3068	308.15	.475	998.76	.99876
.3068	308.15	.5432	999.32	.99932
.3068	308.15	.6753	1000.39	1.00039
.3068	308.15	.7895	1001.28	1.00128
.3068	308.15	.9015	1002.106	1.002106

System: ethyl acetoacetate + water + 1-butyl-3-methylimidazolium chloride; phases: Liquid
Fixed: Pressure, kPa = 101
Property: Speed of sound, m/s (Liquid); method: Sing-around technique in a fixed-path interferometer
Solvent: Molality, mol/kg of 1-butyl-3-methylimidazolium chloride	Temperature, K	Molality, mol/kg of ethyl acetoacetate	Speed of sound, m/s	uncertainty
0	288.15	0	1466.69	.3
0	288.15	.076	1472.59	.3
0	288.15	.1625	1479.2	.3
0	288.15	.2495	1485.54	.3
0	288.15	.3767	1494.12	.3
0	288.15	.4725	1500	.3
0	288.15	.5324	1503.4	.3
0	288.15	.6848	1511.63	.3
0	288.15	.7843	1516.32	.3
0	288.15	.9019	1521.37	.3
0	293.15	0	1482.47	.3
0	293.15	.076	1487.76	.3
0	293.15	.1625	1493.58	.3
0	293.15	.2495	1499.15	.3
0	293.15	.3767	1506.65	.3
0	293.15	.4725	1511.74	.3
0	293.15	.5324	1514.66	.3
0	293.15	.6848	1521.71	.3
0	293.15	.7843	1525.67	.3
0	293.15	.9019	1529.91	.3
0	298.15	0	1496.62	.3
0	298.15	.076	1501.29	.3
0	298.15	.1625	1506.37	.3
0	298.15	.2495	1511.2	.3
0	298.15	.3767	1517.68	.3
0	298.15	.4725	1522.02	.3
0	298.15	.5324	1524.52	.3
0	298.15	.6848	1530.45	.3
0	298.15	.7843	1533.73	.3
0	298.15	.9019	1537.18	.3
0	303.15	0	1508.98	.3
0	303.15	.076	1513.05	.3
0	303.15	.1625	1517.44	.3
0	303.15	.2495	1521.6	.3
0	303.15	.3767	1527.12	.3
0	303.15	.4725	1530.79	.3
0	303.15	.5324	1532.87	.3
0	303.15	.6848	1537.76	.3
0	303.15	.7843	1540.41	.3
0	303.15	.9019	1543.14	.3
0	308.15	0	1519.62	.3
0	308.15	.076	1523.12	.3
0	308.15	.1625	1526.88	.3
0	308.15	.2495	1530.41	.3
0	308.15	.3767	1535.04	.3
0	308.15	.4725	1538.08	.3
0	308.15	.5324	1539.78	.3
0	308.15	.6848	1543.71	.3
0	308.15	.7843	1545.77	.3
0	308.15	.9019	1547.81	.3
.1106	288.15	.0761	1474.27	.3
.1106	288.15	.1187	1477.42	.3
.1106	288.15	.215	1484.76	.3
.1106	288.15	.3	1490.5	.3
.1106	288.15	.4329	1498.84	.3
.1106	288.15	.5074	1503.34	.3
.1106	288.15	.5913	1507.99	.3
.1106	288.15	.721	1514.72	.3
.1106	288.15	.7852	1516.85	.3
.1106	288.15	.9267	1523.52	.3
.1106	293.15	.0761	1489.22	.3
.1106	293.15	.1187	1492.06	.3
.1106	293.15	.215	1498.9	.3
.1106	293.15	.3	1503.48	.3
.1106	293.15	.4329	1511.09	.3
.1106	293.15	.5074	1514.62	.3
.1106	293.15	.5913	1518.99	.3
.1106	293.15	.721	1524.35	.3
.1106	293.15	.7852	1526.46	.3
.1106	293.15	.9267	1531.73	.3
.1106	298.15	.0761	1502.65	.3
.1106	298.15	.1187	1505.13	.3
.1106	298.15	.215	1511.23	.3
.1106	298.15	.3	1515.03	.3
.1106	298.15	.4329	1521.65	.3
.1106	298.15	.5074	1524.57	.3
.1106	298.15	.5913	1528.37	.3
.1106	298.15	.721	1532.75	.3
.1106	298.15	.7852	1534.58	.3
.1106	298.15	.9267	1538.77	.3
.1106	303.15	.0761	1514.32	.3
.1106	303.15	.1187	1516.46	.3
.1106	303.15	.215	1521.78	.3
.1106	303.15	.3	1524.96	.3
.1106	303.15	.4329	1530.71	.3
.1106	303.15	.5074	1533.02	.3
.1106	303.15	.5913	1536.2	.3
.1106	303.15	.721	1539.77	.3
.1106	303.15	.7852	1541.25	.3
.1106	303.15	.9267	1544.53	.3
.1106	308.15	.0761	1524.32	.3
.1106	308.15	.1187	1526.15	.3
.1106	308.15	.215	1530.54	.3
.1106	308.15	.3	1533.35	.3
.1106	308.15	.4329	1537.95	.3
.1106	308.15	.5074	1540.04	.3
.1106	308.15	.5913	1542.47	.3
.1106	308.15	.721	1545.43	.3
.1106	308.15	.7852	1546.86	.3
.1106	308.15	.9267	1549.02	.3
.3068	288.15	.0717	1478.29	.3
.3068	288.15	.1596	1484.15	.3
.3068	288.15	.2518	1490.2	.3
.3068	288.15	.3727	1498.33	.3
.3068	288.15	.475	1504.59	.3
.3068	288.15	.5432	1508.54	.3
.3068	288.15	.6753	1515.35	.3
.3068	288.15	.7895	1520.7	.3
.3068	288.15	.9015	1525.31	.3
.3068	293.15	.0717	1493.35	.3
.3068	293.15	.1596	1498.17	.3
.3068	293.15	.2518	1503.81	.3
.3068	293.15	.3727	1510.5	.3
.3068	293.15	.475	1516.27	.3
.3068	293.15	.5432	1519.31	.3
.3068	293.15	.6753	1525.44	.3
.3068	293.15	.7895	1529.64	.3
.3068	293.15	.9015	1533.77	.3
.3068	298.15	.0717	1506.52	.3
.3068	298.15	.1596	1510.68	.3
.3068	298.15	.2518	1515.63	.3
.3068	298.15	.3727	1521.3	.3
.3068	298.15	.475	1526.3	.3
.3068	298.15	.5432	1528.79	.3
.3068	298.15	.6753	1534.03	.3
.3068	298.15	.7895	1537.39	.3
.3068	298.15	.9015	1540.89	.3
.3068	303.15	.0717	1517.27	.3
.3068	303.15	.1596	1521.48	.3
.3068	303.15	.2518	1525.7	.3
.3068	303.15	.3727	1530.54	.3
.3068	303.15	.475	1534.72	.3
.3068	303.15	.5432	1536.81	.3
.3068	303.15	.6753	1541.14	.3
.3068	303.15	.7895	1543.81	.3
.3068	303.15	.9015	1546.54	.3
.3068	308.15	.0717	1526.85	.3
.3068	308.15	.1596	1530.69	.3
.3068	308.15	.2518	1534.07	.3
.3068	308.15	.3727	1538.25	.3
.3068	308.15	.475	1541.6	.3
.3068	308.15	.5432	1543.41	.3
.3068	308.15	.6753	1546.74	.3
.3068	308.15	.7895	1548.9	.3
.3068	308.15	.9015	1550.84	.3

System: methyl acetoacetate + water; phases: Liquid
Property: Mass density, kg/m3 (Liquid); method: Vibrating tube method
Temperature, K	Molality, mol/kg of methyl acetoacetate	Pressure, kPa	Mass density, kg/m3	uncertainty
288.15	.0809	101	1000.362	1.000362
288.15	.1654	101	1001.65	1.00165
288.15	.285	101	1003.438	1.003438
288.15	.386	101	1004.9	1.0049
288.15	.4607	101	1005.978	1.005978
288.15	.5604	101	1007.367	1.007367
288.15	.6367	101	1008.404	1.008404
288.15	.7871	101	1010.4	1.0104
288.15	.8429	101	1011.132	1.011132
293.15	.0809	101	999.43	.99943
293.15	.1654	101	1000.66	1.00066
293.15	.285	101	1002.36	1.00236
293.15	.386	101	1003.749	1.003749
293.15	.4607	101	1004.75	1.00475
293.15	.5604	101	1006.06	1.00606
293.15	.6367	101	1007.01	1.00701
293.15	.7871	101	1008.9	1.0089
293.15	.8429	101	1009.58	1.00958
298.15	.0809	101	998.205	.998205
298.15	.1654	101	999.37	.99937
298.15	.285	101	1001	1.001
298.15	.386	101	1002.33	1.00233
298.15	.4607	101	1003.3	1.0033
298.15	.5604	101	1004.56	1.00456
298.15	.6367	101	1005.532	1.005532
298.15	.7871	101	1007.35	1.00735
298.15	.8429	101	1008	1.008
303.15	.0809	101	996.78	.99678
303.15	.1654	101	997.9	.9979
303.15	.285	101	999.454	.999454
303.15	.386	101	1000.73	1.00073
303.15	.4607	101	1001.65	1.00165
303.15	.5604	101	1002.85	1.00285
303.15	.6367	101	1003.74	1.00374
303.15	.7871	101	1005.47	1.00547
303.15	.8429	101	1006.11	1.00611
308.15	.0809	101	995.12	.99512
308.15	.1654	101	996.2	.9962
308.15	.285	101	997.68	.99768
308.15	.386	101	998.91	.99891
308.15	.4607	101	999.79	.99979
308.15	.5604	101	1000.938	1.000938
308.15	.6367	101	1001.795	1.001795
308.15	.7871	101	1003.453	1.003453
308.15	.8429	101	1004.037	1.004037

System: methyl acetoacetate + water; phases: Liquid
Property: Speed of sound, m/s (Liquid); method: Sing-around technique in a fixed-path interferometer
Temperature, K	Molality, mol/kg of methyl acetoacetate	Pressure, kPa	Speed of sound, m/s	uncertainty
288.15	.0809	101	1472.46	.3
288.15	.1654	101	1477.31	.3
288.15	.285	101	1484.66	.3
288.15	.386	101	1490.14	.3
288.15	.4607	101	1494.18	.3
288.15	.5604	101	1499.61	.3
288.15	.6367	101	1502.99	.3
288.15	.7871	101	1509.83	.3
288.15	.8429	101	1512.22	.3
293.15	.0809	101	1487.68	.3
293.15	.1654	101	1491.86	.3
293.15	.285	101	1498.34	.3
293.15	.386	101	1503.11	.3
293.15	.4607	101	1506.62	.3
293.15	.5604	101	1511.38	.3
293.15	.6367	101	1514.25	.3
293.15	.7871	101	1520.15	.3
293.15	.8429	101	1522.2	.3
298.15	.0809	101	1501.27	.3
298.15	.1654	101	1504.84	.3
298.15	.285	101	1510.5	.3
298.15	.386	101	1514.57	.3
298.15	.4607	101	1517.59	.3
298.15	.5604	101	1521.72	.3
298.15	.6367	101	1524.12	.3
298.15	.7871	101	1529.11	.3
298.15	.8429	101	1530.86	.3
303.15	.0809	101	1513.1	.3
303.15	.1654	101	1516.09	.3
303.15	.285	101	1520.98	.3
303.15	.386	101	1524.42	.3
303.15	.4607	101	1526.98	.3
303.15	.5604	101	1530.54	.3
303.15	.6367	101	1532.5	.3
303.15	.7871	101	1536.68	.3
303.15	.8429	101	1538.12	.3
308.15	.0809	101	1523.24	.3
308.15	.1654	101	1525.69	.3
308.15	.285	101	1529.88	.3
308.15	.386	101	1532.74	.3
308.15	.4607	101	1534.88	.3
308.15	.5604	101	1537.9	.3
308.15	.6367	101	1539.46	.3
308.15	.7871	101	1542.89	.3
308.15	.8429	101	1544.04	.3

System: ethyl acetoacetate + water; phases: Liquid
Property: Mass density, kg/m3 (Liquid); method: Vibrating tube method
Temperature, K	Molality, mol/kg of ethyl acetoacetate	Pressure, kPa	Mass density, kg/m3	uncertainty
288.15	.076	101	1000.052	1.000052
288.15	.1625	101	1001.1	1.0011
288.15	.2495	101	1002.14	1.00214
288.15	.3767	101	1003.62	1.00362
288.15	.4725	101	1004.7	1.0047
288.15	.5324	101	1005.38	1.00538
288.15	.6848	101	1007.03	1.00703
288.15	.7843	101	1008.1	1.0081
288.15	.9019	101	1009.309	1.009309
293.15	.076	101	999.128	.999128
293.15	.1625	101	1000.13	1.00013
293.15	.2495	101	1001.1	1.0011
293.15	.3767	101	1002.48	1.00248
293.15	.4725	101	1003.48	1.00348
293.15	.5324	101	1004.1	1.0041
293.15	.6848	101	1005.6	1.0056
293.15	.7843	101	1006.56	1.00656
293.15	.9019	101	1007.65	1.00765
298.15	.076	101	997.91	.99791
298.15	.1625	101	998.838	.998838
298.15	.2495	101	999.76	.99976
298.15	.3767	101	1001.05	1.00105
298.15	.4725	101	1002.005	1.002005
298.15	.5324	101	1002.58	1.00258
298.15	.6848	101	1004	1.004
298.15	.7843	101	1004.9	1.0049
298.15	.9019	101	1005.934	1.005934
303.15	.076	101	996.474	.996474
303.15	.1625	101	997.358	.997358
303.15	.2495	101	998.22	.99822
303.15	.3767	101	999.44	.99944
303.15	.4725	101	1000.32	1.00032
303.15	.5324	101	1000.86	1.00086
303.15	.6848	101	1002.18	1.00218
303.15	.7843	101	1003.01	1.00301
303.15	.9019	101	1003.938	1.003938
308.15	.076	101	994.809	.994809
308.15	.1625	101	995.64	.99564
308.15	.2495	101	996.445	.996445
308.15	.3767	101	997.59	.99759
308.15	.4725	101	998.41	.99841
308.15	.5324	101	998.9	.9989
308.15	.6848	101	1000.125	1.000125
308.15	.7843	101	1000.902	1.000902
308.15	.9019	101	1001.757	1.001757

System: ethyl acetoacetate + water; phases: Liquid
Property: Speed of sound, m/s (Liquid); method: Sing-around technique in a fixed-path interferometer
Temperature, K	Molality, mol/kg of ethyl acetoacetate	Pressure, kPa	Speed of sound, m/s	uncertainty
288.15	.076	101	1472.59	.3
288.15	.1625	101	1479.2	.3
288.15	.2495	101	1485.54	.3
288.15	.3767	101	1494.12	.3
288.15	.4725	101	1500	.3
288.15	.5324	101	1503.4	.3
288.15	.6848	101	1511.63	.3
288.15	.7843	101	1516.32	.3
288.15	.9019	101	1521.37	.3
293.15	.076	101	1487.76	.3
293.15	.1625	101	1493.58	.3
293.15	.2495	101	1499.15	.3
293.15	.3767	101	1506.65	.3
293.15	.4725	101	1511.74	.3
293.15	.5324	101	1514.66	.3
293.15	.6848	101	1521.71	.3
293.15	.7843	101	1525.67	.3
293.15	.9019	101	1529.91	.3
298.15	.076	101	1501.29	.3
298.15	.1625	101	1506.37	.3
298.15	.2495	101	1511.2	.3
298.15	.3767	101	1517.68	.3
298.15	.4725	101	1522.02	.3
298.15	.5324	101	1524.52	.3
298.15	.6848	101	1530.45	.3
298.15	.7843	101	1533.73	.3
298.15	.9019	101	1537.18	.3
303.15	.076	101	1513.05	.3
303.15	.1625	101	1517.44	.3
303.15	.2495	101	1521.6	.3
303.15	.3767	101	1527.12	.3
303.15	.4725	101	1530.79	.3
303.15	.5324	101	1532.87	.3
303.15	.6848	101	1537.76	.3
303.15	.7843	101	1540.41	.3
303.15	.9019	101	1543.14	.3
308.15	.076	101	1523.12	.3
308.15	.1625	101	1526.88	.3
308.15	.2495	101	1530.41	.3
308.15	.3767	101	1535.04	.3
308.15	.4725	101	1538.08	.3
308.15	.5324	101	1539.78	.3
308.15	.6848	101	1543.71	.3
308.15	.7843	101	1545.77	.3
308.15	.9019	101	1547.81	.3
