Measured thermophysical data. Densities, Viscosities, and Speeds of Sound of Binary Mixtures of Heptan-1-ol with 1,4-Dioxane at Temperatures from (298.15 to 323.15) K and Atmospheric Pressure
Source: J. Chem. Eng. Data, 2013, 10.1021/je400512u
Compound 1: 1-heptanol, C7H16O, purity 99%
Compound 2: 1,4-dioxane, C4H8O2, purity 99%

System: 1-heptanol; phases: Liquid
Property: Mass density, kg/m3 (Liquid); method: Vibrating tube method
Temperature, K	Pressure, kPa	Mass density, kg/m3	uncertainty
298.15	101	819.73	.029
303.15	101	816.183	.029
308.15	101	812.61	.029
313.15	101	809.011	.029
318.15	101	805.383	.029
323.15	101	801.731	.029

System: 1-heptanol; phases: Liquid
Property: Speed of sound, m/s (Liquid); method: Pulse-echo method
Temperature, K	Pressure, kPa	Speed of sound, m/s	uncertainty
298.15	101	1328.3	.13
303.15	101	1311.3	.13
308.15	101	1294.5	.13
313.15	101	1277.7	.13
318.15	101	1261.1	.13
323.15	101	1245.1	.13

System: 1-heptanol; phases: Liquid
Property: Viscosity, Pa*s (Liquid); method: Concentric cylinders viscometry
Temperature, K	Pressure, kPa	Viscosity, Pa*s	uncertainty
298.15	101	.005869	.000099773
303.15	101	.004989	.000084813
308.15	101	.00427	.00007259
313.15	101	.003677	.000062509
318.15	101	.003186	.000054162
323.15	101	.002777	.000047209

System: 1,4-dioxane; phases: Liquid
Property: Mass density, kg/m3 (Liquid); method: Vibrating tube method
Temperature, K	Pressure, kPa	Mass density, kg/m3	uncertainty
298.15	101	1027.994	.029
303.15	101	1022.334	.029
308.15	101	1016.663	.029
313.15	101	1010.979	.029
318.15	101	1005.279	.029
323.15	101	999.58	.029

System: 1,4-dioxane; phases: Liquid
Property: Speed of sound, m/s (Liquid); method: Pulse-echo method
Temperature, K	Pressure, kPa	Speed of sound, m/s	uncertainty
298.15	101	1345.1	.13
303.15	101	1323.1	.13
308.15	101	1301.3	.13
313.15	101	1279.7	.13
318.15	101	1258.2	.13
323.15	101	1237.4	.13

System: 1,4-dioxane; phases: Liquid
Property: Viscosity, Pa*s (Liquid); method: Concentric cylinders viscometry
Temperature, K	Pressure, kPa	Viscosity, Pa*s	uncertainty
298.15	101	.001212	.000020604
303.15	101	.001115	.000018955
308.15	101	.001028	.000017476
313.15	101	.000952	.000016184
318.15	101	.000883	.000015011
323.15	101	.000822	.000013974

System: 1-heptanol + 1,4-dioxane; phases: Liquid
Fixed: Pressure, kPa = 101
Property: Mass density, kg/m3 (Liquid); method: Vibrating tube method
Temperature, K	Mole fraction of 1-heptanol	Mass density, kg/m3	uncertainty
298.15	0	1027.994	.029
298.15	.0505	1008.572	.029
298.15	.1	991.286	.029
298.15	.1501	975.785	.029
298.15	.2	961.05	.029
298.15	.25	947.06	.029
298.15	.2997	934.312	.029
298.15	.3502	922.561	.029
298.15	.4001	911.608	.029
298.15	.4498	901.275	.029
298.15	.4998	891.612	.029
298.15	.55	882.643	.029
298.15	.6004	874.251	.029
298.15	.6501	866.177	.029
298.15	.7002	858.585	.029
298.15	.7493	851.217	.029
298.15	.7999	844.345	.029
298.15	.85	837.74	.029
298.15	.8998	831.478	.029
298.15	.9498	825.31	.029
298.15	1	819.73	.029
303.15	0	1022.334	.029
303.15	.0505	1003.115	.029
303.15	.1	985.996	.029
303.15	.1501	970.647	.029
303.15	.2	956.055	.029
303.15	.25	942.208	.029
303.15	.2997	929.584	.029
303.15	.3502	917.951	.029
303.15	.4001	907.108	.029
303.15	.4498	896.876	.029
303.15	.4998	887.314	.029
303.15	.55	878.474	.029
303.15	.6004	870.13	.029
303.15	.6501	862.139	.029
303.15	.7002	854.631	.029
303.15	.7493	847.338	.029
303.15	.7999	840.45	.029
303.15	.85	834.009	.029
303.15	.8998	827.706	.029
303.15	.9498	821.704	.029
303.15	1	816.183	.029
308.15	0	1016.663	.029
308.15	.0505	997.647	.029
308.15	.1	980.695	.029
308.15	.1501	965.496	.029
308.15	.2	951.048	.029
308.15	.25	937.338	.029
308.15	.2997	924.84	.029
308.15	.3502	913.324	.029
308.15	.4001	902.591	.029
308.15	.4498	892.463	.029
308.15	.4998	882.999	.029
308.15	.55	874.248	.029
308.15	.6004	865.991	.029
308.15	.6501	858.083	.029
308.15	.7002	850.647	.029
308.15	.7493	843.436	.029
308.15	.7999	836.632	.029
308.15	.85	830.254	.029
308.15	.8998	824.01	.029
308.15	.9498	818.076	.029
308.15	1	812.61	.029
313.15	0	1010.979	.029
313.15	.0505	992.162	.029
313.15	.1	975.379	.029
313.15	.1501	960.33	.029
313.15	.2	946.025	.029
313.15	.25	932.425	.029
313.15	.2997	920.079	.029
313.15	.3502	908.677	.029
313.15	.4001	898.054	.029
313.15	.4498	888.028	.029
313.15	.4998	878.663	.029
313.15	.55	870.001	.029
313.15	.6004	861.838	.029
313.15	.6501	854.006	.029
313.15	.7002	846.648	.029
313.15	.7493	839.512	.029
313.15	.7999	832.79	.029
313.15	.85	826.48	.029
313.15	.8998	820.289	.029
313.15	.9498	814.421	.029
313.15	1	809.011	.029
318.15	0	1005.279	.029
318.15	.0505	986.663	.029
318.15	.1	970.046	.029
318.15	.1501	955.144	.029
318.15	.2	940.982	.029
318.15	.25	927.545	.029
318.15	.2997	915.295	.029
318.15	.3502	904.009	.029
318.15	.4001	893.497	.029
318.15	.4498	883.572	.029
318.15	.4998	874.304	.029
318.15	.55	865.728	.029
318.15	.6004	857.642	.029
318.15	.6501	849.902	.029
318.15	.7002	842.622	.029
318.15	.7493	835.561	.029
318.15	.7999	828.821	.029
318.15	.85	822.668	.029
318.15	.8998	816.551	.029
318.15	.9498	810.743	.029
318.15	1	805.383	.029
323.15	0	999.58	.029
323.15	.0505	981.158	.029
323.15	.1	964.707	.029
323.15	.1501	949.953	.029
323.15	.2	935.93	.029
323.15	.25	922.628	.029
323.15	.2997	910.503	.029
323.15	.3502	899.329	.029
323.15	.4001	888.925	.029
323.15	.4498	879.103	.029
323.15	.4998	869.929	.029
323.15	.55	861.446	.029
323.15	.6004	853.441	.029
323.15	.6501	845.785	.029
323.15	.7002	838.579	.029
323.15	.7493	831.593	.029
323.15	.7999	824.83	.029
323.15	.85	818.738	.029
323.15	.8998	812.671	.029
323.15	.9498	807.031	.029
323.15	1	801.731	.029

System: 1-heptanol + 1,4-dioxane; phases: Liquid
Fixed: Pressure, kPa = 101
Property: Speed of sound, m/s (Liquid); method: Pulse-echo method
Temperature, K	Mole fraction of 1-heptanol	Speed of sound, m/s	uncertainty
298.15	0	1345.1	.13
298.15	.0505	1339.3	.13
298.15	.1	1333.2	.13
298.15	.1501	1328.6	.13
298.15	.2	1324.7	.13
298.15	.25	1321.5	.13
298.15	.2997	1319	.13
298.15	.3502	1317.4	.13
298.15	.4001	1316	.13
298.15	.4498	1315.2	.13
298.15	.4998	1314.9	.13
298.15	.55	1314.8	.13
298.15	.6004	1315.2	.13
298.15	.6501	1316	.13
298.15	.7002	1316.9	.13
298.15	.7493	1318.2	.13
298.15	.7999	1318.9	.13
298.15	.85	1321.5	.13
298.15	.8998	1323.2	.13
298.15	.9498	1325.4	.13
298.15	1	1328.3	.13
303.15	0	1323.1	.13
303.15	.0505	1317.9	.13
303.15	.1	1312.3	.13
303.15	.1501	1308.1	.13
303.15	.2	1304.6	.13
303.15	.25	1301.8	.13
303.15	.2997	1299.7	.13
303.15	.3502	1298.4	.13
303.15	.4001	1297.2	.13
303.15	.4498	1296.6	.13
303.15	.4998	1296.6	.13
303.15	.55	1296.7	.13
303.15	.6004	1297.3	.13
303.15	.6501	1298.3	.13
303.15	.7002	1299.3	.13
303.15	.7493	1300.7	.13
303.15	.7999	1301.7	.13
303.15	.85	1304.3	.13
303.15	.8998	1306.1	.13
303.15	.9498	1308.3	.13
303.15	1	1311.3	.13
308.15	0	1301.3	.13
308.15	.0505	1296.7	.13
308.15	.1	1291.6	.13
308.15	.1501	1287.8	.13
308.15	.2	1284.7	.13
308.15	.25	1282.2	.13
308.15	.2997	1280.4	.13
308.15	.3502	1279.4	.13
308.15	.4001	1278.5	.13
308.15	.4498	1278.2	.13
308.15	.4998	1278.4	.13
308.15	.55	1278.6	.13
308.15	.6004	1279.4	.13
308.15	.6501	1280.5	.13
308.15	.7002	1281.7	.13
308.15	.7493	1283.3	.13
308.15	.7999	1284.4	.13
308.15	.85	1287.2	.13
308.15	.8998	1289	.13
308.15	.9498	1291.4	.13
308.15	1	1294.5	.13
313.15	0	1279.7	.13
313.15	.0505	1275.6	.13
313.15	.1	1270.9	.13
313.15	.1501	1267.6	.13
313.15	.2	1264.9	.13
313.15	.25	1262.8	.13
313.15	.2997	1261.3	.13
313.15	.3502	1260.6	.13
313.15	.4001	1260	.13
313.15	.4498	1259.9	.13
313.15	.4998	1260.3	.13
313.15	.55	1260.7	.13
313.15	.6004	1262.1	.13
313.15	.6501	1262.9	.13
313.15	.7002	1264.3	.13
313.15	.7493	1266	.13
313.15	.7999	1267.4	.13
313.15	.85	1270.6	.13
313.15	.8998	1272.2	.13
313.15	.9498	1274.6	.13
313.15	1	1277.7	.13
318.15	0	1258.2	.13
318.15	.0505	1254.7	.13
318.15	.1	1250.5	.13
318.15	.1501	1247.5	.13
318.15	.2	1245.2	.13
318.15	.25	1243.5	.13
318.15	.2997	1242.4	.13
318.15	.3502	1242	.13
318.15	.4001	1241.6	.13
318.15	.4498	1241.7	.13
318.15	.4998	1242.3	.13
318.15	.55	1243	.13
318.15	.6004	1244.1	.13
318.15	.6501	1245.5	.13
318.15	.7002	1247	.13
318.15	.7493	1248.9	.13
318.15	.7999	1250.6	.13
318.15	.85	1253.3	.13
318.15	.8998	1255.8	.13
318.15	.9498	1258.4	.13
318.15	1	1261.1	.13
323.15	0	1237.4	.13
323.15	.0505	1233.5	.13
323.15	.1	1230.6	.13
323.15	.1501	1228.1	.13
323.15	.2	1226.2	.13
323.15	.25	1224.8	.13
323.15	.2997	1224	.13
323.15	.3502	1223.9	.13
323.15	.4001	1223.7	.13
323.15	.4498	1224.1	.13
323.15	.4998	1224.9	.13
323.15	.55	1225.7	.13
323.15	.6004	1227	.13
323.15	.6501	1228.6	.13
323.15	.7002	1230.3	.13
323.15	.7493	1232.4	.13
323.15	.7999	1234.3	.13
323.15	.85	1236.9	.13
323.15	.8998	1239.1	.13
323.15	.9498	1241.8	.13
323.15	1	1245.1	.13

System: 1-heptanol + 1,4-dioxane; phases: Liquid
Fixed: Pressure, kPa = 101
Property: Viscosity, Pa*s (Liquid); method: Concentric cylinders viscometry
Temperature, K	Mole fraction of 1-heptanol	Viscosity, Pa*s	uncertainty
298.15	0	.001212	.000020604
298.15	.0505	.001217	.000020689
298.15	.1	.001247	.000021199
298.15	.1501	.001296	.000022032
298.15	.2	.001344	.000022848
298.15	.25	.001415	.000024055
298.15	.2997	.0015	.0000255
298.15	.3502	.001605	.000027285
298.15	.4001	.001713	.000029121
298.15	.4498	.001834	.000031178
298.15	.4998	.002	.000034
298.15	.55	.002169	.000036873
298.15	.6004	.002365	.000040205
298.15	.6501	.002593	.000044081
298.15	.7002	.002861	.000048637
298.15	.7493	.003154	.000053618
298.15	.7999	.003524	.000059908
298.15	.85	.003943	.000067031
298.15	.8998	.004464	.000075888
298.15	.9498	.005075	.000086275
298.15	1	.005869	.000099773
303.15	0	.001115	.000018955
303.15	.0505	.00112	.00001904
303.15	.1	.001145	.000019465
303.15	.1501	.001188	.000020196
303.15	.2	.001229	.000020893
303.15	.25	.001291	.000021947
303.15	.2997	.001365	.000023205
303.15	.3502	.001455	.000024735
303.15	.4001	.001547	.000026299
303.15	.4498	.001653	.000028101
303.15	.4998	.001794	.000030498
303.15	.55	.001937	.000032929
303.15	.6004	.002104	.000035768
303.15	.6501	.002296	.000039032
303.15	.7002	.002521	.000042857
303.15	.7493	.002766	.000047022
303.15	.7999	.003073	.000052241
303.15	.85	.003419	.000058123
303.15	.8998	.003847	.000065399
303.15	.9498	.004346	.000073882
303.15	1	.004989	.000084813
308.15	0	.001028	.000017476
308.15	.0505	.001034	.000017578
308.15	.1	.001055	.000017935
308.15	.1501	.001093	.000018581
308.15	.2	.001129	.000019193
308.15	.25	.001183	.000020111
308.15	.2997	.001247	.000021199
308.15	.3502	.001324	.000022508
308.15	.4001	.001403	.000023851
308.15	.4498	.001497	.000025449
308.15	.4998	.001617	.000027489
308.15	.55	.001739	.000029563
308.15	.6004	.001881	.000031977
308.15	.6501	.002044	.000034748
308.15	.7002	.002234	.000037978
308.15	.7493	.00244	.00004148
308.15	.7999	.002696	.000045832
308.15	.85	.002985	.000050745
308.15	.8998	.003338	.000056746
308.15	.9498	.003747	.000063699
308.15	1	.00427	.00007259
313.15	0	.000952	.000016184
313.15	.0505	.000957	.000016269
313.15	.1	.000976	.000016592
313.15	.1501	.001009	.000017153
313.15	.2	.001041	.000017697
313.15	.25	.001088	.000018496
313.15	.2997	.001143	.000019431
313.15	.3502	.001209	.000020553
313.15	.4001	.001278	.000021726
313.15	.4498	.001361	.000023137
313.15	.4998	.001463	.000024871
313.15	.55	.001568	.000026656
313.15	.6004	.001691	.000028747
313.15	.6501	.00183	.00003111
313.15	.7002	.001991	.000033847
313.15	.7493	.002165	.000036805
313.15	.7999	.00238	.00004046
313.15	.85	.00262	.00004454
313.15	.8998	.002913	.000049521
313.15	.9498	.00325	.00005525
313.15	1	.003677	.000062509
318.15	0	.000883	.000015011
318.15	.0505	.000888	.000015096
318.15	.1	.000905	.000015385
318.15	.1501	.000934	.000015878
318.15	.2	.000964	.000016388
318.15	.25	.001003	.000017051
318.15	.2997	.001052	.000017884
318.15	.3502	.001109	.000018853
318.15	.4001	.001168	.000019856
318.15	.4498	.001241	.000021097
318.15	.4998	.00133	.00002261
318.15	.55	.001419	.000024123
318.15	.6004	.001526	.000025942
318.15	.6501	.001645	.000027965
318.15	.7002	.001783	.000030311
318.15	.7493	.00193	.00003281
318.15	.7999	.002114	.000035938
318.15	.85	.002313	.000039321
318.15	.8998	.002557	.000043469
318.15	.9498	.002835	.000048195
318.15	1	.003186	.000054162
323.15	0	.000822	.000013974
323.15	.0505	.000827	.000014059
323.15	.1	.000842	.000014314
323.15	.1501	.000867	.000014739
323.15	.2	.000893	.000015181
323.15	.25	.000928	.000015776
323.15	.2997	.000971	.000016507
323.15	.3502	.001021	.000017357
323.15	.4001	.001073	.000018241
323.15	.4498	.001136	.000019312
323.15	.4998	.001213	.000020621
323.15	.55	.00129	.00002193
323.15	.6004	.001383	.000023511
323.15	.6501	.001486	.000025262
323.15	.7002	.001604	.000027268
323.15	.7493	.00173	.00002941
323.15	.7999	.001883	.000032011
323.15	.85	.002053	.000034901
323.15	.8998	.002258	.000038386
323.15	.9498	.002489	.000042313
323.15	1	.002777	.000047209
