Measured thermophysical data. Solubility, Density, Refractive Index, Viscosity, and Electrical Conductivity of Boric Acid + Lithium Sulfate + Water System at (293.15, 298.15, 303.15, 308.15 and 313.15) K
Source: J. Chem. Eng. Data, 2013, 10.1021/je400086a
Compound 1: boric acid, BH3O3, purity 99.5%
Compound 2: lithium sulfate, Li2O4S, purity 99%
Compound 3: water, H2O

System: water + boric acid + lithium sulfate; phases: Liquid, Crystal
Fixed: Pressure, kPa = 101
Property: Mole fraction of boric acid (Liquid); method: Titration method
Temperature, K	Mole fraction of lithium sulfate	Mole fraction of boric acid	uncertainty
293.15	0	.0141	.0001
293.15	.0017	.0144	.0001
293.15	.0052	.0142	.0001
293.15	.0088	.014	.0001
293.15	.0125	.0136	.0001
293.15	.0186	.0131	.0001
293.15	.0294	.0119	.0001
293.15	.0366	.011	.0001
293.15	.0415	.0103	.0001
298.15	0	.0167	.0001
298.15	.0017	.0165	.0001
298.15	.0053	.0163	.0001
298.15	.009	.016	.0001
298.15	.0125	.0156	.0001
298.15	.0186	.0151	.0001
298.15	.0292	.0137	.0001
298.15	.0366	.0127	.0001
298.15	.0411	.0121	.0001
303.15	0	.0195	.0001
303.15	.0017	.0192	.0001
303.15	.0053	.0189	.0001
303.15	.0089	.0185	.0001
303.15	.0126	.018	.0001
303.15	.0191	.0174	.0001
303.15	.0304	.0159	.0001
303.15	.0367	.0145	.0001
303.15	.0411	.0138	.0001
308.15	0	.0234	.0001
308.15	.0018	.0219	.0001
308.15	.0052	.0214	.0001
308.15	.0089	.0213	.0001
308.15	.0127	.0211	.0001
308.15	.0186	.0192	.0001
308.15	.0306	.0184	.0001
308.15	.0381	.017	.0001
308.15	.0422	.0157	.0001
313.15	0	.0249	.0001
313.15	.0017	.0246	.0001
313.15	.0053	.0246	.0001
313.15	.0089	.0238	.0001
313.15	.0127	.0231	.0001
313.15	.0182	.0225	.0001
313.15	.0292	.0206	.0001
313.15	.0361	.0191	.0001
313.15	.0419	.0182	.0001

System: water + boric acid + lithium sulfate; phases: Liquid, Crystal
Fixed: Pressure, kPa = 101
Property: Mass density, kg/m3 (Liquid); method: Vibrating tube method
Temperature, K	Mole fraction of lithium sulfate	Mass density, kg/m3	uncertainty
293.15	0	1015.5	.3
293.15	.0017	1023.9	.3
293.15	.0052	1041	.3
293.15	.0088	1058.2	.3
293.15	.0125	1075.3	.3
293.15	.0186	1100.8	.3
293.15	.0294	1145	.3
293.15	.0366	1172.7	.3
293.15	.0415	1190.1	.3
298.15	0	1016.5	.3
298.15	.0017	1024.9	.3
298.15	.0053	1041.5	.3
298.15	.009	1058.7	.3
298.15	.0125	1075.4	.3
298.15	.0186	1101.4	.3
298.15	.0292	1145.1	.3
298.15	.0366	1172.1	.3
298.15	.0411	1187.9	.3
303.15	0	1017.5	.3
303.15	.0017	1026	.3
303.15	.0053	1043.3	.3
303.15	.0089	1059.4	.3
303.15	.0126	1077.1	.3
303.15	.0191	1103.4	.3
303.15	.0304	1146.6	.3
303.15	.0367	1175.6	.3
303.15	.0411	1193.7	.3
308.15	0	1018.8	.3
308.15	.0018	1027	.3
308.15	.0052	1044.4	.3
308.15	.0089	1061.2	.3
308.15	.0127	1078.4	.3
308.15	.0186	1104.4	.3
308.15	.0306	1148.7	.3
308.15	.0381	1179.2	.3
308.15	.0422	1194.5	.3
313.15	0	1019.5	.3
313.15	.0017	1028	.3
313.15	.0053	1045	.3
313.15	.0089	1061.7	.3
313.15	.0127	1079	.3
313.15	.0182	1104.5	.3
313.15	.0292	1149.8	.3
313.15	.0361	1176.7	.3
313.15	.0419	1195.8	.3

System: water + boric acid + lithium sulfate; phases: Liquid, Crystal, Crystal
Fixed: Pressure, kPa = 101
Property: Mass density, kg/m3 (Liquid); method: Vibrating tube method
Temperature, K	Mass density, kg/m3	uncertainty
293.15	1230.7	.3
298.15	1229.8	.3
303.15	1230.1	.3
308.15	1227	.3
313.15	1224.7	.3

System: water + boric acid + lithium sulfate; phases: Liquid, Crystal
Fixed: Pressure, kPa = 101
Property: Refractive index (Na D-line) (Liquid); method: Standard Abbe refractometry
Temperature, K	Mole fraction of lithium sulfate	Refractive index (Na D-line)	uncertainty
293.15	0	1.3363	.0004
293.15	.0017	1.3379	.0004
293.15	.0052	1.3413	.0004
293.15	.0088	1.3447	.0004
293.15	.0125	1.3479	.0004
293.15	.0186	1.3527	.0004
293.15	.0294	1.3608	.0004
293.15	.0366	1.3658	.0004
293.15	.0415	1.3688	.0004
298.15	0	1.336	.0004
298.15	.0017	1.3377	.0004
298.15	.0053	1.341	.0004
298.15	.009	1.3443	.0004
298.15	.0125	1.3475	.0004
298.15	.0186	1.3524	.0004
298.15	.0292	1.3604	.0004
298.15	.0366	1.3653	.0004
298.15	.0411	1.368	.0004
303.15	0	1.3359	.0004
303.15	.0017	1.3376	.0004
303.15	.0053	1.341	.0004
303.15	.0089	1.3442	.0004
303.15	.0126	1.3476	.0004
303.15	.0191	1.3519	.0004
303.15	.0304	1.3599	.0004
303.15	.0367	1.3654	.0004
303.15	.0411	1.3687	.0004
308.15	0	1.3358	.0004
308.15	.0018	1.3375	.0004
308.15	.0052	1.3407	.0004
308.15	.0089	1.344	.0004
308.15	.0127	1.3472	.0004
308.15	.0186	1.3522	.0004
308.15	.0306	1.3604	.0004
308.15	.0381	1.3652	.0004
308.15	.0422	1.3683	.0004
313.15	0	1.3354	.0004
313.15	.0017	1.3371	.0004
313.15	.0053	1.3406	.0004
313.15	.0089	1.3438	.0004
313.15	.0127	1.3472	.0004
313.15	.0182	1.3519	.0004
313.15	.0292	1.3602	.0004
313.15	.0361	1.3651	.0004
313.15	.0419	1.3684	.0004

System: water + boric acid + lithium sulfate; phases: Liquid, Crystal, Crystal
Fixed: Pressure, kPa = 101
Property: Refractive index (Na D-line) (Liquid); method: Standard Abbe refractometry
Temperature, K	Refractive index (Na D-line)	uncertainty
293.15	1.3757	.0004
298.15	1.3753	.0004
303.15	1.3749	.0004
308.15	1.3739	.0004
313.15	1.3733	.0004

System: water + boric acid + lithium sulfate; phases: Liquid, Crystal
Fixed: Pressure, kPa = 101
Property: Viscosity, Pa*s (Liquid); method: Capillary tube (Ostwald; Ubbelohde) method
Temperature, K	Mole fraction of lithium sulfate	Viscosity, Pa*s	uncertainty
293.15	0	.0010994	.0000148
293.15	.0017	.001142	.0000148
293.15	.0052	.0012885	.0000148
293.15	.0088	.0014436	.0000148
293.15	.0125	.0015926	.0000148
293.15	.0186	.0018908	.0000148
293.15	.0294	.0026302	.0000148
293.15	.0366	.0032163	.0000148
293.15	.0415	.0037714	.0000148
298.15	0	.0009765	.0000148
298.15	.0017	.0010377	.0000148
298.15	.0053	.0011327	.0000148
298.15	.009	.0012685	.0000148
298.15	.0125	.0014313	.0000148
298.15	.0186	.0016646	.0000148
298.15	.0292	.0023062	.0000148
298.15	.0366	.0028493	.0000148
298.15	.0411	.0032626	.0000148
303.15	0	.0008886	.0000148
303.15	.0017	.0009445	.0000148
303.15	.0053	.0010316	.0000148
303.15	.0089	.001159	.0000148
303.15	.0126	.0013191	.0000148
303.15	.0191	.0015355	.0000148
303.15	.0304	.0021415	.0000148
303.15	.0367	.0026806	.0000148
303.15	.0411	.0030636	.0000148
308.15	0	.0008048	.0000148
308.15	.0018	.0008518	.0000148
308.15	.0052	.0009573	.0000148
308.15	.0089	.0010627	.0000148
308.15	.0127	.0011913	.0000148
308.15	.0186	.0013862	.0000148
308.15	.0306	.0019321	.0000148
308.15	.0381	.0023449	.0000148
308.15	.0422	.0026724	.0000148
313.15	0	.0007524	.0000148
313.15	.0017	.0007996	.0000148
313.15	.0053	.0008974	.0000148
313.15	.0089	.0009814	.0000148
313.15	.0127	.00111	.0000148
313.15	.0182	.001296	.0000148
313.15	.0292	.0017884	.0000148
313.15	.0361	.0021853	.0000148
313.15	.0419	.0025527	.0000148

System: water + boric acid + lithium sulfate; phases: Liquid, Crystal, Crystal
Fixed: Pressure, kPa = 101
Property: Viscosity, Pa*s (Liquid); method: Capillary tube (Ostwald; Ubbelohde) method
Temperature, K	Viscosity, Pa*s	uncertainty
293.15	.0054207	.0000148
298.15	.0047047	.0000148
303.15	.0041852	.0000148
308.15	.0036191	.0000148
313.15	.0032413	.0000148

System: water + boric acid + lithium sulfate; phases: Liquid, Crystal
Fixed: Pressure, kPa = 101
Property: Electrical conductivity, S/m (Liquid); method: conductivimeter
Temperature, K	Mole fraction of lithium sulfate	Electrical conductivity, S/m	uncertainty
293.15	0	.01	.227
293.15	.0017	1.07	.227
293.15	.0052	2.63	.227
293.15	.0088	3.84	.227
293.15	.0125	4.78	.227
293.15	.0186	5.83	.227
293.15	.0294	6.81	.227
293.15	.0366	6.96	.227
293.15	.0415	6.92	.227
298.15	0	.01	.227
298.15	.0017	1.19	.227
298.15	.0053	2.88	.227
298.15	.009	4.21	.227
298.15	.0125	5.24	.227
298.15	.0186	6.42	.227
298.15	.0292	7.49	.227
298.15	.0366	7.71	.227
298.15	.0411	7.7	.227
303.15	0	.01	.227
303.15	.0017	1.18	.227
303.15	.0053	2.85	.227
303.15	.0089	4.12	.227
303.15	.0126	5.17	.227
303.15	.0191	7.07	.227
303.15	.0304	8.22	.227
303.15	.0367	8.46	.227
303.15	.0411	8.38	.227
308.15	0	.03	.227
308.15	.0018	1.41	.227
308.15	.0052	3.44	.227
308.15	.0089	5.01	.227
308.15	.0127	6.28	.227
308.15	.0186	7.68	.227
308.15	.0306	9.01	.227
308.15	.0381	9.27	.227
308.15	.0422	9.24	.227
313.15	0	.02	.227
313.15	.0017	1.54	.227
313.15	.0053	3.71	.227
313.15	.0089	5.41	.227
313.15	.0127	6.77	.227
313.15	.0182	8.22	.227
313.15	.0292	9.71	.227
313.15	.0361	10.01	.227
313.15	.0419	10.01	.227

System: water + boric acid + lithium sulfate; phases: Liquid, Crystal, Crystal
Fixed: Pressure, kPa = 101
Property: Electrical conductivity, S/m (Liquid); method: conductivimeter
Temperature, K	Electrical conductivity, S/m	uncertainty
293.15	6.48	.227
298.15	7.28	.227
303.15	8	.227
308.15	8.95	.227
313.15	9.74	.227

System: water + boric acid + lithium sulfate; phases: Liquid, Crystal, Crystal
Fixed: Pressure, kPa = 101
Property: Mole fraction of boric acid (Liquid); method: Titration method
Temperature, K	Mole fraction of boric acid	uncertainty
293.15	.0091	.0001
298.15	.0105	.0001
303.15	.0123	.0001
308.15	.0144	.0001
313.15	.0166	.0001
