Measured thermophysical data. Phase Equilibria of the Systems CO2 + Styrene, CO2 + Safrole, and CO2 + Styrene + Safrole
Source: J. Chem. Eng. Data, 2013, 10.1021/je400110c
Compound 1: phenylethene, C8H8, purity 99%
Compound 2: carbon dioxide, CO2, purity 99%
Compound 3: 3,4-methylenedioxy-allylbenzene, C10H10O2

System: phenylethene + carbon dioxide; phases: Liquid, Gas
Property: Vapor or sublimation pressure, kPa (Liquid); method: Closed cell (Static) method
Temperature, K	Mole fraction of carbon dioxide	Vapor or sublimation pressure, kPa	uncertainty
333	.937	10600	30
333	.952	10640	20
343	.937	12190	20
343	.952	12170	60
323	.952	9260	10

System: phenylethene + carbon dioxide; phases: Gas, Liquid
Property: Vapor or sublimation pressure, kPa (Gas); method: Closed cell (Static) method
Temperature, K	Mole fraction of carbon dioxide	Vapor or sublimation pressure, kPa	uncertainty
303	.614	5470	70
303	.708	5490	40
303	.784	5630	70
303	.877	5940	20
303	.937	6180	20
303	.952	6440	10
313	.614	6480	10
313	.708	6820	10
313	.784	6940	30
313	.877	7310	10
313	.937	7490	20
313	.952	7770	20
323	.614	7580	10
323	.708	8050	40
323	.784	8290	20
323	.877	8790	10
323	.937	9060	50
333	.614	8720	20
333	.708	9360	30
333	.784	9820	40
333	.877	10310	40
343	.614	9900	30
343	.708	10820	10
343	.784	11440	50
343	.877	12130	70

System: 3,4-methylenedioxy-allylbenzene + carbon dioxide; phases: Gas, Liquid
Property: Vapor or sublimation pressure, kPa (Gas); method: Closed cell (Static) method
Temperature, K	Mole fraction of carbon dioxide	Vapor or sublimation pressure, kPa	uncertainty
323	.936	10960	30
323	.97	10380	30
333	.936	13400	20
333	.97	12320	20
343	.936	15810	40
343	.97	14610	40

System: 3,4-methylenedioxy-allylbenzene + carbon dioxide; phases: Liquid, Gas
Property: Vapor or sublimation pressure, kPa (Liquid); method: Closed cell (Static) method
Temperature, K	Mole fraction of carbon dioxide	Vapor or sublimation pressure, kPa	uncertainty
303	.492	5060	40
303	.62	6060	10
303	.717	6370	20
303	.808	6560	20
303	.864	6690	20
303	.899	6720	50
303	.936	6610	10
303	.97	6690	150
313	.492	5710	40
313	.62	7270	20
313	.717	7880	10
313	.808	8180	10
313	.864	8430	50
313	.899	8370	20
313	.936	8400	10
313	.97	8260	130
323	.492	6690	30
323	.62	8520	20
323	.717	9510	20
323	.808	10260	50
323	.864	10790	20
323	.899	10930	30
333	.492	7560	40
333	.62	9870	10
333	.717	11300	70
333	.808	12580	30
333	.864	13310	20
333	.899	13370	20
343	.492	8490	30
343	.62	11310	10
343	.717	13200	60
343	.808	14930	10
343	.864	15750	10
343	.899	15830	10

System: 3,4-methylenedioxy-allylbenzene + phenylethene + carbon dioxide; phases: Liquid, Gas
Property: Vapor or sublimation pressure, kPa (Liquid); method: Closed cell (Static) method
Temperature, K	Mole fraction of carbon dioxide	Mole fraction of phenylethene	Vapor or sublimation pressure, kPa	uncertainty
303	.71	.27	5930	10
303	.82	.168	5950	20
303	.908	.086	6130	60
303	.961	.037	6400	30
313	.71	.27	7120	20
313	.82	.168	7250	10
313	.908	.086	7500	30
313	.961	.037	7790	20
323	.71	.27	8390	20
323	.82	.168	8730	30
323	.908	.086	9080	30
323	.961	.037	9230	20
333	.71	.27	9810	30
333	.82	.168	10290	50
333	.908	.086	10740	20
343	.71	.27	11280	10
343	.82	.168	12020	40
343	.908	.086	12430	50
303	.719	.231	5770	20
303	.825	.144	6050	30
303	.91	.074	6170	30
303	.958	.035	6360	40
313	.719	.231	7060	10
313	.825	.144	7480	50
313	.91	.074	7590	10
313	.958	.035	7800	20
323	.719	.231	8450	70
323	.825	.144	9060	10
323	.91	.074	9210	30
323	.958	.035	9380	60
333	.719	.231	9910	10
333	.825	.144	10780	40
333	.91	.074	11190	50
343	.719	.231	11560	20
343	.825	.144	12630	30
343	.91	.074	13110	120

System: 3,4-methylenedioxy-allylbenzene + phenylethene + carbon dioxide; phases: Gas, Liquid
Property: Vapor or sublimation pressure, kPa (Gas); method: Closed cell (Static) method
Temperature, K	Mole fraction of carbon dioxide	Mole fraction of phenylethene	Vapor or sublimation pressure, kPa	uncertainty
333	.961	.037	10780	40
343	.961	.037	12400	60
333	.958	.035	11200	80
343	.958	.035	13100	150
