Measured thermophysical data. Thermodynamic Properties of Ternary Mixtures Containing Ionic Liquid and Organic Liquids: Excess Molar Volume and Excess Isentropic Compressibility
Source: J. Chem. Eng. Data, 2014, 10.1021/je4004965
Compound 1: 1-ethyl-3-methylimidazolium tetrafluoroborate, C6H11BF4N2
Compound 2: 2-methylaniline, C7H9N
Compound 3: pyridine, C5H5N
Compound 4: .alpha.-picoline, C6H7N
Compound 5: .beta.-picoline, C6H7N
Compound 6: .gamma.-picoline, C6H7N

System: 1-ethyl-3-methylimidazolium tetrafluoroborate; phases: Liquid
Fixed: Pressure, kPa = 101.325
Property: Mass density, kg/m3 (Liquid); method: Vibrating tube method
Temperature, K	Mass density, kg/m3	uncertainty
293.15	1283.89	.5
298.15	1279.91	.5
303.15	1276.26	.5
308.15	1272.07	.5

System: 1-ethyl-3-methylimidazolium tetrafluoroborate; phases: Liquid
Fixed: Pressure, kPa = 101.325
Property: Speed of sound, m/s (Liquid); method: Pulse-echo method
Temperature, K	Speed of sound, m/s	uncertainty
293.15	1631.1	.1
298.15	1619.4	.1
303.15	1607.6	.1
308.15	1596.3	.1

System: 1-ethyl-3-methylimidazolium tetrafluoroborate; phases: Liquid
Fixed: Pressure, kPa = 101.325
Property: Molar heat capacity at constant pressure, J/K/mol (Liquid); method: Small sample (50 mg) DSC
Temperature, K	Molar heat capacity at constant pressure, J/K/mol	uncertainty
293.15	303.73	.91119
298.15	305.35	.91605
303.15	306.16	.91848
308.15	308.94	.92682

System: 2-methylaniline; phases: Liquid
Fixed: Pressure, kPa = 101.325
Property: Mass density, kg/m3 (Liquid); method: Vibrating tube method
Temperature, K	Mass density, kg/m3	uncertainty
293.15	998.431	.5
298.15	994.358	.5
303.15	990.23	.5
308.15	986.064	.5

System: 2-methylaniline; phases: Liquid
Fixed: Pressure, kPa = 101.325
Property: Speed of sound, m/s (Liquid); method: Pulse-echo method
Temperature, K	Speed of sound, m/s	uncertainty
293.15	1622.16	.1
298.15	1602.35	.1
303.15	1577.67	.1
308.15	1558.18	.1

System: 2-methylaniline; phases: Liquid
Fixed: Pressure, kPa = 101.325
Property: Molar heat capacity at constant pressure, J/K/mol (Liquid); method: Small sample (50 mg) DSC
Temperature, K	Molar heat capacity at constant pressure, J/K/mol	uncertainty
293.15	215.96	.64788
298.15	217.16	.65148
303.15	218.43	.65529
308.15	219.52	.65856

System: pyridine; phases: Liquid
Fixed: Pressure, kPa = 101.325
Property: Mass density, kg/m3 (Liquid); method: Vibrating tube method
Temperature, K	Mass density, kg/m3	uncertainty
293.15	983.191	.5
298.15	978.249	.5
303.15	973.224	.5
308.15	968.166	.5

System: pyridine; phases: Liquid
Fixed: Pressure, kPa = 101.325
Property: Speed of sound, m/s (Liquid); method: Pulse-echo method
Temperature, K	Speed of sound, m/s	uncertainty
293.15	1442	.1
298.15	1417.8	.1
303.15	1398	.1
308.15	1377.1	.1

System: pyridine; phases: Liquid
Fixed: Pressure, kPa = 101.325
Property: Molar heat capacity at constant pressure, J/K/mol (Liquid); method: Small sample (50 mg) DSC
Temperature, K	Molar heat capacity at constant pressure, J/K/mol	uncertainty
293.15	130.49	.39147
298.15	131.74	.39522
303.15	132.71	.39813
308.15	133.82	.40146

System: .alpha.-picoline; phases: Liquid
Fixed: Pressure, kPa = 101.325
Property: Mass density, kg/m3 (Liquid); method: Vibrating tube method
Temperature, K	Mass density, kg/m3	uncertainty
293.15	944.401	.5
298.15	939.802	.5
303.15	935.117	.5
308.15	930.414	.5

System: .alpha.-picoline; phases: Liquid
Fixed: Pressure, kPa = 101.325
Property: Speed of sound, m/s (Liquid); method: Pulse-echo method
Temperature, K	Speed of sound, m/s	uncertainty
293.15	1400.5	.1
298.15	1380.1	.1
303.15	1361	.1
308.15	1339.9	.1

System: .alpha.-picoline; phases: Liquid
Fixed: Pressure, kPa = 101.325
Property: Molar heat capacity at constant pressure, J/K/mol (Liquid); method: Small sample (50 mg) DSC
Temperature, K	Molar heat capacity at constant pressure, J/K/mol	uncertainty
293.15	157.07	.47121
298.15	158.86	.47658
303.15	160.14	.48042
308.15	160.66	.48198

System: .beta.-picoline; phases: Liquid
Fixed: Pressure, kPa = 101.325
Property: Mass density, kg/m3 (Liquid); method: Vibrating tube method
Temperature, K	Mass density, kg/m3	uncertainty
293.15	956.581	.5
298.15	952.002	.5
303.15	947.449	.5
308.15	942.831	.5

System: .beta.-picoline; phases: Liquid
Fixed: Pressure, kPa = 101.325
Property: Speed of sound, m/s (Liquid); method: Pulse-echo method
Temperature, K	Speed of sound, m/s	uncertainty
293.15	1445.9	.1
298.15	1424	.1
303.15	1404.1	.1
308.15	1384	.1

System: .beta.-picoline; phases: Liquid
Fixed: Pressure, kPa = 101.325
Property: Molar heat capacity at constant pressure, J/K/mol (Liquid); method: Small sample (50 mg) DSC
Temperature, K	Molar heat capacity at constant pressure, J/K/mol	uncertainty
293.15	156.05	.46815
298.15	158.75	.47625
303.15	160.83	.48249
308.15	160.96	.48288

System: .gamma.-picoline; phases: Liquid
Fixed: Pressure, kPa = 101.325
Property: Mass density, kg/m3 (Liquid); method: Vibrating tube method
Temperature, K	Mass density, kg/m3	uncertainty
293.15	955.099	.5
298.15	950.179	.5
303.15	945.413	.5
308.15	940.821	.5

System: .gamma.-picoline; phases: Liquid
Fixed: Pressure, kPa = 101.325
Property: Speed of sound, m/s (Liquid); method: Pulse-echo method
Temperature, K	Speed of sound, m/s	uncertainty
293.15	1451.1	.1
298.15	1431.5	.1
303.15	1410.7	.1
308.15	1389.9	.1

System: .gamma.-picoline; phases: Liquid
Fixed: Pressure, kPa = 101.325
Property: Molar heat capacity at constant pressure, J/K/mol (Liquid); method: Small sample (50 mg) DSC
Temperature, K	Molar heat capacity at constant pressure, J/K/mol	uncertainty
293.15	155.88	.46764
298.15	158.52	.47556
303.15	160.84	.48252
308.15	160.83	.48249

System: 2-methylaniline + pyridine + 1-ethyl-3-methylimidazolium tetrafluoroborate; phases: Liquid
Fixed: Pressure, kPa = 101
Property: Mass density, kg/m3 (Liquid); method: Vibrating tube method
Temperature, K	Mole fraction of 1-ethyl-3-methylimidazolium tetrafluoroborate	Mole fraction of 2-methylaniline	Mass density, kg/m3	uncertainty
293.15	.1595	.7681	1072.41	.5
293.15	.1799	.7347	1080.44	.5
293.15	.1936	.7081	1085.67	.5
293.15	.2026	.6871	1089.08	.5
293.15	.2218	.6542	1096.24	.5
293.15	.2442	.6148	1104.51	.5
293.15	.2603	.5861	1110.46	.5
293.15	.2875	.5481	1120.21	.5
293.15	.3015	.5245	1125.38	.5
293.15	.3269	.4903	1134.39	.5
293.15	.3478	.4658	1141.57	.5
293.15	.3642	.4458	1147.21	.5
293.15	.3891	.4208	1155.34	.5
293.15	.4032	.4067	1159.87	.5
293.15	.4121	.3976	1162.72	.5
293.15	.4329	.3802	1169	.5
293.15	.4453	.3671	1172.9	.5
293.15	.4691	.3495	1179.65	.5
293.15	.4845	.3332	1184.33	.5
293.15	.5027	.3201	1189.25	.5
293.15	.5278	.3014	1195.91	.5
293.15	.5451	.2854	1200.62	.5
293.15	.5774	.2608	1208.71	.5
293.15	.5822	.2554	1210.01	.5
293.15	.5974	.2432	1213.71	.5
293.15	.6214	.2282	1219.08	.5
293.15	.6464	.1932	1225.69	.5
293.15	.6531	.1894	1227.06	.5
293.15	.6894	.1698	1234.21	.5
293.15	.7129	.1645	1238.27	.5
298.15	.1595	.7681	1068.72	.5
298.15	.1799	.7347	1076.59	.5
298.15	.1936	.7081	1081.7	.5
298.15	.2026	.6871	1085.03	.5
298.15	.2218	.6542	1092.07	.5
298.15	.2442	.6148	1100.23	.5
298.15	.2603	.5861	1106.14	.5
298.15	.2875	.5481	1115.85	.5
298.15	.3015	.5245	1121.04	.5
298.15	.3269	.4903	1130.1	.5
298.15	.3478	.4658	1137.32	.5
298.15	.3642	.4458	1143.02	.5
298.15	.3891	.4208	1151.19	.5
298.15	.4032	.4067	1155.77	.5
298.15	.4121	.3976	1158.65	.5
298.15	.4329	.3802	1164.98	.5
298.15	.4453	.3671	1168.93	.5
298.15	.4691	.3495	1175.73	.5
298.15	.4845	.3332	1180.48	.5
298.15	.5027	.3201	1185.45	.5
298.15	.5278	.3014	1192.18	.5
298.15	.5451	.2854	1196.95	.5
298.15	.5774	.2608	1205.14	.5
298.15	.5822	.2554	1206.46	.5
298.15	.5974	.2432	1210.19	.5
298.15	.6214	.2282	1215.62	.5
298.15	.6464	.1932	1222.19	.5
298.15	.6531	.1894	1223.58	.5
298.15	.6894	.1698	1230.81	.5
298.15	.7129	.1645	1234.97	.5
303.15	.1595	.7681	1065.26	.5
303.15	.1799	.7347	1073.11	.5
303.15	.1936	.7081	1078.2	.5
303.15	.2026	.6871	1081.5	.5
303.15	.2218	.6542	1088.51	.5
303.15	.2442	.6148	1096.63	.5
303.15	.2603	.5861	1102.5	.5
303.15	.2875	.5481	1112.18	.5
303.15	.3015	.5245	1117.34	.5
303.15	.3269	.4903	1126.37	.5
303.15	.3478	.4658	1133.58	.5
303.15	.3642	.4458	1139.28	.5
303.15	.3891	.4208	1147.48	.5
303.15	.4032	.4067	1152.08	.5
303.15	.4121	.3976	1154.97	.5
303.15	.4329	.3802	1161.36	.5
303.15	.4453	.3671	1165.33	.5
303.15	.4691	.3495	1172.23	.5
303.15	.4845	.3332	1177.01	.5
303.15	.5027	.3201	1182.06	.5
303.15	.5278	.3014	1188.9	.5
303.15	.5451	.2854	1193.75	.5
303.15	.5774	.2608	1202.09	.5
303.15	.5822	.2554	1203.43	.5
303.15	.5974	.2432	1207.24	.5
303.15	.6214	.2282	1212.79	.5
303.15	.6464	.1932	1219.48	.5
303.15	.6531	.1894	1220.9	.5
303.15	.6894	.1698	1228.28	.5
303.15	.7129	.1645	1232.54	.5
308.15	.1595	.7681	1061.74	.5
308.15	.1799	.7347	1069.54	.5
308.15	.1936	.7081	1074.57	.5
308.15	.2026	.6871	1077.82	.5
308.15	.2218	.6542	1084.75	.5
308.15	.2442	.6148	1092.77	.5
308.15	.2603	.5861	1098.58	.5
308.15	.2875	.5481	1108.18	.5
308.15	.3015	.5245	1113.29	.5
308.15	.3269	.4903	1122.27	.5
308.15	.3478	.4658	1129.46	.5
308.15	.3642	.4458	1135.13	.5
308.15	.3891	.4208	1143.34	.5
308.15	.4032	.4067	1147.94	.5
308.15	.4121	.3976	1150.84	.5
308.15	.4329	.3802	1157.24	.5
308.15	.4453	.3671	1161.23	.5
308.15	.4691	.3495	1168.16	.5
308.15	.4845	.3332	1172.97	.5
308.15	.5027	.3201	1178.05	.5
308.15	.5278	.3014	1184.95	.5
308.15	.5451	.2854	1189.84	.5
308.15	.5774	.2608	1198.27	.5
308.15	.5822	.2554	1199.62	.5
308.15	.5974	.2432	1203.48	.5
308.15	.6214	.2282	1209.09	.5
308.15	.6464	.1932	1215.86	.5
308.15	.6531	.1894	1217.29	.5
308.15	.6894	.1698	1224.76	.5
308.15	.7129	.1645	1229.06	.5

System: 2-methylaniline + pyridine + 1-ethyl-3-methylimidazolium tetrafluoroborate; phases: Liquid
Fixed: Pressure, kPa = 101
Property: Speed of sound, m/s (Liquid); method: Pulse-echo method
Temperature, K	Mole fraction of 1-ethyl-3-methylimidazolium tetrafluoroborate	Mole fraction of 2-methylaniline	Speed of sound, m/s	uncertainty
293.15	.1595	.7681	1669.36	.1
293.15	.1799	.7347	1672.58	.1
293.15	.1936	.7081	1672.7	.1
293.15	.2026	.6871	1670.84	.1
293.15	.2218	.6542	1670.84	.1
293.15	.2442	.6148	1668.19	.1
293.15	.2603	.5861	1664.34	.1
293.15	.2875	.5481	1661.74	.1
293.15	.3015	.5245	1656.35	.1
293.15	.3269	.4903	1650.9	.1
293.15	.3478	.4658	1647.75	.1
293.15	.3642	.4458	1644.02	.1
293.15	.3891	.4208	1641.59	.1
293.15	.4032	.4067	1639.91	.1
293.15	.4121	.3976	1638.59	.1
293.15	.4329	.3802	1638.03	.1
293.15	.4453	.3671	1635.65	.1
293.15	.4691	.3495	1636.06	.1
293.15	.4845	.3332	1632.97	.1
293.15	.5027	.3201	1633.21	.1
293.15	.5278	.3014	1633.01	.1
293.15	.5451	.2854	1631.21	.1
293.15	.5774	.2608	1630.81	.1
293.15	.5822	.2554	1630.11	.1
293.15	.5974	.2432	1629.93	.1
293.15	.6214	.2282	1630.99	.1
293.15	.6464	.1932	1630.21	.1
293.15	.6531	.1894	1630.56	.1
293.15	.6894	.1698	1632.29	.1
293.15	.7129	.1645	1633.34	.1
298.15	.1595	.7681	1645.88	.1
298.15	.1799	.7347	1649.66	.1
298.15	.1936	.7081	1650.27	.1
298.15	.2026	.6871	1648.79	.1
298.15	.2218	.6542	1649.68	.1
298.15	.2442	.6148	1648.22	.1
298.15	.2603	.5861	1645.33	.1
298.15	.2875	.5481	1644.15	.1
298.15	.3015	.5245	1639.6	.1
298.15	.3269	.4903	1635.36	.1
298.15	.3478	.4658	1633.07	.1
298.15	.3642	.4458	1630.01	.1
298.15	.3891	.4208	1628.35	.1
298.15	.4032	.4067	1627.02	.1
298.15	.4121	.3976	1625.92	.1
298.15	.4329	.3802	1625.83	.1
298.15	.4453	.3671	1623.6	.1
298.15	.4691	.3495	1624.38	.1
298.15	.4845	.3332	1621.38	.1
298.15	.5027	.3201	1621.77	.1
298.15	.5278	.3014	1621.64	.1
298.15	.5451	.2854	1619.73	.1
298.15	.5774	.2608	1619.18	.1
298.15	.5822	.2554	1618.38	.1
298.15	.5974	.2432	1617.99	.1
298.15	.6214	.2282	1618.9	.1
298.15	.6464	.1932	1616.79	.1
298.15	.6531	.1894	1617.11	.1
298.15	.6894	.1698	1618.64	.1
298.15	.7129	.1645	1619.99	.1
303.15	.1595	.7681	1626.61	.1
303.15	.1799	.7347	1630.88	.1
303.15	.1936	.7081	1631.85	.1
303.15	.2026	.6871	1630.65	.1
303.15	.2218	.6542	1631.92	.1
303.15	.2442	.6148	1630.88	.1
303.15	.2603	.5861	1628.33	.1
303.15	.2875	.5481	1627.51	.1
303.15	.3015	.5245	1623.23	.1
303.15	.3269	.4903	1619.36	.1
303.15	.3478	.4658	1617.33	.1
303.15	.3642	.4458	1614.48	.1
303.15	.3891	.4208	1613.06	.1
303.15	.4032	.4067	1611.88	.1
303.15	.4121	.3976	1610.87	.1
303.15	.4329	.3802	1610.91	.1
303.15	.4453	.3671	1608.86	.1
303.15	.4691	.3495	1609.75	.1
303.15	.4845	.3332	1606.92	.1
303.15	.5027	.3201	1607.42	.1
303.15	.5278	.3014	1607.46	.1
303.15	.5451	.2854	1605.73	.1
303.15	.5774	.2608	1605.38	.1
303.15	.5822	.2554	1604.62	.1
303.15	.5974	.2432	1604.37	.1
303.15	.6214	.2282	1605.39	.1
303.15	.6464	.1932	1603.55	.1
303.15	.6531	.1894	1603.89	.1
303.15	.6894	.1698	1605.67	.1
303.15	.7129	.1645	1607.14	.1
308.15	.1595	.7681	1609.28	.1
308.15	.1799	.7347	1613.79	.1
308.15	.1936	.7081	1614.92	.1
308.15	.2026	.6871	1613.82	.1
308.15	.2218	.6542	1615.26	.1
308.15	.2442	.6148	1614.46	.1
308.15	.2603	.5861	1612.07	.1
308.15	.2875	.5481	1611.5	.1
308.15	.3015	.5245	1607.38	.1
308.15	.3269	.4903	1603.74	.1
308.15	.3478	.4658	1601.88	.1
308.15	.3642	.4458	1599.15	.1
308.15	.3891	.4208	1597.9	.1
308.15	.4032	.4067	1596.82	.1
308.15	.4121	.3976	1595.87	.1
308.15	.4329	.3802	1596.02	.1
308.15	.4453	.3671	1594.07	.1
308.15	.4691	.3495	1595.07	.1
308.15	.4845	.3332	1592.36	.1
308.15	.5027	.3201	1592.94	.1
308.15	.5278	.3014	1593.1	.1
308.15	.5451	.2854	1591.46	.1
308.15	.5774	.2608	1591.27	.1
308.15	.5822	.2554	1590.56	.1
308.15	.5974	.2432	1590.38	.1
308.15	.6214	.2282	1591.52	.1
308.15	.6464	.1932	1590.03	.1
308.15	.6531	.1894	1590.42	.1
308.15	.6894	.1698	1592.31	.1
308.15	.7129	.1645	1593.74	.1

System: 2-methylaniline + .alpha.-picoline + 1-ethyl-3-methylimidazolium tetrafluoroborate; phases: Liquid
Fixed: Pressure, kPa = 101
Property: Mass density, kg/m3 (Liquid); method: Vibrating tube method
Temperature, K	Mole fraction of 1-ethyl-3-methylimidazolium tetrafluoroborate	Mole fraction of 2-methylaniline	Mass density, kg/m3	uncertainty
293.15	.1131	.7887	1050.43	.5
293.15	.1231	.7819	1055.22	.5
293.15	.1404	.7642	1063.27	.5
293.15	.1637	.7404	1074.08	.5
293.15	.1817	.7173	1082.19	.5
293.15	.2044	.6816	1091.92	.5
293.15	.2245	.6621	1100.99	.5
293.15	.2411	.6404	1107.98	.5
293.15	.2623	.6187	1117.06	.5
293.15	.2837	.5881	1125.14	.5
293.15	.3007	.5697	1131.76	.5
293.15	.3129	.5533	1135.98	.5
293.15	.3338	.5308	1143.46	.5
293.15	.3451	.5133	1146.59	.5
293.15	.3601	.4781	1148.64	.5
293.15	.3733	.4381	1148.81	.5
293.15	.3911	.4025	1151.79	.5
293.15	.4104	.3711	1156.14	.5
293.15	.4325	.3524	1162.71	.5
293.15	.4549	.3345	1169.25	.5
293.15	.4897	.3122	1179.4	.5
293.15	.5038	.3045	1183.45	.5
293.15	.5363	.2813	1192.13	.5
293.15	.5612	.2657	1198.64	.5
293.15	.5943	.2433	1206.87	.5
293.15	.6284	.2216	1215.03	.5
293.15	.6445	.2113	1218.75	.5
293.15	.6647	.1986	1223.31	.5
293.15	.6881	.1835	1228.44	.5
293.15	.6993	.1763	1230.84	.5
298.15	.1131	.7887	1046.4	.5
298.15	.1231	.7819	1051.25	.5
298.15	.1404	.7642	1059.36	.5
298.15	.1637	.7404	1070.2	.5
298.15	.1817	.7173	1078.29	.5
298.15	.2044	.6816	1087.98	.5
298.15	.2245	.6621	1097	.5
298.15	.2411	.6404	1103.96	.5
298.15	.2623	.6187	1112.98	.5
298.15	.2837	.5881	1121.05	.5
298.15	.3007	.5697	1127.64	.5
298.15	.3129	.5533	1131.88	.5
298.15	.3338	.5308	1139.37	.5
298.15	.3451	.5133	1142.58	.5
298.15	.3601	.4781	1144.88	.5
298.15	.3733	.4381	1145.35	.5
298.15	.3911	.4025	1148.46	.5
298.15	.4104	.3711	1152.84	.5
298.15	.4325	.3524	1159.45	.5
298.15	.4549	.3345	1166.04	.5
298.15	.4897	.3122	1176.27	.5
298.15	.5038	.3045	1180.38	.5
298.15	.5363	.2813	1189.13	.5
298.15	.5612	.2657	1195.72	.5
298.15	.5943	.2433	1204.04	.5
298.15	.6284	.2216	1212.3	.5
298.15	.6445	.2113	1216.07	.5
298.15	.6647	.1986	1220.69	.5
298.15	.6881	.1835	1225.87	.5
298.15	.6993	.1763	1228.3	.5
303.15	.1131	.7887	1042.7	.5
303.15	.1231	.7819	1047.58	.5
303.15	.1404	.7642	1055.69	.5
303.15	.1637	.7404	1066.52	.5
303.15	.1817	.7173	1074.57	.5
303.15	.2044	.6816	1084.19	.5
303.15	.2245	.6621	1093.21	.5
303.15	.2411	.6404	1100.14	.5
303.15	.2623	.6187	1109.16	.5
303.15	.2837	.5881	1117.19	.5
303.15	.3007	.5697	1123.78	.5
303.15	.3129	.5533	1128.01	.5
303.15	.3338	.5308	1135.5	.5
303.15	.3451	.5133	1138.69	.5
303.15	.3601	.4781	1140.9	.5
303.15	.3733	.4381	1141.25	.5
303.15	.3911	.4025	1144.34	.5
303.15	.4104	.3711	1148.74	.5
303.15	.4325	.3524	1155.43	.5
303.15	.4549	.3345	1162.1	.5
303.15	.4897	.3122	1172.49	.5
303.15	.5038	.3045	1176.65	.5
303.15	.5363	.2813	1185.56	.5
303.15	.5612	.2657	1192.28	.5
303.15	.5943	.2433	1200.77	.5
303.15	.6284	.2216	1209.19	.5
303.15	.6445	.2113	1213.04	.5
303.15	.6647	.1986	1217.75	.5
303.15	.6881	.1835	1223.03	.5
303.15	.6993	.1763	1225.49	.5
308.15	.1131	.7887	1038.89	.5
308.15	.1231	.7819	1043.82	.5
308.15	.1404	.7642	1051.98	.5
308.15	.1637	.7404	1062.9	.5
308.15	.1817	.7173	1071	.5
308.15	.2044	.6816	1080.63	.5
308.15	.2245	.6621	1089.75	.5
308.15	.2411	.6404	1096.71	.5
308.15	.2623	.6187	1105.82	.5
308.15	.2837	.5881	1113.83	.5
308.15	.3007	.5697	1120.46	.5
308.15	.3129	.5533	1124.65	.5
308.15	.3338	.5308	1132.15	.5
308.15	.3451	.5133	1135.24	.5
308.15	.3601	.4781	1137.06	.5
308.15	.3733	.4381	1136.88	.5
308.15	.3911	.4025	1139.62	.5
308.15	.4104	.3711	1143.82	.5
308.15	.4325	.3524	1150.5	.5
308.15	.4549	.3345	1157.19	.5
308.15	.4897	.3122	1167.59	.5
308.15	.5038	.3045	1171.88	.5
308.15	.5363	.2813	1180.88	.5
308.15	.5612	.2657	1187.68	.5
308.15	.5943	.2433	1196.28	.5
308.15	.6284	.2216	1204.84	.5
308.15	.6445	.2113	1208.74	.5
308.15	.6647	.1986	1213.53	.5
308.15	.6881	.1835	1218.9	.5
308.15	.6993	.1763	1221.41	.5

System: 2-methylaniline + .alpha.-picoline + 1-ethyl-3-methylimidazolium tetrafluoroborate; phases: Liquid
Fixed: Pressure, kPa = 101
Property: Speed of sound, m/s (Liquid); method: Pulse-echo method
Temperature, K	Mole fraction of 1-ethyl-3-methylimidazolium tetrafluoroborate	Mole fraction of 2-methylaniline	Speed of sound, m/s	uncertainty
293.15	.1131	.7887	1629.55	.1
298.15	.1131	.7887	1608.26	.1
303.15	.1131	.7887	1586.74	.1
308.15	.1131	.7887	1569.42	.1
293.15	.1231	.7819	1630.91	.1
298.15	.1231	.7819	1610.61	.1
303.15	.1231	.7819	1589.11	.1
308.15	.1231	.7819	1572.23	.1
298.15	.1404	.7642	1612.31	.1
293.15	.1404	.7642	1630.58	.1
303.15	.1404	.7642	1590.83	.1
308.15	.1404	.7642	1574.77	.1
298.15	.1637	.7404	1614.19	.1
303.15	.1637	.7404	1592.54	.1
293.15	.1637	.7404	1629.22	.1
308.15	.1637	.7404	1577.8	.1
293.15	.1817	.7173	1625.2	.1
298.15	.1817	.7173	1613.09	.1
303.15	.1817	.7173	1591.21	.1
308.15	.1817	.7173	1577.6	.1
293.15	.2044	.6816	1616.03	.1
298.15	.2044	.6816	1602.68	.1
303.15	.2044	.6816	1585.69	.1
308.15	.2044	.6816	1573.55	.1
298.15	.2245	.6621	1601.26	.1
293.15	.2245	.6621	1613.28	.1
303.15	.2245	.6621	1586.03	.1
308.15	.2245	.6621	1575.3	.1
298.15	.2411	.6404	1597.12	.1
303.15	.2411	.6404	1585.37	.1
293.15	.2411	.6404	1608.08	.1
308.15	.2411	.6404	1573.72	.1
293.15	.2623	.6187	1604.34	.1
298.15	.2623	.6187	1593.15	.1
303.15	.2623	.6187	1582.76	.1
308.15	.2623	.6187	1572.57	.1
298.15	.2837	.5881	1587.5	.1
293.15	.2837	.5881	1596.52	.1
303.15	.2837	.5881	1577.66	.1
308.15	.2837	.5881	1569.52	.1
298.15	.3007	.5697	1584.8	.1
293.15	.3007	.5697	1593.31	.1
303.15	.3007	.5697	1576.53	.1
308.15	.3007	.5697	1568.76	.1
298.15	.3129	.5533	1582.53	.1
303.15	.3129	.5533	1574.21	.1
293.15	.3129	.5533	1589.87	.1
308.15	.3129	.5533	1568.39	.1
293.15	.3338	.5308	1586.7	.1
298.15	.3338	.5308	1580.6	.1
303.15	.3338	.5308	1573.01	.1
308.15	.3338	.5308	1566.23	.1
293.15	.3451	.5133	1583.42	.1
303.15	.3451	.5133	1570.14	.1
298.15	.3451	.5133	1577.45	.1
308.15	.3451	.5133	1563.04	.1
298.15	.3601	.4781	1571.12	.1
303.15	.3601	.4781	1563.08	.1
293.15	.3601	.4781	1577.64	.1
308.15	.3601	.4781	1556.54	.1
298.15	.3733	.4381	1568.35	.1
303.15	.3733	.4381	1558.19	.1
293.15	.3733	.4381	1575.82	.1
308.15	.3733	.4381	1549.17	.1
303.15	.3911	.4025	1558.87	.1
293.15	.3911	.4025	1578.79	.1
298.15	.3911	.4025	1567.23	.1
308.15	.3911	.4025	1548.12	.1
293.15	.4104	.3711	1584.23	.1
303.15	.4104	.3711	1562.5	.1
298.15	.4104	.3711	1574.72	.1
308.15	.4104	.3711	1550.54	.1
293.15	.4325	.3524	1587.71	.1
298.15	.4325	.3524	1577.39	.1
303.15	.4325	.3524	1566.13	.1
308.15	.4325	.3524	1554.15	.1
303.15	.4549	.3345	1569.92	.1
293.15	.4549	.3345	1591.46	.1
298.15	.4549	.3345	1581.56	.1
308.15	.4549	.3345	1558.01	.1
303.15	.4897	.3122	1574.98	.1
293.15	.4897	.3122	1595.93	.1
298.15	.4897	.3122	1586.39	.1
308.15	.4897	.3122	1563.56	.1
303.15	.5038	.3045	1576.75	.1
293.15	.5038	.3045	1597.37	.1
298.15	.5038	.3045	1588.72	.1
308.15	.5038	.3045	1565.53	.1
293.15	.5363	.2813	1602.9	.1
298.15	.5363	.2813	1593.94	.1
303.15	.5363	.2813	1582.07	.1
308.15	.5363	.2813	1571.04	.1
298.15	.5612	.2657	1596.71	.1
293.15	.5612	.2657	1606.41	.1
303.15	.5612	.2657	1585.58	.1
308.15	.5612	.2657	1574.8	.1
303.15	.5943	.2433	1590.52	.1
293.15	.5943	.2433	1611.73	.1
298.15	.5943	.2433	1600.58	.1
308.15	.5943	.2433	1579.99	.1
303.15	.6284	.2216	1594.89	.1
298.15	.6284	.2216	1605.3	.1
293.15	.6284	.2216	1616.5	.1
308.15	.6284	.2216	1584.71	.1
303.15	.6445	.2113	1596.83	.1
293.15	.6445	.2113	1617.36	.1
298.15	.6445	.2113	1607.18	.1
308.15	.6445	.2113	1586.8	.1
303.15	.6647	.1986	1599.03	.1
293.15	.6647	.1986	1621.15	.1
298.15	.6647	.1986	1611.46	.1
308.15	.6647	.1986	1589.2	.1
303.15	.6881	.1835	1601.43	.1
298.15	.6881	.1835	1613.37	.1
293.15	.6881	.1835	1623.96	.1
308.15	.6881	.1835	1591.85	.1
293.15	.6993	.1763	1625.17	.1
298.15	.6993	.1763	1614.71	.1
303.15	.6993	.1763	1602.47	.1
308.15	.6993	.1763	1592.99	.1

System: 2-methylaniline + .beta.-picoline + 1-ethyl-3-methylimidazolium tetrafluoroborate; phases: Liquid
Fixed: Pressure, kPa = 101
Property: Mass density, kg/m3 (Liquid); method: Vibrating tube method
Temperature, K	Mole fraction of 1-ethyl-3-methylimidazolium tetrafluoroborate	Mole fraction of 2-methylaniline	Mass density, kg/m3	uncertainty
293.15	.1151	.7811	1052.56	.5
293.15	.1301	.7574	1059.28	.5
293.15	.1524	.7325	1069.34	.5
293.15	.1746	.7152	1079.38	.5
293.15	.1923	.6954	1087.12	.5
293.15	.2156	.6759	1097.3	.5
293.15	.2388	.6645	1107.41	.5
293.15	.2512	.6452	1112.37	.5
293.15	.2833	.6051	1124.96	.5
293.15	.3082	.5521	1132.95	.5
293.15	.3241	.5374	1138.75	.5
293.15	.3412	.5166	1144.44	.5
293.15	.3795	.4691	1156.18	.5
293.15	.3902	.4012	1155.32	.5
293.15	.4097	.3754	1160.86	.5
293.15	.4241	.3632	1165.17	.5
293.15	.4429	.3469	1170.65	.5
293.15	.4612	.3331	1175.91	.5
293.15	.4853	.3183	1182.7	.5
293.15	.5068	.3021	1188.48	.5
293.15	.5231	.2905	1192.76	.5
293.15	.5422	.2781	1197.66	.5
293.15	.5614	.2654	1202.45	.5
293.15	.5834	.2504	1207.77	.5
293.15	.6011	.2371	1211.94	.5
293.15	.6245	.2216	1217.3	.5
293.15	.6432	.2091	1221.46	.5
293.15	.6614	.1965	1225.41	.5
293.15	.6843	.1843	1230.19	.5
293.15	.7034	.1719	1234.1	.5
298.15	.1151	.7811	1048.64	.5
298.15	.1301	.7574	1055.4	.5
298.15	.1524	.7325	1065.6	.5
298.15	.1746	.7152	1075.82	.5
298.15	.1923	.6954	1083.67	.5
298.15	.2156	.6759	1094.03	.5
298.15	.2388	.6645	1104.37	.5
298.15	.2512	.6452	1109.37	.5
298.15	.2833	.6051	1122.12	.5
298.15	.3082	.5521	1129.98	.5
298.15	.3241	.5374	1135.85	.5
298.15	.3412	.5166	1141.55	.5
298.15	.3795	.4691	1153.19	.5
298.15	.3902	.4012	1151.46	.5
298.15	.4097	.3754	1156.89	.5
298.15	.4241	.3632	1161.2	.5
298.15	.4429	.3469	1166.67	.5
298.15	.4612	.3331	1171.95	.5
298.15	.4853	.3183	1178.81	.5
298.15	.5068	.3021	1184.62	.5
298.15	.5231	.2905	1188.93	.5
298.15	.5422	.2781	1193.88	.5
298.15	.5614	.2654	1198.72	.5
298.15	.5834	.2504	1204.1	.5
298.15	.6011	.2371	1208.3	.5
298.15	.6245	.2216	1213.72	.5
298.15	.6432	.2091	1217.94	.5
298.15	.6614	.1965	1221.94	.5
298.15	.6843	.1843	1226.8	.5
298.15	.7034	.1719	1230.76	.5
303.15	.1151	.7811	1044.96	.5
303.15	.1301	.7574	1051.56	.5
303.15	.1524	.7325	1061.55	.5
303.15	.1746	.7152	1071.59	.5
303.15	.1923	.6954	1079.25	.5
303.15	.2156	.6759	1089.4	.5
303.15	.2388	.6645	1099.59	.5
303.15	.2512	.6452	1104.43	.5
303.15	.2833	.6051	1116.85	.5
303.15	.3082	.5521	1124.46	.5
303.15	.3241	.5374	1130.26	.5
303.15	.3412	.5166	1135.91	.5
303.15	.3795	.4691	1147.58	.5
303.15	.3902	.4012	1146.32	.5
303.15	.4097	.3754	1151.96	.5
303.15	.4241	.3632	1156.36	.5
303.15	.4429	.3469	1161.98	.5
303.15	.4612	.3331	1167.39	.5
303.15	.4853	.3183	1174.4	.5
303.15	.5068	.3021	1180.4	.5
303.15	.5231	.2905	1184.85	.5
303.15	.5422	.2781	1189.96	.5
303.15	.5614	.2654	1194.97	.5
303.15	.5834	.2504	1200.55	.5
303.15	.6011	.2371	1204.92	.5
303.15	.6245	.2216	1210.56	.5
303.15	.6432	.2091	1214.93	.5
303.15	.6614	.1965	1219.09	.5
303.15	.6843	.1843	1224.1	.5
303.15	.7034	.1719	1228.19	.5
308.15	.1151	.7811	1040.89	.5
308.15	.1301	.7574	1047.51	.5
308.15	.1524	.7325	1057.56	.5
308.15	.1746	.7152	1067.69	.5
308.15	.1923	.6954	1075.39	.5
308.15	.2156	.6759	1085.61	.5
308.15	.2388	.6645	1095.92	.5
308.15	.2512	.6452	1100.75	.5
308.15	.2833	.6051	1113.19	.5
308.15	.3082	.5521	1120.68	.5
308.15	.3241	.5374	1126.51	.5
308.15	.3412	.5166	1132.15	.5
308.15	.3795	.4691	1143.77	.5
308.15	.3902	.4012	1142.09	.5
308.15	.4097	.3754	1147.68	.5
308.15	.4241	.3632	1152.1	.5
308.15	.4429	.3469	1157.75	.5
308.15	.4612	.3331	1163.19	.5
308.15	.4853	.3183	1170.27	.5
308.15	.5068	.3021	1176.32	.5
308.15	.5231	.2905	1180.81	.5
308.15	.5422	.2781	1185.98	.5
308.15	.5614	.2654	1191.04	.5
308.15	.5834	.2504	1196.68	.5
308.15	.6011	.2371	1201.11	.5
308.15	.6245	.2216	1206.8	.5
308.15	.6432	.2091	1211.23	.5
308.15	.6614	.1965	1215.43	.5
308.15	.6843	.1843	1220.51	.5
308.15	.7034	.1719	1224.63	.5

System: 2-methylaniline + .beta.-picoline + 1-ethyl-3-methylimidazolium tetrafluoroborate; phases: Liquid
Fixed: Pressure, kPa = 101
Property: Speed of sound, m/s (Liquid); method: Pulse-echo method
Temperature, K	Mole fraction of 1-ethyl-3-methylimidazolium tetrafluoroborate	Mole fraction of 2-methylaniline	Speed of sound, m/s	uncertainty
293.15	.1151	.7811	1634.34	.1
293.15	.1301	.7574	1634.05	.1
293.15	.1524	.7325	1637.32	.1
293.15	.1746	.7152	1644.09	.1
293.15	.1923	.6954	1646.94	.1
293.15	.2156	.6759	1654.21	.1
293.15	.2388	.6645	1666.72	.1
293.15	.2512	.6452	1665.42	.1
293.15	.2833	.6051	1666.74	.1
293.15	.3082	.5521	1648.89	.1
293.15	.3241	.5374	1650.95	.1
293.15	.3412	.5166	1648.56	.1
293.15	.3795	.4691	1639.88	.1
293.15	.3902	.4012	1599.44	.1
293.15	.4097	.3754	1596.02	.1
293.15	.4241	.3632	1596.56	.1
293.15	.4429	.3469	1597.26	.1
293.15	.4612	.3331	1598.7	.1
293.15	.4853	.3183	1601.62	.1
293.15	.5068	.3021	1603.38	.1
293.15	.5231	.2905	1604.95	.1
293.15	.5422	.2781	1607.1	.1
293.15	.5614	.2654	1609.21	.1
293.15	.5834	.2504	1611.51	.1
293.15	.6011	.2371	1613.25	.1
293.15	.6245	.2216	1615.85	.1
293.15	.6432	.2091	1617.89	.1
293.15	.6614	.1965	1619.84	.1
293.15	.6843	.1843	1622.3	.1
293.15	.7034	.1719	1624.15	.1
298.15	.1151	.7811	1612.15	.1
298.15	.1301	.7574	1612.75	.1
298.15	.1524	.7325	1617.25	.1
298.15	.1746	.7152	1625.13	.1
298.15	.1923	.6954	1629.02	.1
298.15	.2156	.6759	1637.44	.1
298.15	.2388	.6645	1650.7	.1
298.15	.2512	.6452	1650.35	.1
298.15	.2833	.6051	1653.74	.1
298.15	.3082	.5521	1638.64	.1
298.15	.3241	.5374	1641.49	.1
298.15	.3412	.5166	1640.15	.1
298.15	.3795	.4691	1631.42	.1
298.15	.3902	.4012	1589.44	.1
298.15	.4097	.3754	1585.16	.1
298.15	.4241	.3632	1586.58	.1
298.15	.4429	.3469	1587.84	.1
298.15	.4612	.3331	1589.83	.1
298.15	.4853	.3183	1591.6	.1
298.15	.5068	.3021	1593.24	.1
298.15	.5231	.2905	1595.57	.1
298.15	.5422	.2781	1597.23	.1
298.15	.5614	.2654	1599.77	.1
298.15	.5834	.2504	1601.6	.1
298.15	.6011	.2371	1602.67	.1
298.15	.6245	.2216	1604.2	.1
298.15	.6432	.2091	1606.19	.1
298.15	.6614	.1965	1608.09	.1
298.15	.6843	.1843	1610.58	.1
298.15	.7034	.1719	1612.2	.1
303.15	.1151	.7811	1591.62	.1
303.15	.1301	.7574	1592.95	.1
303.15	.1524	.7325	1598.6	.1
303.15	.1746	.7152	1607.76	.1
303.15	.1923	.6954	1612.77	.1
303.15	.2156	.6759	1622.81	.1
303.15	.2388	.6645	1637.86	.1
303.15	.2512	.6452	1638.4	.1
303.15	.2833	.6051	1643.91	.1
303.15	.3082	.5521	1628.79	.1
303.15	.3241	.5374	1632.38	.1
303.15	.3412	.5166	1631.32	.1
303.15	.3795	.4691	1624.49	.1
303.15	.3902	.4012	1579.08	.1
303.15	.4097	.3754	1574.98	.1
303.15	.4241	.3632	1575.63	.1
303.15	.4429	.3469	1576.26	.1
303.15	.4612	.3331	1577.78	.1
303.15	.4853	.3183	1581.1	.1
303.15	.5068	.3021	1582.69	.1
303.15	.5231	.2905	1584.15	.1
303.15	.5422	.2781	1586.26	.1
303.15	.5614	.2654	1588.23	.1
303.15	.5834	.2504	1590.26	.1
303.15	.6011	.2371	1591	.1
303.15	.6245	.2216	1593.77	.1
303.15	.6432	.2091	1595.49	.1
303.15	.6614	.1965	1597.08	.1
303.15	.6843	.1843	1599.45	.1
303.15	.7034	.1719	1601	.1
308.15	.1151	.7811	1575.25	.1
308.15	.1301	.7574	1576.95	.1
308.15	.1524	.7325	1583.11	.1
308.15	.1746	.7152	1592.71	.1
308.15	.1923	.6954	1598.11	.1
308.15	.2156	.6759	1608.58	.1
308.15	.2388	.6645	1623.9	.1
308.15	.2512	.6452	1624.81	.1
308.15	.2833	.6051	1631.1	.1
308.15	.3082	.5521	1616.8	.1
308.15	.3241	.5374	1620.68	.1
308.15	.3412	.5166	1619.94	.1
308.15	.3795	.4691	1613.7	.1
308.15	.3902	.4012	1568.17	.1
308.15	.4097	.3754	1564.19	.1
308.15	.4241	.3632	1564.96	.1
308.15	.4429	.3469	1565.75	.1
308.15	.4612	.3331	1567.43	.1
308.15	.4853	.3183	1570.97	.1
308.15	.5068	.3021	1572.73	.1
308.15	.5231	.2905	1574.32	.1
308.15	.5422	.2781	1576.59	.1
308.15	.5614	.2654	1578.69	.1
308.15	.5834	.2504	1580.9	.1
308.15	.6011	.2371	1582.33	.1
308.15	.6245	.2216	1584.75	.1
308.15	.6432	.2091	1586.61	.1
308.15	.6614	.1965	1588.34	.1
308.15	.6843	.1843	1590.87	.1
308.15	.7034	.1719	1592.56	.1

System: 2-methylaniline + .gamma.-picoline + 1-ethyl-3-methylimidazolium tetrafluoroborate; phases: Liquid
Fixed: Pressure, kPa = 101
Property: Mass density, kg/m3 (Liquid); method: Vibrating tube method
Temperature, K	Mole fraction of 1-ethyl-3-methylimidazolium tetrafluoroborate	Mole fraction of 2-methylaniline	Mass density, kg/m3	uncertainty
293.15	.1163	.7821	1053.56	.5
293.15	.1315	.7635	1061.11	.5
293.15	.1531	.7444	1072.14	.5
293.15	.1718	.7228	1081.58	.5
293.15	.1904	.7011	1090.95	.5
293.15	.2131	.6712	1102.13	.5
293.15	.2319	.6524	1111.49	.5
293.15	.2507	.6329	1120.62	.5
293.15	.2711	.6063	1129.82	.5
293.15	.2953	.5726	1139.71	.5
293.15	.3104	.5514	1145.29	.5
293.15	.3293	.5332	1152.91	.5
293.15	.3416	.5089	1155.48	.5
293.15	.3597	.4662	1156.68	.5
293.15	.3687	.4365	1155.01	.5
293.15	.3811	.4039	1154.49	.5
293.15	.4055	.3721	1159.84	.5
293.15	.4311	.3514	1167.37	.5
293.15	.4619	.3304	1176.61	.5
293.15	.5094	.3008	1190.35	.5
293.15	.5326	.2841	1196.33	.5
293.15	.563	.2645	1204.17	.5
293.15	.5933	.2447	1211.59	.5
293.15	.6226	.2251	1218.42	.5
293.15	.6535	.2054	1225.42	.5
293.15	.6629	.1997	1227.51	.5
293.15	.6821	.1874	1231.65	.5
293.15	.7011	.1759	1235.67	.5
293.15	.7131	.1681	1238.13	.5
293.15	.7284	.1594	1241.25	.5
298.15	.1163	.7821	1049.69	.5
298.15	.1315	.7635	1057.3	.5
298.15	.1531	.7444	1068.44	.5
298.15	.1718	.7228	1077.93	.5
298.15	.1904	.7011	1087.34	.5
298.15	.2131	.6712	1098.55	.5
298.15	.2319	.6524	1107.95	.5
298.15	.2507	.6329	1117.12	.5
298.15	.2711	.6063	1126.33	.5
298.15	.2953	.5726	1136.25	.5
298.15	.3104	.5514	1141.84	.5
298.15	.3293	.5332	1149.49	.5
298.15	.3416	.5089	1152.06	.5
298.15	.3597	.4662	1153.24	.5
298.15	.3687	.4365	1151.52	.5
298.15	.3811	.4039	1150.93	.5
298.15	.4055	.3721	1156.26	.5
298.15	.4311	.3514	1163.84	.5
298.15	.4619	.3304	1173.15	.5
298.15	.5094	.3008	1187.02	.5
298.15	.5326	.2841	1193.06	.5
298.15	.563	.2645	1200.98	.5
298.15	.5933	.2447	1208.48	.5
298.15	.6226	.2251	1215.39	.5
298.15	.6535	.2054	1222.47	.5
298.15	.6629	.1997	1224.59	.5
298.15	.6821	.1874	1228.77	.5
298.15	.7011	.1759	1232.84	.5
298.15	.7131	.1681	1235.32	.5
298.15	.7284	.1594	1238.46	.5
303.15	.1163	.7821	1045.75	.5
303.15	.1315	.7635	1053.21	.5
303.15	.1531	.7444	1064.13	.5
303.15	.1718	.7228	1073.37	.5
303.15	.1904	.7011	1082.52	.5
303.15	.2131	.6712	1093.37	.5
303.15	.2319	.6524	1102.49	.5
303.15	.2507	.6329	1111.38	.5
303.15	.2711	.6063	1120.32	.5
303.15	.2953	.5726	1130.01	.5
303.15	.3104	.5514	1135.52	.5
303.15	.3293	.5332	1143.05	.5
303.15	.3416	.5089	1145.75	.5
303.15	.3597	.4662	1147.4	.5
303.15	.3687	.4365	1146.17	.5
303.15	.3811	.4039	1146.11	.5
303.15	.4055	.3721	1151.84	.5
303.15	.4311	.3514	1159.62	.5
303.15	.4619	.3304	1169.14	.5
303.15	.5094	.3008	1183.35	.5
303.15	.5326	.2841	1189.61	.5
303.15	.563	.2645	1197.79	.5
303.15	.5933	.2447	1205.55	.5
303.15	.6226	.2251	1212.72	.5
303.15	.6535	.2054	1220.03	.5
303.15	.6629	.1997	1222.21	.5
303.15	.6821	.1874	1226.53	.5
303.15	.7011	.1759	1230.69	.5
303.15	.7131	.1681	1233.24	.5
303.15	.7284	.1594	1236.45	.5
308.15	.1163	.7821	1041.93	.5
308.15	.1315	.7635	1049.25	.5
308.15	.1531	.7444	1059.91	.5
308.15	.1718	.7228	1068.86	.5
308.15	.1904	.7011	1077.68	.5
308.15	.2131	.6712	1088.09	.5
308.15	.2319	.6524	1096.83	.5
308.15	.2507	.6329	1105.34	.5
308.15	.2711	.6063	1113.92	.5
308.15	.2953	.5726	1123.3	.5
308.15	.3104	.5514	1128.7	.5
308.15	.3293	.5332	1136.01	.5
308.15	.3416	.5089	1138.91	.5
308.15	.3597	.4662	1141.25	.5
308.15	.3687	.4365	1140.71	.5
308.15	.3811	.4039	1141.3	.5
308.15	.4055	.3721	1147.37	.5
308.15	.4311	.3514	1155.21	.5
308.15	.4619	.3304	1164.73	.5
308.15	.5094	.3008	1178.9	.5
308.15	.5326	.2841	1185.21	.5
308.15	.563	.2645	1193.4	.5
308.15	.5933	.2447	1201.19	.5
308.15	.6226	.2251	1208.38	.5
308.15	.6535	.2054	1215.71	.5
308.15	.6629	.1997	1217.89	.5
308.15	.6821	.1874	1222.2	.5
308.15	.7011	.1759	1226.37	.5
308.15	.7131	.1681	1228.92	.5
308.15	.7284	.1594	1232.12	.5

System: 2-methylaniline + .gamma.-picoline + 1-ethyl-3-methylimidazolium tetrafluoroborate; phases: Liquid
Fixed: Pressure, kPa = 101
Property: Speed of sound, m/s (Liquid); method: Pulse-echo method
Temperature, K	Mole fraction of 1-ethyl-3-methylimidazolium tetrafluoroborate	Mole fraction of 2-methylaniline	Speed of sound, m/s	uncertainty
293.15	.1163	.7821	1632.43	.1
293.15	.1315	.7635	1633.48	.1
293.15	.1531	.7444	1637.71	.1
293.15	.1718	.7228	1639.18	.1
293.15	.1904	.7011	1640.35	.1
293.15	.2131	.6712	1639.65	.1
293.15	.2319	.6524	1641.98	.1
293.15	.2507	.6329	1643.82	.1
293.15	.2711	.6063	1642.04	.1
293.15	.2953	.5726	1637.64	.1
293.15	.3104	.5514	1634.24	.1
293.15	.3293	.5332	1635.19	.1
293.15	.3416	.5089	1626.92	.1
293.15	.3597	.4662	1611.24	.1
293.15	.3687	.4365	1600.95	.1
293.15	.3811	.4039	1594.21	.1
293.15	.4055	.3721	1593.64	.1
293.15	.4311	.3514	1595.8	.1
293.15	.4619	.3304	1598.96	.1
293.15	.5094	.3008	1604.19	.1
293.15	.5326	.2841	1606.73	.1
293.15	.563	.2645	1610.17	.1
293.15	.5933	.2447	1613.58	.1
293.15	.6226	.2251	1616.83	.1
293.15	.6535	.2054	1620.1	.1
293.15	.6629	.1997	1621.06	.1
293.15	.6821	.1874	1622.95	.1
293.15	.7011	.1759	1624.67	.1
293.15	.7131	.1681	1625.71	.1
293.15	.7284	.1594	1627.04	.1
298.15	.1163	.7821	1611.72	.1
298.15	.1315	.7635	1613.72	.1
298.15	.1531	.7444	1619.51	.1
298.15	.1718	.7228	1622.6	.1
298.15	.1904	.7011	1625.55	.1
298.15	.2131	.6712	1627.2	.1
298.15	.2319	.6524	1631.53	.1
298.15	.2507	.6329	1633.39	.1
298.15	.2711	.6063	1632.68	.1
298.15	.2953	.5726	1628.78	.1
298.15	.3104	.5514	1626.73	.1
298.15	.3293	.5332	1627.45	.1
298.15	.3416	.5089	1619.76	.1
298.15	.3597	.4662	1603.59	.1
298.15	.3687	.4365	1591.74	.1
298.15	.3811	.4039	1584.65	.1
298.15	.4055	.3721	1584.24	.1
298.15	.4311	.3514	1586.34	.1
298.15	.4619	.3304	1589.68	.1
298.15	.5094	.3008	1595.18	.1
298.15	.5326	.2841	1597.39	.1
298.15	.563	.2645	1600.53	.1
298.15	.5933	.2447	1603.5	.1
298.15	.6226	.2251	1606.18	.1
298.15	.6535	.2054	1608.89	.1
298.15	.6629	.1997	1611.1	.1
298.15	.6821	.1874	1613.11	.1
298.15	.7011	.1759	1614.47	.1
298.15	.7131	.1681	1615.1	.1
298.15	.7284	.1594	1616.22	.1
303.15	.1163	.7821	1591.5	.1
303.15	.1315	.7635	1594.09	.1
303.15	.1531	.7444	1600.63	.1
303.15	.1718	.7228	1604.46	.1
303.15	.1904	.7011	1608.18	.1
303.15	.2131	.6712	1610.8	.1
303.15	.2319	.6524	1615.87	.1
303.15	.2507	.6329	1620.44	.1
303.15	.2711	.6063	1621.53	.1
303.15	.2953	.5726	1619.94	.1
303.15	.3104	.5514	1617.88	.1
303.15	.3293	.5332	1618.83	.1
303.15	.3416	.5089	1610.38	.1
303.15	.3597	.4662	1594.6	.1
303.15	.3687	.4365	1581.62	.1
303.15	.3811	.4039	1572.14	.1
303.15	.4055	.3721	1570.47	.1
303.15	.4311	.3514	1572.97	.1
303.15	.4619	.3304	1576.88	.1
303.15	.5094	.3008	1583.4	.1
303.15	.5326	.2841	1586.09	.1
303.15	.563	.2645	1589.93	.1
303.15	.5933	.2447	1593.61	.1
303.15	.6226	.2251	1596.99	.1
303.15	.6535	.2054	1600.45	.1
303.15	.6629	.1997	1601.45	.1
303.15	.6821	.1874	1603.44	.1
303.15	.7011	.1759	1605.16	.1
303.15	.7131	.1681	1606.32	.1
303.15	.7284	.1594	1607.57	.1
308.15	.1163	.7821	1573.65	.1
308.15	.1315	.7635	1576.38	.1
308.15	.1531	.7444	1583.16	.1
308.15	.1718	.7228	1587.23	.1
308.15	.1904	.7011	1591.18	.1
308.15	.2131	.6712	1594.09	.1
308.15	.2319	.6524	1599.41	.1
308.15	.2507	.6329	1604.26	.1
308.15	.2711	.6063	1605.62	.1
308.15	.2953	.5726	1604.31	.1
308.15	.3104	.5514	1602.43	.1
308.15	.3293	.5332	1605.64	.1
308.15	.3416	.5089	1597.28	.1
308.15	.3597	.4662	1579.6	.1
308.15	.3687	.4365	1566.69	.1
308.15	.3811	.4039	1557.43	.1
308.15	.4055	.3721	1556.29	.1
308.15	.4311	.3514	1560.42	.1
308.15	.4619	.3304	1563.9	.1
308.15	.5094	.3008	1571.44	.1
308.15	.5326	.2841	1574.68	.1
308.15	.563	.2645	1579.26	.1
308.15	.5933	.2447	1583.65	.1
308.15	.6226	.2251	1587.77	.1
308.15	.6535	.2054	1591.9	.1
308.15	.6629	.1997	1593.1	.1
308.15	.6821	.1874	1595.44	.1
308.15	.7011	.1759	1597.6	.1
308.15	.7131	.1681	1598.89	.1
308.15	.7284	.1594	1600.35	.1
