Measured thermophysical data. Solubility of Dichloronitrobenzene in Eight Organic Solvents from T = (278.15 to 303.15) K: Measurement and Thermodynamic Modeling
Source: J. Chem. Eng. Data, 2014, 10.1021/je401044h
Compound 1: 3,4-dichloronitrobenzene, C6H3Cl2NO2, purity 99.6%
Compound 2: 2,3-dichloronitrobenzene, C6H3Cl2NO2, purity 99.5%
Compound 3: ethyl acetate, C4H8O2, purity 99.8%
Compound 4: tetrachloromethane, CCl4, purity 99.7%
Compound 5: cyclohexane, C6H12, purity 99.4%
Compound 6: hexane, C6H14, purity 99.8%
Compound 7: heptane, C7H16, purity 99.6%
Compound 8: 1-propanol, C3H8O, purity 99.7%
Compound 9: 2-propanol, C3H8O, purity 99.5%
Compound 10: 1-butanol, C4H10O, purity 99.6%

System: 3,4-dichloronitrobenzene; phases: Crystal, Liquid, Air at 1 atmosphere
Property: Normal melting temperature, K (Crystal); method: DSC/DTA
Normal melting temperature, K	uncertainty
315.4	.5

System: 3,4-dichloronitrobenzene; phases: Crystal, Liquid, Air at 1 atmosphere
Property: Molar enthalpy of transition or fusion, kJ/mol (Crystal); method: DSC/DTA
Molar enthalpy of transition or fusion, kJ/mol	uncertainty
17.7504	.355008

System: 2,3-dichloronitrobenzene; phases: Crystal, Liquid, Air at 1 atmosphere
Property: Normal melting temperature, K (Crystal); method: DSC/DTA
Normal melting temperature, K	uncertainty
334.9	.5

System: 2,3-dichloronitrobenzene; phases: Crystal, Liquid, Air at 1 atmosphere
Property: Molar enthalpy of transition or fusion, kJ/mol (Crystal); method: DSC/DTA
Molar enthalpy of transition or fusion, kJ/mol	uncertainty
22.3104	.446208

System: 3,4-dichloronitrobenzene + ethyl acetate; phases: Liquid, Crystal
Fixed: Pressure, kPa = 101
Property: Mole fraction of 3,4-dichloronitrobenzene (Liquid); method: Gravimetric
Temperature, K	Mole fraction of 3,4-dichloronitrobenzene	uncertainty
278.15	.2486	.0052206
280.65	.3318	.0069678
283.15	.4051	.0085071
285.65	.4626	.0097146
288.15	.5413	.0113673
290.65	.6016	.0126336
293.15	.6682	.0140322
295.65	.7189	.0150969
298.15	.7782	.0163422
300.65	.8219	.0172599
303.15	.8662	.0181902

System: tetrachloromethane + 3,4-dichloronitrobenzene; phases: Liquid, Crystal
Fixed: Pressure, kPa = 101
Property: Mole fraction of 3,4-dichloronitrobenzene (Liquid); method: Gravimetric
Temperature, K	Mole fraction of 3,4-dichloronitrobenzene	uncertainty
278.15	.1291	.0027111
280.65	.1816	.0038136
283.15	.2442	.0051282
285.65	.3023	.0063483
288.15	.3621	.0076041
290.65	.4352	.0091392
293.15	.5111	.0107331
295.65	.5717	.0120057
298.15	.6439	.0135219
300.65	.7218	.0151578
303.15	.7923	.0166383

System: 3,4-dichloronitrobenzene + cyclohexane; phases: Liquid, Crystal
Fixed: Pressure, kPa = 101
Property: Mole fraction of 3,4-dichloronitrobenzene (Liquid); method: Gravimetric
Temperature, K	Mole fraction of 3,4-dichloronitrobenzene	uncertainty
278.15	.05679	.00119259
280.65	.06323	.00132783
283.15	.07035	.00147735
285.65	.07736	.00162456
288.15	.08647	.00181587
290.65	.1105	.0023205
293.15	.1536	.0032256
295.65	.2502	.0052542
298.15	.3427	.0071967
300.65	.5113	.0107373
303.15	.7507	.0157647

System: 3,4-dichloronitrobenzene + heptane; phases: Liquid, Crystal
Fixed: Pressure, kPa = 101
Property: Mole fraction of 3,4-dichloronitrobenzene (Liquid); method: Gravimetric
Temperature, K	Mole fraction of 3,4-dichloronitrobenzene	uncertainty
278.15	.02962	.00062202
280.65	.03255	.00068355
283.15	.04241	.00089061
285.65	.04511	.00094731
288.15	.05051	.00106071
290.65	.05639	.00118419
293.15	.063	.001323
295.65	.06619	.00138999
298.15	.07287	.00153027
300.65	.09081	.00190701
303.15	.1318	.0027678

System: 1-propanol + 3,4-dichloronitrobenzene; phases: Liquid, Crystal
Fixed: Pressure, kPa = 101
Property: Mole fraction of 3,4-dichloronitrobenzene (Liquid); method: Gravimetric
Temperature, K	Mole fraction of 3,4-dichloronitrobenzene	uncertainty
278.15	.05057	.00106197
280.65	.05188	.00108948
283.15	.05369	.00112749
285.65	.05823	.00122283
288.15	.06339	.00133119
290.65	.07237	.00151977
293.15	.08193	.00172053
295.65	.09351	.00196371
298.15	.1152	.0024192
300.65	.1388	.0029148
303.15	.173	.003633

System: 2-propanol + 3,4-dichloronitrobenzene; phases: Liquid, Crystal
Fixed: Pressure, kPa = 101
Property: Mole fraction of 3,4-dichloronitrobenzene (Liquid); method: Gravimetric
Temperature, K	Mole fraction of 3,4-dichloronitrobenzene	uncertainty
278.15	.01566	.00032886
280.65	.01988	.00041748
283.15	.02206	.00046326
285.65	.02722	.00057162
288.15	.03182	.00066822
290.65	.03601	.00075621
293.15	.04392	.00092232
295.65	.06153	.00129213
298.15	.07827	.00164367
300.65	.09811	.00206031
303.15	.1236	.0025956

System: 3,4-dichloronitrobenzene + hexane; phases: Liquid, Crystal
Fixed: Pressure, kPa = 101
Property: Mole fraction of 3,4-dichloronitrobenzene (Liquid); method: Gravimetric
Temperature, K	Mole fraction of 3,4-dichloronitrobenzene	uncertainty
278.15	.02929	.00061509
280.65	.03633	.00076293
283.15	.04245	.00089145
285.65	.04761	.00099981
288.15	.05181	.00108801
290.65	.05722	.00120162
293.15	.06335	.00133035
295.65	.06989	.00146769
298.15	.08242	.00173082
300.65	.1147	.0024087
303.15	.1727	.0036267

System: 1-butanol + 3,4-dichloronitrobenzene; phases: Liquid, Crystal
Fixed: Pressure, kPa = 101
Property: Mole fraction of 3,4-dichloronitrobenzene (Liquid); method: Gravimetric
Temperature, K	Mole fraction of 3,4-dichloronitrobenzene	uncertainty
278.15	.03889	.00081669
280.65	.04432	.00093072
283.15	.04864	.00102144
285.65	.05423	.00113883
288.15	.05931	.00124551
290.65	.06648	.00139608
293.15	.07347	.00154287
295.65	.08191	.00172011
298.15	.09992	.00209832
300.65	.1178	.0024738
303.15	.1357	.0028497

System: ethyl acetate + 2,3-dichloronitrobenzene; phases: Liquid, Crystal
Fixed: Pressure, kPa = 101
Property: Mole fraction of 2,3-dichloronitrobenzene (Liquid); method: Gravimetric
Temperature, K	Mole fraction of 2,3-dichloronitrobenzene	uncertainty
278.15	.2124	.0044604
280.65	.2688	.0056448
283.15	.3305	.0069405
285.65	.3878	.0081438
288.15	.4355	.0091455
290.65	.4863	.0102123
293.15	.5207	.0109347
295.65	.5693	.0119553
298.15	.5917	.0124257
300.65	.6446	.0135366
303.15	.6818	.0143178

System: tetrachloromethane + 2,3-dichloronitrobenzene; phases: Liquid, Crystal
Fixed: Pressure, kPa = 101
Property: Mole fraction of 2,3-dichloronitrobenzene (Liquid); method: Gravimetric
Temperature, K	Mole fraction of 2,3-dichloronitrobenzene	uncertainty
278.15	.06186	.00129906
280.65	.08112	.00170352
283.15	.09704	.00203784
285.65	.1101	.0023121
288.15	.12	.00252
290.65	.1297	.0027237
293.15	.1498	.0031458
295.65	.1943	.0040803
298.15	.2413	.0050673
300.65	.3119	.0065499
303.15	.3801	.0079821

System: cyclohexane + 2,3-dichloronitrobenzene; phases: Liquid, Crystal
Fixed: Pressure, kPa = 101
Property: Mole fraction of 2,3-dichloronitrobenzene (Liquid); method: Gravimetric
Temperature, K	Mole fraction of 2,3-dichloronitrobenzene	uncertainty
278.15	.01368	.00028728
280.65	.01557	.00032697
283.15	.01839	.00038619
285.65	.01992	.00041832
288.15	.02124	.00044604
290.65	.02661	.00055881
293.15	.03173	.00066633
295.65	.03772	.00079212
298.15	.04207	.00088347
300.65	.04739	.00099519
303.15	.05491	.00115311

System: hexane + 2,3-dichloronitrobenzene; phases: Liquid, Crystal
Fixed: Pressure, kPa = 101
Property: Mole fraction of 2,3-dichloronitrobenzene (Liquid); method: Gravimetric
Temperature, K	Mole fraction of 2,3-dichloronitrobenzene	uncertainty
278.15	.00535	.00011235
280.65	.00888	.00018648
283.15	.01118	.00023478
285.65	.01336	.00028056
288.15	.01503	.00031563
290.65	.01717	.00036057
293.15	.02135	.00044835
295.65	.02311	.00048531
298.15	.02447	.00051387
300.65	.02773	.00058233
303.15	.03097	.00065037

System: heptane + 2,3-dichloronitrobenzene; phases: Liquid, Crystal
Fixed: Pressure, kPa = 101
Property: Mole fraction of 2,3-dichloronitrobenzene (Liquid); method: Gravimetric
Temperature, K	Mole fraction of 2,3-dichloronitrobenzene	uncertainty
278.15	.00633	.00013293
280.65	.00962	.00020202
283.15	.01278	.00026838
285.65	.01462	.00030702
288.15	.01702	.00035742
290.65	.02116	.00044436
293.15	.02506	.00052626
295.65	.02763	.00058023
298.15	.0322	.0006762
300.65	.03448	.00072408
303.15	.03797	.00079737

System: 1-propanol + 2,3-dichloronitrobenzene; phases: Liquid, Crystal
Fixed: Pressure, kPa = 101
Property: Mole fraction of 2,3-dichloronitrobenzene (Liquid); method: Gravimetric
Temperature, K	Mole fraction of 2,3-dichloronitrobenzene	uncertainty
278.15	.02216	.00046536
280.65	.02471	.00051891
283.15	.02751	.00057771
285.65	.02948	.00061908
288.15	.03183	.00066843
290.65	.03503	.00073563
293.15	.0387	.0008127
295.65	.04208	.00088368
298.15	.04556	.00095676
300.65	.05112	.00107352
303.15	.05752	.00120792

System: 2-propanol + 2,3-dichloronitrobenzene; phases: Liquid, Crystal
Fixed: Pressure, kPa = 101
Property: Mole fraction of 2,3-dichloronitrobenzene (Liquid); method: Gravimetric
Temperature, K	Mole fraction of 2,3-dichloronitrobenzene	uncertainty
278.15	.00992	.00020832
280.65	.01158	.00024318
283.15	.0148	.0003108
285.65	.01688	.00035448
288.15	.01994	.00041874
290.65	.02431	.00051051
293.15	.02865	.00060165
295.65	.03357	.00070497
298.15	.03943	.00082803
300.65	.04522	.00094962
303.15	.04996	.00104916

System: 1-butanol + 2,3-dichloronitrobenzene; phases: Liquid, Crystal
Fixed: Pressure, kPa = 101
Property: Mole fraction of 2,3-dichloronitrobenzene (Liquid); method: Gravimetric
Temperature, K	Mole fraction of 2,3-dichloronitrobenzene	uncertainty
278.15	.02537	.00053277
280.65	.03312	.00069552
283.15	.04009	.00084189
285.65	.04532	.00095172
288.15	.05008	.00105168
290.65	.05268	.00110628
293.15	.05626	.00118146
295.65	.05891	.00123711
298.15	.06142	.00128982
300.65	.0645	.0013545
303.15	.06788	.00142548
