Measured thermophysical data. Micellization and Thermodynamic Study of 1-Alkyl-3-methylimidazolium Tetrafluoroborate Ionic Liquids in Aqueous Solution
Source: J. Chem. Eng. Data, 2014, 10.1021/je400861g
Compound 1: 1-dodecyl-3-methylimidazolium tetrafluoroborate, C16H31BF4N2, purity 99%
Compound 2: 3-methyl-1-tetradecyl-1H-imidazol-3-ium tetrafluoroborate, C18H35BF4N2, purity 99%
Compound 3: 1-hexadecyl-3-methylimidazolium tetrafluoroborate, C20H39BF4N2, purity 99%
Compound 4: water, H2O

System: water + 1-dodecyl-3-methylimidazolium tetrafluoroborate; phases: Liquid
Fixed: Pressure, kPa = 101
Fixed: Temperature, K = 298.15
Property: Electrical conductivity, S/m (Liquid); method: DDS-11A conductometer
Molality, mol/kg of 1-dodecyl-3-methylimidazolium tetrafluoroborate	Electrical conductivity, S/m	uncertainty
.0003	.0324	.001
.0006	.0346	.001
.001	.0379	.001
.0018	.0455	.001
.003	.0553	.001
.006	.0629	.001
.008	.064	.001
.01	.0653	.001
.018	.0712	.001
.03	.0809	.001
.04	.091	.001
.06	.1098	.001

System: water + 1-dodecyl-3-methylimidazolium tetrafluoroborate; phases: Liquid, Air at 1 atmosphere
Fixed: Temperature, K = 298.15
Property: Surface tension liquid-gas, N/m (Liquid); method: Ring tensiometer
Molality, mol/kg of 1-dodecyl-3-methylimidazolium tetrafluoroborate	Surface tension liquid-gas, N/m	uncertainty
.0003	.0564	.0003
.0006	.0504	.0003
.001	.0431	.0003
.0018	.0343	.0003
.003	.0296	.0003
.006	.0282	.0003
.008	.0283	.0003
.01	.0282	.0003
.018	.0283	.0003
.03	.028	.0003
.06	.0277	.0003

System: water + 3-methyl-1-tetradecyl-1H-imidazol-3-ium tetrafluoroborate; phases: Liquid
Fixed: Pressure, kPa = 101
Fixed: Temperature, K = 298.15
Property: Electrical conductivity, S/m (Liquid); method: DDS-11A conductometer
Molality, mol/kg of 3-methyl-1-tetradecyl-1H-imidazol-3-ium tetrafluoroborate	Electrical conductivity, S/m	uncertainty
.0001	.0307	.001
.00018	.0311	.001
.0003	.032	.001
.0006	.0344	.001
.001	.036	.001
.0018	.0368	.001
.003	.0376	.001
.006	.0393	.001
.01	.0423	.001
.018	.0487	.001
.03	.0543	.001
.04	.0633	.001
.06	.0732	.001

System: water + 3-methyl-1-tetradecyl-1H-imidazol-3-ium tetrafluoroborate; phases: Liquid, Air at 1 atmosphere
Fixed: Temperature, K = 298.15
Property: Surface tension liquid-gas, N/m (Liquid); method: Ring tensiometer
Molality, mol/kg of 3-methyl-1-tetradecyl-1H-imidazol-3-ium tetrafluoroborate	Surface tension liquid-gas, N/m	uncertainty
.0001	.0479	.0003
.00018	.0419	.0003
.0003	.039	.0003
.0006	.0336	.0003
.001	.0299	.0003
.0018	.0284	.0003
.003	.0278	.0003
.006	.0276	.0003
.01	.0273	.0003
.018	.027	.0003

System: water + 1-hexadecyl-3-methylimidazolium tetrafluoroborate; phases: Liquid
Fixed: Pressure, kPa = 101
Fixed: Temperature, K = 298.15
Property: Electrical conductivity, S/m (Liquid); method: DDS-11A conductometer
Molality, mol/kg of 1-hexadecyl-3-methylimidazolium tetrafluoroborate	Electrical conductivity, S/m	uncertainty
.000003	.0022	.001
.000005	.0022	.001
.000007	.0024	.001
.00001	.0032	.001
.00002	.004	.001
.00003	.0052	.001
.00005	.007	.001
.00007	.0103	.001
.0001	.0142	.001
.0002	.0203	.001
.0003	.0265	.001
.0005	.0372	.001
.0007	.0462	.001
.001	.0593	.001

System: water + 1-hexadecyl-3-methylimidazolium tetrafluoroborate; phases: Liquid, Air at 1 atmosphere
Fixed: Temperature, K = 298.15
Property: Surface tension liquid-gas, N/m (Liquid); method: Ring tensiometer
Molality, mol/kg of 1-hexadecyl-3-methylimidazolium tetrafluoroborate	Surface tension liquid-gas, N/m	uncertainty
.00001	.0529	.0003
.00002	.0479	.0003
.00003	.0438	.0003
.00005	.0384	.0003
.00007	.0349	.0003
.0001	.0367	.0003
.0002	.037	.0003
.0003	.0364	.0003
.0005	.0352	.0003
.0007	.0352	.0003
