Measured thermophysical data. Measurement and Correlation of Isothermal Vapor Liquid Equilibrium of Fluoroethane + N,N-Dimethylacetamide, Fluoroethane + N-Methyl-2-pyrrolidone, and 1,1,1,2-Tetrafluoroethane + N,N-Dimethylacetamide Systems
Source: J. Chem. Eng. Data, 2013, 10.1021/je4007822
Compound 1: fluoroethane, C2H5F, purity 99.7%
Compound 2: R-134a, C2H2F4, purity 99.9%
Compound 3: N,N-dimethylacetamide, C4H9NO, purity 99.9%
Compound 4: 1-methyl-2-pyrrolidinone, C5H9NO, purity 99.9%
Compound 5: DMF, C3H7NO, purity 99.9%

System: DMF + R-134a; phases: Liquid, Gas
Property: Vapor or sublimation pressure, kPa (Liquid); method: Closed cell (Static) method
Temperature, K	Mole fraction of R-134a	Vapor or sublimation pressure, kPa	uncertainty
303.15	.2388	155.6	.6
303.15	.395	260.2	.6
303.15	.6026	408.5	.6
303.15	.697	485.8	.6
313.15	.2551	214.5	.6
313.15	.4037	341.6	.6
313.15	.5354	471.5	.6
313.15	.6941	611.2	.6

System: N,N-dimethylacetamide + fluoroethane; phases: Liquid, Gas
Property: Vapor or sublimation pressure, kPa (Liquid); method: Closed cell (Static) method
Temperature, K	Mole fraction of fluoroethane	Vapor or sublimation pressure, kPa	uncertainty
293.15	.2234	140.2	.6
293.15	.373	241.6	.6
293.15	.4955	333.2	.6
293.15	.61	418.1	.6
293.15	.6652	468.1	.6
293.15	.7759	567.5	.6
293.15	.8584	660.2	.6
293.15	.9064	713	.6
303.15	.1783	138.7	.6
303.15	.2977	234.2	.6
303.15	.4058	331.5	.6
303.15	.4901	405.1	.6
303.15	.5983	510.8	.6
303.15	.6652	584.6	.6
303.15	.8161	774.1	.6
303.15	.9078	909	.6
313.15	.1652	159	.6
313.15	.2737	263.5	.6
313.15	.3952	390.2	.6
313.15	.5107	512.4	.6
313.15	.577	591.5	.6
313.15	.6704	720	.6
313.15	.7937	892	.6
313.15	.876	1039	.6
313.15	.9368	1185	.6
323.15	.1657	189.2	.6
323.15	.2837	328.1	.6
323.15	.46	550.4	.6
323.15	.52	631.4	.6
323.15	.6468	818.3	.6
323.15	.7265	950	.6
323.15	.8098	1113	.6
323.15	.882	1312.8	.6
323.15	.9381	1502.7	.6
333.15	.1638	234.5	.6
333.15	.2793	405.2	.6
333.15	.3776	554.3	.6
333.15	.5564	845.1	.6
333.15	.6537	1040.3	.6
333.15	.7419	1198.1	.6
333.15	.798	1325.4	.6
333.15	.8625	1528.4	.6
333.15	.9066	1702.3	.6
333.15	.9542	1965.3	.6
343.15	.1547	267.2	.6
343.15	.3008	518.4	.6
343.15	.4892	860.1	.6
343.15	.562	1024.5	.6
343.15	.6454	1198.1	.6
343.15	.697	1265	.6
343.15	.77	1470	.6
343.15	.8269	1667	.6
343.15	.8786	1879	.6
343.15	.9134	2060	.6
343.15	.9711	2446	.6
353.15	.1786	364.2	.6
353.15	.292	590.1	.6
353.15	.462	952.1	.6
353.15	.581	1230.5	.6
353.15	.6642	1447	.6
353.15	.732	1630.2	.6
353.15	.782	1810.5	.6
353.15	.8472	2084.3	.6
353.15	.905	2460.3	.6

System: fluoroethane + 1-methyl-2-pyrrolidinone; phases: Liquid, Gas
Property: Vapor or sublimation pressure, kPa (Liquid); method: Closed cell (Static) method
Temperature, K	Mole fraction of fluoroethane	Vapor or sublimation pressure, kPa	uncertainty
293.15	.132	84.4	.6
293.15	.2433	155.8	.6
293.15	.3367	221.5	.6
293.15	.4469	298.1	.6
293.15	.6171	430.5	.6
293.15	.715	510.4	.6
293.15	.8014	606.5	.6
293.15	.883	669.4	.6
293.15	.944	735.9	.6
303.15	.138	108.6	.6
303.15	.2285	182.1	.6
303.15	.3247	264.5	.6
303.15	.4263	355.1	.6
303.15	.5272	446.5	.6
303.15	.616	532.1	.6
303.15	.7088	634.2	.6
303.15	.8084	761.6	.6
303.15	.877	849.5	.6
303.15	.9312	930.4	.6
313.15	.1249	125.1	.6
313.15	.1917	194.8	.6
313.15	.2818	291.5	.6
313.15	.392	412.8	.6
313.15	.4655	491.4	.6
313.15	.601	648.9	.6
313.15	.7	789.4	.6
313.15	.7871	910	.6
313.15	.9172	1150.8	.6
313.15	.9669	1287.6	.6
323.15	.1453	178.3	.6
323.15	.2025	250.4	.6
323.15	.314	391.7	.6
323.15	.4442	565.4	.6
323.15	.55	715.3	.6
323.15	.6581	885.7	.6
323.15	.749	1043	.6
323.15	.8561	1270.5	.6
323.15	.919	1461.7	.6
323.15	.9628	1602.4	.6
333.15	.1367	207.8	.6
333.15	.1969	298.6	.6
333.15	.3117	466.1	.6
333.15	.4913	748.2	.6
333.15	.5704	880.3	.6
333.15	.6735	1083.6	.6
333.15	.8093	1398.9	.6
333.15	.8604	1536.7	.6
333.15	.9067	1700.4	.6
333.15	.9517	1910.6	.6
343.15	.1523	274	.6
343.15	.2317	413.9	.6
343.15	.3464	624.3	.6
343.15	.4577	835.4	.6
343.15	.562	1056.1	.6
343.15	.6618	1275.3	.6
343.15	.775	1585.1	.6
343.15	.866	1915.3	.6
343.15	.9412	2312.2	.6
353.15	.1394	302.7	.6
353.15	.2187	466.8	.6
353.15	.3024	649.8	.6
353.15	.3966	853.4	.6
353.15	.4881	1067.5	.6
353.15	.5891	1334.1	.6
353.15	.673	1596	.6
353.15	.824	2112.3	.6
353.15	.9145	2610.5	.6

System: N,N-dimethylacetamide + R-134a; phases: Liquid, Gas
Property: Vapor or sublimation pressure, kPa (Liquid); method: Closed cell (Static) method
Temperature, K	Mole fraction of R-134a	Vapor or sublimation pressure, kPa	uncertainty
293.15	.1359	68.6	.6
293.15	.2215	112.4	.6
293.15	.319	165.4	.6
293.15	.434	229.6	.6
293.15	.5344	284.8	.6
293.15	.5848	313.9	.6
293.15	.7087	382.6	.6
293.15	.766	417.3	.6
293.15	.8573	473.6	.6
293.15	.9528	532.6	.6
303.15	.156	104.5	.6
303.15	.2702	193.5	.6
303.15	.4506	324.9	.6
303.15	.5605	405.7	.6
303.15	.6256	454.3	.6
303.15	.6929	507.6	.6
303.15	.7643	562.3	.6
303.15	.8058	595.6	.6
303.15	.855	635.2	.6
303.15	.9354	703.1	.6
313.15	.1737	158.7	.6
313.15	.2421	223.6	.6
313.15	.385	359.4	.6
313.15	.5208	492.6	.6
313.15	.6558	623.7	.6
313.15	.7398	708.7	.6
313.15	.7842	756.6	.6
313.15	.854	835.7	.6
313.15	.9548	952.4	.6
323.15	.1436	168.5	.6
323.15	.2451	291.5	.6
323.15	.4141	495.7	.6
323.15	.572	687.7	.6
323.15	.67	804.3	.6
323.15	.7312	887.4	.6
323.15	.818	1008.6	.6
323.15	.9145	1162.3	.6
333.15	.1029	154.8	.6
333.15	.2304	342.6	.6
333.15	.3495	514.2	.6
333.15	.4843	718.3	.6
333.15	.6472	978.5	.6
333.15	.754	1157.6	.6
333.15	.8202	1275.1	.6
333.15	.9099	1460.3	.6
343.15	.12	224.7	.6
343.15	.2376	439.6	.6
343.15	.393	721.5	.6
343.15	.4688	871.3	.6
343.15	.541	1008.5	.6
343.15	.631	1180.5	.6
343.15	.705	1340.5	.6
343.15	.818	1601.6	.6
343.15	.904	1845.6	.6
353.15	.12	274.6	.6
353.15	.244	549	.6
353.15	.405	915.6	.6
353.15	.4925	1120.7	.6
353.15	.578	1342.6	.6
353.15	.653	1534.6	.6
353.15	.744	1773.9	.6
353.15	.839	2053.6	.6
353.15	.9127	2300.4	.6
