Measured thermophysical data. Liquid Liquid Equilibrium of Various Aqueous Two-Phase Systems: Experiment and Correlation
Source: J. Chem. Eng. Data, 2013, 10.1021/je400453b
Compound 1: ethanol, C2H6O, purity 99.7%
Compound 2: ammonium sulfate, H8N2O4S, purity 99%
Compound 3: dipotassium phosphate, HK2O4P, purity 99.5%
Compound 4: water, H2O

System: ethanol + water + ammonium sulfate; phases: Liquid mixture 1, Liquid mixture 2
Fixed: Temperature, K = 298.15
Fixed: Pressure, kPa = 101
Property: Mass fraction of ammonium sulfate (Liquid mixture 1); method: Titration method
Mass fraction of ethanol	Mass fraction of ammonium sulfate	uncertainty
.061	.411	.001
.118	.333	.001
.15	.259	.001
.179	.218	.001
.214	.19	.001
.227	.179	.001
.26	.159	.001
.283	.141	.001
.298	.13	.001
.315	.119	.001
.329	.107	.001
.35	.097	.001
.363	.089	.001
.38	.08	.001
.405	.07	.001
.426	.06	.001
.43	.059	.001
.441	.051	.001
.454	.049	.001
.46	.045	.001
.486	.038	.001
.523	.031	.001
.544	.027	.001

System: ethanol + water + ammonium sulfate; phases: Liquid mixture 1, Liquid mixture 2
Fixed: Pressure, kPa = 101
Property: Mass fraction of ammonium sulfate (Liquid mixture 1); method: Other
Property: Mass fraction of ammonium sulfate (Liquid mixture 2); method: Other
Property: Mass fraction of ethanol (Liquid mixture 2); method: Other
Temperature, K	Mass fraction of ethanol	Mass fraction of ammonium sulfate	uncertainty	Mass fraction of ammonium sulfate	uncertainty	Mass fraction of ethanol	uncertainty
298.15	.398	.072	.001	.272	.001	.147	.001
298.15	.416	.064	.001	.303	.001	.125	.001
298.15	.44	.054	.001	.319	.001	.114	.001
298.15	.458	.048	.001	.341	.001	.101	.001
298.15	.474	.043	.001	.361	.001	.089	.001
298.15	.49	.038	.001	.381	.001	.078	.001
298.15	.504	.034	.001	.4	.001	.069	.001

System: ethanol + water + dipotassium phosphate; phases: Liquid mixture 1, Liquid mixture 2
Fixed: Temperature, K = 298.15
Fixed: Pressure, kPa = 101
Property: Mass fraction of dipotassium phosphate (Liquid mixture 1); method: Titration method
Mass fraction of ethanol	Mass fraction of dipotassium phosphate	uncertainty
.081	.274	.001
.091	.26	.001
.1	.249	.001
.109	.238	.001
.119	.227	.001
.125	.219	.001
.135	.21	.001
.151	.193	.001
.158	.186	.001
.17	.174	.001
.182	.163	.001
.188	.159	.001
.2	.148	.001
.205	.139	.001
.214	.132	.001
.223	.125	.001
.231	.119	.001
.246	.108	.001
.26	.099	.001
.279	.087	.001
.294	.078	.001
.315	.069	.001
.333	.06	.001
.348	.055	.001
.366	.05	.001

System: ethanol + water + dipotassium phosphate; phases: Liquid mixture 1, Liquid mixture 2
Fixed: Pressure, kPa = 101
Property: Mass fraction of dipotassium phosphate (Liquid mixture 1); method: Other
Property: Mass fraction of dipotassium phosphate (Liquid mixture 2); method: Other
Property: Mass fraction of ethanol (Liquid mixture 2); method: Other
Temperature, K	Mass fraction of ethanol	Mass fraction of dipotassium phosphate	uncertainty	Mass fraction of dipotassium phosphate	uncertainty	Mass fraction of ethanol	uncertainty
298.15	.287	.084	.001	.285	.001	.074	.001
298.15	.3	.076	.001	.302	.001	.063	.001
298.15	.313	.07	.001	.317	.001	.054	.001
298.15	.324	.065	.001	.331	.001	.047	.001
298.15	.334	.06	.001	.343	.001	.04	.001
298.15	.344	.056	.001	.355	.001	.035	.001
298.15	.354	.052	.001	.366	.001	.03	.001
