Measured thermophysical data. Vapor Pressure of Thiodiglycol
Source: J. Chem. Eng. Data, 2014, 10.1021/je400978j
Compound 1: .beta.,.beta.'-dihydroxydiethyl sulfide, C4H10O2S, purity 99%

System: .beta.,.beta.'-dihydroxydiethyl sulfide; phases: Liquid, Gas
Property: Vapor or sublimation pressure, kPa (Liquid); method: Transpiration method
Temperature, K	Vapor or sublimation pressure, kPa	uncertainty
298.15	.0000653	.000003265
303.15	.000128	.0000064
308.15	.0002	.00001
313.15	.000367	.00001835

System: .beta.,.beta.'-dihydroxydiethyl sulfide; phases: Liquid, Gas
Property: Vapor or sublimation pressure, kPa (Liquid); method: Rate of evaporation
Temperature, K	Vapor or sublimation pressure, kPa	uncertainty
417.75	.67	.0131
429.85	1.31	.0093
446.15	2.65	.0061
462.35	5.31	.0042
476.85	9.33	.003
498.15	19.88	.002
521.15	39.89	.0013
