Measured thermophysical data. Densities, Speeds of Sound, Excess Molar Enthalpies, and Heat Capacities of o-Chlorotoluene and Cyclic Ether Mixtures
Source: J. Chem. Eng. Data, 2014, 10.1021/je400722h
Compound 1: o-chlorotoluene, C7H7Cl, purity 98.5%
Compound 2: 1,3-dioxolane, C3H6O2, purity 98.4%
Compound 3: 1,4-dioxane, C4H8O2, purity 98.3%
Compound 4: tetrahydropyran, C5H10O, purity 98.7%

System: o-chlorotoluene; phases: Liquid
Property: Mass density, kg/m3 (Liquid); method: Vibrating tube method
Temperature, K	Pressure, kPa	Mass density, kg/m3	uncertainty
298.15	101	1077.3	.5
303.15	101	1072.5	.5
308.15	101	1067.6	.5

System: o-chlorotoluene; phases: Liquid
Property: Speed of sound, m/s (Liquid); method: Pulse-echo method
Temperature, K	Pressure, kPa	Speed of sound, m/s	uncertainty
298.15	101	1298.7	.1
303.15	101	1280.7	.1
308.15	101	1262.7	.1

System: 1,3-dioxolane; phases: Liquid
Property: Mass density, kg/m3 (Liquid); method: Vibrating tube method
Temperature, K	Pressure, kPa	Mass density, kg/m3	uncertainty
298.15	101	1058.9	.5
303.15	101	1052.6	.5
308.15	101	1046.3	.5

System: 1,3-dioxolane; phases: Liquid
Property: Speed of sound, m/s (Liquid); method: Pulse-echo method
Temperature, K	Pressure, kPa	Speed of sound, m/s	uncertainty
298.15	101	1338.7	.1
303.15	101	1316.8	.1
308.15	101	1294.7	.1

System: 1,4-dioxane; phases: Liquid
Property: Mass density, kg/m3 (Liquid); method: Vibrating tube method
Temperature, K	Pressure, kPa	Mass density, kg/m3	uncertainty
298.15	101	1027.9	.5
303.15	101	1022.3	.5
308.15	101	1016.6	.5

System: 1,4-dioxane; phases: Liquid
Property: Speed of sound, m/s (Liquid); method: Pulse-echo method
Temperature, K	Pressure, kPa	Speed of sound, m/s	uncertainty
298.15	101	1346	.1
303.15	101	1324.4	.1
308.15	101	1302.5	.1

System: tetrahydropyran; phases: Liquid
Property: Mass density, kg/m3 (Liquid); method: Vibrating tube method
Temperature, K	Pressure, kPa	Mass density, kg/m3	uncertainty
298.15	101	879.13	.5
303.15	101	873.99	.5
308.15	101	868.83	.5

System: tetrahydropyran; phases: Liquid
Property: Speed of sound, m/s (Liquid); method: Pulse-echo method
Temperature, K	Pressure, kPa	Speed of sound, m/s	uncertainty
298.15	101	1269.8	.1
303.15	101	1246.8	.1
308.15	101	1224.4	.1

System: o-chlorotoluene + 1,3-dioxolane; phases: Liquid
Fixed: Pressure, kPa = 101
Property: Mass density, kg/m3 (Liquid); method: Vibrating tube method
Temperature, K	Mole fraction of o-chlorotoluene	Mass density, kg/m3	uncertainty
298.15	.0902	1061.1	.5
298.15	.1536	1062.6	.5
298.15	.2167	1064	.5
298.15	.2734	1065.2	.5
298.15	.3169	1066.1	.5
298.15	.3843	1067.5	.5
298.15	.4301	1068.4	.5
298.15	.4831	1069.4	.5
298.15	.5278	1070.2	.5
298.15	.5834	1071.2	.5
298.15	.6265	1071.9	.5
298.15	.6793	1072.7	.5
298.15	.7315	1073.6	.5
298.15	.7829	1074.4	.5
298.15	.8242	1075	.5
298.15	.8565	1075.4	.5
298.15	.9013	1076	.5
298.15	.9325	1076.5	.5
303.15	.0902	1054.9	.5
303.15	.1536	1056.4	.5
303.15	.2167	1057.9	.5
303.15	.2734	1059.3	.5
303.15	.3169	1060.2	.5
303.15	.3843	1061.7	.5
303.15	.4301	1062.7	.5
303.15	.4831	1063.7	.5
303.15	.5278	1064.6	.5
303.15	.5834	1065.7	.5
303.15	.6265	1066.5	.5
303.15	.6793	1067.4	.5
303.15	.7315	1068.3	.5
303.15	.7829	1069.1	.5
303.15	.8242	1069.8	.5
303.15	.8565	1070.3	.5
303.15	.9013	1071	.5
303.15	.9325	1071.5	.5
308.15	.0902	1048.7	.5
308.15	.1536	1050.4	.5
308.15	.2167	1052	.5
308.15	.2734	1053.4	.5
308.15	.3169	1054.4	.5
308.15	.3843	1055.9	.5
308.15	.4301	1057	.5
308.15	.4831	1058.1	.5
308.15	.5278	1059	.5
308.15	.5834	1060.2	.5
308.15	.6265	1061	.5
308.15	.6793	1062	.5
308.15	.7315	1063	.5
308.15	.7829	1063.9	.5
308.15	.8242	1064.7	.5
308.15	.8565	1065.2	.5
308.15	.9013	1066	.5
308.15	.9325	1066.5	.5
298.15	1	1077.3	.5
303.15	1	1072.5	.5
308.15	1	1067.6	.5
298.15	0	1058.9	.5
303.15	0	1052.6	.5
308.15	0	1046.3	.5

System: o-chlorotoluene + 1,3-dioxolane; phases: Liquid
Fixed: Pressure, kPa = 101
Property: Speed of sound, m/s (Liquid); method: Pulse-echo method
Temperature, K	Mole fraction of o-chlorotoluene	Speed of sound, m/s	uncertainty
298.15	.0902	1326.8	.1
298.15	.1536	1320	.1
298.15	.2167	1314.3	.1
298.15	.2734	1310.1	.1
298.15	.3169	1307.4	.1
298.15	.3843	1303.8	.1
298.15	.4301	1301.9	.1
298.15	.4831	1300.1	.1
298.15	.5278	1298.9	.1
298.15	.5834	1297.8	.1
298.15	.6265	1297.3	.1
298.15	.6793	1296.8	.1
298.15	.7315	1296.6	.1
298.15	.7829	1296.7	.1
298.15	.8242	1296.9	.1
298.15	.8565	1297.1	.1
298.15	.9013	1297.5	.1
298.15	.9325	1297.8	.1
303.15	.0902	1304.4	.1
303.15	.1536	1297.8	.1
303.15	.2167	1292.5	.1
303.15	.2734	1288.8	.1
303.15	.3169	1286.4	.1
303.15	.3843	1283.5	.1
303.15	.4301	1281.9	.1
303.15	.4831	1280.3	.1
303.15	.5278	1279.3	.1
303.15	.5834	1278.4	.1
303.15	.6265	1277.9	.1
303.15	.6793	1277.4	.1
303.15	.7315	1277.3	.1
303.15	.7829	1277.4	.1
303.15	.8242	1277.6	.1
303.15	.8565	1277.8	.1
303.15	.9013	1278.5	.1
303.15	.9325	1279	.1
308.15	.0902	1281.7	.1
308.15	.1536	1275.2	.1
308.15	.2167	1270.4	.1
308.15	.2734	1267	.1
308.15	.3169	1265.1	.1
308.15	.3843	1262.7	.1
308.15	.4301	1261.4	.1
308.15	.4831	1260.3	.1
308.15	.5278	1259.6	.1
308.15	.5834	1258.7	.1
308.15	.6265	1258.3	.1
308.15	.6793	1258	.1
308.15	.7315	1257.8	.1
308.15	.7829	1257.9	.1
308.15	.8242	1258.1	.1
308.15	.8565	1258.5	.1
308.15	.9013	1259.3	.1
308.15	.9325	1260.1	.1
298.15	1	1298.7	.1
303.15	1	1280.7	.1
308.15	1	1262.7	.1
298.15	0	1338.7	.1
303.15	0	1316.8	.1
308.15	0	1294.7	.1

System: o-chlorotoluene + 1,3-dioxolane; phases: Liquid
Fixed: Pressure, kPa = 101
Property: Molar heat capacity at constant pressure, J/K/mol (Liquid); method: Small sample (50 mg) DSC
Temperature, K	Mole fraction of o-chlorotoluene	Molar heat capacity at constant pressure, J/K/mol	uncertainty
298.15	.0865	127.97	.38391
298.15	.1145	129.85	.38955
298.15	.1386	131.45	.39435
298.15	.1829	134.37	.40311
298.15	.2145	136.42	.40926
298.15	.2573	139.17	.41751
298.15	.2965	141.65	.42495
298.15	.3217	143.22	.42966
298.15	.3506	144.99	.43497
298.15	.3902	147.38	.44214
298.15	.4216	149.24	.44772
298.15	.4654	151.78	.45534
298.15	.5007	153.78	.46134
298.15	.5418	156.06	.46818
298.15	.5905	158.68	.47604
298.15	.6218	160.32	.48096
298.15	.663	162.44	.48732
298.15	.6902	163.81	.49143
298.15	.7118	164.88	.49464
298.15	.7534	166.91	.50073
298.15	.7927	168.78	.50634
298.15	.8426	171.11	.51333
298.15	.8914	173.35	.52005
298.15	.9206	174.66	.52398
303.15	.0865	129.15	.38745
303.15	.1145	131.07	.39321
303.15	.1386	132.71	.39813
303.15	.1829	135.68	.40704
303.15	.2145	137.77	.41331
303.15	.2573	140.56	.42168
303.15	.2965	143.06	.42918
303.15	.3217	144.65	.43395
303.15	.3506	146.45	.43935
303.15	.3902	148.87	.44661
303.15	.4216	150.75	.45225
303.15	.4654	153.32	.45996
303.15	.5007	155.35	.46605
303.15	.5418	157.66	.47298
303.15	.5905	160.33	.48099
303.15	.6218	162.01	.48603
303.15	.663	164.17	.49251
303.15	.6902	165.56	.49668
303.15	.7118	166.65	.49995
303.15	.7534	168.72	.50616
303.15	.7927	170.62	.51186
303.15	.8426	172.98	.51894
303.15	.8914	175.22	.52566
303.15	.9206	176.53	.52959
308.15	.0865	130.3	.3909
308.15	.1145	132.27	.39681
308.15	.1386	133.94	.40182
308.15	.1829	136.97	.41091
308.15	.2145	139.09	.41727
308.15	.2573	141.91	.42573
308.15	.2965	144.45	.43335
308.15	.3217	146.05	.43815
308.15	.3506	147.87	.44361
308.15	.3902	150.31	.45093
308.15	.4216	152.22	.45666
308.15	.4654	154.82	.46446
308.15	.5007	156.88	.47064
308.15	.5418	159.23	.47769
308.15	.5905	161.94	.48582
308.15	.6218	163.64	.49092
308.15	.663	165.83	.49749
308.15	.6902	167.25	.50175
308.15	.7118	168.36	.50508
308.15	.7534	170.46	.51138
308.15	.7927	172.38	.51714
308.15	.8426	174.76	.52428
308.15	.8914	177	.531
308.15	.9206	178.31	.53493

System: o-chlorotoluene + 1,3-dioxolane; phases: Liquid
Fixed: Pressure, kPa = 101
Fixed: Temperature, K = 308.15
Property: Excess molar enthalpy (molar enthalpy of mixing), kJ/mol (Liquid); method: Power-compensation calorimetry
Mole fraction of o-chlorotoluene	Excess molar enthalpy (molar enthalpy of mixing), kJ/mol	uncertainty
.0945	.151	.000151
.1378	.211	.000211
.1987	.276	.000276
.2396	.313	.000313
.2914	.352	.000352
.3467	.376	.000376
.3962	.392	.000392
.4532	.4	.0004
.4991	.393	.000393
.5432	.383	.000383
.5899	.368	.000368
.6329	.343	.000343
.6923	.307	.000307
.7321	.272	.000272
.8021	.211	.000211
.8492	.164	.000164
.8912	.122	.000122
.9319	.0779	.0000779

System: o-chlorotoluene + 1,4-dioxane; phases: Liquid
Fixed: Pressure, kPa = 101
Property: Mass density, kg/m3 (Liquid); method: Vibrating tube method
Temperature, K	Mole fraction of o-chlorotoluene	Mass density, kg/m3	uncertainty
298.15	.0984	1033.4	.5
298.15	.1643	1036.9	.5
298.15	.2124	1039.5	.5
298.15	.2837	1043.3	.5
298.15	.3427	1046.3	.5
298.15	.3918	1048.9	.5
298.15	.4375	1051.2	.5
298.15	.4864	1053.6	.5
298.15	.5237	1055.5	.5
298.15	.5765	1058.1	.5
298.15	.6237	1060.4	.5
298.15	.6801	1063	.5
298.15	.7135	1064.6	.5
298.15	.7737	1067.4	.5
298.15	.8125	1069.2	.5
298.15	.8635	1071.4	.5
298.15	.9012	1073.1	.5
298.15	.9415	1074.9	.5
303.15	.0984	1027.7	.5
303.15	.1643	1031.3	.5
303.15	.2124	1033.9	.5
303.15	.2837	1037.8	.5
303.15	.3427	1040.9	.5
303.15	.3918	1043.5	.5
303.15	.4375	1045.9	.5
303.15	.4864	1048.4	.5
303.15	.5237	1050.3	.5
303.15	.5765	1052.9	.5
303.15	.6237	1055.2	.5
303.15	.6801	1057.9	.5
303.15	.7135	1059.5	.5
303.15	.7737	1062.3	.5
303.15	.8125	1064.1	.5
303.15	.8635	1066.4	.5
303.15	.9012	1068.1	.5
303.15	.9415	1069.9	.5
308.15	.0984	1022	.5
308.15	.1643	1025.6	.5
308.15	.2124	1028.3	.5
308.15	.2837	1032.3	.5
308.15	.3427	1035.5	.5
308.15	.3918	1038.2	.5
308.15	.4375	1040.6	.5
308.15	.4864	1043.1	.5
308.15	.5237	1045.1	.5
308.15	.5765	1047.7	.5
308.15	.6237	1050.1	.5
308.15	.6801	1052.8	.5
308.15	.7135	1054.4	.5
308.15	.7737	1057.2	.5
308.15	.8125	1059	.5
308.15	.8635	1061.4	.5
308.15	.9012	1063.1	.5
308.15	.9415	1064.9	.5
298.15	0	1027.9	.5
303.15	0	1022.3	.5
308.15	0	1016.6	.5

System: o-chlorotoluene + 1,4-dioxane; phases: Liquid
Fixed: Pressure, kPa = 101
Property: Speed of sound, m/s (Liquid); method: Pulse-echo method
Temperature, K	Mole fraction of o-chlorotoluene	Speed of sound, m/s	uncertainty
298.15	.0984	1338.2	.1
298.15	.1643	1333.2	.1
298.15	.2124	1329.9	.1
298.15	.2837	1325.3	.1
298.15	.3427	1321.8	.1
298.15	.3918	1319.1	.1
298.15	.4375	1316.8	.1
298.15	.4864	1314.5	.1
298.15	.5237	1312.8	.1
298.15	.5765	1310.7	.1
298.15	.6237	1308.8	.1
298.15	.6801	1306.9	.1
298.15	.7135	1305.8	.1
298.15	.7737	1304	.1
298.15	.8125	1302.9	.1
298.15	.8635	1301.7	.1
298.15	.9012	1300.8	.1
298.15	.9415	1299.9	.1
303.15	.0984	1316.6	.1
303.15	.1643	1312	.1
303.15	.2124	1308.9	.1
303.15	.2837	1304.6	.1
303.15	.3427	1301.5	.1
303.15	.3918	1299	.1
303.15	.4375	1296.9	.1
303.15	.4864	1294.8	.1
303.15	.5237	1293.2	.1
303.15	.5765	1291.2	.1
303.15	.6237	1289.6	.1
303.15	.6801	1287.7	.1
303.15	.7135	1286.7	.1
303.15	.7737	1285	.1
303.15	.8125	1284.1	.1
303.15	.8635	1283	.1
303.15	.9012	1282.2	.1
303.15	.9415	1281.5	.1
308.15	.0984	1295.1	.1
308.15	.1643	1290.8	.1
308.15	.2124	1287.9	.1
308.15	.2837	1284	.1
308.15	.3427	1281.2	.1
308.15	.3918	1279	.1
308.15	.4375	1277	.1
308.15	.4864	1275.1	.1
308.15	.5237	1273.8	.1
308.15	.5765	1271.9	.1
308.15	.6237	1270.4	.1
308.15	.6801	1268.7	.1
308.15	.7135	1267.8	.1
308.15	.7737	1266.3	.1
308.15	.8125	1265.4	.1
308.15	.8635	1264.4	.1
308.15	.9012	1263.8	.1
308.15	.9415	1263.3	.1
298.15	0	1346	.1
303.15	0	1324.4	.1
308.15	0	1302.5	.1

System: o-chlorotoluene + 1,4-dioxane; phases: Liquid
Fixed: Pressure, kPa = 101
Property: Molar heat capacity at constant pressure, J/K/mol (Liquid); method: Small sample (50 mg) DSC
Temperature, K	Mole fraction of o-chlorotoluene	Molar heat capacity at constant pressure, J/K/mol	uncertainty
298.15	.0903	155.43	.46629
298.15	.1278	156.54	.46962
298.15	.1654	157.65	.47295
298.15	.2006	158.69	.47607
298.15	.2343	159.68	.47904
298.15	.2765	160.9	.4827
298.15	.3004	161.59	.48477
298.15	.3421	162.78	.48834
298.15	.3876	164.06	.49218
298.15	.4002	164.41	.49323
298.15	.4327	165.31	.49593
298.15	.4726	166.39	.49917
298.15	.5117	167.43	.50229
298.15	.5401	168.17	.50451
298.15	.5915	169.49	.50847
298.15	.6305	170.45	.51135
298.15	.6721	171.46	.51438
298.15	.7198	172.57	.51771
298.15	.7401	173.03	.51909
298.15	.7623	173.53	.52059
298.15	.8004	174.36	.52308
298.15	.8432	175.26	.52578
298.15	.8856	176.11	.52833
298.15	.9165	176.7	.5301
303.15	.0903	156.69	.47007
303.15	.1278	157.84	.47352
303.15	.1654	158.98	.47694
303.15	.2006	160.04	.48012
303.15	.2343	161.05	.48315
303.15	.2765	162.3	.4869
303.15	.3004	163	.489
303.15	.3421	164.21	.49263
303.15	.3876	165.52	.49656
303.15	.4002	165.87	.49761
303.15	.4327	166.79	.50037
303.15	.4726	167.9	.5037
303.15	.5117	168.97	.50691
303.15	.5401	169.73	.50919
303.15	.5915	171.09	.51327
303.15	.6305	172.09	.51627
303.15	.6721	173.13	.51939
303.15	.7198	174.28	.52284
303.15	.7401	174.76	.52428
303.15	.7623	175.27	.52581
303.15	.8004	176.13	.52839
303.15	.8432	177.05	.53115
303.15	.8856	177.92	.53376
303.15	.9165	178.52	.53556
308.15	.0903	158.03	.47409
308.15	.1278	159.2	.4776
308.15	.1654	160.36	.48108
308.15	.2006	161.44	.48432
308.15	.2343	162.46	.48738
308.15	.2765	163.73	.49119
308.15	.3004	164.44	.49332
308.15	.3421	165.66	.49698
308.15	.3876	166.99	.50097
308.15	.4002	167.35	.50205
308.15	.4327	168.28	.50484
308.15	.4726	169.41	.50823
308.15	.5117	170.5	.5115
308.15	.5401	171.28	.51384
308.15	.5915	172.67	.51801
308.15	.6305	173.7	.5211
308.15	.6721	174.77	.52431
308.15	.7198	175.95	.52785
308.15	.7401	176.44	.52932
308.15	.7623	176.97	.53091
308.15	.8004	177.84	.53352
308.15	.8432	178.78	.53634
308.15	.8856	179.66	.53898
308.15	.9165	180.26	.54078

System: o-chlorotoluene + 1,4-dioxane; phases: Liquid
Fixed: Pressure, kPa = 101
Fixed: Temperature, K = 308.15
Property: Excess molar enthalpy (molar enthalpy of mixing), kJ/mol (Liquid); method: Power-compensation calorimetry
Mole fraction of o-chlorotoluene	Excess molar enthalpy (molar enthalpy of mixing), kJ/mol	uncertainty
.0998	.162	.000162
.1643	.244	.000244
.2095	.283	.000283
.2498	.315	.000315
.3012	.346	.000346
.3567	.365	.000365
.4098	.368	.000368
.4597	.367	.000367
.5088	.356	.000356
.5563	.338	.000338
.6019	.315	.000315
.6532	.281	.000281
.7067	.246	.000246
.7538	.206	.000206
.8093	.16	.00016
.8498	.125	.000125
.8932	.0875	.0000875
.9265	.0602	.0000602

System: o-chlorotoluene + tetrahydropyran; phases: Liquid
Fixed: Pressure, kPa = 101
Property: Mass density, kg/m3 (Liquid); method: Vibrating tube method
Temperature, K	Mole fraction of o-chlorotoluene	Mass density, kg/m3	uncertainty
298.15	.1156	906.77	.5
298.15	.1765	920.75	.5
298.15	.2342	933.65	.5
298.15	.2765	942.89	.5
298.15	.3305	954.43	.5
298.15	.3716	963.04	.5
298.15	.4235	973.69	.5
298.15	.4721	983.44	.5
298.15	.5216	993.16	.5
298.15	.5803	1004.4	.5
298.15	.6317	1014.1	.5
298.15	.6796	1022.8	.5
298.15	.7216	1030.4	.5
298.15	.7737	1039.6	.5
298.15	.8219	1047.9	.5
298.15	.8753	1057	.5
298.15	.9064	1062.2	.5
298.15	.9325	1066.5	.5
303.15	.1156	901.67	.5
303.15	.1765	915.67	.5
303.15	.2342	928.57	.5
303.15	.2765	937.81	.5
303.15	.3305	949.36	.5
303.15	.3716	957.97	.5
303.15	.4235	968.63	.5
303.15	.4721	978.39	.5
303.15	.5216	988.12	.5
303.15	.5803	999.4	.5
303.15	.6317	1009.1	.5
303.15	.6796	1017.9	.5
303.15	.7216	1025.4	.5
303.15	.7737	1034.7	.5
303.15	.8219	1043	.5
303.15	.8753	1052.1	.5
303.15	.9064	1057.3	.5
303.15	.9325	1061.6	.5
308.15	.1156	896.57	.5
308.15	.1765	910.57	.5
308.15	.2342	923.48	.5
308.15	.2765	932.73	.5
308.15	.3305	944.29	.5
308.15	.3716	952.9	.5
308.15	.4235	963.56	.5
308.15	.4721	973.33	.5
308.15	.5216	983.08	.5
308.15	.5803	994.39	.5
308.15	.6317	1004.1	.5
308.15	.6796	1012.9	.5
308.15	.7216	1020.5	.5
308.15	.7737	1029.7	.5
308.15	.8219	1038.1	.5
308.15	.8753	1047.2	.5
308.15	.9064	1052.4	.5
308.15	.9325	1056.7	.5
298.15	0	879.13	.5
303.15	0	873.99	.5
308.15	0	868.83	.5

System: o-chlorotoluene + tetrahydropyran; phases: Liquid
Fixed: Pressure, kPa = 101
Property: Speed of sound, m/s (Liquid); method: Pulse-echo method
Temperature, K	Mole fraction of o-chlorotoluene	Speed of sound, m/s	uncertainty
298.15	.1156	1274.6	.1
298.15	.1765	1277	.1
298.15	.2342	1279.3	.1
298.15	.2765	1280.9	.1
298.15	.3305	1282.9	.1
298.15	.3716	1284.4	.1
298.15	.4235	1286.2	.1
298.15	.4721	1287.9	.1
298.15	.5216	1289.4	.1
298.15	.5803	1291.2	.1
298.15	.6317	1292.6	.1
298.15	.6796	1293.9	.1
298.15	.7216	1294.8	.1
298.15	.7737	1296	.1
298.15	.8219	1296.8	.1
298.15	.8753	1297.7	.1
298.15	.9064	1298.1	.1
298.15	.9325	1298.3	.1
303.15	.1156	1252.7	.1
303.15	.1765	1255.6	.1
303.15	.2342	1258.1	.1
303.15	.2765	1259.9	.1
303.15	.3305	1262	.1
303.15	.3716	1263.7	.1
303.15	.4235	1265.7	.1
303.15	.4721	1267.4	.1
303.15	.5216	1269	.1
303.15	.5803	1271.1	.1
303.15	.6317	1272.7	.1
303.15	.6796	1274.1	.1
303.15	.7216	1275.3	.1
303.15	.7737	1276.7	.1
303.15	.8219	1277.8	.1
303.15	.8753	1279	.1
303.15	.9064	1279.5	.1
303.15	.9325	1279.9	.1
308.15	.1156	1230.7	.1
308.15	.1765	1233.7	.1
308.15	.2342	1236.6	.1
308.15	.2765	1238.6	.1
308.15	.3305	1241	.1
308.15	.3716	1242.9	.1
308.15	.4235	1245	.1
308.15	.4721	1247	.1
308.15	.5216	1249	.1
308.15	.5803	1251.1	.1
308.15	.6317	1252.8	.1
308.15	.6796	1254.5	.1
308.15	.7216	1255.7	.1
308.15	.7737	1257.3	.1
308.15	.8219	1258.6	.1
308.15	.8753	1260	.1
308.15	.9064	1260.7	.1
308.15	.9325	1261.4	.1
298.15	0	1269.8	.1
303.15	0	1246.8	.1
308.15	0	1224.4	.1

System: o-chlorotoluene + tetrahydropyran; phases: Liquid
Fixed: Pressure, kPa = 101
Property: Molar heat capacity at constant pressure, J/K/mol (Liquid); method: Small sample (50 mg) DSC
Temperature, K	Mole fraction of o-chlorotoluene	Molar heat capacity at constant pressure, J/K/mol	uncertainty
298.15	.0897	152.82	.45846
298.15	.1165	153.77	.46131
298.15	.1429	154.71	.46413
298.15	.1929	156.46	.46938
298.15	.2376	158.01	.47403
298.15	.2892	159.77	.47931
298.15	.3218	160.85	.48255
298.15	.3519	161.84	.48552
298.15	.4019	163.44	.49032
298.15	.4427	164.71	.49413
298.15	.4817	165.88	.49764
298.15	.5216	167.05	.50115
298.15	.5549	168	.504
298.15	.5936	169.07	.50721
298.15	.6215	169.81	.50943
298.15	.6518	170.6	.5118
298.15	.6902	171.57	.51471
298.15	.7205	172.31	.51693
298.15	.7515	173.04	.51912
298.15	.7931	173.99	.52197
298.15	.8156	174.49	.52347
298.15	.8472	175.18	.52554
298.15	.8831	175.93	.52779
298.15	.9146	176.56	.52968
303.15	.0897	154.4	.4632
303.15	.1165	155.35	.46605
303.15	.1429	156.28	.46884
303.15	.1929	158.04	.47412
303.15	.2376	159.59	.47877
303.15	.2892	161.35	.48405
303.15	.3218	162.44	.48732
303.15	.3519	163.43	.49029
303.15	.4019	165.03	.49509
303.15	.4427	166.31	.49893
303.15	.4817	167.49	.50247
303.15	.5216	168.66	.50598
303.15	.5549	169.62	.50886
303.15	.5936	170.69	.51207
303.15	.6215	171.44	.51432
303.15	.6518	172.23	.51669
303.15	.6902	173.21	.51963
303.15	.7205	173.96	.52188
303.15	.7515	174.7	.5241
303.15	.7931	175.66	.52698
303.15	.8156	176.17	.52851
303.15	.8472	176.87	.53061
303.15	.8831	177.63	.53289
303.15	.9146	178.29	.53487
308.15	.0897	156.2	.4686
308.15	.1165	157.14	.47142
308.15	.1429	158.07	.47421
308.15	.1929	159.8	.4794
308.15	.2376	161.34	.48402
308.15	.2892	163.09	.48927
308.15	.3218	164.17	.49251
308.15	.3519	165.15	.49545
308.15	.4019	166.75	.50025
308.15	.4427	168.01	.50403
308.15	.4817	169.19	.50757
308.15	.5216	170.35	.51105
308.15	.5549	171.3	.5139
308.15	.5936	172.36	.51708
308.15	.6215	173.11	.51933
308.15	.6518	173.9	.5217
308.15	.6902	174.87	.52461
308.15	.7205	175.62	.52686
308.15	.7515	176.36	.52908
308.15	.7931	177.32	.53196
308.15	.8156	177.83	.53349
308.15	.8472	178.52	.53556
308.15	.8831	179.3	.5379
308.15	.9146	179.96	.53988

System: o-chlorotoluene + tetrahydropyran; phases: Liquid
Fixed: Pressure, kPa = 101
Fixed: Temperature, K = 308.15
Property: Excess molar enthalpy (molar enthalpy of mixing), kJ/mol (Liquid); method: Power-compensation calorimetry
Mole fraction of o-chlorotoluene	Excess molar enthalpy (molar enthalpy of mixing), kJ/mol	uncertainty
.0994	-.0694	-.0000694
.1367	-.0945	-.0000945
.1982	-.127	-.000127
.2467	-.154	-.000154
.3018	-.178	-.000178
.3537	-.192	-.000192
.3986	-.204	-.000204
.4367	-.214	-.000214
.4825	-.22	-.00022
.5267	-.22	-.00022
.5894	-.214	-.000214
.6276	-.211	-.000211
.6934	-.191	-.000191
.7368	-.175	-.000175
.7864	-.155	-.000155
