Measured thermophysical data. Determination and Modeling of Isobaric Vapor Liquid Equilibria for the Methylcarbamate + Methyl-N-phenyl Carbamate System at Different Pressures
Source: J. Chem. Eng. Data, 2013, 10.1021/je400551d
Compound 1: carbamic acid, methyl ester, C2H5NO2, purity 99%
Compound 2: carbamic acid, phenyl-, methyl ester, C8H9NO2
Compound 3: ethylene glycol, C2H6O2, purity 99%
Compound 4: n-decane, C10H22, purity 99%
Compound 5: water, H2O

System: carbamic acid, methyl ester; phases: Liquid, Gas
Property: Vapor or sublimation pressure, kPa (Liquid); method: Manometric method
Temperature, K	Vapor or sublimation pressure, kPa	uncertainty
341.45	1.31	.1
350.9	1.91	.1
356.06	2.5	.1
360.75	3.55	.1
364.43	4.19	.1
367	4.48	.1
371.7	5.42	.1
373.85	6.23	.1
377.23	7.14	.1
384.9	9.83	.1
387.17	10.96	.1
390.5	12.39	.1
393.75	13.99	.1

System: carbamic acid, phenyl-, methyl ester; phases: Liquid, Gas
Property: Vapor or sublimation pressure, kPa (Liquid); method: Manometric method
Temperature, K	Vapor or sublimation pressure, kPa	uncertainty
372.5	.2093	.013
374.46	.2248	.013
376.9	.254	.013
379.05	.308	.013
380.65	.3343	.013
383.31	.3891	.013
385.85	.4487	.013
387.85	.4996	.013
390.35	.5609	.013
391.76	.5914	.013
394.05	.651	.013
395.8	.719	.013
397.05	.7885	.013
397.05	.7897	.013
399.63	.9364	.013
399.83	.9418	.013
402.15	1.06	.1
409.85	1.29	.1
412.9	1.54	.1
415.9	1.97	.1
418.45	2.13	.1

System: ethylene glycol; phases: Liquid, Gas
Property: Vapor or sublimation pressure, kPa (Liquid); method: Manometric method
Temperature, K	Vapor or sublimation pressure, kPa	uncertainty
336.45	.2527	.013
345	.4838	.013
355.15	.9002	.013
369.25	1.69	.1
374.45	2.13	.1
378.95	2.66	.1
384.45	3.57	.1
388.1	4.4	.1
391.45	5.33	.1
394.56	6.01	.1
397.25	7.14	.1
404.05	9.2	.1
408.25	11.34	.1

System: n-decane; phases: Liquid, Gas
Property: Vapor or sublimation pressure, kPa (Liquid); method: Manometric method
Temperature, K	Vapor or sublimation pressure, kPa	uncertainty
299.25	.1732	.013
306.95	.3091	.013
309.15	.4116	.013
316.26	.6545	.013
326.1	1.04	.1
340.05	1.95	.1
347.9	2.97	.1
353.32	3.8	.1
358.67	4.82	.1
362.85	5.92	.1
365.13	6.96	.1
370.4	8.23	.1
377.13	10.48	.1
379.93	12	.1
382.83	13.25	.1

System: water; phases: Liquid, Gas
Property: Vapor or sublimation pressure, kPa (Liquid); method: Manometric method
Temperature, K	Vapor or sublimation pressure, kPa	uncertainty
280.2	1.29	.1
282.23	1.34	.1
287.9	1.82	.1
292.36	2.13	.1
296.13	2.78	.1
300.7	3.47	.1
304.8	4.54	.1
306.67	4.82	.1
309.65	5.9	.1
312.07	6.75	.1
314.95	7.78	.1
316.65	8.45	.1
317.9	9.45	.1
320.04	10.62	.1
322.75	11.78	.1

System: carbamic acid, methyl ester + carbamic acid, phenyl-, methyl ester; phases: Liquid, Gas
Property: Boiling temperature at pressure P, K (Liquid); method: Ebulliometric method (Recirculating still)
Pressure, kPa	Mole fraction of carbamic acid, methyl ester	Boiling temperature at pressure P, K	uncertainty
1	.9037	340.45	.1
1	.8143	341.13	.1
1	.6908	342.6	.1
1	.6301	345.65	.1
1	.558	346.9	.1
1	.4615	349.7	.1
1	.3849	354.45	.1
1	.3085	355.15	.1
1	.183	356.95	.1
1	.0852	368	.1
2	.8933	351.56	.1
2	.811	351.67	.1
2	.7017	354.65	.1
2	.6146	355.05	.1
2	.5641	357.43	.1
2	.463	358.5	.1
2	.371	362.04	.1
2	.3176	363.56	.1
2	.183	369.35	.1
2	.0852	380.5	.1
4	.903	366.83	.1
4	.8221	367.55	.1
4	.7013	368.85	.1
4	.609	369.9	.1
4	.5312	371.15	.1
4	.4663	372.3	.1
4	.3656	376.23	.1
4	.312	378.6	.1
4	.183	381.75	.1
4	.0852	391.6	.1
6	.9254	375.96	.1
6	.8062	375.53	.1
6	.692	378.75	.1
6	.6046	379.17	.1
6	.5518	380.7	.1
6	.4651	381.9	.1
6	.3625	385.45	.1
6	.3093	387.82	.1
6	.183	392.05	.1
8	.9162	382.18	.1
8	.8071	382.35	.1
8	.6936	384.49	.1
8	.6107	385.85	.1
8	.5488	386.9	.1
8	.4511	388.46	.1
8	.3643	391.95	.1
