Measured thermophysical data. Solubility and Partition Coefficients of 5-Fluorouracil in ScCO2 and ScCO2/Poly(l-lactic acid)
Source: J. Chem. Eng. Data, 2014, 10.1021/je400484u
Compound 1: carbon dioxide, CO2, purity 99.9%
Compound 2: 5-fluorouracil, C4H3FN2O2, purity 98%
Compound 3: ethanol, C2H6O, purity 98%

System: 5-fluorouracil + carbon dioxide; phases: Fluid (supercritical or subcritical phases), Crystal
Property: Mole fraction of 5-fluorouracil (Fluid (supercritical or subcritical phases)); method: UV Spectra
Temperature, K	Pressure, kPa	Mole fraction of 5-fluorouracil	uncertainty
313.15	8000	.0000013	.00000002
313.15	10000	.00000281	.00000002
313.15	15000	.00000333	.00000002
313.15	20000	.00000382	.00000002
318.15	8000	.00000143	.00000002
318.15	10000	.00000251	.00000002
318.15	15000	.00000353	.00000002
318.15	20000	.00000421	.00000002
328.15	8000	.00000158	.00000002
328.15	10000	.0000023	.00000002
328.15	15000	.0000041	.00000002
328.15	20000	.00000525	.00000002

System: 5-fluorouracil + ethanol + carbon dioxide; phases: Gas, Crystal
Property: Mole fraction of 5-fluorouracil (Gas); method: UV Spectra
Temperature, K	Pressure, kPa	Solvent: Mole fraction of ethanol	Mole fraction of 5-fluorouracil	uncertainty
313.15	10000	.04	.00028	.000002
313.15	13000	.04	.000311	.000002
313.15	15000	.04	.000349	.000002
313.15	20000	.04	.000407	.000002
323.15	10000	.04	.00025	.000002
323.15	13000	.04	.000295	.000002
323.15	15000	.04	.000371	.000002
323.15	20000	.04	.000498	.000002
318.15	10000	.02	.000105	.000002
318.15	10000	.04	.0002	.000002
318.15	10000	.06	.000368	.000002
318.15	10000	.08	.001022	.000002
318.15	15000	.02	.00014	.000002
318.15	15000	.04	.000332	.000002
318.15	15000	.06	.000535	.000002
318.15	15000	.08	.00155	.000002
318.15	20000	.02	.000181	.000002
318.15	20000	.04	.000458	.000002
318.15	20000	.06	.000603	.000002
318.15	20000	.08	.00232	.000002
