Measured thermophysical data. Measurement and Correlation of Solubility of 2-Chloro-4-ethylamino-6-isopropylamino-1,3,5-triazine in Different Organic Solvents
Source: J. Chem. Eng. Data, 2013, 10.1021/je400639m
Compound 1: 2-chloro-4-ethylamino-6-isopropylamino-1,3,5-triazine, C8H14ClN5
Compound 2: methanol, CH4O, purity 99.5%
Compound 3: ethanol, C2H6O, purity 99.5%
Compound 4: 1-propanol, C3H8O, purity 99.5%
Compound 5: 2-propanol, C3H8O, purity 99.5%
Compound 6: 1-butanol, C4H10O, purity 99.5%
Compound 7: ethyl acetate, C4H8O2, purity 99.5%

System: 2-chloro-4-ethylamino-6-isopropylamino-1,3,5-triazine; phases: Crystal, Liquid, Air at 1 atmosphere
Property: Normal melting temperature, K (Crystal); method: DSC/DTA
Normal melting temperature, K	uncertainty
447	1

System: methanol + 2-chloro-4-ethylamino-6-isopropylamino-1,3,5-triazine; phases: Liquid, Crystal
Fixed: Pressure, kPa = 101
Property: Mole fraction of 2-chloro-4-ethylamino-6-isopropylamino-1,3,5-triazine (Liquid); method: Gravimetric method
Temperature, K	Mole fraction of 2-chloro-4-ethylamino-6-isopropylamino-1,3,5-triazine	uncertainty
283.15	.0016433	.000032866
288.15	.0020099	.000040198
293.15	.0024245	.00004849
298.15	.0033255	.00006651
303.15	.0036265	.00007253
308.15	.0046079	.000092158
313.15	.0056388	.000112776
318.15	.0067881	.000135762
323.15	.0083256	.000166512

System: ethanol + 2-chloro-4-ethylamino-6-isopropylamino-1,3,5-triazine; phases: Liquid, Crystal
Fixed: Pressure, kPa = 101
Property: Mole fraction of 2-chloro-4-ethylamino-6-isopropylamino-1,3,5-triazine (Liquid); method: Gravimetric method
Temperature, K	Mole fraction of 2-chloro-4-ethylamino-6-isopropylamino-1,3,5-triazine	uncertainty
283.15	.0018952	.000037904
288.15	.0023154	.000046308
293.15	.0030011	.000060022
298.15	.003414	.00006828
303.15	.0046608	.000093216
308.15	.0052307	.000104614
313.15	.0073362	.000146724
318.15	.008136	.00016272
323.15	.0099753	.000199506
333.15	.0152717	.000305434
343.15	.023005	.0004601

System: 1-propanol + 2-chloro-4-ethylamino-6-isopropylamino-1,3,5-triazine; phases: Liquid, Crystal
Fixed: Pressure, kPa = 101
Property: Mole fraction of 2-chloro-4-ethylamino-6-isopropylamino-1,3,5-triazine (Liquid); method: Gravimetric method
Temperature, K	Mole fraction of 2-chloro-4-ethylamino-6-isopropylamino-1,3,5-triazine	uncertainty
283.15	.0020875	.00004175
288.15	.0027413	.000054826
293.15	.0038327	.000076654
298.15	.0042625	.00008525
303.15	.0050861	.000101722
308.15	.0076766	.000153532
313.15	.009089	.00018178
318.15	.0113716	.000227432
323.15	.0128948	.000257896
333.15	.0172355	.00034471
343.15	.0249505	.00049901

System: 2-propanol + 2-chloro-4-ethylamino-6-isopropylamino-1,3,5-triazine; phases: Liquid, Crystal
Fixed: Pressure, kPa = 101
Property: Mole fraction of 2-chloro-4-ethylamino-6-isopropylamino-1,3,5-triazine (Liquid); method: Gravimetric method
Temperature, K	Mole fraction of 2-chloro-4-ethylamino-6-isopropylamino-1,3,5-triazine	uncertainty
283.15	.0016893	.000033786
288.15	.0018574	.000037148
293.15	.0025852	.000051704
298.15	.0034491	.000068982
303.15	.0042534	.000085068
308.15	.0052624	.000105248
313.15	.0069049	.000138098
318.15	.0083098	.000166196
323.15	.0108724	.000217448
333.15	.01726	.0003452
343.15	.0273115	.00054623

System: 1-butanol + 2-chloro-4-ethylamino-6-isopropylamino-1,3,5-triazine; phases: Liquid, Crystal
Fixed: Pressure, kPa = 101
Property: Mole fraction of 2-chloro-4-ethylamino-6-isopropylamino-1,3,5-triazine (Liquid); method: Gravimetric method
Temperature, K	Mole fraction of 2-chloro-4-ethylamino-6-isopropylamino-1,3,5-triazine	uncertainty
283.15	.0023338	.000046676
288.15	.003396	.00006792
293.15	.0039314	.000078628
298.15	.0056194	.000112388
303.15	.0068329	.000136658
308.15	.0088672	.000177344
313.15	.0116331	.000232662
318.15	.0146066	.000292132
323.15	.0206907	.000413814
333.15	.0326069	.000652138
343.15	.0541861	.001083722

System: ethyl acetate + 2-chloro-4-ethylamino-6-isopropylamino-1,3,5-triazine; phases: Liquid, Crystal
Fixed: Pressure, kPa = 101
Property: Mole fraction of 2-chloro-4-ethylamino-6-isopropylamino-1,3,5-triazine (Liquid); method: Gravimetric method
Temperature, K	Mole fraction of 2-chloro-4-ethylamino-6-isopropylamino-1,3,5-triazine	uncertainty
283.15	.008107	.00016214
288.15	.0091904	.000183808
293.15	.0114471	.000228942
298.15	.0124696	.000249392
303.15	.01439	.0002878
308.15	.0165128	.000330256
313.15	.0195168	.000390336
318.15	.0206025	.00041205
323.15	.0262974	.000525948
333.15	.032499	.00064998
