Measured thermophysical data. Solubility of Tris(hydroxymethyl)aminomethane in Methanol + 1-Propanol Mixtures at Various Temperatures
Source: J. Chem. Eng. Data, 2014, 10.1021/je5009685
Compound 1: trishydroxymethylaminomethane, C4H11NO3, purity 99.99%
Compound 2: methanol, CH4O, purity 99.99%
Compound 3: 1-propanol, C3H8O, purity 99.99%

System: methanol + 1-propanol + trishydroxymethylaminomethane; phases: Liquid, Crystal
Fixed: Pressure, kPa = 101
Property: Mole fraction of trishydroxymethylaminomethane (Liquid); method: laser method
Solvent: Mole fraction of methanol	Temperature, K	Mole fraction of trishydroxymethylaminomethane	uncertainty
1	293.2	.0076	.0001976
.94	293.2	.0071	.0001846
.88	293.2	.0064	.0001664
.81	293.2	.0058	.0001508
.74	293.2	.0053	.0001378
.65	293.2	.005	.00013
.56	293.2	.0044	.0001144
.45	293.2	.0043	.0001118
.32	293.2	.0041	.0001066
.17	293.2	.0039	.0001014
0	293.2	.0038	.0000988
1	298.2	.0092	.0002392
.94	298.2	.0086	.0002236
.88	298.2	.0078	.0002028
.81	298.2	.0069	.0001794
.74	298.2	.0064	.0001664
.65	298.2	.006	.000156
.56	298.2	.0054	.0001404
.45	298.2	.0053	.0001378
.32	298.2	.0052	.0001352
.17	298.2	.0051	.0001326
0	298.2	.005	.00013
1	303.2	.0106	.0002756
.94	303.2	.0103	.0002678
.88	303.2	.0093	.0002418
.81	303.2	.0083	.0002158
.74	303.2	.0077	.0002002
.65	303.2	.0072	.0001872
.56	303.2	.0067	.0001742
.45	303.2	.0066	.0001716
.32	303.2	.0065	.000169
.17	303.2	.0064	.0001664
0	303.2	.0063	.0001638
1	308.2	.0124	.0003224
.94	308.2	.0121	.0003146
.88	308.2	.0112	.0002912
.81	308.2	.01	.00026
.74	308.2	.0092	.0002392
.65	308.2	.0087	.0002262
.56	308.2	.008	.000208
.45	308.2	.0078	.0002028
.32	308.2	.0077	.0002002
.17	308.2	.0074	.0001924
0	308.2	.0072	.0001872
1	313.2	.0158	.0004108
.94	313.2	.0152	.0003952
.88	313.2	.0138	.0003588
.81	313.2	.0125	.000325
.74	313.2	.0112	.0002912
.65	313.2	.0104	.0002704
.56	313.2	.0098	.0002548
.45	313.2	.0097	.0002522
.32	313.2	.0096	.0002496
.17	313.2	.0092	.0002392
0	313.2	.0088	.0002288

System: methanol + trishydroxymethylaminomethane; phases: Liquid, Crystal
Property: Mole fraction of trishydroxymethylaminomethane (Liquid); method: laser method
Temperature, K	Pressure, kPa	Mole fraction of trishydroxymethylaminomethane	uncertainty
293.2	101	.0076	.0001976
298.2	101	.0092	.0002392
303.2	101	.0106	.0002756
308.2	101	.0124	.0003224
313.2	101	.0158	.0004108

System: 1-propanol + trishydroxymethylaminomethane; phases: Liquid, Crystal
Property: Mole fraction of trishydroxymethylaminomethane (Liquid); method: laser method
Temperature, K	Pressure, kPa	Mole fraction of trishydroxymethylaminomethane	uncertainty
293.2	101	.0038	.0000988
298.2	101	.005	.00013
303.2	101	.0063	.0001638
308.2	101	.0072	.0001872
313.2	101	.0088	.0002288
