Measured thermophysical data. Thermal Diffusivity of 2-Methoxy-2-methylpropane at Temperatures from (303.15 to 493.15) K and Pressures from (1.5 to 10) MPa
Source: J. Chem. Eng. Data, 2014, 10.1021/je5008394
Compound 1: 2-methoxy-2-methylpropane, C5H12O, purity 99%

System: 2-methoxy-2-methylpropane; phases: Liquid
Fixed: Pressure, kPa = 101.325
Property: Thermal diffusivity, m2/s (Liquid); method: dynamic light scattering
Temperature, K	Thermal diffusivity, m2/s	uncertainty
303.15	.000000064	.00000000064
313.15	.0000000617	.000000000617
323.15	.0000000587	.000000000587
333.15	.000000057	.00000000057
343.15	.0000000542	.000000000542
353.15	.0000000526	.000000000526
363.15	.0000000505	.000000000505
373.15	.0000000483	.000000000483
383.15	.0000000472	.000000000472
393.15	.0000000464	.000000000464
403.15	.0000000455	.000000000455
413.15	.0000000448	.000000000448
423.15	.0000000438	.000000000438
433.15	.0000000431	.000000000431
443.15	.0000000418	.000000000418
453.15	.0000000405	.000000000405
458.15	.0000000391	.000000000391
463.15	.0000000386	.000000000386
468.15	.0000000366	.000000000366
473.15	.0000000355	.000000000355
475.15	.0000000347	.000000000347
477.15	.0000000336	.000000000336
479.15	.0000000336	.000000000336
481.15	.000000033	.00000000033
483.15	.0000000322	.000000000322
485.15	.0000000307	.000000000307
487.15	.0000000302	.000000000302
489.15	.0000000295	.000000000295
491.15	.0000000281	.000000000281
493.15	.0000000273	.000000000273

System: 2-methoxy-2-methylpropane; phases: Gas
Fixed: Pressure, kPa = 101.325
Property: Thermal diffusivity, m2/s (Gas); method: dynamic light scattering
Temperature, K	Thermal diffusivity, m2/s	uncertainty
453.15	.000000236	.00000000236
455.15	.000000206	.00000000206
457.15	.000000187	.00000000187
459.15	.000000172	.00000000172
461.15	.000000162	.00000000162
463.15	.000000154	.00000000154
465.15	.000000147	.00000000147
467.15	.000000138	.00000000138
469.15	.000000131	.00000000131
471.15	.000000122	.00000000122
473.15	.000000114	.00000000114
475.15	.000000105	.00000000105
477.15	.000000097	.00000000097
479.15	.000000088	.00000000088
481.15	.000000078	.00000000078
483.15	.00000007	.0000000007
485.15	.000000062	.00000000062
487.15	.000000056	.00000000056
489.15	.00000005	.0000000005
491.15	.000000043	.00000000043
493.15	.000000031	.00000000031

System: 2-methoxy-2-methylpropane; phases: Liquid
Property: Thermal diffusivity, m2/s (Liquid); method: dynamic light scattering
Pressure, kPa	Temperature, K	Thermal diffusivity, m2/s	uncertainty
1500	303.15	.0000000666	.000000000666
2500	303.15	.000000067	.00000000067
4000	303.15	.0000000675	.000000000675
5500	303.15	.0000000679	.000000000679
7000	303.15	.0000000681	.000000000681
8500	303.15	.0000000683	.000000000683
10000	303.15	.0000000685	.000000000685
1500	318.15	.0000000629	.000000000629
2500	318.15	.0000000632	.000000000632
4000	318.15	.0000000637	.000000000637
5500	318.15	.000000064	.00000000064
7000	318.15	.0000000644	.000000000644
8500	318.15	.0000000647	.000000000647
10000	318.15	.0000000649	.000000000649
1500	333.15	.0000000594	.000000000594
2500	333.15	.0000000597	.000000000597
4000	333.15	.00000006	.0000000006
5500	333.15	.0000000605	.000000000605
7000	333.15	.0000000609	.000000000609
8500	333.15	.0000000615	.000000000615
10000	333.15	.0000000621	.000000000621
1500	348.15	.0000000562	.000000000562
2500	348.15	.0000000563	.000000000563
4000	348.15	.0000000568	.000000000568
5500	348.15	.0000000572	.000000000572
7000	348.15	.0000000578	.000000000578
8500	348.15	.0000000585	.000000000585
10000	348.15	.0000000592	.000000000592
1500	363.15	.0000000533	.000000000533
2500	363.15	.0000000534	.000000000534
4000	363.15	.0000000538	.000000000538
5500	363.15	.0000000543	.000000000543
7000	363.15	.000000055	.00000000055
8500	363.15	.0000000557	.000000000557
10000	363.15	.0000000568	.000000000568
1500	378.15	.0000000506	.000000000506
2500	378.15	.0000000507	.000000000507
4000	378.15	.000000051	.00000000051
5500	378.15	.0000000515	.000000000515
7000	378.15	.0000000523	.000000000523
8500	378.15	.0000000532	.000000000532
10000	378.15	.0000000544	.000000000544
1500	393.15	.0000000483	.000000000483
2500	393.15	.0000000483	.000000000483
4000	393.15	.0000000486	.000000000486
5500	393.15	.0000000492	.000000000492
7000	393.15	.0000000499	.000000000499
8500	393.15	.0000000509	.000000000509
10000	393.15	.0000000521	.000000000521
1500	403.15	.0000000468	.000000000468
2500	403.15	.0000000469	.000000000469
4000	403.15	.0000000471	.000000000471
5500	403.15	.0000000477	.000000000477
7000	403.15	.0000000485	.000000000485
8500	403.15	.0000000495	.000000000495
10000	403.15	.0000000508	.000000000508
1500	413.1	.0000000454	.000000000454
2500	413.1	.0000000455	.000000000455
4000	413.1	.0000000458	.000000000458
5500	413.1	.0000000464	.000000000464
7000	413.1	.0000000472	.000000000472
8500	413.1	.0000000482	.000000000482
10000	413.1	.0000000495	.000000000495
1500	423.15	.0000000442	.000000000442
2500	423.15	.0000000443	.000000000443
4000	423.15	.0000000446	.000000000446
5500	423.15	.0000000451	.000000000451
7000	423.15	.0000000459	.000000000459
8500	423.15	.000000047	.00000000047
10000	423.15	.0000000483	.000000000483
1500	433.15	.0000000432	.000000000432
2500	433.15	.0000000432	.000000000432
4000	433.15	.0000000436	.000000000436
5500	433.15	.0000000441	.000000000441
7000	433.15	.0000000449	.000000000449
8500	433.15	.0000000459	.000000000459
10000	433.15	.0000000472	.000000000472
2500	443.15	.0000000423	.000000000423
4000	443.15	.0000000426	.000000000426
5500	443.15	.0000000431	.000000000431
7000	443.15	.0000000439	.000000000439
8500	443.15	.0000000449	.000000000449
10000	443.15	.0000000461	.000000000461
2500	453.15	.0000000415	.000000000415
4000	453.15	.0000000418	.000000000418
5500	453.15	.0000000423	.000000000423
7000	453.15	.000000043	.00000000043
8500	453.15	.000000044	.00000000044
10000	453.15	.0000000451	.000000000451
2500	458.15	.0000000411	.000000000411
4000	458.15	.0000000415	.000000000415
5500	458.15	.000000042	.00000000042
7000	458.15	.0000000427	.000000000427
8500	458.15	.0000000436	.000000000436
10000	458.15	.0000000447	.000000000447
2500	463.15	.0000000408	.000000000408
4000	463.15	.0000000411	.000000000411
5500	463.15	.0000000416	.000000000416
7000	463.15	.0000000423	.000000000423
8500	463.15	.0000000432	.000000000432
10000	463.15	.0000000443	.000000000443
2500	468.15	.0000000405	.000000000405
4000	468.15	.0000000409	.000000000409
5500	468.15	.0000000414	.000000000414
7000	468.15	.000000042	.00000000042
8500	468.15	.0000000428	.000000000428
10000	468.15	.0000000438	.000000000438
2500	473.15	.0000000402	.000000000402
4000	473.15	.0000000406	.000000000406
5500	473.15	.0000000411	.000000000411
7000	473.15	.0000000418	.000000000418
8500	473.15	.0000000425	.000000000425
10000	473.15	.0000000434	.000000000434
4000	483.15	.0000000402	.000000000402
5500	483.15	.0000000407	.000000000407
7000	483.15	.0000000412	.000000000412
8500	483.15	.0000000419	.000000000419
10000	483.15	.0000000427	.000000000427
4000	493.15	.0000000399	.000000000399
5500	493.15	.0000000403	.000000000403
7000	493.15	.0000000408	.000000000408
8500	493.15	.0000000414	.000000000414
10000	493.15	.0000000421	.000000000421
