Measured thermophysical data. Solubilities of Succinic Acid in Acetic Acid + Water Mixtures and Acetic Acid + Cyclohexane Mixtures
Source: J. Chem. Eng. Data, 2014, 10.1021/je500231c
Compound 1: succinic acid, C4H6O4, purity 99%
Compound 2: acetic acid, C2H4O2, purity 99%
Compound 3: water, H2O, purity 99.8%
Compound 4: cyclohexane, C6H12, purity 99.5%

System: acetic acid + succinic acid + water; phases: Liquid, Crystal
Fixed: Pressure, kPa = 101
Property: Mass ratio of solute to solvent of succinic acid (Liquid); method: HPLC
Solvent: Mass fraction of acetic acid	Temperature, K	Mass ratio of solute to solvent of succinic acid	uncertainty
1	303.2	.0297	.001188
1	313.2	.0417	.001668
1	323.2	.0567	.002268
1	333.2	.0772	.003088
.9	303.2	.0473	.001892
.9	313.2	.0659	.002636
.9	323.2	.0872	.003488
.9	333.2	.1121	.004484
.8	303.2	.0668	.002672
.8	313.2	.0947	.003788
.8	323.2	.1204	.004816
.8	333.2	.1646	.006584
.7	303.2	.0846	.003384
.7	313.2	.1184	.004736
.7	323.2	.1597	.006388
.7	333.2	.2102	.008408
.6	303.2	.0985	.00394
.6	313.2	.1461	.005844
.6	323.2	.1835	.00734
.6	333.2	.2615	.01046
.5	303.2	.1134	.004536
.5	313.2	.1579	.006316
.5	323.2	.2114	.008456
.5	333.2	.2896	.011584
.4	303.2	.1196	.004784
.4	313.2	.1741	.006964
.4	323.2	.2392	.009568
.4	333.2	.3233	.012932
.3	303.2	.1223	.004892
.3	313.2	.1797	.007188
.3	323.2	.2463	.009852
.3	333.2	.3547	.014188
.2	303.2	.1232	.004928
.2	313.2	.1831	.007324
.2	323.2	.2585	.01034
.2	333.2	.3575	.0143
.1	303.2	.1194	.004776
.1	313.2	.1762	.007048
.1	323.2	.2506	.010024
.1	333.2	.3534	.014136
0	303.2	.1047	.004188
0	313.2	.1655	.00662
0	323.2	.2444	.009776
0	333.2	.3412	.013648

System: acetic acid + succinic acid + cyclohexane; phases: Liquid, Crystal
Fixed: Pressure, kPa = 101
Property: Mass ratio of solute to solvent of succinic acid (Liquid); method: HPLC
Solvent: Mass fraction of acetic acid	Temperature, K	Mass ratio of solute to solvent of succinic acid	uncertainty
1	303.2	.0297	.001188
1	313.2	.0417	.001668
1	323.2	.0567	.002268
1	333.2	.0772	.003088
1	343.2	.1156	.004624
.9	303.2	.0249	.000996
.9	313.2	.035	.0014
.9	323.2	.0483	.001932
.9	333.2	.0639	.002556
.9	343.2	.0909	.003636
.8	303.2	.0203	.000812
.8	313.2	.0288	.001152
.8	323.2	.0406	.001624
.8	333.2	.0533	.002132
.8	343.2	.0758	.003032
.7	303.2	.0164	.000656
.7	313.2	.0235	.00094
.7	323.2	.0333	.001332
.7	333.2	.042	.00168
.7	343.2	.0599	.002396
.6	303.2	.0129	.000516
.6	313.2	.0186	.000744
.6	323.2	.0249	.000996
.6	333.2	.0324	.001296
.6	343.2	.0466	.001864
.5	303.2	.0093	.000372
.5	313.2	.0131	.000524
.5	323.2	.0188	.000752
.5	333.2	.0236	.000944
.5	343.2	.0354	.001416
.4	303.2	.0063	.000252
.4	313.2	.009	.00036
.4	323.2	.0123	.000492
.4	333.2	.016	.00064
.4	343.2	.0236	.000944
.3	303.2	.0039	.000156
.3	313.2	.0057	.000228
.3	323.2	.0073	.000292
.3	333.2	.0101	.000404
.3	343.2	.0155	.00062
.2	303.2	.0022	.000088
.2	313.2	.003	.00012
.2	323.2	.0044	.000176
.2	333.2	.0053	.000212
.2	343.2	.0076	.000304
.1	303.2	.0009	.000036
.1	313.2	.0012	.000048
.1	323.2	.0016	.000064
.1	333.2	.002	.00008
.1	343.2	.0026	.000104

System: acetic acid + succinic acid; phases: Liquid, Crystal
Property: Mass ratio of solute to solvent of succinic acid (Liquid); method: HPLC
Temperature, K	Pressure, kPa	Mass ratio of solute to solvent of succinic acid	uncertainty
303.2	101	.0297	.001188
313.2	101	.0417	.001668
323.2	101	.0567	.002268
333.2	101	.0772	.003088
343.2	101	.1156	.004624

System: succinic acid + water; phases: Liquid, Crystal
Property: Mass ratio of solute to solvent of succinic acid (Liquid); method: HPLC
Temperature, K	Pressure, kPa	Mass ratio of solute to solvent of succinic acid	uncertainty
303.2	101	.1047	.004188
313.2	101	.1655	.00662
323.2	101	.2444	.009776
333.2	101	.3412	.013648
