Measured thermophysical data. Measurement of the Critical Properties of the Ternary Systems Hexane + Heptane + Octane and Octane + Nonane + Decane Using a Flow Apparatus
Source: J. Chem. Eng. Data, 2016, 10.1021/je501134s
Compound 1: hexane, C6H14, purity 99.0%
Compound 2: heptane, C7H16, purity 99.0%
Compound 3: octane, C8H18, purity 99.0%
Compound 4: nonane, C9H20, purity 99.0%
Compound 5: decane, C10H22, purity 99.0%

System: hexane + octane + heptane; phases: Liquid, Gas
Property: Critical temperature, K (Liquid); method: Visual observation in a stirred cell
Mole fraction of hexane	Mole fraction of heptane	Critical temperature, K	uncertainty
.1267	.1089	560.24	.4
.125	.215	557.23	.4
.1234	.3183	554.49	.4
.1218	.4189	551.77	.4
.1202	.517	548.76	.4
.1187	.6126	545.79	.4
.1172	.7058	542.86	.4
.1158	.7968	539.91	.4
.2457	.1056	554.66	.4
.2425	.2086	551.62	.4
.2395	.3089	548.23	.4
.2365	.4067	545.08	.4
.2336	.5022	542.37	.4
.2307	.5952	540.04	.4
.2279	.6861	538.07	.4
.3577	.1025	548.28	.4
.3533	.2025	545.01	.4
.3489	.3001	542.19	.4
.3447	.3953	539.13	.4
.3406	.4882	536.09	.4
.3365	.5788	533.96	.4
.4634	.0996	542.16	.4
.4578	.1969	538.67	.4
.4523	.2918	536.37	.4
.447	.3844	533.51	.4
.4418	.4749	531.07	.4
.5632	.0969	536.29	.4
.5566	.1915	533.29	.4
.5501	.2839	529.57	.4
.5438	.3741	527.03	.4
.6577	.0943	529.57	.4
.6501	.1864	526.56	.4
.6428	.2764	523.61	.4
.7472	.0918	523.17	.4
.7388	.1815	520.23	.4
.8321	.0895	517.04	.4

System: hexane + octane + heptane; phases: Liquid, Gas
Property: Critical pressure, kPa (Liquid); method: Direct measurement
Mole fraction of hexane	Mole fraction of heptane	Critical pressure, kPa	uncertainty
.1267	.1089	2657	10
.125	.215	2686	10
.1234	.3183	2713	10
.1218	.4189	2738	10
.1202	.517	2752	10
.1187	.6126	2773	10
.1172	.7058	2788	10
.1158	.7968	2798	10
.2457	.1056	2760	10
.2425	.2086	2779	10
.2395	.3089	2798	10
.2365	.4067	2809	10
.2336	.5022	2821	10
.2307	.5952	2830	10
.2279	.6861	2838	10
.3577	.1025	2842	10
.3533	.2025	2850	10
.3489	.3001	2861	10
.3447	.3953	2873	10
.3406	.4882	2883	10
.3365	.5788	2901	10
.4634	.0996	2900	10
.4578	.1969	2910	10
.4523	.2918	2918	10
.447	.3844	2922	10
.4418	.4749	2924	10
.5632	.0969	2950	10
.5566	.1915	2956	10
.5501	.2839	2958	10
.5438	.3741	2959	10
.6577	.0943	2997	10
.6501	.1864	2987	10
.6428	.2764	2981	10
.7472	.0918	3022	10
.7388	.1815	3007	10
.8321	.0895	3018	10

System: octane + nonane + decane; phases: Liquid, Gas
Property: Critical temperature, K (Liquid); method: Visual observation in a stirred cell
Mole fraction of octane	Mole fraction of nonane	Critical temperature, K	uncertainty
.1203	.1072	610.51	.4
.119	.2121	608.16	.4
.1178	.3148	606.4	.4
.1166	.4154	603.56	.4
.1154	.514	602.55	.4
.1142	.6106	600.34	.4
.1131	.7053	598.82	.4
.112	.7981	595.57	.4
.235	.1047	606.22	.4
.2326	.2072	603.29	.4
.2302	.3077	601.11	.4
.2279	.4061	599.68	.4
.2257	.5026	598.54	.4
.2235	.5972	596.66	.4
.2213	.6899	594.98	.4
.3445	.1023	601.72	.4
.3411	.2026	598.03	.4
.3377	.3008	596.11	.4
.3344	.3972	594.48	.4
.3311	.4916	594.13	.4
.328	.5843	591.89	.4
.4492	.1	596.19	.4
.4448	.1981	593.91	.4
.4405	.2943	591.57	.4
.4363	.3886	589.58	.4
.4321	.4812	588.88	.4
.5493	.0979	591.14	.4
.5441	.1939	588.97	.4
.5389	.288	587.92	.4
.5338	.3804	585.07	.4
.6452	.0958	587.08	.4
.6392	.1898	584.1	.4
.6332	.282	582.95	.4
.7371	.0938	581.23	.4
.7304	.1859	579.97	.4
.8253	.0919	576.92	.4

System: octane + nonane + decane; phases: Liquid, Gas
Property: Critical pressure, kPa (Liquid); method: Direct measurement
Mole fraction of octane	Mole fraction of nonane	Critical pressure, kPa	uncertainty
.1203	.1072	2218	10
.119	.2121	2247	10
.1178	.3148	2280	10
.1166	.4154	2286	10
.1154	.514	2312	10
.1142	.6106	2337	10
.1131	.7053	2345	10
.112	.7981	2338	10
.235	.1047	2267	10
.2326	.2072	2295	10
.2302	.3077	2328	10
.2279	.4061	2347	10
.2257	.5026	2352	10
.2235	.5972	2376	10
.2213	.6899	2372	10
.3445	.1023	2320	10
.3411	.2026	2348	10
.3377	.3008	2374	10
.3344	.3972	2395	10
.3311	.4916	2384	10
.328	.5843	2405	10
.4492	.1	2372	10
.4448	.1981	2385	10
.4405	.2943	2415	10
.4363	.3886	2427	10
.4321	.4812	2419	10
.5493	.0979	2420	10
.5441	.1939	2430	10
.5389	.288	2435	10
.5338	.3804	2452	10
.6452	.0958	2448	10
.6392	.1898	2454	10
.6332	.282	2477	10
.7371	.0938	2478	10
.7304	.1859	2483	10
.8253	.0919	2500	10
