Measured thermophysical data. Density, Viscosities, and Excess Properties for Binary Mixtures of Sulfolane + Alcohols and Sulfolane + Glycols at Different Temperatures
Source: J. Chem. Eng. Data, 2014, 10.1021/je500153g
Compound 1: sulfolane, C4H8O2S, purity 99%
Compound 2: 2-butanol, C4H10O, purity 99.5%
Compound 3: 2-propanol, C3H8O, purity 99.5%
Compound 4: diethylene glycol, C4H10O3, purity 99%
Compound 5: triethylene glycol, C6H14O4, purity 99%

System: sulfolane; phases: Liquid
Property: Mass density, kg/m3 (Liquid); method: Vibrating tube method
Temperature, K	Pressure, kPa	Mass density, kg/m3	uncertainty
303.15	101	1262.9	.2
313.15	101	1254.1	.2
323.15	101	1245.2	.2
333.15	101	1236.6	.2
343.15	101	1228.1	.2

System: sulfolane; phases: Liquid
Property: Viscosity, Pa*s (Liquid); method: Concentric cylinders viscometry
Temperature, K	Pressure, kPa	Viscosity, Pa*s	uncertainty
303.15	101	.0104	.0000312
313.15	101	.00807	.00002421
323.15	101	.00645	.00001935
333.15	101	.00522	.00001566
343.15	101	.00432	.00001296

System: 2-butanol; phases: Liquid
Property: Mass density, kg/m3 (Liquid); method: Vibrating tube method
Temperature, K	Pressure, kPa	Mass density, kg/m3	uncertainty
303.15	101	799.3	.2
313.15	101	790.7	.2
323.15	101	781.7	.2
333.15	101	772.1	.2
343.15	101	762	.2

System: 2-butanol; phases: Liquid
Property: Viscosity, Pa*s (Liquid); method: Concentric cylinders viscometry
Temperature, K	Pressure, kPa	Viscosity, Pa*s	uncertainty
303.15	101	.00251	.00000753
313.15	101	.00178	.00000534
323.15	101	.00131	.00000393
333.15	101	.00099	.00000297
343.15	101	.00078	.00000234

System: 2-propanol; phases: Liquid
Property: Mass density, kg/m3 (Liquid); method: Vibrating tube method
Temperature, K	Pressure, kPa	Mass density, kg/m3	uncertainty
303.15	101	777.5	.2
313.15	101	768.8	.2
323.15	101	759.7	.2
333.15	101	750	.2
343.15	101	739.5	.2

System: 2-propanol; phases: Liquid
Property: Viscosity, Pa*s (Liquid); method: Concentric cylinders viscometry
Temperature, K	Pressure, kPa	Viscosity, Pa*s	uncertainty
303.15	101	.00178	.00000534
313.15	101	.00134	.00000402
323.15	101	.00103	.00000309
333.15	101	.00079	.00000237
343.15	101	.00064	.00000192

System: diethylene glycol; phases: Liquid
Property: Mass density, kg/m3 (Liquid); method: Vibrating tube method
Temperature, K	Pressure, kPa	Mass density, kg/m3	uncertainty
303.15	101	1110	.2
313.15	101	1103	.2
323.15	101	1095.9	.2
333.15	101	1088.5	.2
343.15	101	1081.1	.2

System: diethylene glycol; phases: Liquid
Property: Viscosity, Pa*s (Liquid); method: Concentric cylinders viscometry
Temperature, K	Pressure, kPa	Viscosity, Pa*s	uncertainty
303.15	101	.0225	.0000675
313.15	101	.0149	.0000447
323.15	101	.0104	.0000312
333.15	101	.0076	.0000228
343.15	101	.00575	.00001725

System: triethylene glycol; phases: Liquid
Property: Mass density, kg/m3 (Liquid); method: Vibrating tube method
Temperature, K	Pressure, kPa	Mass density, kg/m3	uncertainty
303.15	101	1116.5	.2
313.15	101	1108.9	.2
323.15	101	1101.1	.2
333.15	101	1093.4	.2
343.15	101	1085.5	.2

System: triethylene glycol; phases: Liquid
Property: Viscosity, Pa*s (Liquid); method: Concentric cylinders viscometry
Temperature, K	Pressure, kPa	Viscosity, Pa*s	uncertainty
303.15	101	.0295	.0000885
313.15	101	.0193	.0000579
323.15	101	.0133	.0000399
333.15	101	.00958	.00002874
343.15	101	.00716	.00002148

System: 2-butanol + sulfolane; phases: Liquid
Fixed: Pressure, kPa = 101
Property: Mass density, kg/m3 (Liquid); method: Vibrating tube method
Mole fraction of sulfolane	Temperature, K	Mass density, kg/m3	uncertainty
0	303.15	799.3	.2
.099	303.15	846.6	.2
.198	303.15	894.1	.2
.298	303.15	941.7	.2
.38	303.15	980.6	.2
.499	303.15	1036.4	.2
.593	303.15	1079.6	.2
.691	303.15	1125.1	.2
.799	303.15	1173.9	.2
.9	303.15	1219	.2
1	303.15	1262.9	.2
0	313.15	790.7	.2
.099	313.15	837.8	.2
.198	313.15	885.2	.2
.298	313.15	932.9	.2
.38	313.15	971.7	.2
.499	313.15	1027.5	.2
.593	313.15	1070.7	.2
.691	313.15	1116.2	.2
.799	313.15	1165.1	.2
.9	313.15	1210.1	.2
1	313.15	1254.1	.2
0	323.15	781.7	.2
.099	323.15	828.8	.2
.198	323.15	876	.2
.298	323.15	923.8	.2
.38	323.15	962.6	.2
.499	323.15	1018.4	.2
.593	323.15	1061.8	.2
.691	323.15	1107.2	.2
.799	323.15	1156.2	.2
.9	323.15	1201.4	.2
1	323.15	1245.2	.2
0	333.15	772.1	.2
.099	333.15	819.3	.2
.198	333.15	866.7	.2
.298	333.15	914.6	.2
.38	333.15	953.3	.2
.499	333.15	1009.3	.2
.593	333.15	1052.7	.2
.691	333.15	1098.2	.2
.799	333.15	1147.4	.2
.9	333.15	1192.5	.2
1	333.15	1236.6	.2
0	343.15	762	.2
.099	343.15	809.4	.2
.198	343.15	857	.2
.298	343.15	905	.2
.38	343.15	943.9	.2
.499	343.15	1000	.2
.593	343.15	1043.5	.2
.691	343.15	1089.2	.2
.799	343.15	1138.5	.2
.9	343.15	1183.7	.2
1	343.15	1228.1	.2

System: 2-butanol + sulfolane; phases: Liquid
Fixed: Pressure, kPa = 101
Property: Viscosity, Pa*s (Liquid); method: Concentric cylinders viscometry
Mole fraction of sulfolane	Temperature, K	Viscosity, Pa*s	uncertainty
0	303.15	.00251	.00000753
.099	303.15	.00216	.00000648
.198	303.15	.00217	.00000651
.298	303.15	.00234	.00000702
.38	303.15	.00256	.00000768
.499	303.15	.00298	.00000894
.593	303.15	.00346	.00001038
.691	303.15	.00419	.00001257
.799	303.15	.00541	.00001623
.9	303.15	.00723	.00002169
1	303.15	.0104	.0000312
0	313.15	.00178	.00000534
.099	313.15	.00162	.00000486
.198	313.15	.00167	.00000501
.298	313.15	.00183	.00000549
.38	313.15	.00201	.00000603
.499	313.15	.00237	.00000711
.593	313.15	.00277	.00000831
.691	313.15	.00336	.00001008
.799	313.15	.00432	.00001296
.9	313.15	.00572	.00001716
1	313.15	.00807	.00002421
0	323.15	.00131	.00000393
.099	323.15	.00126	.00000378
.198	323.15	.00133	.00000399
.298	323.15	.00149	.00000447
.38	323.15	.00163	.00000489
.499	323.15	.00193	.00000579
.593	323.15	.00227	.00000681
.691	323.15	.00276	.00000828
.799	323.15	.00353	.00001059
.9	323.15	.00463	.00001389
1	323.15	.00645	.00001935
0	333.15	.00099	.00000297
.099	333.15	.001	.000003
.198	333.15	.00108	.00000324
.298	333.15	.00121	.00000363
.38	333.15	.00135	.00000405
.499	333.15	.00161	.00000483
.593	333.15	.00189	.00000567
.691	333.15	.00231	.00000693
.799	333.15	.00294	.00000882
.9	333.15	.00382	.00001146
1	333.15	.00522	.00001566
0	343.15	.00078	.00000234
.099	343.15	.0008	.0000024
.198	343.15	.00089	.00000267
.298	343.15	.00101	.00000303
.38	343.15	.00114	.00000342
.499	343.15	.00137	.00000411
.593	343.15	.00162	.00000486
.691	343.15	.00197	.00000591
.799	343.15	.00249	.00000747
.9	343.15	.00321	.00000963
1	343.15	.00432	.00001296

System: 2-propanol + sulfolane; phases: Liquid
Fixed: Pressure, kPa = 101
Property: Mass density, kg/m3 (Liquid); method: Vibrating tube method
Mole fraction of sulfolane	Temperature, K	Mass density, kg/m3	uncertainty
0	303.15	777.5	.2
.075	303.15	823.6	.2
.164	303.15	875.9	.2
.25	303.15	924	.2
.353	303.15	978.7	.2
.437	303.15	1021.3	.2
.536	303.15	1069.3	.2
.656	303.15	1124.3	.2
.768	303.15	1172.1	.2
.88	303.15	1219.3	.2
1	303.15	1262.9	.2
0	313.15	768.8	.2
.075	313.15	814.6	.2
.164	313.15	866.9	.2
.25	313.15	914.8	.2
.353	313.15	969.6	.2
.437	313.15	1012.1	.2
.536	313.15	1060.2	.2
.656	313.15	1115.3	.2
.768	313.15	1163.1	.2
.88	313.15	1210.4	.2
1	313.15	1254.1	.2
0	323.15	759.7	.2
.075	323.15	805.3	.2
.164	323.15	857.5	.2
.25	323.15	905.4	.2
.353	323.15	960.4	.2
.437	323.15	1002.9	.2
.536	323.15	1050.9	.2
.656	323.15	1106.2	.2
.768	323.15	1154.1	.2
.88	323.15	1201.6	.2
1	323.15	1245.2	.2
0	333.15	750	.2
.075	333.15	795.5	.2
.164	333.15	847.9	.2
.25	333.15	896	.2
.353	333.15	950.7	.2
.437	333.15	993.8	.2
.536	333.15	1041.6	.2
.656	333.15	1097	.2
.768	333.15	1145.1	.2
.88	333.15	1192.6	.2
1	333.15	1236.6	.2
0	343.15	739.5	.2
.075	343.15	785.2	.2
.164	343.15	837.9	.2
.25	343.15	886	.2
.353	343.15	941.1	.2
.437	343.15	984.3	.2
.536	343.15	1032.1	.2
.656	343.15	1087.7	.2
.768	343.15	1135.9	.2
.88	343.15	1183.7	.2
1	343.15	1228.1	.2

System: 2-propanol + sulfolane; phases: Liquid
Fixed: Pressure, kPa = 101
Property: Viscosity, Pa*s (Liquid); method: Concentric cylinders viscometry
Mole fraction of sulfolane	Temperature, K	Viscosity, Pa*s	uncertainty
0	303.15	.00178	.00000534
.075	303.15	.00162	.00000486
.164	303.15	.00169	.00000507
.25	303.15	.00185	.00000555
.353	303.15	.00214	.00000642
.437	303.15	.00243	.00000729
.536	303.15	.00291	.00000873
.656	303.15	.00375	.00001125
.768	303.15	.00497	.00001491
.88	303.15	.00692	.00002076
1	303.15	.0104	.0000312
0	313.15	.00134	.00000402
.075	313.15	.00127	.00000381
.164	313.15	.00134	.00000402
.25	313.15	.00148	.00000444
.353	313.15	.00171	.00000513
.437	313.15	.00196	.00000588
.536	313.15	.00235	.00000705
.656	313.15	.00303	.00000909
.768	313.15	.00399	.00001197
.88	313.15	.00548	.00001644
1	313.15	.00807	.00002421
0	323.15	.00103	.00000309
.075	323.15	.00101	.00000303
.164	323.15	.00108	.00000324
.25	323.15	.0012	.0000036
.353	323.15	.00141	.00000423
.437	323.15	.00162	.00000486
.536	323.15	.00195	.00000585
.656	323.15	.0025	.0000075
.768	323.15	.00327	.00000981
.88	323.15	.00445	.00001335
1	323.15	.00645	.00001935
0	333.15	.00079	.00000237
.075	333.15	.00081	.00000243
.164	333.15	.00089	.00000267
.25	333.15	.001	.000003
.353	333.15	.00118	.00000354
.437	333.15	.00136	.00000408
.536	333.15	.00164	.00000492
.656	333.15	.00211	.00000633
.768	333.15	.00273	.00000819
.88	333.15	.00368	.00001104
1	333.15	.00522	.00001566
0	343.15	.00064	.00000192
.075	343.15	.00066	.00000198
.164	343.15	.00074	.00000222
.25	343.15	.00084	.00000252
.353	343.15	.00099	.00000297
.437	343.15	.00114	.00000342
.536	343.15	.0014	.0000042
.656	343.15	.0018	.0000054
.768	343.15	.00232	.00000696
.88	343.15	.0031	.0000093
1	343.15	.00432	.00001296

System: diethylene glycol + sulfolane; phases: Liquid
Fixed: Pressure, kPa = 101
Property: Mass density, kg/m3 (Liquid); method: Vibrating tube method
Mole fraction of sulfolane	Temperature, K	Mass density, kg/m3	uncertainty
0	303.15	1110	.2
.097	303.15	1125	.2
.198	303.15	1140	.2
.319	303.15	1158.2	.2
.414	303.15	1172.2	.2
.499	303.15	1185.2	.2
.614	303.15	1202.9	.2
.698	303.15	1215.6	.2
.789	303.15	1229.7	.2
.887	303.15	1245	.2
1	303.15	1262.9	.2
0	313.15	1103	.2
.097	313.15	1117.6	.2
.198	313.15	1132.5	.2
.319	313.15	1150.3	.2
.414	313.15	1164.2	.2
.499	313.15	1176.9	.2
.614	313.15	1194.5	.2
.698	313.15	1207.1	.2
.789	313.15	1221.1	.2
.887	313.15	1236.3	.2
1	313.15	1254.1	.2
0	323.15	1095.9	.2
.097	323.15	1110.2	.2
.198	323.15	1124.8	.2
.319	323.15	1142.3	.2
.414	323.15	1156.1	.2
.499	323.15	1168.6	.2
.614	323.15	1186	.2
.698	323.15	1198.5	.2
.789	323.15	1212.5	.2
.887	323.15	1227.5	.2
1	323.15	1245.2	.2
0	333.15	1088.5	.2
.097	333.15	1102.7	.2
.198	333.15	1117	.2
.319	333.15	1134.2	.2
.414	333.15	1147.8	.2
.499	333.15	1160.3	.2
.614	333.15	1177.5	.2
.698	333.15	1190	.2
.789	333.15	1203.8	.2
.887	333.15	1218.8	.2
1	333.15	1236.6	.2
0	343.15	1081.1	.2
.097	343.15	1094.9	.2
.198	343.15	1109.1	.2
.319	343.15	1126.1	.2
.414	343.15	1139.6	.2
.499	343.15	1151.9	.2
.614	343.15	1169	.2
.698	343.15	1181.3	.2
.789	343.15	1195.1	.2
.887	343.15	1210.1	.2
1	343.15	1228.1	.2

System: diethylene glycol + sulfolane; phases: Liquid
Fixed: Pressure, kPa = 101
Property: Viscosity, Pa*s (Liquid); method: Concentric cylinders viscometry
Mole fraction of sulfolane	Temperature, K	Viscosity, Pa*s	uncertainty
0	303.15	.0225	.0000675
.097	303.15	.0191	.0000573
.198	303.15	.0163	.0000489
.319	303.15	.0138	.0000414
.414	303.15	.0122	.0000366
.499	303.15	.0112	.0000336
.614	303.15	.0102	.0000306
.698	303.15	.00972	.00002916
.789	303.15	.00935	.00002805
.887	303.15	.00939	.00002817
1	303.15	.0104	.0000312
0	313.15	.0149	.0000447
.097	313.15	.0129	.0000387
.198	313.15	.0112	.0000336
.319	313.15	.00962	.00002886
.414	313.15	.0087	.0000261
.499	313.15	.00807	.00002421
.614	313.15	.00749	.00002247
.698	313.15	.00725	.00002175
.789	313.15	.00708	.00002124
.887	313.15	.00723	.00002169
1	313.15	.00807	.00002421
0	323.15	.0104	.0000312
.097	323.15	.00913	.00002739
.198	323.15	.00804	.00002412
.319	323.15	.00703	.00002109
.414	323.15	.00646	.00001938
.499	323.15	.00607	.00001821
.614	323.15	.00572	.00001716
.698	323.15	.00561	.00001683
.789	323.15	.00554	.00001662
.887	323.15	.00572	.00001716
1	323.15	.00645	.00001935
0	333.15	.0076	.0000228
.097	333.15	.00674	.00002022
.198	333.15	.00601	.00001803
.319	333.15	.00535	.00001605
.414	333.15	.00497	.00001491
.499	333.15	.00472	.00001416
.614	333.15	.0045	.0000135
.698	333.15	.00447	.00001341
.789	333.15	.00446	.00001338
.887	333.15	.00464	.00001392
1	333.15	.00522	.00001566
0	343.15	.00575	.00001725
.097	343.15	.00515	.00001545
.198	343.15	.00465	.00001395
.319	343.15	.00419	.00001257
.414	343.15	.00394	.00001182
.499	343.15	.00378	.00001134
.614	343.15	.00364	.00001092
.698	343.15	.00364	.00001092
.789	343.15	.00366	.00001098
.887	343.15	.00384	.00001152
1	343.15	.00432	.00001296

System: triethylene glycol + sulfolane; phases: Liquid
Fixed: Pressure, kPa = 101
Property: Mass density, kg/m3 (Liquid); method: Vibrating tube method
Mole fraction of sulfolane	Temperature, K	Mass density, kg/m3	uncertainty
0	303.15	1116.5	.2
.123	303.15	1130.3	.2
.268	303.15	1147.6	.2
.505	303.15	1178.8	.2
.598	303.15	1192.2	.2
.678	303.15	1204.5	.2
.768	303.15	1219	.2
.837	303.15	1231.3	.2
.929	303.15	1248.8	.2
1	303.15	1262.9	.2
0	313.15	1108.9	.2
.123	313.15	1122.4	.2
.268	313.15	1139.5	.2
.505	313.15	1170.5	.2
.598	313.15	1183.7	.2
.678	313.15	1196	.2
.768	313.15	1210.3	.2
.837	313.15	1222.6	.2
.929	313.15	1240	.2
1	313.15	1254.1	.2
0	323.15	1101.1	.2
.123	323.15	1114.6	.2
.268	323.15	1131.5	.2
.505	323.15	1161.9	.2
.598	323.15	1175.1	.2
.678	323.15	1187.5	.2
.768	323.15	1201.5	.2
.837	323.15	1213.9	.2
.929	323.15	1231.2	.2
1	323.15	1245.2	.2
0	333.15	1093.4	.2
.123	333.15	1106.6	.2
.268	333.15	1123.3	.2
.505	333.15	1153.4	.2
.598	333.15	1166.6	.2
.678	333.15	1178.8	.2
.768	333.15	1192.9	.2
.837	333.15	1205.2	.2
.929	333.15	1222.4	.2
1	333.15	1236.6	.2
0	343.15	1085.5	.2
.123	343.15	1098.5	.2
.268	343.15	1115	.2
.505	343.15	1145	.2
.598	343.15	1158	.2
.678	343.15	1170.1	.2
.768	343.15	1184.3	.2
.837	343.15	1196.4	.2
.929	343.15	1213.7	.2
1	343.15	1228.1	.2

System: triethylene glycol + sulfolane; phases: Liquid
Fixed: Pressure, kPa = 101
Property: Viscosity, Pa*s (Liquid); method: Concentric cylinders viscometry
Mole fraction of sulfolane	Temperature, K	Viscosity, Pa*s	uncertainty
0	303.15	.0295	.0000885
.123	303.15	.0256	.0000768
.268	303.15	.0212	.0000636
.505	303.15	.0156	.0000468
.598	303.15	.0139	.0000417
.678	303.15	.0126	.0000378
.768	303.15	.0114	.0000342
.837	303.15	.0108	.0000324
.929	303.15	.0103	.0000309
1	303.15	.0104	.0000312
0	313.15	.0193	.0000579
.123	313.15	.0169	.0000507
.268	313.15	.0143	.0000429
.505	313.15	.0109	.0000327
.598	313.15	.0099	.0000297
.678	313.15	.00913	.00002739
.768	313.15	.0084	.0000252
.837	313.15	.00811	.00002433
.929	313.15	.00789	.00002367
1	313.15	.00807	.00002421
0	323.15	.0133	.0000399
.123	323.15	.0118	.0000354
.268	323.15	.0101	.0000303
.505	323.15	.008	.000024
.598	323.15	.00736	.00002208
.678	323.15	.00688	.00002064
.768	323.15	.00643	.00001929
.837	323.15	.00629	.00001887
.929	323.15	.00622	.00001866
1	323.15	.00645	.00001935
0	333.15	.00958	.00002874
.123	333.15	.0086	.0000258
.268	333.15	.00749	.00002247
.505	333.15	.00609	.00001827
.598	333.15	.00567	.00001701
.678	333.15	.00536	.00001608
.768	333.15	.00509	.00001527
.837	333.15	.00501	.00001503
.929	333.15	.00502	.00001506
1	333.15	.00522	.00001566
0	343.15	.00716	.00002148
.123	343.15	.00649	.00001947
.268	343.15	.00574	.00001722
.505	343.15	.00478	.00001434
.598	343.15	.00449	.00001347
.678	343.15	.00429	.00001287
.768	343.15	.00412	.00001236
.837	343.15	.0041	.0000123
.929	343.15	.00413	.00001239
1	343.15	.00432	.00001296
