Measured thermophysical data. New Experimental Data and Reference Models for the Viscosity and Density of Squalane
Source: J. Chem. Eng. Data, 2015, 10.1021/je5008789
Compound 1: squalane, C30H62, purity 99%

System: squalane; phases: Liquid
Property: Mass density, kg/m3 (Liquid); method: Vibrating tube method
Temperature, K	Pressure, kPa	Mass density, kg/m3	uncertainty
338.19	1050	779.26	.77926
338.19	21210	792.77	.79277
338.2	40640	803.93	.80393
338.2	60420	814.29	.81429
338.2	79830	822.46	.82246
338.2	100230	831.55	.83155
338.21	119820	837.96	.83796
338.2	140240	845.12	.84512
338.2	161300	851.46	.85146
338.22	940	778.91	.77891
373.12	780	756.09	.75609
373.12	20350	771.55	.77155
373.12	39970	784.5	.7845
373.12	60030	795.89	.79589
373.12	80950	806.36	.80636
373.12	101160	815.48	.81548
373.12	120420	823.57	.82357
373.12	140640	831.1	.8311
373.12	159510	837.61	.83761
373.12	180460	843.98	.84398
373.12	201380	850.63	.85063
373.12	620	756.02	.75602
388.14	1100	746.78	.74678
388.13	20290	762.98	.76298
388.14	40380	776.95	.77695
388.14	59850	788.53	.78853
388.13	80490	799.25	.79925
388.13	101530	809.12	.80912
388.13	120960	817.16	.81716
388.13	139900	824.59	.82459
388.14	160800	832.35	.83235
388.14	180610	838.96	.83896
388.14	201470	845.55	.84555
388.13	890	746.65	.74665
413.17	1050	730.56	.73056
413.18	20110	748.65	.74865
413.18	40280	763.94	.76394
413.18	60200	776.68	.77668
413.21	80740	788.16	.78816
413.22	100350	797.82	.79782
413.22	120460	806.56	.80656
413.24	140200	815.07	.81507
413.25	160570	822.8	.8228
413.25	181450	829.85	.82985
413.25	202090	836.75	.83675
413.24	610	730.1	.7301
433.36	680	717.22	.71722
433.31	600	717.04	.71704
433.35	20500	737.74	.73774
433.36	40310	753.83	.75383
433.19	60430	767.55	.76755
433.2	80190	779.13	.77913
433.21	100280	789.84	.78984
433.21	120040	798.72	.79872
433.21	140200	807.55	.80755
433.19	160660	815.65	.81565
433.19	180700	823.09	.82309
433.19	200370	830.05	.83005
433.18	1120	717.8	.7178
453.15	1150	704.74	.70474
453.16	20190	726.4	.7264
453.17	40450	744.09	.74409
453.18	60480	758.43	.75843
453.18	80140	770.59	.77059
453.18	100410	781.58	.78158
453.2	120790	791.61	.79161
453.2	140400	800.32	.80032
453.19	160150	808.49	.80849
453.2	180710	816.55	.81655
338.29	1010	779.46	.77946
452.95	163170	809.3	.8093
452.95	180270	815.84	.81584
452.85	201770	823.37	.82337
473.05	150	690.19	.69019
472.81	1050	691.59	.69159
473.05	20040	715.2	.7152
473.05	39890	733.71	.73371
473.06	60230	749.17	.74917
473.06	79910	761.86	.76186
473.07	100370	773.42	.77342
473.05	120200	783.48	.78348
473.05	140440	792.71	.79271
473.05	160340	801	.801
473.05	180470	808.83	.80883
473.03	200210	815.83	.81583
473.04	1050	691.45	.69145

System: squalane; phases: Liquid
Property: Viscosity, Pa*s (Liquid); method: Vibrating wire viscometry
Temperature, K	Pressure, kPa	Viscosity, Pa*s	uncertainty
338.19	1050	.006815	.00006815
338.19	21210	.009666	.00009666
338.2	40640	.013185	.00013185
338.2	60420	.017706	.00017706
338.2	79830	.02348	.0002348
338.2	100230	.030939	.00030939
338.21	119820	.040324	.00040324
338.2	140240	.052304	.00052304
338.2	161300	.068139	.00068139
338.22	940	.006808	.00006808
373.12	780	.003125	.00003125
373.12	20350	.004234	.00004234
373.12	39970	.005565	.00005565
373.12	60030	.007219	.00007219
373.12	80950	.009293	.00009293
373.12	101160	.011717	.00011717
373.12	120420	.014403	.00014403
373.12	140640	.017829	.00017829
373.12	159510	.021726	.00021726
373.12	180460	.026767	.00026767
373.12	201380	.032723	.00032723
373.12	620	.003122	.00003122
388.14	1100	.002436	.00002436
388.13	20290	.00325	.0000325
388.14	40380	.004242	.00004242
388.14	59850	.005392	.00005392
388.13	80490	.006828	.00006828
388.13	101530	.008548	.00008548
388.13	120960	.010458	.00010458
388.13	139900	.01258	.0001258
388.14	160800	.01531	.0001531
388.14	180610	.018401	.00018401
388.14	201470	.02216	.0002216
388.13	890	.002432	.00002432
413.17	1050	.001691	.00001691
413.18	20110	.002233	.00002233
413.18	40280	.002885	.00002885
413.18	60200	.00362	.0000362
413.21	80740	.004485	.00004485
413.22	100350	.005454	.00005454
413.22	120460	.006574	.00006574
413.24	140200	.007831	.00007831
413.25	160570	.009322	.00009322
413.25	181450	.011116	.00011116
413.25	202090	.013062	.00013062
413.24	610	.00168	.0000168
433.36	680	.001309	.00001309
433.31	600	.001309	.00001309
433.35	20500	.001749	.00001749
433.36	40310	.002231	.00002231
433.19	60430	.002785	.00002785
433.2	80190	.003392	.00003392
433.21	100280	.004072	.00004072
433.21	120040	.004865	.00004865
433.21	140200	.005754	.00005754
433.19	160660	.006774	.00006774
433.19	180700	.007891	.00007891
433.19	200370	.009057	.00009057
433.18	1120	.001324	.00001324
453.15	1150	.001062	.00001062
453.16	20190	.001405	.00001405
453.17	40450	.001796	.00001796
453.18	60480	.002222	.00002222
453.18	80140	.002681	.00002681
453.18	100410	.003214	.00003214
453.2	120790	.0038	.000038
453.2	140400	.004438	.00004438
453.19	160150	.005142	.00005142
453.2	180710	.005945	.00005945
338.29	1010	.00683	.0000683
452.95	163170	.005261	.00005261
452.95	180270	.005937	.00005937
452.85	201770	.006867	.00006867
473.05	150	.000853	.00000853
472.81	1050	.000867	.00000867
473.05	20040	.001151	.00001151
473.05	39890	.001465	.00001465
473.06	60230	.00181	.0000181
473.06	79910	.002175	.00002175
473.07	100370	.00259	.0000259
473.05	120200	.003031	.00003031
473.05	140440	.003531	.00003531
473.05	160340	.004073	.00004073
473.05	180470	.004671	.00004671
473.03	200210	.005348	.00005348
473.04	1050	.000868	.00000868
