Measured thermophysical data. Solubility of 4-Aminosalicylic Acid in Supercritical Carbon Dioxide and Subcritical 1,1,1,2-Tetrafluoroethane
Source: J. Chem. Eng. Data, 2014, 10.1021/je5002736
Compound 1: 4-aminosalicylic acid, C7H7NO3, purity 98%
Compound 2: 1,1,1,2-tetrafluoroethane, C2H2F4, purity 99.9%
Compound 3: carbon dioxide, CO2, purity 99.9%

System: 4-aminosalicylic acid + carbon dioxide; phases: Gas, Crystal
Property: Mole fraction of 4-aminosalicylic acid (Gas); method: GC and gas volume
Temperature, K	Pressure, kPa	Mole fraction of 4-aminosalicylic acid	uncertainty
308	11000	.0000077	.000000385
308	13000	.0000097	.000000485
308	15000	.000011	.00000055
308	18000	.0000128	.00000064
308	21000	.0000151	.000000755
318	11000	.0000066	.00000033
318	13000	.0000113	.000000565
318	15000	.0000143	.000000715
318	18000	.0000193	.000000965
318	21000	.0000243	.000001215
328	11000	.0000035	.000000175
328	13000	.0000115	.000000575
328	15000	.0000185	.000000925
328	18000	.0000283	.000001415
328	21000	.0000359	.000001795

System: 4-aminosalicylic acid + 1,1,1,2-tetrafluoroethane; phases: Liquid, Crystal
Property: Mole fraction of 4-aminosalicylic acid (Liquid); method: GC and gas volume
Temperature, K	Pressure, kPa	Mole fraction of 4-aminosalicylic acid	uncertainty
308	5000	.0000171	.0000011799
308	7000	.0000192	.0000013248
308	9000	.0000217	.0000014973
308	11000	.0000245	.0000016905
308	13000	.0000283	.0000019527
308	15000	.0000309	.0000021321
318	5000	.0000159	.0000010971
318	7000	.0000207	.0000014283
318	9000	.0000244	.0000016836
318	11000	.0000271	.0000018699
318	13000	.0000301	.0000020769
318	15000	.000034	.000002346
328	5000	.0000141	.0000009729
328	7000	.0000221	.0000015249
328	9000	.000028	.000001932
328	11000	.0000323	.0000022287
328	13000	.0000364	.0000025116
328	15000	.0000421	.0000029049
