Measured thermophysical data. Bubble Point Determination for CO2 + Ethanol + Alkanolamines (Monoethanolamine, Diethanolamine, or Triethanolamine) at High Pressures
Source: J. Chem. Eng. Data, 2014, 10.1021/je5002957
Compound 1: carbon dioxide, CO2, purity 99.5%
Compound 2: ethanol, C2H6O, purity 99.5%
Compound 3: monoethanolamine, C2H7NO, purity 99%
Compound 4: diethanolamine, C4H11NO2, purity 99%
Compound 5: triethanolamine, C6H15NO3, purity 99%

System: ethanol + carbon dioxide + monoethanolamine; phases: Liquid, Gas
Property: Vapor or sublimation pressure, kPa (Liquid); method: Closed cell (Static) method
Temperature, K	Mole fraction of carbon dioxide	Mole fraction of monoethanolamine	Vapor or sublimation pressure, kPa	uncertainty
313	.059	.235	850	50
313	.081	.23	1220	30
313	.11	.222	2530	30
313	.142	.214	3340	20
313	.18	.205	5360	10
313	.252	.187	6380	20
323	.059	.235	880	10
323	.081	.23	1410	20
323	.11	.222	2940	20
323	.142	.214	4230	10
323	.18	.205	6060	20
323	.252	.187	7860	20
333	.059	.235	920	20
333	.081	.23	1590	20
333	.11	.222	3310	40
333	.142	.214	4710	20
333	.18	.205	7080	30
333	.252	.187	9250	10
343	.059	.235	1010	20
343	.081	.23	1850	10
343	.11	.222	3860	20
343	.142	.214	5650	10
343	.18	.205	8070	40
343	.252	.187	11400	40

System: ethanol + diethanolamine + carbon dioxide; phases: Liquid, Gas
Property: Vapor or sublimation pressure, kPa (Liquid); method: Closed cell (Static) method
Temperature, K	Mole fraction of carbon dioxide	Mole fraction of diethanolamine	Vapor or sublimation pressure, kPa	uncertainty
313	.053	.237	700	10
313	.081	.23	1410	20
313	.118	.221	3010	20
313	.141	.215	3720	30
313	.154	.211	4260	30
313	.169	.208	6240	10
323	.053	.237	770	10
323	.081	.23	1740	10
323	.118	.221	3390	10
323	.141	.215	4450	10
323	.154	.211	4940	10
323	.169	.208	7540	10
333	.053	.237	800	10
333	.081	.23	1990	10
333	.118	.221	3940	20
333	.141	.215	5150	20
333	.154	.211	5690	10
333	.169	.208	9060	10
343	.053	.237	860	10
343	.081	.23	2290	10
343	.118	.221	4500	20
343	.141	.215	5970	10
343	.154	.211	6610	20
343	.169	.208	9560	10

System: ethanol + triethanolamine + carbon dioxide; phases: Liquid, Gas
Property: Vapor or sublimation pressure, kPa (Liquid); method: Closed cell (Static) method
Temperature, K	Mole fraction of carbon dioxide	Mole fraction of triethanolamine	Vapor or sublimation pressure, kPa	uncertainty
313	.052	.237	2020	30
313	.082	.229	3270	10
313	.112	.222	4070	30
313	.145	.213	5070	10
313	.179	.205	5920	10
313	.254	.186	7910	30
313	.334	.166	14030	30
323	.052	.237	2370	30
323	.082	.229	3700	10
323	.112	.222	4740	30
323	.145	.213	6000	10
323	.179	.205	6960	10
323	.254	.186	9120	20
323	.334	.166	15760	20
333	.052	.237	2730	30
333	.082	.229	4170	10
333	.112	.222	5470	10
333	.145	.213	6780	10
333	.179	.205	8040	20
333	.254	.186	10020	10
333	.334	.166	17670	10
343	.052	.237	3160	10
343	.082	.229	4690	10
343	.112	.222	6350	10
343	.145	.213	7680	20
343	.179	.205	9380	30
343	.254	.186	12500	10
343	.334	.166	19520	20
