Measured thermophysical data. Measurement and Correlation of Solubility of l-Valine in Water + (Ethanol, N,N-Dimethylformamide, Acetone, Isopropyl Alcohol) from 293.15 K to 343.15 K
Source: J. Chem. Eng. Data, 2014, 10.1021/je500255d
Compound 1: L-valine, C5H11NO2, purity 99.4%
Compound 2: ethanol, C2H6O, purity 99.7%
Compound 3: isopropyl alcohol, C3H8O, purity 99.7%
Compound 4: N,N-dimethylformamide, C3H7NO, purity 99.5%
Compound 5: acetone, C3H6O, purity 99.5%
Compound 6: water, H2O

System: ethanol + L-valine + water; phases: Liquid, Crystal
Fixed: Pressure, kPa = 101
Property: Mole fraction of L-valine (Liquid); method: Laser monitoring system
Solvent: Mass fraction of ethanol	Temperature, K	Mole fraction of L-valine	uncertainty
.8998	293.35	.0001781	.0000008905
.8998	303.35	.0002134	.000001067
.8998	313.15	.0003059	.0000015295
.8998	323.05	.0003841	.0000019205
.8998	332.95	.0005009	.0000025045
.8998	343.25	.0006483	.0000032415
.7	293.35	.0007544	.000003772
.7	303.05	.0008949	.0000044745
.7	312.95	.00111	.00000555
.7	323.05	.001391	.000006955
.7	333.25	.001754	.00000877
.7	343.05	.002136	.00001068
.5003	293.15	.001614	.00000807
.5003	303.05	.001918	.00000959
.5003	313.05	.002427	.000012135
.5003	323.15	.003085	.000015425
.5003	333.25	.00381	.00001905
.5003	343.05	.00473	.00002365
.3	293.15	.002797	.000013985
.3	303.15	.003275	.000016375
.3	313.25	.003839	.000019195
.3	323.15	.004538	.00002269
.3	333.05	.005267	.000026335
.3	343.05	.005985	.000029925
.1012	293.15	.004238	.00002119
.1012	303.25	.004874	.00002437
.1012	313.15	.005424	.00002712
.1012	323.25	.006105	.000030525
.1012	333.05	.006781	.000033905
.1012	343.05	.00735	.00003675

System: isopropyl alcohol + L-valine + water; phases: Liquid, Crystal
Fixed: Pressure, kPa = 101
Property: Mole fraction of L-valine (Liquid); method: Laser monitoring system
Solvent: Mass fraction of isopropyl alcohol	Temperature, K	Mole fraction of L-valine	uncertainty
.8997	293.25	.000009963	.000000049815
.8997	303.25	.00001577	.00000007885
.8997	313.05	.00002408	.0000001204
.8997	323.25	.00004566	.0000002283
.8997	332.95	.00007555	.00000037775
.8997	343.15	.0001137	.0000005685
.6997	293.15	.00008674	.0000004337
.6997	303.35	.0001819	.0000009095
.6997	313.15	.0003198	.000001599
.6997	323.05	.000501	.000002505
.6997	333.05	.0007579	.0000037895
.6997	343.15	.001099	.000005495
.4997	293.25	.000234	.00000117
.4997	303.35	.000562	.00000281
.4997	313.15	.001026	.00000513
.4997	323.15	.001788	.00000894
.4997	333.05	.002656	.00001328
.4997	343.05	.003761	.000018805
.3002	293.35	.000398	.00000199
.3002	303.25	.000775	.000003875
.3002	313.15	.001334	.00000667
.3002	323.05	.001995	.000009975
.3002	333.05	.002946	.00001473
.3002	343.25	.004259	.000021295
.09997	293.15	.000784	.00000392
.09997	303.35	.001287	.000006435
.09997	313.15	.001939	.000009695
.09997	323.05	.002675	.000013375
.09997	333.15	.003579	.000017895
.09997	343.25	.004701	.000023505

System: N,N-dimethylformamide + L-valine + water; phases: Liquid, Crystal
Fixed: Pressure, kPa = 101
Property: Mole fraction of L-valine (Liquid); method: laser monitoring system
Solvent: Mass fraction of N,N-dimethylformamide	Temperature, K	Mole fraction of L-valine	uncertainty
.8989	293.25	.000009506	.00000004753
.8989	303.25	.00001331	.00000006655
.8989	313.05	.00001806	.0000000903
.8989	322.95	.00002472	.0000001236
.8989	333.25	.00003707	.00000018535
.8989	343.05	.00005513	.00000027565
.6998	293.25	.00002013	.00000010065
.6998	303.25	.00003376	.0000001688
.6998	313.05	.00005128	.0000002564
.6998	323.35	.00008375	.00000041875
.6998	333.25	.0001104	.000000552
.6998	343.25	.0001596	.000000798
.5001	293.15	.00006261	.00000031305
.5001	303.35	.0001503	.0000007515
.5001	313.25	.0002563	.0000012815
.5001	323.05	.0004169	.0000020845
.5001	333.25	.0006474	.000003237
.5001	343.25	.001064	.00000532
.2999	293.25	.0002648	.000001324
.2999	303.25	.0003873	.0000019365
.2999	313.35	.0006057	.0000030285
.2999	323.15	.0009154	.000004577
.2999	333.05	.001311	.000006555
.2999	343.15	.001797	.000008985
.1003	293.25	.000494	.00000247
.1003	303.25	.0008166	.000004083
.1003	313.25	.001219	.000006095
.1003	323.05	.001724	.00000862
.1003	333.05	.002347	.000011735
.1003	343.25	.003124	.00001562

System: acetone + L-valine + water; phases: Liquid, Crystal
Fixed: Pressure, kPa = 101
Property: Mole fraction of L-valine (Liquid); method: laser monitoring system
Solvent: Mass fraction of acetone	Temperature, K	Mole fraction of L-valine	uncertainty
.8995	293.35	.000001619	.000000008095
.8995	303.35	.000002428	.00000001214
.8995	313.25	.000003642	.00000001821
.8995	323.25	.000005666	.00000002833
.8995	333.15	.000007689	.000000038445
.6999	293.15	.000003567	.000000017835
.6999	303.25	.000006537	.000000032685
.6999	313.15	.00001129	.00000005645
.6999	323.25	.00001694	.0000000847
.6999	333.15	.00002674	.0000001337
.4997	293.35	.00001618	.0000000809
.4997	303.15	.00002063	.00000010315
.4997	313.05	.00002744	.0000001372
.4997	323.05	.00003611	.00000018055
.4997	333.25	.00004784	.0000002392
.3003	293.15	.0000519	.0000002595
.3003	303.25	.00008423	.00000042115
.3003	313.25	.0001295	.0000006475
.3003	323.15	.0001907	.0000009535
.3003	333.15	.000272	.00000136
.1003	293.15	.000139	.000000695
.1003	303.15	.0002013	.0000010065
.1003	313.25	.0003161	.0000015805
.1003	323.35	.0004458	.000002229
.1003	333.15	.0005957	.0000029785
