Measured thermophysical data. Solubility of Cefotaxime Sodium in Ethanol + Water Mixtures under Acetic Acid Conditions
Source: J. Chem. Eng. Data, 2014, 10.1021/je500026v
Compound 1: cefotaxime sodium salt, C16H16N5NaO7S2, purity 99%
Compound 2: ethanol, C2H6O, purity 99.5%
Compound 3: water, H2O, purity 99.8%

System: ethanol + water + cefotaxime sodium salt; phases: Liquid, Crystal
Fixed: Pressure, kPa = 101
Property: Mole fraction of cefotaxime sodium salt (Liquid); method: gravimetric method
Temperature, K	Mass fraction of ethanol	Mole fraction of cefotaxime sodium salt	uncertainty
278.15	0	.01516	.000758
278.15	.2222	.00906	.000453
278.15	.338	.006841	.00034205
278.15	.5231	.004713	.00023565
278.15	.63	.003161	.00015805
278.15	.7183	.001928	.0000964
278.15	.7936	.001021	.00005105
278.15	.8569	.0005229	.000026145
278.15	.9116	.0002568	.00001284
278.15	.9585	.0001712	.00000856
278.15	1	.00004363	.0000021815
283.15	0	.01707	.0008535
283.15	.2229	.0099	.000495
283.15	.3882	.006771	.00033855
283.15	.5233	.005187	.00025935
283.15	.6313	.003462	.0001731
283.15	.7184	.002669	.00013345
283.15	.794	.001123	.00005615
283.15	.8566	.0005812	.00002906
283.15	.9102	.00032	.000016
283.15	.9594	.000219	.00001095
283.15	1	.00004609	.0000023045
293.15	0	.02138	.001069
293.15	.2234	.01369	.0006845
293.15	.3953	.01042	.000521
293.15	.5213	.007881	.00039405
293.15	.6341	.004362	.0002181
293.15	.7192	.003551	.00017755
293.15	.795	.00157	.0000785
293.15	.8582	.0006843	.000034215
293.15	.9104	.0003579	.000017895
293.15	.9571	.0002291	.000011455
293.15	1	.00004977	.0000024885
303.15	0	.02533	.0012665
303.15	.1649	.01791	.0008955
303.15	.345	.01408	.000704
303.15	.5423	.008131	.00040655
303.15	.6281	.006972	.0003486
303.15	.7189	.004458	.0002229
303.15	.7922	.00213	.0001065
303.15	.8557	.000738	.0000369
303.15	.9111	.0003891	.000019455
303.15	.9537	.0002413	.000012065
303.15	1	.00005309	.0000026545

System: water + cefotaxime sodium salt; phases: Liquid, Crystal
Property: Mole fraction of cefotaxime sodium salt (Liquid); method: gravimetric method
Temperature, K	Pressure, kPa	Mole fraction of cefotaxime sodium salt	uncertainty
278.15	101	.01516	.000758
283.15	101	.01707	.0008535
293.15	101	.02138	.001069
303.15	101	.02533	.0012665
