Measured thermophysical data. Equilibria in the Ternary System NaCl NaAc H2O at 303.15 K, 323.15 K, and 343.15 K
Source: J. Chem. Eng. Data, 2015, 10.1021/je500768w
Compound 1: sodium chloride, ClNa, purity 99.5%
Compound 2: sodium acetate trihydrate, C2H9NaO5, purity 99.8%
Compound 3: water, H2O, purity 99.8%
Compound 4: sodium acetate, C2H3NaO2, purity 99.8%

System: sodium chloride + water; phases: Liquid, Crystal
Fixed: Pressure, kPa = 101
Property: Mass fraction of sodium chloride (Liquid); method: Chromatography
Temperature, K	Mass fraction of sodium chloride	uncertainty
303.15	.265	.001
323.15	.27	.001
343.15	.274	.001

System: sodium acetate trihydrate + water; phases: Liquid, Crystal
Fixed: Pressure, kPa = 101
Property: Mass fraction of sodium acetate trihydrate (Liquid); method: Chromatography
Temperature, K	Mass fraction of sodium acetate trihydrate	uncertainty
303.15	.353	.001
323.15	.454	.001

System: sodium acetate + water; phases: Liquid, Crystal
Fixed: Pressure, kPa = 101
Property: Mass fraction of sodium acetate (Liquid); method: Chromatography
Temperature, K	Mass fraction of sodium acetate	uncertainty
343.15	.593	.001

System: sodium acetate + sodium chloride + water; phases: Liquid, Crystal
Fixed: Pressure, kPa = 100
Fixed: Temperature, K = 343.15
Property: Mass fraction of sodium acetate (Liquid); method: Chromatography
Mass fraction of sodium chloride	Mass fraction of sodium acetate	uncertainty
.001	.596	.001
.002	.597	.001

System: sodium acetate + sodium chloride + water; phases: Liquid, Crystal
Fixed: Pressure, kPa = 100
Fixed: Temperature, K = 343.15
Property: Mass fraction of sodium acetate (Liquid); method: Chromatography
Mass fraction of sodium chloride	Mass fraction of sodium acetate	uncertainty
.052	.46	.001
.059	.426	.001
.077	.373	.001
.118	.267	.001

System: sodium acetate + sodium chloride + water; phases: Liquid, Crystal, Crystal
Fixed: Pressure, kPa = 100
Property: Mass fraction of sodium acetate (Liquid); method: Chromatography
Temperature, K	Mass fraction of sodium acetate	uncertainty
343.15	.595	.001
343.15	.595	.001
343.15	.594	.001

System: sodium acetate + sodium chloride + water; phases: Liquid, Crystal, Crystal
Fixed: Pressure, kPa = 100
Property: Mass fraction of sodium chloride (Liquid); method: Chromatography
Temperature, K	Mass fraction of sodium chloride	uncertainty
343.15	.004	.001
343.15	.004	.001
343.15	.005	.001

System: sodium acetate trihydrate + sodium chloride + water; phases: Liquid, Crystal
Fixed: Pressure, kPa = 100
Property: Mass fraction of sodium acetate trihydrate (Liquid); method: Chromatography
Temperature, K	Mass fraction of sodium chloride	Mass fraction of sodium acetate trihydrate	uncertainty
303.15	.043	.33	.001
303.15	.088	.295	.001
323.15	.026	.446	.001
323.15	.046	.44	.001

System: sodium acetate trihydrate + sodium chloride + water; phases: Liquid, Crystal
Fixed: Pressure, kPa = 100
Property: Mass fraction of sodium acetate trihydrate (Liquid); method: Chromatography
Temperature, K	Mass fraction of sodium chloride	Mass fraction of sodium acetate trihydrate	uncertainty
303.15	.124	.235	.001
303.15	.161	.177	.001
303.15	.179	.147	.001
303.15	.218	.079	.001
323.15	.056	.409	.001
323.15	.067	.379	.001
323.15	.131	.234	.001
323.15	.168	.169	.001
323.15	.215	.09	.001

System: sodium acetate trihydrate + sodium chloride + water; phases: Liquid, Crystal, Crystal
Fixed: Pressure, kPa = 100
Property: Mass fraction of sodium acetate trihydrate (Liquid); method: Chromatography
Temperature, K	Mass fraction of sodium acetate trihydrate	uncertainty
303.15	.288	.001
303.15	.289	.001
303.15	.288	.001
323.15	.429	.001
323.15	.428	.001
323.15	.429	.001

System: sodium acetate trihydrate + sodium chloride + water; phases: Liquid, Crystal, Crystal
Fixed: Pressure, kPa = 100
Property: Mass fraction of sodium chloride (Liquid); method: Chromatography
Temperature, K	Mass fraction of sodium chloride	uncertainty
303.15	.1	.001
303.15	.1	.001
303.15	.101	.001
323.15	.047	.001
323.15	.047	.001
323.15	.047	.001
