Measured thermophysical data. Equilibrium Solubilities of Iso-eicosane in Supercritical Carbon Dioxide
Source: J. Chem. Eng. Data, 2015, 10.1021/je5007554
Compound 1: carbon dioxide, CO2, purity 99.9%
Compound 2: 18-methylnonadecane, C20H42, purity 97%
Compound 3: ethanol, C2H6O, purity 99%

System: ethanol + carbon dioxide; phases: Liquid, Gas
Fixed: Temperature, K = 333.15
Property: Vapor or sublimation pressure, kPa (Liquid); method: Closed cell (Static) method
Mole fraction of carbon dioxide	Vapor or sublimation pressure, kPa	uncertainty
.3483	7050	20
.5467	9470	20
.7305	10470	20

System: ethanol + carbon dioxide; phases: Gas, Liquid
Fixed: Temperature, K = 333.15
Property: Mole fraction of carbon dioxide (Gas); method: gravimetric
Mole fraction of carbon dioxide	Mole fraction of carbon dioxide	uncertainty
.3483	.9752	.002
.5467	.9571	.002
.7305	.9132	.002

System: carbon dioxide + 18-methylnonadecane; phases: Gas, Liquid
Property: Mole fraction of carbon dioxide (Gas); method: gravimetric
Temperature, K	Pressure, kPa	Mole fraction of carbon dioxide	uncertainty
313.2	7380	.9549	.002
313.2	8240	.9538	.002
313.2	9300	.9527	.002
313.2	10200	.9518	.002
313.2	11620	.9497	.002
313.2	12520	.9483	.002
313.2	13750	.9456	.002
328.2	7300	.9557	.002
328.2	8220	.955	.002
328.2	9080	.9542	.002
328.2	10240	.9531	.002
328.2	11240	.952	.002
328.2	12080	.9509	.002
328.2	13240	.9493	.002
343.2	7260	.9563	.002
343.2	8580	.9554	.002
343.2	9520	.9546	.002
343.2	10380	.9538	.002
343.2	11680	.9526	.002
343.2	13390	.9508	.002
343.2	14180	.9496	.002
358.2	7240	.9569	.002
358.2	8300	.9563	.002
358.2	9360	.9556	.002
358.2	10820	.9544	.002
358.2	12360	.9529	.002
358.2	13480	.9519	.002
358.2	14680	.9504	.002
