Measured thermophysical data. Partial Molar Volumes and Partial Molar Isentropic Compressions of Four Aliphatic Linear Polyethers at Infinite Dilution in Water at Temperatures T = (278 to 343) K and Atmospheric Pressure.
Source: J. Chem. Eng. Data, 2014, 10.1021/je500914a
Compound 1: monoglyme, C4H10O2, purity 99.5%
Compound 2: diglyme, C6H14O3, purity 99.5%
Compound 3: triglyme, C8H18O4, purity 99%
Compound 4: tetraglyme, C10H22O5, purity 99.5%
Compound 5: water, H2O, purity 99.9%

System: monoglyme + water; phases: Liquid
Fixed: Pressure, kPa = 101
Property: Mass density, kg/m3 (Liquid); method: Vibrating tube method
Molality, mol/kg of monoglyme	Temperature, K	Mass density, kg/m3	uncertainty
.04921	278.15	-.22	.01
.05073	278.15	-.227	.01
.098245	278.15	-.423	.01
.102636	278.15	-.446	.01
.199994	278.15	-.817	.01
.202894	278.15	-.826	.01
.301382	278.15	-1.161	.01
.310281	278.15	-1.187	.01
.400846	278.15	-1.458	.01
.405628	278.15	-1.47	.01
.04921	283.15	-.231	.01
.05073	283.15	-.24	.01
.098245	283.15	-.452	.01
.102636	283.15	-.471	.01
.199994	283.15	-.877	.01
.202894	283.15	-.889	.01
.301382	283.15	-1.255	.01
.310281	283.15	-1.284	.01
.400846	283.15	-1.589	.01
.405628	283.15	-1.605	.01
.04921	288.15	-.242	.01
.05073	288.15	-.251	.01
.098245	288.15	-.475	.01
.102636	288.15	-.495	.01
.199994	288.15	-.927	.01
.202894	288.15	-.94	.01
.301382	288.15	-1.338	.01
.310281	288.15	-1.371	.01
.400846	288.15	-1.708	.01
.405628	288.15	-1.724	.01
.04921	293.15	-.252	.01
.05073	293.15	-.261	.01
.098245	293.15	-.497	.01
.102636	293.15	-.516	.01
.199994	293.15	-.975	.01
.202894	293.15	-.99	.01
.301382	293.15	-1.417	.01
.310281	293.15	-1.45	.01
.400846	293.15	-1.817	.01
.405628	293.15	-1.835	.01
.04921	298.15	-.262	.01
.05073	298.15	-.271	.01
.098245	298.15	-.517	.01
.102636	298.15	-.539	.01
.199994	298.15	-1.02	.01
.202894	298.15	-1.037	.01
.301382	298.15	-1.49	.01
.310281	298.15	-1.525	.01
.400846	298.15	-1.919	.01
.405628	298.15	-1.938	.01
.04921	303.15	-.272	.01
.05073	303.15	-.281	.01
.098245	303.15	-.538	.01
.102636	303.15	-.561	.01
.199994	303.15	-1.065	.01
.202894	303.15	-1.081	.01
.301382	303.15	-1.562	.01
.310281	303.15	-1.598	.01
.400846	303.15	-2.017	.01
.405628	303.15	-2.038	.01
.04921	308.15	-.281	.01
.05073	308.15	-.291	.01
.098245	308.15	-.558	.01
.102636	308.15	-.582	.01
.199994	308.15	-1.108	.01
.202894	308.15	-1.126	.01
.301382	308.15	-1.631	.01
.310281	308.15	-1.67	.01
.400846	308.15	-2.115	.01
.405628	308.15	-2.138	.01
.04921	313.15	-.292	.01
.05073	313.15	-.302	.01
.098245	313.15	-.578	.01
.102636	313.15	-.604	.01
.199994	313.15	-1.152	.01
.202894	313.15	-1.17	.01
.301382	313.15	-1.698	.01
.310281	313.15	-1.74	.01
.400846	313.15	-2.207	.01
.405628	313.15	-2.232	.01
.04921	318.15	-.303	.01
.05073	318.15	-.312	.01
.098245	318.15	-.599	.01
.102636	318.15	-.626	.01
.199994	318.15	-1.197	.01
.202894	318.15	-1.214	.01
.301382	318.15	-1.766	.01
.310281	318.15	-1.81	.01
.400846	318.15	-2.303	.01
.405628	318.15	-2.328	.01
.04921	323.15	-.313	.01
.05073	323.15	-.323	.01
.098245	323.15	-.619	.01
.102636	323.15	-.646	.01
.199994	323.15	-1.24	.01
.202894	323.15	-1.259	.01
.301382	323.15	-1.834	.01
.310281	323.15	-1.882	.01
.400846	323.15	-2.397	.01
.405628	323.15	-2.424	.01
.04921	328.15	-.321	.01
.05073	328.15	-.337	.01
.098245	328.15	-.639	.01
.102636	328.15	-.67	.01
.199994	328.15	-1.284	.01
.202894	328.15	-1.301	.01
.301382	328.15	-1.902	.01
.310281	328.15	-1.952	.01
.400846	328.15	-2.489	.01
.405628	328.15	-2.518	.01
.04921	333.15	-.336	.01
.05073	333.15	-.348	.01
.098245	333.15	-.66	.01
.102636	333.15	-.691	.01
.199994	333.15	-1.327	.01
.202894	333.15	-1.348	.01
.301382	333.15	-1.97	.01
.310281	333.15	-2.024	.01
.400846	333.15	-2.584	.01
.405628	333.15	-2.614	.01
.04921	338.15	-.344	.01
.05073	338.15	-.362	.01
.098245	338.15	-.682	.01
.102636	338.15	-.714	.01
.199994	338.15	-1.372	.01
.202894	338.15	-1.392	.01
.301382	338.15	-2.04	.01
.310281	338.15	-2.096	.01
.400846	338.15	-2.679	.01
.405628	338.15	-2.71	.01
.04921	343.15	-.354	.01
.05073	343.15	-.378	.01
.098245	343.15	-.704	.01
.102636	343.15	-.737	.01
.199994	343.15	-1.418	.01
.202894	343.15	-1.438	.01
.301382	343.15	-2.11	.01
.310281	343.15	-2.168	.01
.400846	343.15	-2.774	.01
.405628	343.15	-2.804	.01

System: monoglyme + water; phases: Liquid
Fixed: Pressure, kPa = 101
Fixed: Frequency, MHz = 2
Property: Speed of sound, m/s (Liquid); method: Sing-around technique in a fixed-path interferometer
Molality, mol/kg of monoglyme	Temperature, K	Speed of sound, m/s	uncertainty
.04921	278.15	4.61	.1
.05073	278.15	4.77	.1
.098245	278.15	9.11	.1
.102636	278.15	9.56	.1
.199994	278.15	18.54	.1
.202894	278.15	18.7	.1
.301382	278.15	27.58	.1
.310281	278.15	28.38	.1
.400846	278.15	36.52	.1
.405628	278.15	36.83	.1
.04921	283.15	4.15	.1
.05073	283.15	4.29	.1
.098245	283.15	8.21	.1
.102636	283.15	8.61	.1
.199994	283.15	16.68	.1
.202894	283.15	16.83	.1
.301382	283.15	24.81	.1
.310281	283.15	25.55	.1
.400846	283.15	32.87	.1
.405628	283.15	33.14	.1
.04921	288.15	3.75	.1
.05073	288.15	3.86	.1
.098245	288.15	7.43	.1
.102636	288.15	7.79	.1
.199994	288.15	15.05	.1
.202894	288.15	15.16	.1
.301382	288.15	22.33	.1
.310281	288.15	23	.1
.400846	288.15	29.61	.1
.405628	288.15	29.82	.1
.04921	293.15	3.37	.1
.05073	293.15	3.47	.1
.098245	293.15	6.69	.1
.102636	293.15	6.99	.1
.199994	293.15	13.54	.1
.202894	293.15	13.64	.1
.301382	293.15	20.08	.1
.310281	293.15	20.68	.1
.400846	293.15	26.63	.1
.405628	293.15	26.82	.1
.04921	298.15	3.03	.1
.05073	298.15	3.11	.1
.098245	298.15	6.01	.1
.102636	298.15	6.28	.1
.199994	298.15	12.16	.1
.202894	298.15	12.26	.1
.301382	298.15	18.02	.1
.310281	298.15	18.56	.1
.400846	298.15	23.88	.1
.405628	298.15	24.02	.1
.04921	303.15	2.73	.1
.05073	303.15	2.8	.1
.098245	303.15	5.39	.1
.102636	303.15	5.65	.1
.199994	303.15	10.9	.1
.202894	303.15	10.96	.1
.301382	303.15	16.11	.1
.310281	303.15	16.61	.1
.400846	303.15	21.35	.1
.405628	303.15	21.48	.1
.04921	308.15	2.43	.1
.05073	308.15	2.51	.1
.098245	308.15	4.8	.1
.102636	308.15	5.02	.1
.199994	308.15	9.69	.1
.202894	308.15	9.76	.1
.301382	308.15	14.33	.1
.310281	308.15	14.77	.1
.400846	308.15	19	.1
.405628	308.15	19.1	.1
.04921	313.15	2.16	.1
.05073	313.15	2.21	.1
.098245	313.15	4.28	.1
.102636	313.15	4.45	.1
.199994	313.15	8.6	.1
.202894	313.15	8.65	.1
.301382	313.15	12.7	.1
.310281	313.15	13.08	.1
.400846	313.15	16.81	.1
.405628	313.15	16.9	.1
.04921	318.15	1.91	.1
.05073	318.15	1.95	.1
.098245	318.15	3.76	.1
.102636	318.15	3.92	.1
.199994	318.15	7.58	.1
.202894	318.15	7.62	.1
.301382	318.15	11.15	.1
.310281	318.15	11.48	.1
.400846	318.15	14.72	.1
.405628	318.15	14.78	.1
.04921	323.15	1.67	.1
.05073	323.15	1.74	.1
.098245	323.15	3.28	.1
.102636	323.15	3.43	.1
.199994	323.15	6.59	.1
.202894	323.15	6.62	.1
.301382	323.15	9.66	.1
.310281	323.15	9.94	.1
.400846	323.15	12.75	.1
.405628	323.15	12.78	.1
.04921	328.15	1.45	.1
.05073	328.15	1.51	.1
.098245	328.15	2.81	.1
.102636	328.15	2.95	.1
.199994	328.15	5.61	.1
.202894	328.15	5.69	.1
.301382	328.15	8.26	.1
.310281	328.15	8.49	.1
.400846	328.15	10.89	.1
.405628	328.15	10.88	.1
.04921	333.15	1.22	.1
.05073	333.15	1.31	.1
.098245	333.15	2.36	.1
.102636	333.15	2.5	.1
.199994	333.15	4.71	.1
.202894	333.15	4.76	.1
.301382	333.15	6.89	.1
.310281	333.15	7.09	.1
.400846	333.15	9.12	.1
.405628	333.15	9.06	.1
.04921	338.15	1.01	.1
.05073	338.15	1.12	.1
.098245	338.15	1.94	.1
.102636	338.15	2.08	.1
.199994	338.15	3.85	.1
.202894	338.15	3.92	.1
.301382	338.15	5.62	.1
.310281	338.15	5.76	.1
.400846	338.15	7.28	.1
.405628	338.15	7.33	.1
.04921	343.15	.81	.1
.05073	343.15	.9	.1
.098245	343.15	1.52	.1
.102636	343.15	1.69	.1
.199994	343.15	3.05	.1
.202894	343.15	3.17	.1
.301382	343.15	4.45	.1
.310281	343.15	4.48	.1
.400846	343.15	5.6	.1
.405628	343.15	5.67	.1

System: diglyme + water; phases: Liquid
Fixed: Pressure, kPa = 101
Property: Mass density, kg/m3 (Liquid); method: Vibrating tube method
Molality, mol/kg of diglyme	Temperature, K	Mass density, kg/m3	uncertainty
.047459	278.15	.181	.01
.099424	278.15	.386	.01
.101928	278.15	.392	.01
.193772	278.15	.788	.01
.214816	278.15	.88	.01
.283695	278.15	1.202	.01
.300396	278.15	1.282	.01
.408389	278.15	1.82	.01
.047459	283.15	.156	.01
.099424	283.15	.331	.01
.101928	283.15	.336	.01
.193772	283.15	.678	.01
.214816	283.15	.758	.01
.283695	283.15	1.041	.01
.300396	283.15	1.107	.01
.408389	283.15	1.575	.01
.047459	288.15	.135	.01
.099424	288.15	.286	.01
.101928	288.15	.288	.01
.193772	288.15	.583	.01
.214816	288.15	.652	.01
.283695	288.15	.898	.01
.300396	288.15	.952	.01
.408389	288.15	1.358	.01
.047459	293.15	.117	.01
.099424	293.15	.243	.01
.101928	293.15	.245	.01
.193772	293.15	.497	.01
.214816	293.15	.557	.01
.283695	293.15	.766	.01
.300396	293.15	.814	.01
.408389	293.15	1.164	.01
.047459	298.15	.099	.01
.099424	298.15	.205	.01
.101928	298.15	.205	.01
.193772	298.15	.42	.01
.214816	298.15	.469	.01
.283695	298.15	.648	.01
.300396	298.15	.687	.01
.408389	298.15	.985	.01
.047459	303.15	.081	.01
.099424	303.15	.167	.01
.101928	303.15	.169	.01
.193772	303.15	.344	.01
.214816	303.15	.387	.01
.283695	303.15	.536	.01
.300396	303.15	.566	.01
.408389	303.15	.816	.01
.047459	308.15	.065	.01
.099424	308.15	.133	.01
.101928	308.15	.133	.01
.193772	308.15	.275	.01
.214816	308.15	.308	.01
.283695	308.15	.428	.01
.300396	308.15	.454	.01
.408389	308.15	.657	.01
.047459	313.15	.048	.01
.099424	313.15	.101	.01
.101928	313.15	.099	.01
.193772	313.15	.207	.01
.214816	313.15	.232	.01
.283695	313.15	.327	.01
.300396	313.15	.346	.01
.408389	313.15	.504	.01
.047459	318.15	.034	.01
.099424	318.15	.068	.01
.101928	318.15	.065	.01
.193772	318.15	.141	.01
.214816	318.15	.159	.01
.283695	318.15	.227	.01
.300396	318.15	.24	.01
.408389	318.15	.355	.01
.047459	323.15	.019	.01
.099424	323.15	.035	.01
.101928	323.15	.032	.01
.193772	323.15	.077	.01
.214816	323.15	.088	.01
.283695	323.15	.13	.01
.300396	323.15	.139	.01
.408389	323.15	.213	.01
.047459	328.15	.003	.01
.099424	328.15	.002	.01
.101928	328.15	-.001	.01
.193772	328.15	.013	.01
.214816	328.15	.017	.01
.283695	328.15	.035	.01
.300396	328.15	.039	.01
.408389	328.15	.072	.01
.047459	333.15	-.012	.01
.099424	333.15	-.03	.01
.101928	333.15	-.033	.01
.193772	333.15	-.05	.01
.214816	333.15	-.051	.01
.283695	333.15	-.059	.01
.300396	333.15	-.06	.01
.408389	333.15	-.065	.01
.047459	338.15	-.026	.01
.099424	338.15	-.061	.01
.101928	338.15	-.063	.01
.193772	338.15	-.11	.01
.214816	338.15	-.122	.01
.283695	338.15	-.149	.01
.300396	338.15	-.158	.01
.408389	338.15	-.201	.01
.047459	343.15	-.042	.01
.099424	343.15	-.091	.01
.101928	343.15	-.094	.01
.193772	343.15	-.172	.01
.214816	343.15	-.188	.01
.283695	343.15	-.241	.01
.300396	343.15	-.255	.01
.408389	343.15	-.334	.01

System: diglyme + water; phases: Liquid
Fixed: Pressure, kPa = 101
Fixed: Frequency, MHz = 2
Property: Speed of sound, m/s (Liquid); method: Sing-around technique in a fixed-path interferometer
Molality, mol/kg of diglyme	Temperature, K	Speed of sound, m/s	uncertainty
.047459	278.15	6.11	.1
.099424	278.15	12.72	.1
.101928	278.15	13	.1
.193772	278.15	24.41	.1
.214816	278.15	26.96	.1
.283695	278.15	35.32	.1
.300396	278.15	37.3	.1
.408389	278.15	50.04	.1
.047459	283.15	5.54	.1
.099424	283.15	11.51	.1
.101928	283.15	11.77	.1
.193772	283.15	22.12	.1
.214816	283.15	24.42	.1
.283695	283.15	31.98	.1
.300396	283.15	33.78	.1
.408389	283.15	45.29	.1
.047459	288.15	5.06	.1
.099424	288.15	10.47	.1
.101928	288.15	10.71	.1
.193772	288.15	20.07	.1
.214816	288.15	22.15	.1
.283695	288.15	28.98	.1
.300396	288.15	30.61	.1
.408389	288.15	41	.1
.047459	293.15	4.55	.1
.099424	293.15	9.49	.1
.101928	293.15	9.71	.1
.193772	293.15	18.19	.1
.214816	293.15	20.07	.1
.283695	293.15	26.24	.1
.300396	293.15	27.72	.1
.408389	293.15	37.08	.1
.047459	298.15	4.13	.1
.099424	298.15	8.6	.1
.101928	298.15	8.78	.1
.193772	298.15	16.46	.1
.214816	298.15	18.17	.1
.283695	298.15	23.71	.1
.300396	298.15	25.06	.1
.408389	298.15	33.47	.1
.047459	303.15	3.73	.1
.099424	303.15	7.79	.1
.101928	303.15	7.94	.1
.193772	303.15	14.88	.1
.214816	303.15	16.37	.1
.283695	303.15	21.38	.1
.300396	303.15	22.57	.1
.408389	303.15	30.15	.1
.047459	308.15	3.35	.1
.099424	308.15	7.01	.1
.101928	308.15	7.15	.1
.193772	308.15	13.39	.1
.214816	308.15	14.72	.1
.283695	308.15	19.23	.1
.300396	308.15	20.31	.1
.408389	308.15	27.05	.1
.047459	313.15	3	.1
.099424	313.15	6.28	.1
.101928	313.15	6.41	.1
.193772	313.15	12.01	.1
.214816	313.15	13.21	.1
.283695	313.15	17.21	.1
.300396	313.15	18.17	.1
.408389	313.15	24.15	.1
.047459	318.15	2.68	.1
.099424	318.15	5.62	.1
.101928	318.15	5.74	.1
.193772	318.15	10.72	.1
.214816	318.15	11.77	.1
.283695	318.15	15.3	.1
.300396	318.15	16.14	.1
.408389	318.15	21.41	.1
.047459	323.15	2.36	.1
.099424	323.15	4.96	.1
.101928	323.15	5.09	.1
.193772	323.15	9.45	.1
.214816	323.15	10.37	.1
.283695	323.15	13.45	.1
.300396	323.15	14.21	.1
.408389	323.15	18.82	.1
.047459	328.15	2.05	.1
.099424	328.15	4.34	.1
.101928	328.15	4.45	.1
.193772	328.15	8.26	.1
.214816	328.15	9.05	.1
.283695	328.15	11.72	.1
.300396	328.15	12.37	.1
.408389	328.15	16.33	.1
.047459	333.15	1.76	.1
.099424	333.15	3.71	.1
.101928	333.15	3.86	.1
.193772	333.15	7.09	.1
.214816	333.15	7.8	.1
.283695	333.15	10.08	.1
.300396	333.15	10.63	.1
.408389	333.15	13.98	.1
.047459	338.15	1.46	.1
.099424	338.15	3.12	.1
.101928	338.15	3.3	.1
.193772	338.15	5.99	.1
.214816	338.15	6.61	.1
.283695	338.15	8.5	.1
.300396	338.15	8.99	.1
.408389	338.15	11.76	.1
.047459	343.15	1.17	.1
.099424	343.15	2.62	.1
.101928	343.15	2.81	.1
.193772	343.15	5	.1
.214816	343.15	5.51	.1
.283695	343.15	6.97	.1
.300396	343.15	7.41	.1
.408389	343.15	9.6	.1

System: triglyme + water; phases: Liquid
Fixed: Pressure, kPa = 101
Property: Mass density, kg/m3 (Liquid); method: Vibrating tube method
Molality, mol/kg of triglyme	Temperature, K	Mass density, kg/m3	uncertainty
.051868	278.15	.595	.01
.100814	278.15	1.166	.01
.210203	278.15	2.461	.01
.306008	278.15	3.623	.01
.410034	278.15	4.898	.01
.051868	283.15	.558	.01
.100814	283.15	1.093	.01
.210203	283.15	2.302	.01
.306008	283.15	3.383	.01
.410034	283.15	4.571	.01
.051868	288.15	.525	.01
.100814	288.15	1.031	.01
.210203	288.15	2.162	.01
.306008	288.15	3.173	.01
.410034	288.15	4.28	.01
.051868	293.15	.497	.01
.100814	293.15	.972	.01
.210203	293.15	2.038	.01
.306008	293.15	2.986	.01
.410034	293.15	4.02	.01
.051868	298.15	.471	.01
.100814	298.15	.922	.01
.210203	298.15	1.924	.01
.306008	298.15	2.813	.01
.410034	298.15	3.782	.01
.051868	303.15	.446	.01
.100814	303.15	.871	.01
.210203	303.15	1.817	.01
.306008	303.15	2.653	.01
.410034	303.15	3.559	.01
.051868	308.15	.421	.01
.100814	308.15	.825	.01
.210203	308.15	1.717	.01
.306008	308.15	2.502	.01
.410034	308.15	3.35	.01
.051868	313.15	.399	.01
.100814	313.15	.78	.01
.210203	313.15	1.619	.01
.306008	313.15	2.357	.01
.410034	313.15	3.152	.01
.051868	318.15	.378	.01
.100814	318.15	.736	.01
.210203	318.15	1.526	.01
.306008	318.15	2.218	.01
.410034	318.15	2.96	.01
.051868	323.15	.356	.01
.100814	323.15	.692	.01
.210203	323.15	1.436	.01
.306008	323.15	2.084	.01
.410034	323.15	2.777	.01
.051868	328.15	.335	.01
.100814	328.15	.653	.01
.210203	328.15	1.347	.01
.306008	328.15	1.952	.01
.410034	328.15	2.597	.01
.051868	333.15	.314	.01
.100814	333.15	.613	.01
.210203	333.15	1.261	.01
.306008	333.15	1.826	.01
.410034	333.15	2.425	.01
.051868	338.15	.294	.01
.100814	338.15	.573	.01
.210203	338.15	1.177	.01
.306008	338.15	1.7	.01
.410034	338.15	2.252	.01
.051868	343.15	.275	.01
.100814	343.15	.517	.01
.210203	343.15	1.095	.01
.306008	343.15	1.578	.01
.410034	343.15	2.085	.01

System: triglyme + water; phases: Liquid
Fixed: Pressure, kPa = 101
Fixed: Frequency, MHz = 2
Property: Speed of sound, m/s (Liquid); method: Sing-around technique in a fixed-path interferometer
Molality, mol/kg of triglyme	Temperature, K	Speed of sound, m/s	uncertainty
.051868	278.15	8.41	.1
.100814	278.15	16.29	.1
.210203	278.15	33.36	.1
.306008	278.15	47.69	.1
.410034	278.15	62.85	.1
.051868	283.15	7.65	.1
.100814	283.15	14.79	.1
.210203	283.15	30.34	.1
.306008	283.15	43.31	.1
.410034	283.15	57.05	.1
.051868	288.15	7	.1
.100814	288.15	13.47	.1
.210203	288.15	27.61	.1
.306008	288.15	39.41	.1
.410034	288.15	51.84	.1
.051868	293.15	6.34	.1
.100814	293.15	12.24	.1
.210203	293.15	25.11	.1
.306008	293.15	35.8	.1
.410034	293.15	47.04	.1
.051868	298.15	5.76	.1
.100814	298.15	11.13	.1
.210203	298.15	22.82	.1
.306008	298.15	32.47	.1
.410034	298.15	42.65	.1
.051868	303.15	5.24	.1
.100814	303.15	10.12	.1
.210203	303.15	20.67	.1
.306008	303.15	29.43	.1
.410034	303.15	38.55	.1
.051868	308.15	4.75	.1
.100814	308.15	9.11	.1
.210203	308.15	18.69	.1
.306008	308.15	26.56	.1
.410034	308.15	34.76	.1
.051868	313.15	4.27	.1
.100814	313.15	8.23	.1
.210203	313.15	16.85	.1
.306008	313.15	23.87	.1
.410034	313.15	31.21	.1
.051868	318.15	3.86	.1
.100814	318.15	7.41	.1
.210203	318.15	15.1	.1
.306008	318.15	21.36	.1
.410034	318.15	27.84	.1
.051868	323.15	3.45	.1
.100814	323.15	6.6	.1
.210203	323.15	13.42	.1
.306008	323.15	18.96	.1
.410034	323.15	24.65	.1
.051868	328.15	3.05	.1
.100814	328.15	5.82	.1
.210203	328.15	11.83	.1
.306008	328.15	16.67	.1
.410034	328.15	21.63	.1
.051868	333.15	2.68	.1
.100814	333.15	5.1	.1
.210203	333.15	10.33	.1
.306008	333.15	14.51	.1
.410034	333.15	18.75	.1
.051868	338.15	2.33	.1
.100814	338.15	4.41	.1
.210203	338.15	8.88	.1
.306008	338.15	12.43	.1
.410034	338.15	16.01	.1
.051868	343.15	1.94	.1
.100814	343.15	3.7	.1
.210203	343.15	7.41	.1
.306008	343.15	10.45	.1
.410034	343.15	13.38	.1

System: tetraglyme + water; phases: Liquid
Fixed: Pressure, kPa = 101
Property: Mass density, kg/m3 (Liquid); method: Vibrating tube method
Molality, mol/kg of tetraglyme	Temperature, K	Mass density, kg/m3	uncertainty
.050617	278.15	.983	.01
.097183	278.15	1.892	.01
.195888	278.15	3.815	.01
.24903	278.15	4.868	.01
.299821	278.15	5.839	.01
.409313	278.15	7.969	.01
.050617	283.15	.932	.01
.097183	283.15	1.798	.01
.195888	283.15	3.62	.01
.24903	283.15	4.615	.01
.299821	283.15	5.535	.01
.409313	283.15	7.546	.01
.050617	288.15	.891	.01
.097183	288.15	1.717	.01
.195888	288.15	3.451	.01
.24903	288.15	4.398	.01
.299821	288.15	5.268	.01
.409313	288.15	7.171	.01
.050617	293.15	.852	.01
.097183	293.15	1.642	.01
.195888	293.15	3.299	.01
.24903	293.15	4.201	.01
.299821	293.15	5.029	.01
.409313	293.15	6.833	.01
.050617	298.15	.819	.01
.097183	298.15	1.576	.01
.195888	298.15	3.159	.01
.24903	298.15	4.02	.01
.299821	298.15	4.809	.01
.409313	298.15	6.525	.01
.050617	303.15	.787	.01
.097183	303.15	1.513	.01
.195888	303.15	3.03	.01
.24903	303.15	3.854	.01
.299821	303.15	4.607	.01
.409313	303.15	6.242	.01
.050617	308.15	.756	.01
.097183	308.15	1.455	.01
.195888	308.15	2.91	.01
.24903	308.15	3.698	.01
.299821	308.15	4.417	.01
.409313	308.15	5.976	.01
.050617	313.15	.727	.01
.097183	313.15	1.4	.01
.195888	313.15	2.795	.01
.24903	313.15	3.55	.01
.299821	313.15	4.237	.01
.409313	313.15	5.725	.01
.050617	318.15	.702	.01
.097183	318.15	1.346	.01
.195888	318.15	2.686	.01
.24903	318.15	3.408	.01
.299821	318.15	4.066	.01
.409313	318.15	5.486	.01
.050617	323.15	.674	.01
.097183	323.15	1.294	.01
.195888	323.15	2.574	.01
.24903	323.15	3.273	.01
.299821	323.15	3.901	.01
.409313	323.15	5.256	.01
.050617	328.15	.649	.01
.097183	328.15	1.245	.01
.195888	328.15	2.474	.01
.24903	328.15	3.142	.01
.299821	328.15	3.741	.01
.409313	328.15	5.035	.01
.050617	333.15	.625	.01
.097183	333.15	1.196	.01
.195888	333.15	2.373	.01
.24903	333.15	3.013	.01
.299821	333.15	3.587	.01
.409313	333.15	4.82	.01
.050617	338.15	.597	.01
.097183	338.15	1.149	.01
.195888	338.15	2.273	.01
.24903	338.15	2.889	.01
.299821	338.15	3.437	.01
.409313	338.15	4.614	.01
.050617	343.15	.572	.01
.097183	343.15	1.104	.01
.195888	343.15	2.175	.01
.24903	343.15	2.77	.01
.299821	343.15	3.291	.01
.409313	343.15	4.409	.01

System: tetraglyme + water; phases: Liquid
Fixed: Pressure, kPa = 101
Fixed: Frequency, MHz = 2
Property: Speed of sound, m/s (Liquid); method: Sing-around technique in a fixed-path interferometer
Molality, mol/kg of tetraglyme	Temperature, K	Speed of sound, m/s	uncertainty
.050617	278.15	9.9	.1
.097183	278.15	18.85	.1
.195888	278.15	37.27	.1
.299821	278.15	55.95	.1
.409313	278.15	74.96	.1
.24903	278.15	46.96	.1
.050617	283.15	9.02	.1
.097183	283.15	17.18	.1
.195888	283.15	33.98	.1
.299821	283.15	50.93	.1
.409313	283.15	68.21	.1
.24903	283.15	42.77	.1
.050617	288.15	8.27	.1
.097183	288.15	15.7	.1
.195888	288.15	30.99	.1
.299821	288.15	46.4	.1
.409313	288.15	62.1	.1
.24903	288.15	39	.1
.050617	293.15	7.55	.1
.097183	293.15	14.36	.1
.195888	293.15	28.25	.1
.299821	293.15	42.23	.1
.409313	293.15	56.49	.1
.24903	293.15	35.51	.1
.050617	298.15	6.88	.1
.097183	298.15	13.06	.1
.195888	298.15	25.71	.1
.299821	298.15	38.41	.1
.409313	298.15	51.33	.1
.24903	298.15	32.31	.1
.050617	303.15	6.27	.1
.097183	303.15	11.87	.1
.195888	303.15	23.36	.1
.299821	303.15	34.88	.1
.409313	303.15	46.56	.1
.24903	303.15	29.37	.1
.050617	308.15	5.7	.1
.097183	308.15	10.77	.1
.195888	308.15	21.2	.1
.299821	308.15	31.57	.1
.409313	308.15	42.1	.1
.24903	308.15	26.61	.1
.050617	313.15	5.17	.1
.097183	313.15	9.77	.1
.195888	313.15	19.18	.1
.299821	313.15	28.49	.1
.409313	313.15	37.92	.1
.24903	313.15	24.02	.1
.050617	318.15	4.68	.1
.097183	318.15	8.81	.1
.195888	318.15	17.24	.1
.299821	318.15	25.57	.1
.409313	318.15	33.98	.1
.24903	318.15	21.58	.1
.050617	323.15	4.18	.1
.097183	323.15	7.89	.1
.195888	323.15	15.4	.1
.299821	323.15	22.8	.1
.409313	323.15	30.23	.1
.24903	323.15	19.27	.1
.050617	328.15	3.71	.1
.097183	328.15	7.01	.1
.195888	328.15	13.66	.1
.299821	328.15	20.18	.1
.409313	328.15	26.62	.1
.24903	328.15	17.07	.1
.050617	333.15	3.26	.1
.097183	333.15	6.18	.1
.195888	333.15	12.01	.1
.299821	333.15	17.68	.1
.409313	333.15	23.17	.1
.24903	333.15	14.99	.1
.050617	338.15	2.91	.1
.097183	338.15	5.39	.1
.195888	338.15	10.44	.1
.299821	338.15	15.29	.1
.409313	338.15	19.93	.1
.24903	338.15	12.99	.1
.050617	343.15	2.5	.1
.097183	343.15	4.61	.1
.195888	343.15	8.9	.1
.299821	343.15	13.01	.1
.409313	343.15	16.81	.1
.24903	343.15	11.09	.1
