Measured thermophysical data. Solubility of diosgenin in several imidazolium-based ionic liquids
Source: J. Chem. Eng. Data, 2015, 10.1021/je5004324
Compound 1: diosgenin, C27H42O3, purity 99.5%
Compound 2: 1-butyl-3-methylimidazolium nitrate, C8H15N3O3
Compound 3: 1-ethyl-3-methylimidazolium bis(trifluoromethylsulfonyl)imide, C8H11F6N3O4S2
Compound 4: 1-butyl-3-methylimidazolium bis(trifluoromethylsulfonyl)imide, C10H15F6N3O4S2
Compound 5: 1-octyl-3-methylimidazolium bis(trifluoromethylsulfonyl)imide, C14H23F6N3O4S2

System: diosgenin + 1-butyl-3-methylimidazolium nitrate; phases: Liquid, Crystal
Fixed: Pressure, kPa = 101
Property: Mole fraction of diosgenin (Liquid); method: Laser monitoring method
Temperature, K	Mole fraction of diosgenin	uncertainty
333.25	.000126	.00000882
338.05	.000174	.00001218
345.85	.000242	.00001694
350.95	.00029	.0000203
352.85	.000338	.00002366
356.95	.000387	.00002709

System: diosgenin + 1-ethyl-3-methylimidazolium bis(trifluoromethylsulfonyl)imide; phases: Liquid, Crystal
Fixed: Pressure, kPa = 101
Property: Mole fraction of diosgenin (Liquid); method: Laser monitoring method
Temperature, K	Mole fraction of diosgenin	uncertainty
342.95	.000168	.00001176
350.25	.00022	.0000154
355.45	.000266	.00001862
363.95	.000317	.00002219

System: diosgenin + 1-butyl-3-methylimidazolium bis(trifluoromethylsulfonyl)imide; phases: Liquid, Crystal
Fixed: Pressure, kPa = 101
Property: Mole fraction of diosgenin (Liquid); method: Laser monitoring method
Temperature, K	Mole fraction of diosgenin	uncertainty
328.95	.000263	.00001841
337.95	.000385	.00002695
342.05	.000527	.00003689
351.55	.000608	.00004256
355.55	.000709	.00004963
359.45	.000851	.00005957

System: diosgenin + 1-octyl-3-methylimidazolium bis(trifluoromethylsulfonyl)imide; phases: Liquid, Crystal
Fixed: Pressure, kPa = 101
Property: Mole fraction of diosgenin (Liquid); method: Laser monitoring method
Temperature, K	Mole fraction of diosgenin	uncertainty
312.85	.000287	.00002009
315.55	.000419	.00002933
323.65	.000772	.00005404
325.45	.000992	.00006944
328.85	.001322	.00009254
332.25	.00163	.0001141
