Measured thermophysical data. Volumetric Properties of Aqueous Ionic-Liquid Solutions at Different Temperatures
Source: J. Chem. Eng. Data, 2015, 10.1021/je501161t
Compound 1: 1-butyl-3-methylimidazolium chloride, C8H15ClN2, purity 98%
Compound 2: 1-butyl-3-methylimidazolium bromide, C8H15BrN2, purity 98%
Compound 3: 1-butyl-3-methylimidazolium tetrafluoroborate, C8H15BF4N2, purity 98%
Compound 4: 1-hexyl-3-methylimidazolium bromide, C10H19BrN2, purity 98%
Compound 5: 1-octyl-3-methylimidazolium bromide, C12H23BrN2, purity 98%
Compound 6: 1,3-dimethylimidazolium methylsulfate, C6H12N2O4S, purity 98%
Compound 7: 1-ethyl-3-methylimidazolium ethyl sulfate, C8H16N2O4S, purity 98%
Compound 8: water, H2O, purity 99.8%

System: water + 1-butyl-3-methylimidazolium chloride; phases: Liquid
Fixed: Pressure, kPa = 100
Property: Mass density, kg/m3 (Liquid); method: Vibrating tube method
Temperature, K	Molality, mol/kg of 1-butyl-3-methylimidazolium chloride	Mass density, kg/m3	uncertainty
288.15	0	999.096	2
288.15	.0323	999.529	2
288.15	.0586	999.875	2
288.15	.0739	1000.08	2
288.15	.0899	1000.289	2
288.15	.1048	1000.485	2
288.15	.1254	1000.76	2
288.15	.1437	1001.007	2
288.15	.1687	1001.33	2
288.15	.1789	1001.473	2
288.15	.191	1001.631	2
288.15	.2204	1002.029	2
298.15	0	997.04	2
298.15	.0323	997.423	2
298.15	.0586	997.736	2
298.15	.0739	997.92	2
298.15	.0899	998.113	2
298.15	.1048	998.297	2
298.15	.1254	998.55	2
298.15	.1437	998.776	2
298.15	.1687	999.091	2
298.15	.1789	999.214	2
298.15	.191	999.373	2
298.15	.2204	999.752	2
308.15	0	994.02	2
308.15	.0323	994.372	2
308.15	.0586	994.658	2
308.15	.0739	994.834	2
308.15	.0899	995.007	2
308.15	.1048	995.182	2
308.15	.1254	995.409	2
308.15	.1437	995.622	2
308.15	.1687	995.913	2
308.15	.1789	996.039	2
308.15	.191	996.185	2
308.15	.2204	996.541	2
318.15	0	990.192	2
318.15	.0323	990.507	2
318.15	.0586	990.768	2
318.15	.0739	990.922	2
318.15	.0899	991.091	2
318.15	.1048	991.26	2
318.15	.1254	991.473	2
318.15	.1437	991.68	2
318.15	.1687	991.942	2
318.15	.1789	992.06	2
318.15	.191	992.216	2
318.15	.2204	992.538	2

System: water + 1-butyl-3-methylimidazolium bromide; phases: Liquid
Fixed: Pressure, kPa = 100
Property: Mass density, kg/m3 (Liquid); method: Vibrating tube method
Temperature, K	Molality, mol/kg of 1-butyl-3-methylimidazolium bromide	Mass density, kg/m3	uncertainty
288.15	.0317	1000.705	2
288.15	.0585	1002.052	2
288.15	.073	1002.78	2
288.15	.0916	1003.699	2
288.15	.114	1004.803	2
288.15	.1319	1005.688	2
288.15	.1508	1006.6	2
288.15	.1706	1007.559	2
288.15	.191	1008.546	2
298.15	.0317	998.612	2
298.15	.0585	999.924	2
298.15	.073	1000.633	2
298.15	.0916	1001.529	2
298.15	.114	1002.606	2
298.15	.1319	1003.472	2
298.15	.1508	1004.364	2
298.15	.1706	1005.297	2
298.15	.191	1006.259	2
308.15	.0317	995.556	2
308.15	.0585	996.84	2
308.15	.073	997.535	2
308.15	.0916	998.413	2
308.15	.114	999.47	2
308.15	.1319	1000.321	2
308.15	.1508	1001.189	2
308.15	.1706	1002.117	2
308.15	.191	1003.068	2
318.15	.0317	991.699	2
318.15	.0585	992.959	2
318.15	.073	993.641	2
318.15	.0916	994.509	2
318.15	.114	995.544	2
318.15	.1319	996.382	2
318.15	.1508	997.243	2
318.15	.1706	998.148	2
318.15	.191	999.08	2

System: water + 1-butyl-3-methylimidazolium tetrafluoroborate; phases: Liquid
Fixed: Pressure, kPa = 100
Property: Mass density, kg/m3 (Liquid); method: Vibrating tube method
Temperature, K	Molality, mol/kg of 1-butyl-3-methylimidazolium tetrafluoroborate	Mass density, kg/m3	uncertainty
288.15	.0311	1000.384	2
288.15	.0527	1001.26	2
288.15	.072	1002.033	2
288.15	.0904	1002.76	2
288.15	.1103	1003.538	2
288.15	.1326	1004.402	2
288.15	.1525	1005.166	2
288.15	.1788	1006.161	2
298.15	.0311	998.274	2
298.15	.0527	999.116	2
298.15	.072	999.86	2
298.15	.0904	1000.559	2
298.15	.1103	1001.308	2
298.15	.1326	1002.134	2
298.15	.1525	1002.864	2
298.15	.1788	1003.82	2
308.15	.0311	995.194	2
308.15	.0527	995.999	2
308.15	.072	996.713	2
308.15	.0904	997.385	2
308.15	.1103	998.11	2
308.15	.1326	998.921	2
308.15	.1525	999.635	2
308.15	.1788	1000.575	2
318.15	.0311	991.332	2
318.15	.0527	992.114	2
318.15	.072	992.809	2
318.15	.0904	993.467	2
318.15	.1103	994.171	2
318.15	.1326	994.948	2
318.15	.1525	995.643	2
318.15	.1788	996.555	2

System: water + 1-hexyl-3-methylimidazolium bromide; phases: Liquid
Fixed: Pressure, kPa = 100
Property: Mass density, kg/m3 (Liquid); method: Vibrating tube method
Temperature, K	Molality, mol/kg of 1-hexyl-3-methylimidazolium bromide	Mass density, kg/m3	uncertainty
288.15	.0314	1000.584	2
288.15	.0515	1001.524	2
288.15	.0703	1002.398	2
288.15	.0881	1003.231	2
288.15	.1098	1004.226	2
288.15	.131	1005.184	2
288.15	.1505	1006.08	2
288.15	.1711	1007.001	2
288.15	.1903	1007.87	2
298.15	.0314	998.466	2
298.15	.0515	999.368	2
298.15	.0703	1000.205	2
298.15	.0881	1000.998	2
298.15	.1098	1001.959	2
298.15	.131	1002.88	2
298.15	.1505	1003.74	2
298.15	.1711	1004.639	2
298.15	.1903	1005.466	2
308.15	.0314	995.404	2
308.15	.0515	996.284	2
308.15	.0703	997.097	2
308.15	.0881	997.858	2
308.15	.1098	998.787	2
308.15	.131	999.688	2
308.15	.1505	1000.504	2
308.15	.1711	1001.398	2
308.15	.1903	1002.201	2
318.15	.0314	991.535	2
318.15	.0515	992.389	2
318.15	.0703	993.185	2
318.15	.0881	993.932	2
318.15	.1098	994.837	2
318.15	.131	995.704	2
318.15	.1505	996.521	2
318.15	.1711	997.358	2
318.15	.1903	998.139	2

System: water + 1-octyl-3-methylimidazolium bromide; phases: Liquid
Fixed: Pressure, kPa = 100
Property: Mass density, kg/m3 (Liquid); method: Vibrating tube method
Temperature, K	Molality, mol/kg of 1-octyl-3-methylimidazolium bromide	Mass density, kg/m3	uncertainty
288.15	.0323	1000.51	2
288.15	.0501	1001.285	2
288.15	.0722	1002.237	2
288.15	.0908	1003.035	2
288.15	.1112	1003.897	2
288.15	.1301	1004.694	2
288.15	.1485	1005.467	2
288.15	.1707	1006.392	2
288.15	.191	1007.245	2
298.15	.0323	998.383	2
298.15	.0501	999.121	2
298.15	.0722	1000.023	2
298.15	.0908	1000.773	2
298.15	.1112	1001.602	2
298.15	.1301	1002.356	2
298.15	.1485	1003.082	2
298.15	.1707	1003.987	2
298.15	.191	1004.772	2
308.15	.0323	995.284	2
308.15	.0501	995.975	2
308.15	.0722	996.827	2
308.15	.0908	997.539	2
308.15	.1112	998.314	2
308.15	.1301	999.033	2
308.15	.1485	999.725	2
308.15	.1707	1000.545	2
308.15	.191	1001.302	2
318.15	.0323	991.366	2
318.15	.0501	992.011	2
318.15	.0722	992.796	2
318.15	.0908	993.46	2
318.15	.1112	994.171	2
318.15	.1301	994.852	2
318.15	.1485	995.483	2
318.15	.1707	996.26	2
318.15	.191	996.981	2

System: water + 1,3-dimethylimidazolium methylsulfate; phases: Liquid
Fixed: Pressure, kPa = 100
Property: Mass density, kg/m3 (Liquid); method: Vibrating tube method
Temperature, K	Molality, mol/kg of 1,3-dimethylimidazolium methylsulfate	Mass density, kg/m3	uncertainty
288.15	.0333	1000.778	2
288.15	.052	1001.71	2
288.15	.0743	1002.81	2
288.15	.0945	1003.795	2
288.15	.1147	1004.769	2
288.15	.1309	1005.548	2
288.15	.1517	1006.536	2
288.15	.1791	1007.82	2
298.15	.0333	998.673	2
298.15	.052	999.578	2
298.15	.0743	1000.649	2
298.15	.0945	1001.61	2
298.15	.1147	1002.565	2
298.15	.1309	1003.325	2
298.15	.1517	1004.296	2
298.15	.1791	1005.557	2
308.15	.0333	995.619	2
308.15	.052	996.505	2
308.15	.0743	997.553	2
308.15	.0945	998.494	2
308.15	.1147	999.435	2
308.15	.1309	1000.18	2
308.15	.1517	1001.137	2
308.15	.1791	1002.38	2
318.15	.0333	991.771	2
318.15	.052	992.648	2
318.15	.0743	993.684	2
318.15	.0945	994.617	2
318.15	.1147	995.542	2
318.15	.1309	996.28	2
318.15	.1517	997.222	2
318.15	.1791	998.46	2

System: water + 1-ethyl-3-methylimidazolium ethyl sulfate; phases: Liquid
Fixed: Pressure, kPa = 100
Property: Mass density, kg/m3 (Liquid); method: Vibrating tube method
Temperature, K	Molality, mol/kg of 1-ethyl-3-methylimidazolium ethyl sulfate	Mass density, kg/m3	uncertainty
288.15	.0313	1000.546	2
288.15	.0499	1001.396	2
288.15	.0682	1002.223	2
288.15	.0901	1003.21	2
288.15	.1095	1004.081	2
288.15	.1322	1005.089	2
298.15	.0313	998.448	2
298.15	.0499	999.27	2
298.15	.0682	1000.069	2
298.15	.0901	1001.037	2
298.15	.1095	1001.865	2
298.15	.1322	1002.863	2
308.15	.0313	995.398	2
308.15	.0499	996.212	2
308.15	.0682	996.995	2
308.15	.0901	997.93	2
308.15	.1095	998.762	2
308.15	.1322	999.712	2
318.15	.0313	991.566	2
318.15	.0499	992.377	2
318.15	.0682	993.169	2
318.15	.0901	994.105	2
318.15	.1095	994.936	2
318.15	.1322	995.897	2
