Measured thermophysical data. Measurement and Correlation of the Solubility of Penicillin V potassium in Ethanol + Water and 1-Butyl alcohol + Water Systems
Source: J. Chem. Eng. Data, 2015, 10.1021/je5008422
Compound 1: potassium (2S,5R,6R)-3,3-dimethyl-7-oxo-6-(2-phenoxyacetamido)-4-thia-1-azabicyclo[3.2.0]heptane-2-carboxylate, C16H17KN2O5S, purity 99%
Compound 2: ethanol, C2H6O, purity 99.7%
Compound 3: 1-butanol, C4H10O, purity 99.8%
Compound 4: water, H2O

System: ethanol + potassium (2S,5R,6R)-3,3-dimethyl-7-oxo-6-(2-phenoxyacetamido)-4-thia-1-azabicyclo[3.2.0]heptane-2-carboxylate + water; phases: Liquid, Crystal
Fixed: Pressure, kPa = 100
Property: Mole fraction of potassium (2S,5R,6R)-3,3-dimethyl-7-oxo-6-(2-phenoxyacetamido)-4-thia-1-azabicyclo[3.2.0]heptane-2-carboxylate (Liquid); method: Gravimetric Method
Temperature, K	Solvent: Mole fraction of ethanol	Mole fraction of potassium (2S,5R,6R)-3,3-dimethyl-7-oxo-6-(2-phenoxyacetamido)-4-thia-1-azabicyclo[3.2.0]heptane-2-carboxylate	uncertainty
278.15	1	.0004701	.000037608
278.15	.8814	.0006055	.00004844
278.15	.7788	.001182	.00009456
278.15	.6892	.00249	.0001992
278.15	.6102	.004336	.00034688
278.15	.54	.005348	.00042784
278.15	.4773	.007736	.00061888
278.15	.4209	.009592	.00076736
278.15	.3699	.01198	.0009584
278.15	.3235	.01301	.0010408
278.15	.2813	.01476	.0011808
283.15	1	.0004854	.000038832
283.15	.8814	.0006592	.000052736
283.15	.7788	.001298	.00010384
283.15	.6892	.003218	.00025744
283.15	.6102	.005892	.00047136
283.15	.54	.008007	.00064056
283.15	.4773	.01096	.0008768
283.15	.4209	.01284	.0010272
283.15	.3699	.01582	.0012656
283.15	.3235	.01702	.0013616
283.15	.2813	.01925	.00154
288.15	1	.0004854	.000038832
288.15	.8814	.0006592	.000052736
288.15	.7788	.001298	.00010384
288.15	.6892	.003218	.00025744
288.15	.6102	.005892	.00047136
288.15	.54	.008007	.00064056
288.15	.4773	.01096	.0008768
288.15	.4209	.01284	.0010272
288.15	.3699	.01582	.0012656
288.15	.3235	.01702	.0013616
288.15	.2813	.01925	.00154
293.15	1	.0008662	.000069296
293.15	.8814	.00143	.0001144
293.15	.7788	.002724	.00021792
293.15	.6892	.007117	.00056936
293.15	.6102	.01099	.0008792
293.15	.54	.01261	.0010088
293.15	.4773	.01583	.0012664
293.15	.4209	.0182	.001456
293.15	.3699	.02157	.0017256
293.15	.3235	.02575	.00206
293.15	.2813	.03145	.002516
298.15	1	.001167	.00009336
298.15	.8814	.001884	.00015072
298.15	.7788	.004293	.00034344
298.15	.6892	.00817	.0006536
298.15	.6102	.01202	.0009616
298.15	.54	.01832	.0014656
298.15	.4773	.02114	.0016912
298.15	.4209	.02574	.0020592
298.15	.3699	.0273	.002184
298.15	.3235	.033	.00264
298.15	.2813	.03829	.0030632
303.15	1	.002066	.00016528
303.15	.8814	.003059	.00024472
303.15	.7788	.006279	.00050232
303.15	.6892	.01526	.0012208
303.15	.6102	.02042	.0016336
303.15	.54	.02781	.0022248
303.15	.4773	.03395	.002716
303.15	.4209	.039	.00312
303.15	.3699	.04509	.0036072
303.15	.3235	.05347	.0042776
303.15	.2813	.05725	.00458
308.15	1	.002902	.00023216
308.15	.8814	.004025	.000322
308.15	.7788	.008365	.0006692
308.15	.6892	.0236	.001888
308.15	.6102	.03007	.0024056
308.15	.54	.04053	.0032424
308.15	.4773	.0525	.0042
308.15	.4209	.06326	.0050608
308.15	.3699	.07433	.0059464
308.15	.3235	.07631	.0061048
308.15	.2813	.07938	.0063504
313.15	1	.004275	.000342
313.15	.8814	.004957	.00039656
313.15	.7788	.01051	.0008408
313.15	.6892	.03565	.002852
313.15	.6102	.04956	.0039648
313.15	.54	.06881	.0055048
313.15	.4773	.08103	.0064824
313.15	.4209	.09128	.0073024
313.15	.3699	.09805	.007844
313.15	.3235	.103	.00824
313.15	.2813	.1073	.008584

System: 1-butanol + potassium (2S,5R,6R)-3,3-dimethyl-7-oxo-6-(2-phenoxyacetamido)-4-thia-1-azabicyclo[3.2.0]heptane-2-carboxylate + water; phases: Liquid, Crystal
Fixed: Pressure, kPa = 100
Property: Mole fraction of potassium (2S,5R,6R)-3,3-dimethyl-7-oxo-6-(2-phenoxyacetamido)-4-thia-1-azabicyclo[3.2.0]heptane-2-carboxylate (Liquid); method: Gravimetric Method
Solvent: Mole fraction of 1-butanol	Temperature, K	Mole fraction of potassium (2S,5R,6R)-3,3-dimethyl-7-oxo-6-(2-phenoxyacetamido)-4-thia-1-azabicyclo[3.2.0]heptane-2-carboxylate	uncertainty
.7921	288.15	.0003246	.000025968
.7921	294.15	.0005058	.000040464
.7921	298.15	.0006267	.000050136
.7921	303.15	.0007777	.000062216
.7921	308.15	.0009288	.000074304
.7921	313.15	.001002	.00008016
.7109	287.15	.001655	.0001324
.7109	291.15	.001857	.00014856
.7109	294.15	.002184	.00017472
.7109	300.15	.002597	.00020776
.7109	306.65	.002967	.00023736
.7109	311.15	.00347	.0002776
.6408	289.15	.00452	.0003616
.6408	294.35	.005128	.00041024
.6408	303.35	.006203	.00049624
.6408	309.15	.006788	.00054304
.6408	298.15	.005499	.00043992
.6408	313.65	.007571	.00060568
.5795	289.15	.009009	.00072072
.5795	294.45	.009546	.00076368
.5795	298.75	.01024	.0008192
.5795	303.65	.01091	.0008728
.5795	308.15	.0115	.00092
.5795	313.35	.01219	.0009752
.5256	288.15	.01327	.0010616
.5256	294.15	.01435	.001148
.5256	298.15	.01507	.0012056
.5256	303.15	.01597	.0012776
.5256	308.65	.01696	.0013568
.5256	313.15	.01777	.0014216
.4778	288.45	.01723	.0013784
.4778	294.15	.0186	.001488
.4778	300.05	.02003	.0016024
.4778	304.95	.02121	.0016968
.4778	309.05	.0222	.001776
.4778	313.65	.02331	.0018648
.4351	290.15	.02135	.001708
.4351	294.15	.02216	.0017728
.4351	298.45	.02322	.0018576
.4351	303.15	.02439	.0019512
.4351	308.15	.02562	.0020496
.4351	313.15	.02686	.0021488
.3967	289.15	.024	.00192
.3967	294.15	.02523	.0020184
.3967	298.05	.02646	.0021168
.3967	303.15	.02768	.0022144
.3967	306.75	.0289	.002312
.3967	311.65	.03012	.0024096
