Measured thermophysical data. 4-Amino-3,6-dichloropyridazine Solubility Measurement and Correlation in Seven Pure Organic Solvents from (278.15 to 333.15) K
Source: J. Chem. Eng. Data, 2014, 10.1021/je500286x
Compound 1: 3,6-dichloro-4-pyridazinamine, C4H3Cl2N3, purity 99.8%
Compound 2: acetone, C3H6O, purity 99.5%
Compound 3: methanol, CH4O, purity 99.5%
Compound 4: ethanol, C2H6O, purity 99.5%
Compound 5: ethyl acetate, C4H8O2, purity 99.5%
Compound 6: dichloromethane, CH2Cl2, purity 99.5%
Compound 7: 1,4-dioxane, C4H8O2, purity 99.5%
Compound 8: tetrahydrofuran, C4H8O, purity 99.5%

System: acetone + 3,6-dichloro-4-pyridazinamine; phases: Liquid, Crystal
Fixed: Pressure, kPa = 100
Property: Mole fraction of acetone (Liquid); method: laser beam
Temperature, K	Mole fraction of acetone	uncertainty
295.65	.024354	.00024354
298.15	.025774	.00025774
300.65	.027607	.00027607
303.15	.029289	.00029289
305.65	.0311	.000311
308.15	.032673	.00032673
310.65	.034247	.00034247
313.15	.035997	.00035997
315.65	.03769	.0003769
318.15	.039342	.00039342
320.65	.041006	.00041006
323.15	.042712	.00042712

System: methanol + 3,6-dichloro-4-pyridazinamine; phases: Liquid, Crystal
Fixed: Pressure, kPa = 100
Property: Mole fraction of methanol (Liquid); method: laser beam
Temperature, K	Mole fraction of methanol	uncertainty
295.65	.014218	.00014218
298.15	.015333	.00015333
300.65	.01609	.0001609
303.15	.016917	.00016917
305.65	.017836	.00017836
308.15	.018876	.00018876
310.65	.020052	.00020052
313.15	.02135	.0002135
315.65	.02288	.0002288

System: ethanol + 3,6-dichloro-4-pyridazinamine; phases: Liquid, Crystal
Fixed: Pressure, kPa = 100
Property: Mole fraction of ethanol (Liquid); method: laser beam
Temperature, K	Mole fraction of ethanol	uncertainty
278.15	.010315	.00010315
283.15	.011475	.00011475
288.15	.012718	.00012718
293.15	.01403	.0001403
298.15	.015403	.00015403
303.15	.017102	.00017102
308.15	.018522	.00018522
313.15	.020248	.00020248
318.15	.021972	.00021972
323.15	.023983	.00023983
328.15	.025863	.00025863
333.15	.027926	.00027926

System: ethyl acetate + 3,6-dichloro-4-pyridazinamine; phases: Liquid, Crystal
Fixed: Pressure, kPa = 100
Property: Mole fraction of ethyl acetate (Liquid); method: laser beam
Temperature, K	Mole fraction of ethyl acetate	uncertainty
295.65	.0011108	.000011108
298.15	.0013356	.000013356
300.65	.0015901	.000015901
303.15	.0019177	.000019177
305.65	.0023517	.000023517
308.15	.003026	.00003026
310.65	.003712	.00003712
313.15	.004899	.00004899
315.65	.0057697	.000057697

System: dichloromethane + 3,6-dichloro-4-pyridazinamine; phases: Liquid, Crystal
Fixed: Pressure, kPa = 100
Property: Mole fraction of dichloromethane (Liquid); method: laser beam
Temperature, K	Mole fraction of dichloromethane	uncertainty
295.15	.0000741	.000000741
297.15	.0001107	.000001107
299.15	.0001737	.000001737
301.15	.0002619	.000002619
303.15	.0003868	.000003868
305.15	.0005433	.000005433
307.15	.0008105	.000008105
309.15	.001167	.00001167

System: tetrahydrofuran + 3,6-dichloro-4-pyridazinamine; phases: Liquid, Crystal
Fixed: Pressure, kPa = 100
Property: Mole fraction of tetrahydrofuran (Liquid); method: laser beam
Temperature, K	Mole fraction of tetrahydrofuran	uncertainty
290.05	.044314	.00044314
295.15	.048425	.00048425
299.15	.051742	.00051742
303.15	.055589	.00055589
305.15	.05697	.0005697
308.15	.060396	.00060396
313.65	.064757	.00064757
318.15	.068812	.00068812
323.15	.075153	.00075153

System: 1,4-dioxane + 3,6-dichloro-4-pyridazinamine; phases: Liquid, Crystal
Fixed: Pressure, kPa = 100
Property: Mole fraction of 1,4-dioxane (Liquid); method: laser beam
Temperature, K	Mole fraction of 1,4-dioxane	uncertainty
289.15	.0029436	.000029436
293.65	.0036528	.000036528
298.15	.0042679	.000042679
303.15	.0055632	.000055632
308.15	.0065994	.000065994
313.15	.0081136	.000081136
318.15	.0098191	.000098191
323.15	.0120846	.000120846
