Measured thermophysical data. Viscosity and Density of Ternary Solution of Calcium Chloride + Sodium Chloride + Water from T = (293.15 to 323.15) K
Source: J. Chem. Eng. Data, 2014, 10.1021/je500070k
Compound 1: calcium chloride, CaCl2, purity 99%
Compound 2: sodium chloride, ClNa, purity 99.5%
Compound 3: water, H2O

System: sodium chloride + water + calcium chloride; phases: Liquid
Fixed: Pressure, kPa = 1000
Property: Mass density, kg/m3 (Liquid); method: Vibrating tube method
Temperature, K	Molality, mol/kg of calcium chloride	Molality, mol/kg of sodium chloride	Mass density, kg/m3	uncertainty
293.15	.5	.5	1060.63	.05
293.15	.5	1	1077.52	.05
293.15	.5	1.5	1095.7	.05
293.15	.5	2	1111.39	.05
293.15	.5	3	1143.77	.05
293.15	.5	3.5	1159.01	.05
293.15	.5	4.5	1187.57	.05
293.15	1	.5	1101	.05
293.15	1	1	1118	.05
293.15	1	1.5	1133.6	.05
293.15	1	2	1149.8	.05
293.15	1	2.5	1164.8	.05
293.15	1	3	1179.5	.05
293.15	1	3.5	1193.9	.05
293.15	1.5	.5	1137.8	.05
293.15	1.5	1	1153.6	.05
293.15	1.5	1.5	1168.7	.05
293.15	1.5	2	1183.4	.05
293.15	1.5	2.5	1197.8	.05
293.15	1.5	3	1211.9	.05
293.15	1.5	3.5	1225	.05
293.15	2	.5	1174.4	.05
293.15	2	1	1187.7	.05
293.15	2	1.5	1202	.05
293.15	2	2	1215.5	.05
293.15	2	2.5	1229.9	.05
293.15	2.5	.5	1208.6	.05
293.15	2.5	1	1222.7	.05
293.15	2.5	1.5	1236.4	.05
293.15	2.5	2	1249.7	.05
293.15	3	.5	1240.9	.05
293.15	3	1	1254.2	.05
293.15	3	1.5	1267.2	.05
293.15	3.5	.5	1272.2	.05
293.15	3.5	1	1284.9	.05
293.15	4.5	.5	1327.8	.05
298.15	.5	.5	1058.9	.05
298.15	.5	1	1075.7	.05
298.15	.5	1.5	1093.8	.05
298.15	.5	2	1109	.05
298.15	.5	3	1141.6	.05
298.15	.5	3.5	1156.6	.05
298.15	.5	4.5	1185	.05
298.15	1	.5	1099.1	.05
298.15	1	1	1116	.05
298.15	1	1.5	1131.4	.05
298.15	1	2	1147.6	.05
298.15	1	2.5	1162.6	.05
298.15	1	3	1177.1	.05
298.15	1	3.5	1191.3	.05
298.15	1.5	.5	1135.7	.05
298.15	1.5	1	1151.4	.05
298.15	1.5	1.5	1166.4	.05
298.15	1.5	2	1181	.05
298.15	1.5	2.5	1195.3	.05
298.15	1.5	3	1209.3	.05
298.15	1.5	3.5	1222.3	.05
298.15	2	.5	1172.2	.05
298.15	2	1	1185.3	.05
298.15	2	1.5	1199.5	.05
298.15	2	2	1213	.05
298.15	2	2.5	1227.3	.05
298.15	2.5	.5	1206.2	.05
298.15	2.5	1	1220.2	.05
298.15	2.5	1.5	1233.8	.05
298.15	2.5	2	1247	.05
298.15	3	.5	1238.4	.05
298.15	3	1	1251.6	.05
298.15	3	1.5	1264.4	.05
298.15	3.5	.5	1269.5	.05
298.15	3.5	1	1282.1	.05
298.15	4.5	.5	1324.8	.05
303.15	.5	.5	1056.7	.05
303.15	.5	1	1073.8	.05
303.15	.5	1.5	1091.7	.05
303.15	.5	2	1106.6	.05
303.15	.5	3	1139.4	.05
303.15	.5	3.5	1154.1	.05
303.15	.5	4.5	1182.4	.05
303.15	1	.5	1097.2	.05
303.15	1	1	1113.9	.05
303.15	1	1.5	1129.2	.05
303.15	1	2	1145.2	.05
303.15	1	2.5	1160.1	.05
303.15	1	3	1174.6	.05
303.15	1	3.5	1188.7	.05
303.15	1.5	.5	1133.6	.05
303.15	1.5	1	1149.2	.05
303.15	1.5	1.5	1164.1	.05
303.15	1.5	2	1178.6	.05
303.15	1.5	2.5	1192.8	.05
303.15	1.5	3	1206.7	.05
303.15	1.5	3.5	1219.7	.05
303.15	2	.5	1169.9	.05
303.15	2	1	1183	.05
303.15	2	1.5	1197	.05
303.15	2	2	1210.4	.05
303.15	2	2.5	1224.6	.05
303.15	2.5	.5	1203.8	.05
303.15	2.5	1	1217.6	.05
303.15	2.5	1.5	1231.1	.05
303.15	2.5	2	1244.3	.05
303.15	3	.5	1235.9	.05
303.15	3	1	1248.9	.05
303.15	3	1.5	1261.8	.05
303.15	3.5	.5	1266.8	.05
303.15	3.5	1	1279.3	.05
303.15	4.5	.5	1321.8	.05
308.15	.5	.5	1053.7	.05
308.15	.5	1	1071.7	.05
308.15	.5	1.5	1089.5	.05
308.15	.5	2	1104.3	.05
308.15	.5	3	1136.7	.05
308.15	.5	3.5	1151.6	.05
308.15	.5	4.5	1179.7	.05
308.15	1	.5	1095.1	.05
308.15	1	1	1111.7	.05
308.15	1	1.5	1126.9	.05
308.15	1	2	1142.8	.05
308.15	1	2.5	1157.6	.05
308.15	1	3	1172	.05
308.15	1	3.5	1186.1	.05
308.15	1.5	.5	1131.4	.05
308.15	1.5	1	1146.9	.05
308.15	1.5	1.5	1161.6	.05
308.15	1.5	2	1176.1	.05
308.15	1.5	2.5	1190.2	.05
308.15	1.5	3	1204	.05
308.15	1.5	3.5	1216.9	.05
308.15	2	.5	1167.6	.05
308.15	2	1	1180.5	.05
308.15	2	1.5	1194.5	.05
308.15	2	2	1207.9	.05
308.15	2	2.5	1221.9	.05
308.15	2.5	.5	1201.4	.05
308.15	2.5	1	1215.1	.05
308.15	2.5	1.5	1228.5	.05
308.15	2.5	2	1241.5	.05
308.15	3	.5	1233.3	.05
308.15	3	1	1246.2	.05
308.15	3	1.5	1259	.05
308.15	3.5	.5	1264.1	.05
308.15	3.5	1	1276.5	.05
308.15	4.5	.5	1318.8	.05
313.15	.5	.5	1050.2	.05
313.15	.5	1	1069.6	.05
313.15	.5	1.5	1087.1	.05
313.15	.5	2	1101.9	.05
313.15	.5	3	1134.2	.05
313.15	.5	3.5	1149.1	.05
313.15	.5	4.5	1177	.05
313.15	1	.5	1092.9	.05
313.15	1	1	1109.4	.05
313.15	1	1.5	1124.6	.05
313.15	1	2	1140.4	.05
313.15	1	2.5	1155.2	.05
313.15	1	3	1169.4	.05
313.15	1	3.5	1183.4	.05
313.15	1.5	.5	1129.1	.05
313.15	1.5	1	1144.5	.05
313.15	1.5	1.5	1159.2	.05
313.15	1.5	2	1173.5	.05
313.15	1.5	2.5	1187.6	.05
313.15	1.5	3	1201.3	.05
313.15	1.5	3.5	1214.2	.05
313.15	2	.5	1165.2	.05
313.15	2	1	1178.1	.05
313.15	2	1.5	1191.9	.05
313.15	2	2	1205.2	.05
313.15	2	2.5	1219.1	.05
313.15	2.5	.5	1198.9	.05
313.15	2.5	1	1212.5	.05
313.15	2.5	1.5	1225.8	.05
313.15	2.5	2	1238.7	.05
313.15	3	.5	1230.7	.05
313.15	3	1	1243.5	.05
313.15	3	1.5	1256.2	.05
313.15	3.5	.5	1261.3	.05
313.15	3.5	1	1273.7	.05
313.15	4.5	.5	1315.8	.05
318.15	.5	.5	1046.3	.05
318.15	.5	1	1067.2	.05
318.15	.5	1.5	1084.4	.05
318.15	.5	2	1100	.05
318.15	.5	3	1131.6	.05
318.15	.5	3.5	1146.4	.05
318.15	.5	4.5	1174.2	.05
318.15	1	.5	1090.4	.05
318.15	1	1	1107	.05
318.15	1	1.5	1122.2	.05
318.15	1	2	1137.8	.05
318.15	1	2.5	1152.5	.05
318.15	1	3	1166.7	.05
318.15	1	3.5	1180.7	.05
318.15	1.5	.5	1126.7	.05
318.15	1.5	1	1142	.05
318.15	1.5	1.5	1156.8	.05
318.15	1.5	2	1170.9	.05
318.15	1.5	2.5	1184.9	.05
318.15	1.5	3	1198.6	.05
318.15	1.5	3.5	1211.4	.05
318.15	2	.5	1162.7	.05
318.15	2	1	1175.6	.05
318.15	2	1.5	1189.3	.05
318.15	2	2	1202.5	.05
318.15	2	2.5	1216.4	.05
318.15	2.5	.5	1196.3	.05
318.15	2.5	1	1209.8	.05
318.15	2.5	1.5	1223.1	.05
318.15	2.5	2	1235.9	.05
318.15	3	.5	1227.9	.05
318.15	3	1	1240.7	.05
318.15	3	1.5	1253.3	.05
318.15	3.5	.5	1258.6	.05
318.15	3.5	1	1270.8	.05
318.15	4.5	.5	1312.7	.05
323.15	.5	.5	1042.4	.05
323.15	.5	1	1064.6	.05
323.15	.5	1.5	1081.5	.05
323.15	.5	2	1098.1	.05
323.15	.5	3	1128.8	.05
323.15	.5	3.5	1143.7	.05
323.15	.5	4.5	1171.4	.05
323.15	1	.5	1087.4	.05
323.15	1	1	1104.5	.05
323.15	1	1.5	1119.7	.05
323.15	1	2	1135.2	.05
323.15	1	2.5	1149.9	.05
323.15	1	3	1164	.05
323.15	1	3.5	1177.9	.05
323.15	1.5	.5	1124.3	.05
323.15	1.5	1	1139.4	.05
323.15	1.5	1.5	1154.2	.05
323.15	1.5	2	1168.2	.05
323.15	1.5	2.5	1182.1	.05
323.15	1.5	3	1195.7	.05
323.15	1.5	3.5	1208.5	.05
323.15	2	.5	1160.1	.05
323.15	2	1	1173	.05
323.15	2	1.5	1186.6	.05
323.15	2	2	1199.8	.05
323.15	2	2.5	1213.6	.05
323.15	2.5	.5	1193.7	.05
323.15	2.5	1	1207.1	.05
323.15	2.5	1.5	1220.3	.05
323.15	2.5	2	1233.1	.05
323.15	3	.5	1225.3	.05
323.15	3	1	1237.9	.05
323.15	3	1.5	1250.5	.05
323.15	3.5	.5	1255.8	.05
323.15	3.5	1	1267.9	.05
323.15	4.5	.5	1309.7	.05

System: sodium chloride + water + calcium chloride; phases: Liquid
Fixed: Pressure, kPa = 100
Property: Viscosity, Pa*s (Liquid); method: Capillary tube (Ostwald; Ubbelohde) method
Temperature, K	Molality, mol/kg of calcium chloride	Molality, mol/kg of sodium chloride	Viscosity, Pa*s	uncertainty
293.15	.5	.5	.0012117	.000012117
293.15	.5	1	.0012707	.000012707
293.15	.5	1.5	.0013283	.000013283
293.15	.5	2	.0014081	.000014081
293.15	.5	3	.0015362	.000015362
293.15	.5	3.5	.0016715	.000016715
293.15	.5	4.5	.0019033	.000019033
293.15	1	.5	.0013921	.000013921
293.15	1	1	.0014525	.000014525
293.15	1	1.5	.0015709	.000015709
293.15	1	2	.0016497	.000016497
293.15	1	2.5	.0017711	.000017711
293.15	1	3	.0018541	.000018541
293.15	1	3.5	.0019579	.000019579
293.15	1.5	.5	.0016087	.000016087
293.15	1.5	1	.0016846	.000016846
293.15	1.5	1.5	.0017709	.000017709
293.15	1.5	2	.0019181	.000019181
293.15	1.5	2.5	.0020525	.000020525
293.15	1.5	3	.0021959	.000021959
293.15	1.5	3.5	.0023604	.000023604
293.15	2	.5	.0019005	.000019005
293.15	2	1	.0019865	.000019865
293.15	2	1.5	.0021588	.000021588
293.15	2	2	.0022624	.000022624
293.15	2	2.5	.0024415	.000024415
293.15	2.5	1.5	.0025484	.000025484
293.15	2.5	2	.0027985	.000027985
293.15	2.5	.5	.0022413	.000022413
293.15	2.5	1	.0023909	.000023909
293.15	3	1.5	.0030466	.000030466
293.15	3	.5	.0026767	.000026767
293.15	3	1	.0028433	.000028433
293.15	3.5	.5	.0032011	.000032011
293.15	3.5	1	.0034463	.000034463
293.15	4.5	.5	.0048306	.000048306
298.15	1	3	.0016577	.000016577
298.15	1	3.5	.0017684	.000017684
298.15	.5	.5	.0010863	.000010863
298.15	.5	1	.001136	.00001136
298.15	.5	1.5	.0011796	.000011796
298.15	.5	2	.0012629	.000012629
298.15	.5	3	.0013713	.000013713
298.15	.5	3.5	.0014954	.000014954
298.15	.5	4.5	.001674	.00001674
298.15	1	.5	.0012486	.000012486
298.15	1	1	.001363	.00001363
298.15	1	1.5	.0014084	.000014084
298.15	1	2	.0014789	.000014789
298.15	1	2.5	.0015646	.000015646
298.15	1.5	.5	.001446	.00001446
298.15	1.5	1	.0015168	.000015168
298.15	1.5	1.5	.0015852	.000015852
298.15	1.5	2	.0017186	.000017186
298.15	1.5	2.5	.0018334	.000018334
298.15	1.5	3	.0019187	.000019187
298.15	1.5	3.5	.0020951	.000020951
298.15	2	.5	.001705	.00001705
298.15	2	1	.0017852	.000017852
298.15	2	1.5	.0019015	.000019015
298.15	2	2	.0020113	.000020113
298.15	2	2.5	.0021733	.000021733
298.15	2.5	.5	.0020089	.000020089
298.15	2.5	1	.002132	.00002132
298.15	2.5	1.5	.0022766	.000022766
298.15	2.5	2	.0024645	.000024645
298.15	3	.5	.0024119	.000024119
298.15	3	1.5	.0027183	.000027183
298.15	3	1	.0025483	.000025483
298.15	3.5	.5	.0028663	.000028663
298.15	3.5	1	.0030776	.000030776
298.15	4.5	.5	.0043075	.000043075
303.15	.5	.5	.0009797	.000009797
303.15	.5	1	.0010237	.000010237
303.15	.5	1.5	.0010754	.000010754
303.15	.5	2	.0011385	.000011385
303.15	.5	3	.0012363	.000012363
303.15	.5	3.5	.0013452	.000013452
303.15	.5	4.5	.0015203	.000015203
303.15	1	.5	.0011279	.000011279
303.15	1	1	.0012335	.000012335
303.15	1	1.5	.0012744	.000012744
303.15	1	2	.0013542	.000013542
303.15	1	2.5	.0014248	.000014248
303.15	1	3	.001514	.00001514
303.15	1	3.5	.0015884	.000015884
303.15	1.5	.5	.0013096	.000013096
303.15	1.5	1	.0013731	.000013731
303.15	1.5	1.5	.0014307	.000014307
303.15	1.5	2	.0015451	.000015451
303.15	1.5	2.5	.0016563	.000016563
303.15	1.5	3	.0017478	.000017478
303.15	1.5	3.5	.0019143	.000019143
303.15	2	.5	.0015378	.000015378
303.15	2	1	.0016027	.000016027
303.15	2	1.5	.0017373	.000017373
303.15	2	2	.0018087	.000018087
303.15	2	2.5	.0019525	.000019525
303.15	2.5	.5	.0018195	.000018195
303.15	2.5	1	.0019303	.000019303
303.15	2.5	1.5	.0020458	.000020458
303.15	2.5	2	.0022189	.000022189
303.15	3	.5	.002158	.00002158
303.15	3	1	.002299	.00002299
303.15	3	1.5	.0024463	.000024463
303.15	3.5	.5	.0025701	.000025701
303.15	3.5	1	.0027576	.000027576
303.15	4.5	.5	.0038329	.000038329
308.15	.5	.5	.0008866	.000008866
308.15	.5	1	.0009346	.000009346
308.15	.5	1.5	.0009727	.000009727
308.15	.5	2	.0010242	.000010242
308.15	.5	3	.0011232	.000011232
308.15	1	.5	.0010266	.000010266
308.15	1	1	.0011207	.000011207
308.15	1	1.5	.0011578	.000011578
308.15	1	2	.0012111	.000012111
308.15	1	2.5	.001282	.00001282
308.15	2	.5	.0013979	.000013979
308.15	2	1	.0014576	.000014576
308.15	2	1.5	.0015575	.000015575
308.15	2	2	.001646	.00001646
308.15	2	2.5	.0017572	.000017572
308.15	.5	3.5	.0012224	.000012224
308.15	.5	4.5	.001392	.00001392
308.15	1	3	.0013526	.000013526
308.15	1	3.5	.0014437	.000014437
308.15	1.5	.5	.0011885	.000011885
308.15	1.5	1	.0012404	.000012404
308.15	1.5	1.5	.0013021	.000013021
308.15	1.5	2	.0014034	.000014034
308.15	2.5	.5	.0016643	.000016643
308.15	2.5	1	.0017502	.000017502
308.15	2.5	1.5	.0018541	.000018541
308.15	2.5	2	.0020006	.000020006
308.15	1.5	2.5	.0015107	.000015107
308.15	1.5	3	.0015799	.000015799
308.15	1.5	3.5	.0016964	.000016964
308.15	3	.5	.0019446	.000019446
308.15	3	1	.0020778	.000020778
308.15	3	1.5	.0022088	.000022088
308.15	3.5	.5	.0023336	.000023336
308.15	3.5	1	.0024939	.000024939
308.15	4.5	.5	.0034398	.000034398
313.15	1.5	3.5	.0015436	.000015436
313.15	2	.5	.0012788	.000012788
313.15	2	1	.0013482	.000013482
313.15	2	1.5	.0014151	.000014151
313.15	2	2	.001498	.00001498
313.15	2	2.5	.0016034	.000016034
313.15	1.5	.5	.0010846	.000010846
313.15	1.5	1	.0011302	.000011302
313.15	1.5	1.5	.0011872	.000011872
313.15	2.5	1.5	.0016829	.000016829
313.15	2.5	2	.0018232	.000018232
313.15	.5	.5	.0008064	.000008064
313.15	.5	1	.0008524	.000008524
313.15	1	.5	.000938	.00000938
313.15	1	1	.0010245	.000010245
313.15	2.5	.5	.0015114	.000015114
313.15	2.5	1	.0015939	.000015939
313.15	3	1	.0019264	.000019264
313.15	3	1.5	.0020003	.000020003
313.15	1	1.5	.0010584	.000010584
313.15	1	2	.0011059	.000011059
313.15	.5	1.5	.0008934	.000008934
313.15	1	2.5	.0011626	.000011626
313.15	.5	2	.000946	.00000946
313.15	.5	3	.001026	.00001026
313.15	3	.5	.0017825	.000017825
313.15	3.5	.5	.0021131	.000021131
313.15	3.5	1	.0022613	.000022613
313.15	1.5	2	.0012841	.000012841
313.15	1.5	2.5	.0013817	.000013817
313.15	1	3	.0012374	.000012374
313.15	1	3.5	.0012848	.000012848
313.15	.5	3.5	.0011168	.000011168
313.15	.5	4.5	.001254	.00001254
313.15	4.5	.5	.0030903	.000030903
313.15	1.5	3	.0014363	.000014363
318.15	.5	.5	.0007413	.000007413
318.15	1	1	.0009416	.000009416
318.15	2.5	.5	.0013907	.000013907
318.15	2.5	1	.0014586	.000014586
318.15	2.5	1.5	.0015453	.000015453
318.15	2.5	2	.0016651	.000016651
318.15	1.5	.5	.000998	.00000998
318.15	1	1.5	.0009729	.000009729
318.15	1	2	.0010157	.000010157
318.15	1	2.5	.0010738	.000010738
318.15	1	3	.0011324	.000011324
318.15	.5	1.5	.0008212	.000008212
318.15	1.5	1	.0010393	.000010393
318.15	1.5	1.5	.0010903	.000010903
318.15	1.5	2	.0011756	.000011756
318.15	1.5	2.5	.0012758	.000012758
318.15	1.5	3	.0013321	.000013321
318.15	1.5	3.5	.0014074	.000014074
318.15	3	.5	.0016223	.000016223
318.15	3	1	.0017729	.000017729
318.15	3	1.5	.0018309	.000018309
318.15	.5	3.5	.001022	.00001022
318.15	.5	4.5	.0011468	.000011468
318.15	.5	1	.0007808	.000007808
318.15	1	.5	.0008619	.000008619
318.15	2	.5	.0011836	.000011836
318.15	2	1	.0012248	.000012248
318.15	2	1.5	.0013068	.000013068
318.15	2	2	.0013747	.000013747
318.15	3.5	1	.0020637	.000020637
318.15	2	2.5	.0014667	.000014667
318.15	3.5	.5	.0019467	.000019467
318.15	.5	3	.0009425	.000009425
318.15	4.5	.5	.0028217	.000028217
318.15	1	3.5	.001185	.00001185
318.15	.5	2	.0008674	.000008674
323.15	2.5	.5	.0012754	.000012754
323.15	2.5	1	.0013517	.000013517
323.15	1.5	2.5	.0011833	.000011833
323.15	1.5	3	.0012199	.000012199
323.15	1.5	.5	.0009207	.000009207
323.15	.5	1	.0007226	.000007226
323.15	2.5	1.5	.0014175	.000014175
323.15	2.5	2	.0015198	.000015198
323.15	3	.5	.0014976	.000014976
323.15	3	1	.0016147	.000016147
323.15	3	1.5	.0016839	.000016839
323.15	1.5	1	.0009614	.000009614
323.15	1.5	1.5	.0010087	.000010087
323.15	1	3	.0010404	.000010404
323.15	2	1	.0011325	.000011325
323.15	2	1.5	.0011974	.000011974
323.15	1.5	2	.0010864	.000010864
323.15	1.5	3.5	.00129	.0000129
323.15	1	2.5	.0009855	.000009855
323.15	1	1.5	.0008966	.000008966
323.15	2	2.5	.0013462	.000013462
323.15	2	2	.0012638	.000012638
323.15	.5	1.5	.000758	.00000758
323.15	1	3.5	.0010893	.000010893
323.15	2	.5	.0010884	.000010884
323.15	3.5	.5	.0017812	.000017812
323.15	3.5	1	.00189	.0000189
323.15	.5	3.5	.0009449	.000009449
323.15	.5	2	.0008061	.000008061
323.15	1	2	.000946	.00000946
323.15	.5	4.5	.0010535	.000010535
323.15	.5	3	.0008688	.000008688
323.15	.5	.5	.0006816	.000006816
323.15	1	.5	.0007947	.000007947
323.15	1	1	.0008678	.000008678
323.15	4.5	.5	.0025754	.000025754
