Measured thermophysical data. Experimental Study: The Impact of Dissolved Water on the Viscosity of Reservoir Fluids at HPHT Conditions
Source: J. Chem. Eng. Data, 2015, 10.1021/je500957s
Compound 1: methane, CH4
Compound 2: n-heptane, C7H16, purity 99%
Compound 3: n-decane, C10H22, purity 99%
Compound 4: toluene, C7H8
Compound 5: water, H2O, purity 99%

System: methane + n-heptane + water; phases: Liquid
Property: Viscosity, Pa*s (Liquid); method: Capillary tube (Ostwald; Ubbelohde) method
Mole fraction of methane	Mole fraction of n-heptane	Temperature, K	Pressure, kPa	Viscosity, Pa*s	uncertainty
.423	.559	423.15	34570	.000113	.002
.423	.559	423.15	51780	.000137	.001
.423	.559	423.15	68980	.000161	.001
.423	.559	423.15	86230	.000184	.001
.423	.559	423.15	103460	.000204	.001
.423	.559	423.15	120720	.000224	.001
.423	.559	423.15	137870	.000244	.001
.423	.559	473.15	34560	.000088	.001
.423	.559	473.15	51800	.00011	.002
.423	.559	473.15	68980	.000129	.002
.423	.559	473.15	86230	.000147	.001
.423	.559	473.15	103470	.000165	.001
.423	.559	473.15	120700	.000183	.001
.423	.559	473.15	137910	.000202	.001
.4132	.5373	473.15	34570	.000087	.001
.4132	.5373	473.15	51750	.000108	.002
.4132	.5373	473.15	69000	.00013	.002
.4132	.5373	473.15	86210	.000148	.001
.4132	.5373	473.15	103490	.000163	.001
.4132	.5373	473.15	120690	.000183	.001
.4132	.5373	473.15	137910	.0002	.002

System: methane + n-decane + water; phases: Liquid
Property: Viscosity, Pa*s (Liquid); method: Capillary tube (Ostwald; Ubbelohde) method
Mole fraction of methane	Mole fraction of n-decane	Temperature, K	Pressure, kPa	Viscosity, Pa*s	uncertainty
.382	.598	423.15	15440	.00016	.002
.382	.598	423.15	34510	.000207	.001
.382	.598	423.15	51710	.000247	.002
.382	.598	423.15	68970	.000285	.001
.382	.598	423.15	86240	.000322	.002
.382	.598	423.15	103440	.00036	.001
.382	.598	423.15	120750	.000401	.001
.382	.598	423.15	137940	.000439	.001
.382	.598	473.15	15310	.000114	.002
.382	.598	473.15	34490	.000159	.001
.382	.598	473.15	68910	.000224	.001
.382	.598	473.15	103490	.000284	.001
.382	.598	473.15	138090	.000345	.001
.399	.554	473.15	17260	.000112	.002
.399	.554	473.15	34500	.000151	.001
.399	.554	473.15	51720	.000182	.001
.399	.554	473.15	69000	.000214	.001
.399	.554	473.15	86190	.000242	.001
.399	.554	473.15	103460	.000271	.001
.399	.554	473.15	120630	.000302	.001
.399	.554	473.15	137930	.000326	.001

System: methane + toluene + water; phases: Liquid
Property: Viscosity, Pa*s (Liquid); method: Capillary tube (Ostwald; Ubbelohde) method
Mole fraction of methane	Mole fraction of toluene	Temperature, K	Pressure, kPa	Viscosity, Pa*s	uncertainty
.393	.587	373.15	34570	.00017	.001
.393	.587	373.15	51770	.000198	.002
.393	.587	373.15	69060	.00022	.001
.393	.587	373.15	86360	.000243	.001
.393	.587	373.15	103490	.000266	.001
.393	.587	373.15	120710	.000292	.001
.393	.587	373.15	137910	.000316	.001
.393	.587	423.15	34640	.000125	.002
.393	.587	423.15	51740	.000149	.001
.393	.587	423.15	68970	.000167	.001
.393	.587	423.15	86240	.000188	.001
.393	.587	423.15	103450	.000208	.001
.393	.587	423.15	120790	.000227	.001
.393	.587	423.15	137950	.000245	.001
.393	.587	473.15	34580	.000097	.001
.393	.587	473.15	51760	.000118	.002
.393	.587	473.15	69060	.000135	.001
.393	.587	473.15	86220	.000154	.001
.393	.587	473.15	103520	.00017	.001
.393	.587	473.15	120690	.000185	.001
.393	.587	473.15	137930	.000201	.001
.399	.555	423.15	34590	.00012	.002
.399	.555	423.15	51770	.00014	.001
.399	.555	423.15	69020	.000161	.001
.399	.555	423.15	86230	.000181	.001
.399	.555	423.15	103520	.000202	.001
.399	.555	423.15	120710	.000217	.001
.399	.555	423.15	138080	.000236	.001
.399	.555	473.15	34610	.000091	.001
.399	.555	473.15	51760	.000112	.002
.399	.555	473.15	68980	.000129	.002
.399	.555	473.15	86240	.000147	.001
.399	.555	473.15	103480	.000162	.001
.399	.555	473.15	120730	.000177	.001
.399	.555	473.15	137900	.000192	.002
