Measured thermophysical data. Experimental Measurement and Modeling of Ternary Vapor Liquid Equilibrium for Water + 2-Propanol + Glycerol
Source: J. Chem. Eng. Data, 2014, 10.1021/je500724p
Compound 1: water, H2O, purity 99.8%
Compound 2: 2-propanol, C3H8O, purity 99.8%
Compound 3: glycerol, C3H8O3, purity 99.5%

System: glycerol + 2-propanol + water; phases: Gas, Liquid
Fixed: Pressure, kPa = 100
Property: Mole fraction of 2-propanol (Gas); method: Chromatography
Solvent: Mole fraction of 2-propanol	Mass fraction of glycerol	Mole fraction of 2-propanol	uncertainty
.0979	.7984	.5636	.01
.0987	.7024	.5502	.01
.0991	.6038	.5384	.01
.1	.5002	.5376	.01
.0996	.4002	.5161	.01
.1008	.3011	.512	.01
.1006	.203	.5023	.01
.1005	.1012	.4922	.01
.2003	.8004	.6902	.01
.2001	.6988	.6593	.01
.2002	.6016	.633	.01
.2001	.5018	.612	.01
.2002	.4018	.5918	.01
.2002	.3011	.5761	.01
.2002	.2016	.5582	.01
.2002	.1012	.5466	.01
.4017	.8063	.8214	.01
.4016	.7041	.7797	.01
.4001	.6057	.7412	.01
.4007	.5022	.7048	.01
.3994	.4034	.6736	.01
.3997	.3017	.6421	.01
.4017	.2034	.615	.01
.3995	.1005	.5904	.01
.5979	.8005	.8921	.01
.6009	.7013	.8628	.01
.6	.602	.8295	.01
.6005	.5027	.795	.01
.6001	.4001	.7615	.01
.6004	.3022	.7279	.01
.6004	.2016	.6984	.01
.6004	.0998	.6646	.01
.8011	.7909	.9508	.01
.803	.7049	.9362	.01
.8009	.6003	.9149	.01
.8015	.5036	.8983	.01
.8004	.4008	.8719	.01
.8007	.3001	.8496	.01
.8016	.2009	.8243	.01
.8008	.1018	.7972	.01
.9502	.8044	.9892	.01
.95	.7022	.9848	.01
.9502	.6038	.9798	.01
.9502	.5013	.9738	.01
.9509	.3995	.967	.01
.9503	.3016	.9586	.01
.9502	.2034	.9505	.01
.9502	.102	.9396	.01

System: glycerol + 2-propanol + water; phases: Liquid, Gas
Fixed: Pressure, kPa = 100
Property: Boiling temperature at pressure P, K (Liquid); method: Ebulliometric method (Recirculating still)
Solvent: Mole fraction of 2-propanol	Mass fraction of glycerol	Boiling temperature at pressure P, K	uncertainty
.0979	.7984	373.79	.08
.0987	.7024	367.11	.08
.0991	.6038	363.08	.08
.1	.5002	360.52	.08
.0996	.4002	358.92	.08
.1008	.3011	357.81	.08
.1006	.203	357.08	.08
.1005	.1012	356.52	.08
.2003	.8004	369.7	.08
.2001	.6988	363.64	.08
.2002	.6016	360.52	.08
.2001	.5018	358.57	.08
.2002	.4018	357.31	.08
.2002	.3011	356.43	.08
.2002	.2016	355.78	.08
.2002	.1012	355.3	.08
.4017	.8063	368.05	.08
.4016	.7041	362.98	.08
.4001	.6057	360.2	.08
.4007	.5022	358.4	.08
.3994	.4034	357.11	.08
.3997	.3017	356.05	.08
.4017	.2034	355.2	.08
.3995	.1005	354.44	.08
.5979	.8005	367.22	.08
.6009	.7013	363.27	.08
.6	.602	360.91	.08
.6005	.5027	359.2	.08
.6001	.4001	357.74	.08
.6004	.3022	356.51	.08
.6004	.2016	355.3	.08
.6004	.0998	354.13	.08
.8011	.7909	367.01	.08
.803	.7049	364.05	.08
.8009	.6003	361.88	.08
.8015	.5036	360.41	.08
.8004	.4008	358.99	.08
.8007	.3001	357.63	.08
.8016	.2009	356.25	.08
.8008	.1018	354.79	.08
.9502	.8044	367.89	.08
.95	.7022	364.63	.08
.9502	.6038	362.76	.08
.9502	.5013	361.38	.08
.9509	.3995	360.16	.08
.9503	.3016	358.95	.08
.9502	.2034	357.62	.08
.9502	.102	356.1	.08

System: glycerol + 2-propanol + water; phases: Gas, Liquid
Fixed: Pressure, kPa = 100
Property: Mole fraction of water (Gas); method: Chromatography
Solvent: Mole fraction of 2-propanol	Mass fraction of glycerol	Mole fraction of water	uncertainty
.0979	.7984	.4363	.01
.0987	.7024	.4498	.01
.0991	.6038	.4616	.01
.1	.5002	.4624	.01
.0996	.4002	.4838	.01
.1008	.3011	.488	.01
.1006	.203	.4977	.01
.1005	.1012	.5078	.01
.2003	.8004	.3097	.01
.2001	.6988	.3407	.01
.2002	.6016	.367	.01
.2001	.5018	.388	.01
.2002	.4018	.4082	.01
.2002	.3011	.4239	.01
.2002	.2016	.4418	.01
.2002	.1012	.4534	.01
.4017	.8063	.1785	.01
.4016	.7041	.2202	.01
.4001	.6057	.2587	.01
.4007	.5022	.2952	.01
.3994	.4034	.3264	.01
.3997	.3017	.3579	.01
.4017	.2034	.385	.01
.3995	.1005	.4096	.01
.5979	.8005	.1078	.01
.6009	.7013	.1371	.01
.6	.602	.1705	.01
.6005	.5027	.205	.01
.6001	.4001	.2385	.01
.6004	.3022	.2721	.01
.6004	.2016	.3016	.01
.6004	.0998	.3354	.01
.8011	.7909	.0491	.01
.803	.7049	.0637	.01
.8009	.6003	.085	.01
.8015	.5036	.1017	.01
.8004	.4008	.128	.01
.8007	.3001	.1504	.01
.8016	.2009	.1757	.01
.8008	.1018	.2028	.01
.9502	.8044	.0106	.01
.95	.7022	.0151	.01
.9502	.6038	.0201	.01
.9502	.5013	.0261	.01
.9509	.3995	.033	.01
.9503	.3016	.0414	.01
.9502	.2034	.0494	.01
.9502	.102	.0603	.01
