Measured thermophysical data. Binary Liquid Liquid Equilibria of ?-Valerolactone with Some Hydrocarbons
Source: J. Chem. Eng. Data, 2015, 10.1021/je501074b
Compound 1: .gamma.-valerolactone, C5H8O2, purity 99%
Compound 2: heptane, C7H16, purity 99%
Compound 3: decane, C10H22, purity 99%
Compound 4: dodecane, C12H26, purity 99%
Compound 5: cyclohexane, C6H12, purity 99.5%
Compound 6: 2,4,4-trimethyl-1-pentene, C8H16, purity 98%

System: .gamma.-valerolactone; phases: Liquid
Fixed: Pressure, kPa = 101.325
Property: Mass density, kg/m3 (Liquid); method: Vibrating tube method
Temperature, K	Mass density, kg/m3	uncertainty
288.15	1059.19	.12
293.15	1054.5	.12
298.15	1049.81	.12
303.15	1045.13	.12
308.15	1040.41	.12
313.15	1035.68	.12
318.15	1031.02	.12
323.15	1026.31	.12
328.15	1021.57	.12
333.15	1016.92	.12
338.15	1012.17	.12
343.15	1007.51	.12
348.15	1002.63	.12
353.15	997.9	.12
358.15	993.11	.12
363.15	988.38	.12

System: .gamma.-valerolactone; phases: Liquid, Gas
Property: Vapor or sublimation pressure, kPa (Liquid); method: Closed cell (Static) method
Temperature, K	Vapor or sublimation pressure, kPa	uncertainty
263.65	.0026	.00006
268.65	.00412	.00007
273.45	.00632	.00008
278.45	.0097	.0001
283.45	.01477	.00012
288.45	.02212	.00016
293.45	.03261	.00021
298.45	.04672	.00028
303.45	.06727	.00039
308.45	.09699	.00053
313.25	.13416	.00072

System: heptane; phases: Liquid
Fixed: Pressure, kPa = 101.325
Property: Mass density, kg/m3 (Liquid); method: Vibrating tube method
Temperature, K	Mass density, kg/m3	uncertainty
298.15	680.02	

System: decane; phases: Liquid
Fixed: Pressure, kPa = 101.325
Property: Mass density, kg/m3 (Liquid); method: Vibrating tube method
Temperature, K	Mass density, kg/m3	uncertainty
298.15	726.24	

System: dodecane; phases: Liquid
Fixed: Pressure, kPa = 101.325
Property: Mass density, kg/m3 (Liquid); method: Vibrating tube method
Temperature, K	Mass density, kg/m3	uncertainty
298.15	745.21	

System: cyclohexane; phases: Liquid
Fixed: Pressure, kPa = 101.325
Property: Mass density, kg/m3 (Liquid); method: Vibrating tube method
Temperature, K	Mass density, kg/m3	uncertainty
298.15	773.92	

System: 2,4,4-trimethyl-1-pentene; phases: Liquid
Fixed: Pressure, kPa = 101.325
Property: Mass density, kg/m3 (Liquid); method: Vibrating tube method
Temperature, K	Mass density, kg/m3	uncertainty
298.15	710.73	

System: .gamma.-valerolactone + heptane; phases: Liquid mixture 1, Liquid mixture 2
Fixed: Pressure, kPa = 101
Property: Mole fraction of .gamma.-valerolactone (Liquid mixture 1); method: Chromatography
Temperature, K	Mole fraction of .gamma.-valerolactone	uncertainty
288.15	.0258	.001
298.15	.0353	.001
308.15	.0442	.001
318.15	.0516	.001
328.15	.0645	.001
338.15	.0871	.001
348.15	.1301	.001
358.15	.204	.001

System: .gamma.-valerolactone + heptane; phases: Liquid mixture 2, Liquid mixture 1
Fixed: Pressure, kPa = 101
Property: Mole fraction of .gamma.-valerolactone (Liquid mixture 2); method: Chromatography
Temperature, K	Mole fraction of .gamma.-valerolactone	uncertainty
288.15	.936	.001
298.15	.9304	.001
308.15	.9146	.001
318.15	.8808	.001
328.15	.8581	.001
338.15	.8172	.001
348.15	.7618	.001
358.15	.6804	.001

System: .gamma.-valerolactone + heptane; phases: Liquid mixture 1, Liquid mixture 2
Fixed: Pressure, kPa = 101
Property: Mole fraction of .gamma.-valerolactone (Liquid mixture 1); method: Titration method
Temperature, K	Mole fraction of .gamma.-valerolactone	uncertainty
360.02	.2254	.001
363.33	.2967	.001
364.51	.3934	.001

System: .gamma.-valerolactone + heptane; phases: Liquid mixture 2, Liquid mixture 1
Fixed: Pressure, kPa = 101
Property: Mole fraction of .gamma.-valerolactone (Liquid mixture 2); method: Titration method
Temperature, K	Mole fraction of .gamma.-valerolactone	uncertainty
358.21	.6771	.0002
362.84	.5916	.0002
364.32	.5144	.0002

System: .gamma.-valerolactone + decane; phases: Liquid mixture 1, Liquid mixture 2
Fixed: Pressure, kPa = 101
Property: Mole fraction of .gamma.-valerolactone (Liquid mixture 1); method: Chromatography
Temperature, K	Mole fraction of .gamma.-valerolactone	uncertainty
288.15	.0185	.001
293.15	.0226	.001
303.15	.0322	.001
313.15	.0458	.001
323.15	.061	.001
333.15	.0847	.001
343.15	.1131	.001
353.15	.1546	.001
358.15	.1811	.001

System: .gamma.-valerolactone + decane; phases: Liquid mixture 2, Liquid mixture 1
Fixed: Pressure, kPa = 101
Property: Mole fraction of .gamma.-valerolactone (Liquid mixture 2); method: Chromatography
Temperature, K	Mole fraction of .gamma.-valerolactone	uncertainty
288.15	.9779	.001
293.15	.9752	.001
303.15	.9685	.001
313.15	.9602	.001
323.15	.9507	.001
333.15	.9379	.001
343.15	.9219	.001
353.15	.9003	.001
358.15	.8852	.001

System: .gamma.-valerolactone + dodecane; phases: Liquid mixture 1, Liquid mixture 2
Fixed: Pressure, kPa = 101
Property: Mole fraction of .gamma.-valerolactone (Liquid mixture 1); method: Chromatography
Temperature, K	Mole fraction of .gamma.-valerolactone	uncertainty
283.15	.0146	.001
288.15	.0197	.001
293.15	.024	.001
308.15	.0402	.001
318.15	.0535	.001
328.15	.0719	.001
338.15	.0971	.001
348.15	.1277	.001
358.15	.1705	.001

System: .gamma.-valerolactone + dodecane; phases: Liquid mixture 2, Liquid mixture 1
Fixed: Pressure, kPa = 101
Property: Mole fraction of .gamma.-valerolactone (Liquid mixture 2); method: Chromatography
Temperature, K	Mole fraction of .gamma.-valerolactone	uncertainty
283.15	.9889	.001
288.15	.9878	.001
293.15	.9858	.001
308.15	.9794	.001
318.15	.9725	.001
328.15	.9663	.001
338.15	.9574	.001
348.15	.9459	.001
358.15	.9288	.001

System: .gamma.-valerolactone + cyclohexane; phases: Liquid mixture 1, Liquid mixture 2
Fixed: Pressure, kPa = 101
Property: Mole fraction of .gamma.-valerolactone (Liquid mixture 1); method: Chromatography
Temperature, K	Mole fraction of .gamma.-valerolactone	uncertainty
288.15	.0213	.001
298.15	.0365	.001
308.15	.0587	.001
318.15	.0972	.001
323.15	.1322	.001
328.15	.2087	.001

System: .gamma.-valerolactone + cyclohexane; phases: Liquid mixture 2, Liquid mixture 1
Fixed: Pressure, kPa = 101
Property: Mole fraction of .gamma.-valerolactone (Liquid mixture 2); method: Chromatography
Temperature, K	Mole fraction of .gamma.-valerolactone	uncertainty
288.15	.8282	.001
298.15	.7899	.001
308.15	.7472	.001
318.15	.6823	.001
323.15	.6159	.001
328.15	.5379	.001

System: .gamma.-valerolactone + cyclohexane; phases: Liquid mixture 2, Liquid mixture 1
Fixed: Pressure, kPa = 101
Property: Mole fraction of .gamma.-valerolactone (Liquid mixture 2); method: Titration method
Temperature, K	Mole fraction of .gamma.-valerolactone	uncertainty
329.05	.4838	.0002
329.79	.4128	.0002
311.45	.7236	.0002

System: .gamma.-valerolactone + cyclohexane; phases: Liquid mixture 1, Liquid mixture 2
Fixed: Pressure, kPa = 101
Property: Mole fraction of .gamma.-valerolactone (Liquid mixture 1); method: Titration method
Temperature, K	Mole fraction of .gamma.-valerolactone	uncertainty
329.37	.2543	.001
329.86	.3354	.001

System: 2,4,4-trimethyl-1-pentene + .gamma.-valerolactone; phases: Liquid mixture 1, Liquid mixture 2
Fixed: Pressure, kPa = 101
Property: Mole fraction of .gamma.-valerolactone (Liquid mixture 1); method: Chromatography
Temperature, K	Mole fraction of .gamma.-valerolactone	uncertainty
283.15	.0765	.001
288.15	.0877	.001
293.15	.1025	.001
298.15	.127	.001
303.15	.1488	.001
308.15	.1829	.001
313.15	.236	.001
314.15	.2544	.001

System: 2,4,4-trimethyl-1-pentene + .gamma.-valerolactone; phases: Liquid mixture 2, Liquid mixture 1
Fixed: Pressure, kPa = 101
Property: Mole fraction of .gamma.-valerolactone (Liquid mixture 2); method: Chromatography
Temperature, K	Mole fraction of .gamma.-valerolactone	uncertainty
283.15	.8473	.001
288.15	.8284	.001
293.15	.8108	.001
298.15	.7913	.001
303.15	.7607	.001
308.15	.7287	.001
313.15	.6755	.001
314.15	.6662	.001

System: 2,4,4-trimethyl-1-pentene + .gamma.-valerolactone; phases: Liquid mixture 2, Liquid mixture 1
Fixed: Pressure, kPa = 101
Property: Mole fraction of .gamma.-valerolactone (Liquid mixture 2); method: Titration method
Temperature, K	Mole fraction of .gamma.-valerolactone	uncertainty
314.69	.6558	.0002
317.73	.5519	.0002
318.09	.4571	.0002

System: 2,4,4-trimethyl-1-pentene + .gamma.-valerolactone; phases: Liquid mixture 1, Liquid mixture 2
Fixed: Pressure, kPa = 101
Property: Mole fraction of .gamma.-valerolactone (Liquid mixture 1); method: Titration method
Temperature, K	Mole fraction of .gamma.-valerolactone	uncertainty
317.59	.3545	.0002
309.97	.1994	.0002
