Measured thermophysical data. Solubility of Dexamethasone in Supercritical Carbon Dioxide with and without a Cosolvent
Source: J. Chem. Eng. Data, 2014, 10.1021/je500345n
Compound 1: dexamethasone, C22H29FO5, purity 98%
Compound 2: ethanol, C2H6O, purity 99.7%
Compound 3: carbon dioxide, CO2, purity 99.9%

System: dexamethasone + carbon dioxide; phases: Fluid (supercritical or subcritical phases), Crystal
Property: Mole fraction of dexamethasone (Fluid (supercritical or subcritical phases)); method: Static Analytical Method
Temperature, K	Pressure, kPa	Mole fraction of dexamethasone	uncertainty
313.2	10000	.00000121	.0000000847
313.2	12000	.00000126	.0000000882
313.2	15000	.00000134	.0000000938
313.2	20000	.00000139	.0000000973
313.2	25000	.00000141	.0000000987
318.2	10000	.00000121	.0000000847
318.2	12000	.00000126	.0000000882
318.2	15000	.00000136	.0000000952
318.2	20000	.00000141	.0000000987
318.2	25000	.00000146	.0000001022
323.2	10000	.00000119	.0000000833
323.2	12000	.00000124	.0000000868
323.2	15000	.00000135	.0000000945
323.2	20000	.00000146	.0000001022
323.2	25000	.00000152	.0000001064

System: dexamethasone + ethanol + carbon dioxide; phases: Fluid (supercritical or subcritical phases), Crystal
Fixed: Solvent: Mole fraction of ethanol = .03
Property: Mole fraction of dexamethasone (Fluid (supercritical or subcritical phases)); method: Static Analytical Method
Temperature, K	Pressure, kPa	Mole fraction of dexamethasone	uncertainty
313.2	10000	.00000197	.0000001182
313.2	15000	.00000201	.0000001206
313.2	20000	.00000203	.0000001218
313.2	25000	.00000213	.0000001278
318.2	10000	.00000231	.0000001386
318.2	15000	.00000233	.0000001398
318.2	20000	.00000244	.0000001464
318.2	25000	.00000252	.0000001512
323.2	10000	.00000261	.0000001566
323.2	15000	.0000028	.000000168
323.2	20000	.00000283	.0000001698
323.2	25000	.00000298	.0000001788
