Measured thermophysical data. Isobaric Vapor Liquid Equilibria for the Binary and Ternary Systems of Methanol, Epichlorohydrin, and Glycerol Dimethyl Ether at 101.3 kPa
Source: J. Chem. Eng. Data, 2015, 10.1021/je500606d
Compound 1: 2,3-dimethoxy-1-propanol, C5H12O3
Compound 2: methanol, CH4O, purity 98%
Compound 3: epichlorohydrin, C3H5ClO

System: 2,3-dimethoxy-1-propanol; phases: Liquid, Gas
Property: Vapor or sublimation pressure, kPa (Liquid); method: Ebulliometric method (Recirculating still)
Temperature, K	Vapor or sublimation pressure, kPa	uncertainty
337.95	3.2	1.5
368.95	7.84	1.5
398.1	19.27	1.5
408.55	27.33	1.5
413.05	32.46	1.5
419.7	38.8	1.5
423.55	45.86	1.5
431.55	59.8	1.5
433.15	65.6	1.5
434.85	70.66	1.5
437.35	76.53	1.5
439.75	83.33	1.5
441.65	87.26	1.5
444.45	95.73	1.5
446.65	100.79	1.5

System: methanol + epichlorohydrin; phases: Liquid, Gas
Fixed: Pressure, kPa = 101.3
Property: Boiling temperature at pressure P, K (Liquid); method: Ebulliometric method (Recirculating still)
Mole fraction of methanol	Boiling temperature at pressure P, K	uncertainty
.9615	338.15	
.6923	339.75	
.2748	345.95	
.2302	347.45	
.2228	349.35	
.1839	352.55	
.1398	356.15	
.1291	357.35	
.0685	365.65	
.0063	386.55	

System: methanol + epichlorohydrin; phases: Gas, Liquid
Fixed: Pressure, kPa = 101.3
Property: Mole fraction of methanol (Gas); method: Chromatography
Mole fraction of methanol	Mole fraction of methanol	uncertainty
.9615	.9725	.02
.6923	.8937	.02
.2748	.8453	.02
.2302	.8147	.02
.2228	.7902	.02
.1839	.7659	.02
.1398	.7302	.02
.1291	.7105	.02
.0685	.6008	.02
.0063	.1259	.02

System: methanol + 2,3-dimethoxy-1-propanol; phases: Liquid, Gas
Fixed: Pressure, kPa = 101.3
Property: Boiling temperature at pressure P, K (Liquid); method: Ebulliometric method (Recirculating still)
Mole fraction of methanol	Boiling temperature at pressure P, K	uncertainty
1	337.65	.05
.9521	337.75	.05
.9246	338.35	.05
.8687	338.65	.05
.6872	340.75	.05
.6378	342.55	.05
.6137	344.15	.05
.5439	345.45	.05
.4892	348.25	.05
.4285	349.85	.05
.3958	351.65	.05
.336	352.75	.05
.2504	360.25	.05
.1803	367.05	.05
.1601	373.45	.05
.1245	384.05	.05
.1025	391.85	.05
.0659	408.25	.05
.0397	414.15	.05
.0179	426.15	.05
0	449.38	.05

System: methanol + 2,3-dimethoxy-1-propanol; phases: Gas, Liquid
Fixed: Pressure, kPa = 101.3
Property: Mole fraction of methanol (Gas); method: Chromatography
Mole fraction of methanol	Mole fraction of methanol	uncertainty
1	1	.02
.9521	.9994	.02
.9246	.9989	.02
.8687	.9974	.02
.6872	.99	.02
.6378	.9825	.02
.6137	.978	.02
.5439	.9756	.02
.4892	.9729	.02
.4285	.9674	.02
.3958	.962	.02
.336	.959	.02
.2504	.9474	.02
.1803	.9398	.02
.1601	.9203	.02
.1245	.8794	.02
.1025	.8654	.02
.0659	.7634	.02
.0397	.6539	.02
.0179	.4473	.02
0	0	.02

System: methanol + epichlorohydrin + 2,3-dimethoxy-1-propanol; phases: Liquid, Gas
Fixed: Pressure, kPa = 101.3
Property: Mole fraction of epichlorohydrin (Liquid); method: Chromatography
Property: Mole fraction of methanol (Gas); method: Chromatography
Property: Mole fraction of epichlorohydrin (Gas); method: Chromatography
Temperature, K	Mole fraction of methanol	Mole fraction of epichlorohydrin	uncertainty	Mole fraction of methanol	uncertainty	Mole fraction of epichlorohydrin	uncertainty
341.1	.778	.108	.02	.946	.02	.046	.02
349.2	.376	.362	.02	.869	.02	.115	.02
351.5	.324	.385	.02	.858	.02	.127	.02
390.6	.06	.29	.02	.61	.02	.303	.02
352.9	.296	.397	.02	.846	.02	.135	.02
355.2	.259	.411	.02	.832	.02	.147	.02
357.4	.229	.42	.02	.819	.02	.159	.02
360	.2	.426	.02	.8	.02	.174	.02
362.3	.179	.428	.02	.785	.02	.187	.02
363.9	.166	.426	.02	.774	.02	.197	.02
366.5	.148	.421	.02	.755	.02	.212	.02
419.1	.019	.15	.02	.354	.02	.328	.02
369.3	.131	.415	.02	.736	.02	.226	.02
377.7	.093	.376	.02	.684	.02	.265	.02
384.7	.072	.332	.02	.643	.02	.289	.02
398.1	.045	.263	.02	.545	.02	.335	.02
342.1	.665	.22	.02	.914	.02	.079	.02
401.9	.038	.244	.02	.515	.02	.345	.02
402.8	.036	.241	.02	.507	.02	.347	.02
406.1	.033	.223	.02	.478	.02	.352	.02
411.6	.025	.194	.02	.429	.02	.35	.02
412.7	.023	.187	.02	.419	.02	.348	.02
420.8	.018	.136	.02	.335	.02	.32	.02
359.3	.208	.423	.02	.804	.02	.171	.02
426.7	.012	.097	.02	.288	.02	.249	.02
429.3	.01	.086	.02	.251	.02	.23	.02
430.4	.007	.08	.02	.234	.02	.221	.02
344.5	.536	.289	.02	.9	.02	.091	.02
347.2	.438	.332	.02	.88	.02	.106	.02
