Measured thermophysical data. Solubility Determination and Thermodynamic Models for 2-Methylnaphthalene in Different Solvents from T = (278.15 to 303.15) K
Source: J. Chem. Eng. Data, 2015, 10.1021/je5010627
Compound 1: 2-methylnaphthalene, C11H10, purity 98%
Compound 2: ethylene glycol, C2H6O2, purity 99.7%
Compound 3: n-butyl alcohol, C4H10O, purity 99.8%
Compound 4: n-hexane, C6H14, purity 99.7%
Compound 5: acetone, C3H6O, purity 99.8%
Compound 6: 1,4-dioxane, C4H8O2, purity 99.9%
Compound 7: isopropanol, C3H8O, purity 99.9%
Compound 8: butyl acetate, C6H12O2, purity 99.8%
Compound 9: n-heptane, C7H16, purity 99.7%
Compound 10: ethanol, C2H6O, purity 99.8%

System: 2-methylnaphthalene + ethylene glycol; phases: Liquid, Crystal
Fixed: Pressure, kPa = 100
Property: Mole fraction of 2-methylnaphthalene (Liquid); method: Chromatography
Temperature, K	Mole fraction of 2-methylnaphthalene	uncertainty
278.25	.007418	.00014836
283.25	.008106	.00016212
288.35	.008642	.00017284
293.25	.009633	.00019266
298.35	.010245	.0002049
303.25	.01149	.0002298

System: ethanol + 2-methylnaphthalene; phases: Liquid, Crystal
Fixed: Pressure, kPa = 100
Property: Mole fraction of 2-methylnaphthalene (Liquid); method: Chromatography
Temperature, K	Mole fraction of 2-methylnaphthalene	uncertainty
278.25	.03893	.0007786
283.25	.05798	.0011596
288.35	.1089	.002178
293.25	.1476	.002952
298.35	.2874	.005748
303.25	.4581	.009162

System: acetone + 2-methylnaphthalene; phases: Liquid, Crystal
Fixed: Pressure, kPa = 100
Property: Mole fraction of 2-methylnaphthalene (Liquid); method: Chromatography
Temperature, K	Mole fraction of 2-methylnaphthalene	uncertainty
278.45	.2183	.004366
283.25	.2864	.005728
288.35	.3678	.007356
293.25	.4841	.009682
298.35	.5876	.011752
303.25	.7413	.014826

System: 2-methylnaphthalene + 1,4-dioxane; phases: Liquid, Crystal
Fixed: Pressure, kPa = 100
Property: Mole fraction of 2-methylnaphthalene (Liquid); method: Chromatography
Temperature, K	Mole fraction of 2-methylnaphthalene	uncertainty
278.25	.4677	.009354
283.25	.5081	.010162
288.35	.5746	.011492
293.25	.6499	.012998
298.35	.7258	.014516
303.25	.8168	.016336

System: isopropanol + 2-methylnaphthalene; phases: Liquid, Crystal
Fixed: Pressure, kPa = 100
Property: Mole fraction of 2-methylnaphthalene (Liquid); method: Chromatography
Temperature, K	Mole fraction of 2-methylnaphthalene	uncertainty
278.25	.02763	.0005526
283.25	.05076	.0010152
288.35	.07695	.001539
293.25	.1333	.002666
298.35	.2334	.004668
303.25	.43	.0086

System: 2-methylnaphthalene + butyl acetate; phases: Liquid, Crystal
Fixed: Pressure, kPa = 100
Property: Mole fraction of 2-methylnaphthalene (Liquid); method: Chromatography
Temperature, K	Mole fraction of 2-methylnaphthalene	uncertainty
278.15	.621	.01242
283.15	.6731	.013462
288.15	.7292	.014584
293.15	.7868	.015736
298.15	.8494	.016988
303.15	.9506	.019012

System: n-butyl alcohol + 2-methylnaphthalene; phases: Liquid, Crystal
Fixed: Pressure, kPa = 100
Property: Mole fraction of 2-methylnaphthalene (Liquid); method: Chromatography
Temperature, K	Mole fraction of 2-methylnaphthalene	uncertainty
278.25	.05961	.0011922
283.25	.07943	.0015886
288.35	.1304	.002608
293.25	.2233	.004466
298.35	.3705	.00741
303.25	.6799	.013598

System: 2-methylnaphthalene + n-heptane; phases: Liquid, Crystal
Fixed: Pressure, kPa = 100
Property: Mole fraction of 2-methylnaphthalene (Liquid); method: Chromatography
Temperature, K	Mole fraction of 2-methylnaphthalene	uncertainty
278.15	.5023	.010046
283.15	.5786	.011572
288.15	.6502	.013004
293.15	.7262	.014524
298.15	.8309	.016618
303.15	.9065	.01813

System: 2-methylnaphthalene + n-hexane; phases: Liquid, Crystal
Fixed: Pressure, kPa = 100
Property: Mole fraction of 2-methylnaphthalene (Liquid); method: Chromatography
Temperature, K	Mole fraction of 2-methylnaphthalene	uncertainty
278.95	.2827	.005654
283.25	.3479	.006958
288.35	.4428	.008856
293.25	.55	.011
298.35	.6427	.012854
303.25	.8112	.016224
