Measured thermophysical data. Measurement, Correlation, and Thermodynamics of Solubility of Isatin in Nine Different Green Solvents at (298.15 to 338.15) K
Source: J. Chem. Eng. Data, 2015, 10.1021/je501036r
Compound 1: isatin, C8H5NO2, purity 99.8%
Compound 2: ethyl alcohol, C2H6O, purity 99.9%
Compound 3: ethylene glycol, C2H6O2, purity 99.6%
Compound 4: ethyl ethanoate, C4H8O2, purity 99.8%
Compound 5: propylene glycol, C3H8O2, purity 99.5%
Compound 6: isopropyl alcohol, C3H8O, purity 99.7%
Compound 7: 2-butanol, C4H10O, purity 99%
Compound 8: 2-(2-ethoxyethoxy)ethanol, C6H14O3, purity 99.9%
Compound 9: water, H2O, purity 99.8%

System: isatin + water; phases: Liquid, Crystal
Fixed: Pressure, kPa = 100
Property: Mole fraction of isatin (Liquid); method: shake flask method
Temperature, K	Mole fraction of isatin	uncertainty
298.15	.0000514	.0000004626
308.15	.0000808	.0000007272
318.15	.000113	.000001017
328.15	.000152	.000001368
338.15	.000202	.000001818

System: ethyl alcohol + isatin; phases: Liquid, Crystal
Fixed: Pressure, kPa = 100
Property: Mole fraction of isatin (Liquid); method: shake flask method
Temperature, K	Mole fraction of isatin	uncertainty
298.15	.00409	.00003681
308.15	.00506	.00004554
318.15	.0065	.0000585
328.15	.00755	.00006795
338.15	.00897	.00008073

System: propylene glycol + isatin; phases: Liquid, Crystal
Fixed: Pressure, kPa = 100
Property: Mole fraction of isatin (Liquid); method: shake flask method
Temperature, K	Mole fraction of isatin	uncertainty
298.15	.00673	.00006057
308.15	.00827	.00007443
318.15	.01	.00009
328.15	.0112	.0001008
338.15	.0133	.0001197

System: isatin + 2-(2-ethoxyethoxy)ethanol; phases: Liquid, Crystal
Fixed: Pressure, kPa = 100
Property: Mole fraction of isatin (Liquid); method: shake flask method
Temperature, K	Mole fraction of isatin	uncertainty
298.15	.523	.004707
308.15	.539	.004851
318.15	.561	.005049
328.15	.581	.005229
338.15	.598	.005382

System: isatin + ethylene glycol; phases: Liquid, Crystal
Fixed: Pressure, kPa = 100
Property: Mole fraction of isatin (Liquid); method: shake flask method
Temperature, K	Mole fraction of isatin	uncertainty
298.15	.00754	.00006786
308.15	.0092	.0000828
318.15	.011	.000099
328.15	.0127	.0001143
338.15	.0146	.0001314

System: isopropyl alcohol + isatin; phases: Liquid, Crystal
Fixed: Pressure, kPa = 100
Property: Mole fraction of isatin (Liquid); method: shake flask method
Temperature, K	Mole fraction of isatin	uncertainty
298.15	.00419	.00003771
308.15	.00545	.00004905
318.15	.00694	.00006246
328.15	.00867	.00007803
338.15	.0105	.0000945

System: isatin + ethyl ethanoate; phases: Liquid, Crystal
Fixed: Pressure, kPa = 100
Property: Mole fraction of isatin (Liquid); method: shake flask method
Temperature, K	Mole fraction of isatin	uncertainty
298.15	.00568	.00005112
308.15	.00738	.00006642
318.15	.00926	.00008334
328.15	.0111	.0000999
338.15	.013	.000117

System: 2-butanol + isatin; phases: Liquid, Crystal
Fixed: Pressure, kPa = 100
Property: Mole fraction of isatin (Liquid); method: shake flask method
Temperature, K	Mole fraction of isatin	uncertainty
298.15	.00516	.00004644
308.15	.00596	.00005364
318.15	.0071	.0000639
328.15	.00814	.00007326
338.15	.00899	.00008091
