Measured thermophysical data. Solubility Determination of Tris(hydroxymethyl)aminomethane in Water + Methanol Mixtures at Various Temperatures Using a Laser Monitoring Technique
Source: J. Chem. Eng. Data, 2014, 10.1021/je500368p
Compound 1: trishydroxymethylaminomethane, C4H11NO3, purity 99.9%
Compound 2: water, H2O
Compound 3: methanol, CH4O, purity 99.9%

System: methanol + trishydroxymethylaminomethane + water; phases: Liquid, Crystal
Fixed: Pressure, kPa = 101
Property: Mole fraction of trishydroxymethylaminomethane (Liquid); method: Laser monitoring
Temperature, K	Solvent: Mole fraction of water	Mole fraction of trishydroxymethylaminomethane	uncertainty
293.2	1	.0831	.000831
293.2	.95	.0766	.000766
293.2	.9	.0721	.000721
293.2	.84	.0672	.000672
293.2	.77	.0613	.000613
293.2	.69	.0539	.000539
293.2	.6	.0469	.000469
293.2	.49	.0351	.000351
293.2	.36	.0259	.000259
293.2	.2	.0169	.000169
293.2	0	.0076	.000076
298.2	1	.092	.00092
298.2	.95	.086	.00086
298.2	.9	.0824	.000824
298.2	.84	.0759	.000759
298.2	.77	.071	.00071
298.2	.69	.0622	.000622
298.2	.6	.0539	.000539
298.2	.49	.0426	.000426
298.2	.36	.0318	.000318
298.2	.2	.0203	.000203
298.2	0	.0092	.000092
303.2	1	.1013	.001013
303.2	.95	.0954	.000954
303.2	.9	.093	.00093
303.2	.84	.0874	.000874
303.2	.77	.0814	.000814
303.2	.69	.0712	.000712
303.2	.6	.0633	.000633
303.2	.49	.0501	.000501
303.2	.36	.0373	.000373
303.2	.2	.0257	.000257
303.2	0	.0106	.000106
308.2	1	.1099	.001099
308.2	.95	.1077	.001077
308.2	.9	.1042	.001042
308.2	.84	.0978	.000978
308.2	.77	.0928	.000928
308.2	.69	.0826	.000826
308.2	.6	.0727	.000727
308.2	.49	.0594	.000594
308.2	.36	.0453	.000453
308.2	.2	.0299	.000299
308.2	0	.0124	.000124
313.2	1	.1228	.001228
313.2	.95	.1186	.001186
313.2	.9	.1157	.001157
313.2	.84	.1101	.001101
313.2	.77	.1039	.001039
313.2	.69	.0945	.000945
313.2	.6	.0846	.000846
313.2	.49	.069	.00069
313.2	.36	.0551	.000551
313.2	.2	.0359	.000359
313.2	0	.0158	.000158

System: methanol + trishydroxymethylaminomethane; phases: Liquid, Crystal
Property: Mole fraction of trishydroxymethylaminomethane (Liquid); method: Laser monitoring
Temperature, K	Pressure, kPa	Mole fraction of trishydroxymethylaminomethane	uncertainty
293.2	101	.0076	.000076
298.2	101	.0092	.000092
303.2	101	.0106	.000106
308.2	101	.0124	.000124
313.2	101	.0158	.000158

System: trishydroxymethylaminomethane + water; phases: Liquid, Crystal
Property: Mole fraction of trishydroxymethylaminomethane (Liquid); method: Laser monitoring
Temperature, K	Pressure, kPa	Mole fraction of trishydroxymethylaminomethane	uncertainty
293.2	101	.0831	.000831
298.2	101	.092	.00092
303.2	101	.1013	.001013
308.2	101	.1099	.001099
313.2	101	.1228	.001228
