Measured thermophysical data. Measuring and Modeling the Solubility and Density for CO2 Toluene and C2H6 Toluene Systems
Source: J. Chem. Eng. Data, 2015, 10.1021/je500982g
Compound 1: toluene, C7H8, purity 99.9%
Compound 2: carbon dioxide, CO2
Compound 3: ethane, C2H6

System: toluene + carbon dioxide; phases: Liquid, Gas
Property: Mole fraction of carbon dioxide (Liquid); method: Gravimetric
Temperature, K	Pressure, kPa	Mole fraction of carbon dioxide	uncertainty
298.15	930	.106	.0002438
298.15	1590	.195	.0004485
298.15	2270	.304	.0006992
298.15	2960	.415	.0009545
298.15	3650	.537	.0012351
298.15	4340	.657	.0015111
298.15	5070	.755	.0017365
308.15	1000	.096	.0002208
308.15	1670	.178	.0004094
308.15	2380	.258	.0005934
308.15	3070	.344	.0007912
308.15	3760	.421	.0009683
308.15	4450	.498	.0011454
308.15	5070	.558	.0012834
338.15	930	.063	.0001449
338.15	1620	.109	.0002507
338.15	2310	.162	.0003726
338.15	3000	.212	.0004876
338.15	3690	.261	.0006003
338.15	4310	.31	.000713
338.15	5070	.367	.0008441
363.15	930	.041	.0000943
363.15	1620	.082	.0001886
363.15	2310	.119	.0002737
363.15	3000	.155	.0003565
363.15	3670	.192	.0004416
363.15	4380	.233	.0005359
363.15	4930	.262	.0006026

System: toluene + carbon dioxide; phases: Liquid, Gas
Property: Mass density, kg/m3 (Liquid); method: Vibrating tube method
Temperature, K	Pressure, kPa	Mass density, kg/m3	uncertainty
298.15	930	867.2	1.99456
298.15	1590	871.1	2.00353
298.15	2270	875.7	2.01411
298.15	2960	880.6	2.02538
298.15	3650	885.8	2.03734
298.15	4340	887	2.0401
298.15	5070	885.3	2.03619
308.15	1000	857	1.9711
308.15	1670	859.8	1.97754
308.15	2380	862.7	1.98421
308.15	3070	865.7	1.99111
308.15	3760	868.3	1.99709
308.15	4450	871	2.0033
308.15	5070	871.3	2.00399
338.15	930	826.6	1.90118
338.15	1620	827.8	1.90394
338.15	2310	828.6	1.90578
338.15	3000	829.4	1.90762
338.15	3690	830.4	1.90992
338.15	4310	831.3	1.91199
338.15	5070	831.2	1.91176
363.15	930	801.3	1.84299
363.15	1620	801.4	1.84322
363.15	2310	801.6	1.84368
363.15	3000	801.8	1.84414
363.15	3670	801.6	1.84368
363.15	4380	801.3	1.84299
363.15	4930	801.4	1.84322

System: ethane + toluene; phases: Liquid, Gas
Property: Mole fraction of ethane (Liquid); method: Gravimetric
Temperature, K	Pressure, kPa	Mole fraction of ethane	uncertainty
294.15	1070	.232	.0005336
294.15	1760	.423	.0009729
294.15	2430	.603	.0013869
294.15	3090	.732	.0016836
318.15	1070	.148	.0003404
318.15	1740	.254	.0005842
318.15	2410	.364	.0008372
318.15	2830	.439	.0010097
338.15	1030	.106	.0002438
338.15	1720	.188	.0004324
338.15	2410	.271	.0006233
338.15	3100	.353	.0008119
338.15	3650	.42	.000966
363.15	1030	.074	.0001702
363.15	1720	.139	.0003197
363.15	2410	.2	.00046
363.15	3100	.26	.000598
363.15	3650	.313	.0007199

System: ethane + toluene; phases: Liquid, Gas
Property: Mass density, kg/m3 (Liquid); method: Vibrating tube method
Temperature, K	Pressure, kPa	Mass density, kg/m3	uncertainty
294.15	1070	811.3	1.86599
294.15	1760	751.2	1.72776
294.15	2430	679.1	1.56193
294.15	3090	611.3	1.40599
318.15	1070	806.6	1.85518
318.15	1740	775.9	1.78457
318.15	2410	739.1	1.69993
318.15	2830	713.9	1.64197
338.15	1030	796.4	1.83172
338.15	1720	772.9	1.77767
338.15	2410	746.6	1.71718
338.15	3100	718	1.6514
338.15	3650	692	1.5916
363.15	1030	778.3	1.79009
363.15	1720	759.2	1.74616
363.15	2410	740.1	1.70223
363.15	3100	718.8	1.65324
363.15	3650	699.7	1.60931
