Measured thermophysical data. Deduction of Physicochemical Properties from Solubilities: 2,4-Dihydroxybenzophenone, Biotin, and Caprolactam as Examples
Source: J. Chem. Eng. Data, 2015, 10.1021/je501140p
Compound 1: 2,4-dihydroxybenzophenone, C13H10O3
Compound 2: hexane, C6H14
Compound 3: heptane, C7H16
Compound 4: octane, C8H18
Compound 5: cyclohexane, C6H12
Compound 6: methylcyclohexane, C7H14
Compound 7: isooctane, C8H18
Compound 8: toluene, C7H8
Compound 9: ethylbenzene, C8H10
Compound 10: o-xylene, C8H10
Compound 11: m-xylene, C8H10
Compound 12: p-xylene, C8H10
Compound 13: chlorobenzene, C6H5Cl
Compound 14: 1-butanol, C4H10O
Compound 15: 1-pentanol, C5H12O
Compound 16: 1-hexanol, C6H14O
Compound 17: 1-heptanol, C7H16O
Compound 18: 1-octanol, C8H18O
Compound 19: 2-butanol, C4H10O
Compound 20: diisopropyl ether, C6H14O
Compound 21: 2-ethoxyethanol, C4H10O2
Compound 22: 2-isopropoxyethanol, C5H12O2

System: hexane + 2,4-dihydroxybenzophenone; phases: Liquid, Crystal
Fixed: Pressure, kPa = 101
Property: Mole fraction of 2,4-dihydroxybenzophenone (Liquid); method: Spectrophotometric analysis
Temperature, K	Mole fraction of 2,4-dihydroxybenzophenone	uncertainty
298.2	.0000326	.000000489

System: 2,4-dihydroxybenzophenone + heptane; phases: Liquid, Crystal
Fixed: Pressure, kPa = 101
Property: Mole fraction of 2,4-dihydroxybenzophenone (Liquid); method: Spectrophotometric analysis
Temperature, K	Mole fraction of 2,4-dihydroxybenzophenone	uncertainty
298.2	.0000382	.000000573

System: octane + 2,4-dihydroxybenzophenone; phases: Liquid, Crystal
Fixed: Pressure, kPa = 101
Property: Mole fraction of 2,4-dihydroxybenzophenone (Liquid); method: Spectrophotometric analysis
Temperature, K	Mole fraction of 2,4-dihydroxybenzophenone	uncertainty
298.2	.0000443	.0000006645

System: cyclohexane + 2,4-dihydroxybenzophenone; phases: Liquid, Crystal
Fixed: Pressure, kPa = 101
Property: Mole fraction of 2,4-dihydroxybenzophenone (Liquid); method: Spectrophotometric analysis
Temperature, K	Mole fraction of 2,4-dihydroxybenzophenone	uncertainty
298.2	.0000507	.0000007605

System: methylcyclohexane + 2,4-dihydroxybenzophenone; phases: Liquid, Crystal
Fixed: Pressure, kPa = 101
Property: Mole fraction of 2,4-dihydroxybenzophenone (Liquid); method: Spectrophotometric analysis
Temperature, K	Mole fraction of 2,4-dihydroxybenzophenone	uncertainty
298.2	.0000692	.000001038

System: 2,4-dihydroxybenzophenone + isooctane; phases: Liquid, Crystal
Fixed: Pressure, kPa = 101
Property: Mole fraction of 2,4-dihydroxybenzophenone (Liquid); method: Spectrophotometric analysis
Temperature, K	Mole fraction of 2,4-dihydroxybenzophenone	uncertainty
298.2	.0000331	.0000004965

System: toluene + 2,4-dihydroxybenzophenone; phases: Liquid, Crystal
Fixed: Pressure, kPa = 101
Property: Mole fraction of 2,4-dihydroxybenzophenone (Liquid); method: Spectrophotometric analysis
Temperature, K	Mole fraction of 2,4-dihydroxybenzophenone	uncertainty
298.2	.00364	.0000546

System: ethylbenzene + 2,4-dihydroxybenzophenone; phases: Liquid, Crystal
Fixed: Pressure, kPa = 101
Property: Mole fraction of 2,4-dihydroxybenzophenone (Liquid); method: Spectrophotometric analysis
Temperature, K	Mole fraction of 2,4-dihydroxybenzophenone	uncertainty
298.2	.00408	.0000612

System: o-xylene + 2,4-dihydroxybenzophenone; phases: Liquid, Crystal
Fixed: Pressure, kPa = 101
Property: Mole fraction of 2,4-dihydroxybenzophenone (Liquid); method: Spectrophotometric analysis
Temperature, K	Mole fraction of 2,4-dihydroxybenzophenone	uncertainty
298.2	.00429	.00006435

System: m-xylene + 2,4-dihydroxybenzophenone; phases: Liquid, Crystal
Fixed: Pressure, kPa = 101
Property: Mole fraction of 2,4-dihydroxybenzophenone (Liquid); method: Spectrophotometric analysis
Temperature, K	Mole fraction of 2,4-dihydroxybenzophenone	uncertainty
298.2	.00415	.00006225

System: p-xylene + 2,4-dihydroxybenzophenone; phases: Liquid, Crystal
Fixed: Pressure, kPa = 101
Property: Mole fraction of 2,4-dihydroxybenzophenone (Liquid); method: Spectrophotometric analysis
Temperature, K	Mole fraction of 2,4-dihydroxybenzophenone	uncertainty
298.2	.00448	.0000672

System: chlorobenzene + 2,4-dihydroxybenzophenone; phases: Liquid, Crystal
Fixed: Pressure, kPa = 101
Property: Mole fraction of 2,4-dihydroxybenzophenone (Liquid); method: Spectrophotometric analysis
Temperature, K	Mole fraction of 2,4-dihydroxybenzophenone	uncertainty
298.2	.0044	.000066

System: 1-butanol + 2,4-dihydroxybenzophenone; phases: Liquid, Crystal
Fixed: Pressure, kPa = 101
Property: Mole fraction of 2,4-dihydroxybenzophenone (Liquid); method: Spectrophotometric analysis
Temperature, K	Mole fraction of 2,4-dihydroxybenzophenone	uncertainty
298.2	.0109	.0001635

System: 1-pentanol + 2,4-dihydroxybenzophenone; phases: Liquid, Crystal
Fixed: Pressure, kPa = 101
Property: Mole fraction of 2,4-dihydroxybenzophenone (Liquid); method: Spectrophotometric analysis
Temperature, K	Mole fraction of 2,4-dihydroxybenzophenone	uncertainty
298.2	.0125	.0001875

System: 1-hexanol + 2,4-dihydroxybenzophenone; phases: Liquid, Crystal
Fixed: Pressure, kPa = 101
Property: Mole fraction of 2,4-dihydroxybenzophenone (Liquid); method: Spectrophotometric analysis
Temperature, K	Mole fraction of 2,4-dihydroxybenzophenone	uncertainty
298.2	.0161	.0002415

System: 1-heptanol + 2,4-dihydroxybenzophenone; phases: Liquid, Crystal
Fixed: Pressure, kPa = 101
Property: Mole fraction of 2,4-dihydroxybenzophenone (Liquid); method: Spectrophotometric analysis
Temperature, K	Mole fraction of 2,4-dihydroxybenzophenone	uncertainty
298.2	.018	.00027

System: 1-octanol + 2,4-dihydroxybenzophenone; phases: Liquid, Crystal
Fixed: Pressure, kPa = 101
Property: Mole fraction of 2,4-dihydroxybenzophenone (Liquid); method: Spectrophotometric analysis
Temperature, K	Mole fraction of 2,4-dihydroxybenzophenone	uncertainty
298.2	.0183	.0002745

System: 2-butanol + 2,4-dihydroxybenzophenone; phases: Liquid, Crystal
Fixed: Pressure, kPa = 101
Property: Mole fraction of 2,4-dihydroxybenzophenone (Liquid); method: Spectrophotometric analysis
Temperature, K	Mole fraction of 2,4-dihydroxybenzophenone	uncertainty
298.2	.0103	.0001545

System: diisopropyl ether + 2,4-dihydroxybenzophenone; phases: Liquid, Crystal
Fixed: Pressure, kPa = 101
Property: Mole fraction of 2,4-dihydroxybenzophenone (Liquid); method: Spectrophotometric analysis
Temperature, K	Mole fraction of 2,4-dihydroxybenzophenone	uncertainty
298.2	.00744	.0001116

System: 2-ethoxyethanol + 2,4-dihydroxybenzophenone; phases: Liquid, Crystal
Fixed: Pressure, kPa = 101
Property: Mole fraction of 2,4-dihydroxybenzophenone (Liquid); method: Spectrophotometric analysis
Temperature, K	Mole fraction of 2,4-dihydroxybenzophenone	uncertainty
298.2	.0308	.000462

System: 2-isopropoxyethanol + 2,4-dihydroxybenzophenone; phases: Liquid, Crystal
Fixed: Pressure, kPa = 101
Property: Mole fraction of 2,4-dihydroxybenzophenone (Liquid); method: Spectrophotometric analysis
Temperature, K	Mole fraction of 2,4-dihydroxybenzophenone	uncertainty
298.2	.0333	.0004995
