Measured thermophysical data. Temperature Dependences and Enthalpic Discrimination of Homochiral Pairwise Interactions of Six a-Amino Acid Enantiomers in Pure Water
Source: J. Chem. Eng. Data, 2015, 10.1021/je500825a
Compound 1: L-alanine, C3H7NO2, purity 99%
Compound 2: D-alanine, C3H7NO2, purity 99%
Compound 3: L-serine, C3H7NO3, purity 99%
Compound 4: D-serine, C3H7NO3, purity 99%
Compound 5: L-proline, C5H9NO2, purity 99%
Compound 6: D-proline, C5H9NO2, purity 99%
Compound 7: water, H2O, purity 99.9%

System: L-alanine + water; phases: Liquid
Fixed: Pressure, kPa = 101.3
Property: Molar enthalpy of dilution, kJ/mol (Liquid); method: Isoperibol calorimetry
Temperature, K	Initial molality of solute, mol/kg	Final molality of solute, mol/kg	Molar enthalpy of dilution, kJ/mol	uncertainty
288.15	.00298	.00888	-.06998	.00005
288.15	.00888	.01473	-.06856	.00005
288.15	.01473	.02052	-.06685	.00005
288.15	.02052	.02624	-.06546	.00005
288.15	.02624	.03191	-.06398	.00005
288.15	.03191	.03752	-.06293	.00005
288.15	.03752	.04307	-.06138	.00005
288.15	.04307	.04856	-.06045	.00005
288.15	.04856	.05399	-.05929	.00005
288.15	.05399	.05937	-.05791	.00005
288.15	.05937	.06468	-.05683	.00005
288.15	.06468	.06993	-.05583	.00005
288.15	.06993	.07512	-.05501	.00005
288.15	.07512	.08026	-.05378	.00005
288.15	.08026	.08533	-.05295	.00005
288.15	.08533	.09035	-.05199	.00005
288.15	.09035	.0953	-.05107	.00005
288.15	.0953	.1002	-.05033	.00005
288.15	.1002	.10504	-.04945	.00005
293.15	.00298	.00888	-.09592	.00005
293.15	.00888	.01473	-.09342	.00005
293.15	.01473	.02052	-.09145	.00005
293.15	.02052	.02624	-.08916	.00005
293.15	.02624	.03191	-.08675	.00005
293.15	.03191	.03752	-.08475	.00005
293.15	.03752	.04307	-.08246	.00005
293.15	.04307	.04856	-.08061	.00005
293.15	.04856	.05399	-.07902	.00005
293.15	.05399	.05937	-.07759	.00005
293.15	.05937	.06468	-.07608	.00005
293.15	.06468	.06993	-.07455	.00005
293.15	.06993	.07512	-.07354	.00005
293.15	.07512	.08026	-.07207	.00005
293.15	.08026	.08533	-.07077	.00005
293.15	.08533	.09035	-.06936	.00005
293.15	.09035	.0953	-.06817	.00005
293.15	.0953	.1002	-.06711	.00005
293.15	.1002	.10504	-.06583	.00005
298.15	.00298	.00889	-.12127	.00005
298.15	.00889	.01475	-.11791	.00005
298.15	.01475	.02054	-.1144	.00005
298.15	.02054	.02628	-.11192	.00005
298.15	.02628	.03195	-.10833	.00005
298.15	.03195	.03757	-.10768	.00005
298.15	.03757	.04312	-.10495	.00005
298.15	.04312	.04862	-.10273	.00005
298.15	.04862	.05406	-.10083	.00005
298.15	.05406	.05944	-.09888	.00005
298.15	.05944	.06475	-.09642	.00005
298.15	.06475	.07001	-.09456	.00005
298.15	.07001	.07521	-.09353	.00005
298.15	.07521	.08035	-.09118	.00005
298.15	.08035	.08543	-.08956	.00005
298.15	.08543	.09045	-.08784	.00005
298.15	.09045	.09542	-.08636	.00005
298.15	.09542	.10032	-.0846	.00005
298.15	.10032	.10516	-.08305	.00005
303.15	.00298	.00889	-.14724	.00005
303.15	.00889	.01475	-.14276	.00005
303.15	.01475	.02054	-.14041	.00005
303.15	.02054	.02628	-.13663	.00005
303.15	.02628	.03195	-.1322	.00005
303.15	.03195	.03757	-.12983	.00005
303.15	.03757	.04312	-.12872	.00005
303.15	.04312	.04862	-.12443	.00005
303.15	.04862	.05406	-.12172	.00005
303.15	.05406	.05944	-.11962	.00005
303.15	.05944	.06475	-.11701	.00005
303.15	.06475	.07001	-.11499	.00005
303.15	.07001	.07521	-.11337	.00005
303.15	.07521	.08035	-.11046	.00005
303.15	.08035	.08543	-.10879	.00005
303.15	.08543	.09045	-.10627	.00005
303.15	.09045	.09542	-.10424	.00005
303.15	.09542	.10032	-.10213	.00005
303.15	.10032	.10516	-.10013	.00005
308.15	.00298	.00889	-.17028	.00005
308.15	.00889	.01475	-.16564	.00005
308.15	.01475	.02054	-.16306	.00005
308.15	.02054	.02628	-.15218	.00005
308.15	.02628	.03195	-.15334	.00005
308.15	.03195	.03757	-.15068	.00005
308.15	.03757	.04312	-.14619	.00005
308.15	.04312	.04862	-.14395	.00005
308.15	.04862	.05406	-.14103	.00005
308.15	.05406	.05944	-.13851	.00005
308.15	.05944	.06475	-.13488	.00005
308.15	.06475	.07001	-.13255	.00005
308.15	.07001	.07521	-.13003	.00005
308.15	.07521	.08035	-.12709	.00005
308.15	.08035	.08543	-.12484	.00005
308.15	.08543	.09045	-.12237	.00005
308.15	.09045	.09542	-.11973	.00005
308.15	.09542	.10032	-.11794	.00005
308.15	.10032	.10516	-.11524	.00005
313.15	.00298	.00889	-.18652	.00005
313.15	.00889	.01475	-.1839	.00005
313.15	.01475	.02054	-.17838	.00005
313.15	.02054	.02628	-.17449	.00005
313.15	.02628	.03195	-.17125	.00005
313.15	.03195	.03757	-.16749	.00005
313.15	.03757	.04312	-.16252	.00005
313.15	.04312	.04862	-.16105	.00005
313.15	.04862	.05406	-.15776	.00005
313.15	.05406	.05944	-.1537	.00005
313.15	.05944	.06475	-.14972	.00005
313.15	.06475	.07001	-.14569	.00005
313.15	.07001	.07521	-.14433	.00005
313.15	.07521	.08035	-.13982	.00005
313.15	.08035	.08543	-.1392	.00005
313.15	.08543	.09045	-.13654	.00005
313.15	.09045	.09542	-.13378	.00005
313.15	.09542	.10032	-.13124	.00005
313.15	.10032	.10516	-.128	.00005
318.15	.00298	.0089	-.20588	.00005
318.15	.0089	.01476	-.20204	.00005
318.15	.01476	.02055	-.19609	.00005
318.15	.02055	.02629	-.19139	.00005
318.15	.02629	.03197	-.19046	.00005
318.15	.03197	.03759	-.18494	.00005
318.15	.03759	.04315	-.17804	.00005
318.15	.04315	.04865	-.17475	.00005
318.15	.04865	.05409	-.1718	.00005
318.15	.05409	.05947	-.16802	.00005
318.15	.05947	.0648	-.16299	.00005
318.15	.0648	.07006	-.16102	.00005
318.15	.07006	.07526	-.15816	.00005
318.15	.07526	.08041	-.1547	.00005
318.15	.08041	.08549	-.1518	.00005
318.15	.08549	.09051	-.14895	.00005
318.15	.09051	.09548	-.14571	.00005
318.15	.09548	.10038	-.14299	.00005
318.15	.10038	.10523	-.138	.00005
323.15	.00304	.00907	-.2232	.00005
323.15	.00907	.01504	-.21979	.00005
323.15	.01504	.02095	-.21436	.00005
323.15	.02095	.0268	-.20822	.00005
323.15	.0268	.03259	-.20735	.00005
323.15	.03259	.03832	-.20194	.00005
323.15	.03832	.04399	-.19253	.00005
323.15	.04399	.0496	-.18921	.00005
323.15	.0496	.05515	-.18717	.00005
323.15	.05515	.06063	-.18378	.00005
323.15	.06063	.06606	-.17898	.00005
323.15	.06606	.07142	-.17443	.00005
323.15	.07142	.07673	-.17143	.00005
323.15	.07673	.08197	-.16748	.00005
323.15	.08197	.08715	-.16374	.00005
323.15	.08715	.09228	-.16089	.00005
323.15	.09228	.09734	-.15643	.00005
323.15	.09734	.10234	-.15395	.00005
323.15	.10234	.10728	-.15133	.00005

System: D-alanine + water; phases: Liquid
Fixed: Pressure, kPa = 101.3
Property: Molar enthalpy of dilution, kJ/mol (Liquid); method: Isoperibol calorimetry
Temperature, K	Initial molality of solute, mol/kg	Final molality of solute, mol/kg	Molar enthalpy of dilution, kJ/mol	uncertainty
293.15	.00297	.00886	-.09596	.00005
298.15	.00297	.00886	-.12053	.00005
303.15	.00297	.00886	-.14238	.00005
308.15	.00298	.00889	-.16811	.00005
313.15	.00298	.00889	-.18556	.00005
318.15	.00298	.00889	-.20556	.00005
288.15	.00299	.00893	-.06991	.00005
323.15	.003	.00896	-.22362	.00005
293.15	.00886	.0147	-.09324	.00005
298.15	.00886	.0147	-.11739	.00005
303.15	.00886	.0147	-.13861	.00005
308.15	.00889	.01475	-.16289	.00005
313.15	.00889	.01475	-.18383	.00005
318.15	.00889	.01475	-.20149	.00005
288.15	.00893	.01481	-.06806	.00005
323.15	.00896	.01486	-.21848	.00005
293.15	.0147	.02047	-.09056	.00005
298.15	.0147	.02047	-.11292	.00005
303.15	.0147	.02047	-.13469	.00005
308.15	.01475	.02054	-.15813	.00005
313.15	.01475	.02054	-.17861	.00005
318.15	.01475	.02054	-.19636	.00005
288.15	.01481	.02063	-.06617	.00005
323.15	.01486	.0207	-.2131	.00005
298.15	.02047	.02619	-.11059	.00005
293.15	.02047	.02619	-.08905	.00005
303.15	.02047	.02619	-.13212	.00005
308.15	.02054	.02628	-.15513	.00005
313.15	.02054	.02628	-.17394	.00005
318.15	.02054	.02628	-.19199	.00005
288.15	.02063	.02638	-.06478	.00005
323.15	.0207	.02648	-.20903	.00005
298.15	.02619	.03184	-.10786	.00005
303.15	.02619	.03184	-.12756	.00005
293.15	.02619	.03184	-.08678	.00005
308.15	.02628	.03195	-.15106	.00005
313.15	.02628	.03195	-.16907	.00005
318.15	.02628	.03195	-.18806	.00005
288.15	.02638	.03208	-.06356	.00005
323.15	.02648	.0322	-.20279	.00005
293.15	.03184	.03744	-.08537	.00005
298.15	.03184	.03744	-.10601	.00005
303.15	.03184	.03744	-.12699	.00005
308.15	.03195	.03757	-.14895	.00005
313.15	.03195	.03757	-.16649	.00005
318.15	.03195	.03757	-.18553	.00005
288.15	.03208	.03772	-.06229	.00005
323.15	.0322	.03786	-.2003	.00005
293.15	.03744	.04298	-.08244	.00005
303.15	.03744	.04298	-.12322	.00005
298.15	.03744	.04298	-.10291	.00005
308.15	.03757	.04313	-.14402	.00005
313.15	.03757	.04313	-.16204	.00005
318.15	.03757	.04313	-.17858	.00005
288.15	.03772	.0433	-.0608	.00005
323.15	.03786	.04346	-.1937	.00005
293.15	.04298	.04845	-.08153	.00005
303.15	.04298	.04845	-.12164	.00005
298.15	.04298	.04845	-.10152	.00005
308.15	.04313	.04862	-.14166	.00005
313.15	.04313	.04862	-.15944	.00005
318.15	.04313	.04862	-.17661	.00005
288.15	.0433	.04882	-.05866	.00005
323.15	.04346	.04899	-.18838	.00005
303.15	.04845	.05387	-.11883	.00005
293.15	.04845	.05387	-.07997	.00005
298.15	.04845	.05387	-.09966	.00005
308.15	.04862	.05406	-.13949	.00005
313.15	.04862	.05406	-.15617	.00005
318.15	.04862	.05406	-.17422	.00005
288.15	.04882	.05428	-.05878	.00005
323.15	.04899	.05447	-.18567	.00005
293.15	.05387	.05923	-.0781	.00005
303.15	.05387	.05923	-.1159	.00005
298.15	.05387	.05923	-.09744	.00005
308.15	.05406	.05944	-.13632	.00005
313.15	.05406	.05944	-.15312	.00005
318.15	.05406	.05944	-.17002	.00005
288.15	.05428	.05968	-.0578	.00005
323.15	.05447	.05989	-.18076	.00005
303.15	.05923	.06453	-.1137	.00005
293.15	.05923	.06453	-.07684	.00005
298.15	.05923	.06453	-.09566	.00005
308.15	.05944	.06476	-.1334	.00005
313.15	.05944	.06476	-.15031	.00005
318.15	.05944	.06476	-.16408	.00005
288.15	.05968	.06502	-.05709	.00005
323.15	.05989	.06525	-.1757	.00005
303.15	.06453	.06977	-.11141	.00005
293.15	.06453	.06977	-.07518	.00005
298.15	.06453	.06977	-.0937	.00005
313.15	.06476	.07002	-.14368	.00005
318.15	.06476	.07002	-.16151	.00005
308.15	.06476	.07002	-.13123	.00005
288.15	.06502	.0703	-.05574	.00005
323.15	.06525	.07055	-.17361	.00005
298.15	.06977	.07496	-.09186	.00005
303.15	.06977	.07496	-.1092	.00005
293.15	.06977	.07496	-.07426	.00005
308.15	.07002	.07522	-.12827	.00005
313.15	.07002	.07522	-.14434	.00005
318.15	.07002	.07522	-.15766	.00005
288.15	.0703	.07553	-.05502	.00005
323.15	.07055	.07579	-.17006	.00005
303.15	.07496	.08008	-.10706	.00005
293.15	.07496	.08008	-.07254	.00005
298.15	.07496	.08008	-.08991	.00005
313.15	.07522	.08036	-.14122	.00005
308.15	.07522	.08036	-.12554	.00005
318.15	.07522	.08036	-.15379	.00005
288.15	.07553	.08069	-.05361	.00005
323.15	.07579	.08097	-.16648	.00005
293.15	.08008	.08514	-.07124	.00005
298.15	.08008	.08514	-.08845	.00005
303.15	.08008	.08514	-.10495	.00005
313.15	.08036	.08544	-.13845	.00005
318.15	.08036	.08544	-.15026	.00005
308.15	.08036	.08544	-.12281	.00005
288.15	.08069	.08579	-.0527	.00005
323.15	.08097	.08609	-.16544	.00005
298.15	.08514	.09015	-.08652	.00005
293.15	.08514	.09015	-.07013	.00005
303.15	.08514	.09015	-.10313	.00005
313.15	.08544	.09046	-.13561	.00005
318.15	.08544	.09046	-.14914	.00005
308.15	.08544	.09046	-.12183	.00005
288.15	.08579	.09083	-.05185	.00005
323.15	.08609	.09115	-.16103	.00005
293.15	.09015	.09509	-.06893	.00005
298.15	.09015	.09509	-.08486	.00005
303.15	.09015	.09509	-.10127	.00005
318.15	.09046	.09542	-.14563	.00005
308.15	.09046	.09542	-.12021	.00005
313.15	.09046	.09542	-.13303	.00005
288.15	.09083	.09581	-.05114	.00005
323.15	.09115	.09615	-.157	.00005
303.15	.09509	.09998	-.09993	.00005
298.15	.09509	.09998	-.08358	.00005
293.15	.09509	.09998	-.06787	.00005
318.15	.09542	.10032	-.14275	.00005
308.15	.09542	.10032	-.11878	.00005
313.15	.09542	.10032	-.13059	.00005
288.15	.09581	.10074	-.05025	.00005
323.15	.09615	.10109	-.1528	.00005
293.15	.09998	.1048	-.06633	.00005
298.15	.09998	.1048	-.08174	.00005
303.15	.09998	.1048	-.09791	.00005
308.15	.10032	.10516	-.11508	.00005
313.15	.10032	.10516	-.12756	.00005
318.15	.10032	.10516	-.14328	.00005
288.15	.10074	.1056	-.0494	.00005
323.15	.10109	.10597	-.1494	.00005

System: L-serine + water; phases: Liquid
Fixed: Pressure, kPa = 101.3
Property: Molar enthalpy of dilution, kJ/mol (Liquid); method: Isoperibol calorimetry
Temperature, K	Initial molality of solute, mol/kg	Final molality of solute, mol/kg	Molar enthalpy of dilution, kJ/mol	uncertainty
288.15	.00223	.00665	.39333	.00005
288.15	.00665	.01102	.38626	.00005
288.15	.01102	.01535	.37517	.00005
288.15	.01535	.01964	.36513	.00005
288.15	.01964	.02388	.35831	.00005
288.15	.02388	.02808	.35197	.00005
288.15	.02808	.03223	.34041	.00005
288.15	.03223	.03634	.33519	.00005
288.15	.03634	.04041	.32891	.00005
288.15	.04041	.04443	.3199	.00005
288.15	.04443	.0484	.31312	.00005
288.15	.0484	.05233	.30711	.00005
288.15	.05233	.05622	.30093	.00005
288.15	.05622	.06006	.29378	.00005
288.15	.06006	.06386	.28781	.00005
288.15	.06386	.06761	.28129	.00005
288.15	.06761	.07132	.27602	.00005
288.15	.07132	.07499	.27009	.00005
288.15	.07499	.07861	.26398	.00005
293.15	.00223	.00665	.33302	.00005
293.15	.00665	.01102	.32707	.00005
293.15	.01102	.01535	.3173	.00005
293.15	.01535	.01964	.31009	.00005
293.15	.01964	.02388	.30259	.00005
293.15	.02388	.02808	.29768	.00005
293.15	.02808	.03223	.28796	.00005
293.15	.03223	.03634	.28362	.00005
293.15	.03634	.04041	.27811	.00005
293.15	.04041	.04443	.27127	.00005
293.15	.04443	.0484	.26553	.00005
293.15	.0484	.05233	.25938	.00005
293.15	.05233	.05622	.25478	.00005
293.15	.05622	.06006	.24899	.00005
293.15	.06006	.06386	.24347	.00005
293.15	.06386	.06761	.23936	.00005
293.15	.06761	.07132	.23317	.00005
293.15	.07132	.07499	.22865	.00005
293.15	.07499	.07861	.2236	.00005
298.15	.00223	.00665	.2839	.00005
298.15	.00665	.01102	.27917	.00005
298.15	.01102	.01535	.27121	.00005
298.15	.01535	.01964	.26491	.00005
298.15	.01964	.02388	.25824	.00005
298.15	.02388	.02808	.25347	.00005
298.15	.02808	.03223	.24563	.00005
298.15	.03223	.03634	.24166	.00005
298.15	.03634	.04041	.23749	.00005
298.15	.04041	.04443	.23109	.00005
298.15	.04443	.0484	.22594	.00005
298.15	.0484	.05233	.22154	.00005
298.15	.05233	.05622	.21765	.00005
298.15	.05622	.06006	.21144	.00005
298.15	.06006	.06386	.20753	.00005
298.15	.06386	.06761	.20388	.00005
298.15	.06761	.07132	.19885	.00005
298.15	.07132	.07499	.19493	.00005
298.15	.07499	.07861	.18979	.00005
303.15	.00225	.00672	.23972	.00005
303.15	.00672	.01114	.23452	.00005
303.15	.01114	.01552	.22772	.00005
303.15	.01552	.01985	.22238	.00005
303.15	.01985	.02414	.21677	.00005
303.15	.02414	.02838	.21291	.00005
303.15	.02838	.03258	.20586	.00005
303.15	.03258	.03673	.20193	.00005
303.15	.03673	.04083	.20056	.00005
303.15	.04083	.0449	.19394	.00005
303.15	.0449	.04891	.18985	.00005
303.15	.04891	.05289	.18648	.00005
303.15	.05289	.05682	.1825	.00005
303.15	.05682	.0607	.17843	.00005
303.15	.0607	.06454	.17468	.00005
303.15	.06454	.06833	.17203	.00005
303.15	.06833	.07208	.16741	.00005
303.15	.07208	.07578	.16399	.00005
303.15	.07578	.07944	.16074	.00005
308.15	.00225	.00672	.19924	.00005
308.15	.00672	.01114	.19622	.00005
308.15	.01114	.01552	.19055	.00005
308.15	.01552	.01985	.18544	.00005
308.15	.01985	.02414	.18127	.00005
308.15	.02414	.02838	.17743	.00005
308.15	.02838	.03258	.17124	.00005
308.15	.03258	.03673	.16852	.00005
308.15	.03673	.04083	.1658	.00005
308.15	.04083	.0449	.16138	.00005
308.15	.0449	.04891	.15774	.00005
308.15	.04891	.05289	.15456	.00005
308.15	.05289	.05682	.15187	.00005
308.15	.05682	.0607	.14779	.00005
308.15	.0607	.06454	.14426	.00005
308.15	.06454	.06833	.14303	.00005
308.15	.06833	.07208	.13908	.00005
308.15	.07208	.07578	.13645	.00005
308.15	.07578	.07944	.13379	.00005
313.15	.00225	.00672	.1618	.00005
313.15	.00672	.01114	.15545	.00005
313.15	.01114	.01552	.15272	.00005
313.15	.01552	.01985	.1512	.00005
313.15	.01985	.02414	.14599	.00005
313.15	.02414	.02838	.1427	.00005
313.15	.02838	.03258	.13691	.00005
313.15	.03258	.03673	.13473	.00005
313.15	.03673	.04083	.13075	.00005
313.15	.04083	.0449	.12867	.00005
313.15	.0449	.04891	.12684	.00005
313.15	.04891	.05289	.12415	.00005
313.15	.05289	.05682	.12157	.00005
313.15	.05682	.0607	.11891	.00005
313.15	.0607	.06454	.11659	.00005
313.15	.06454	.06833	.11424	.00005
313.15	.06833	.07208	.11185	.00005
313.15	.07208	.07578	.10955	.00005
313.15	.07578	.07944	.10617	.00005
318.15	.00226	.00674	.12897	.00005
318.15	.00674	.01118	.12592	.00005
318.15	.01118	.01557	.1235	.00005
318.15	.01557	.01991	.12035	.00005
318.15	.01991	.02422	.12012	.00005
318.15	.02422	.02847	.11616	.00005
318.15	.02847	.03268	.11146	.00005
318.15	.03268	.03685	.10861	.00005
318.15	.03685	.04097	.10791	.00005
318.15	.04097	.04505	.10546	.00005
318.15	.04505	.04908	.1029	.00005
318.15	.04908	.05306	.10053	.00005
318.15	.05306	.05701	.09927	.00005
318.15	.05701	.0609	.09656	.00005
318.15	.0609	.06475	.0945	.00005
318.15	.06475	.06856	.09272	.00005
318.15	.06856	.07232	.09118	.00005
318.15	.07232	.07603	.08864	.00005
318.15	.07603	.0797	.08646	.00005
323.15	.00319	.00951	.14784	.00005
323.15	.00951	.01577	.14381	.00005
323.15	.01577	.02197	.13921	.00005
323.15	.02197	.0281	.13527	.00005
323.15	.0281	.03417	.13303	.00005
323.15	.03417	.04018	.13008	.00005
323.15	.04018	.04612	.12476	.00005
323.15	.04612	.052	.12234	.00005
323.15	.052	.05781	.12105	.00005
323.15	.05781	.06356	.11718	.00005
323.15	.06356	.06925	.11465	.00005
323.15	.06925	.07487	.11264	.00005
323.15	.07487	.08044	.11069	.00005
323.15	.08044	.08593	.10697	.00005
323.15	.08593	.09137	.10506	.00005
323.15	.09137	.09673	.10321	.00005
323.15	.09673	.10204	.10035	.00005
323.15	.10204	.10728	.09837	.00005
323.15	.10728	.11246	.09666	.00005

System: D-serine + water; phases: Liquid
Fixed: Pressure, kPa = 101.3
Property: Molar enthalpy of dilution, kJ/mol (Liquid); method: Isoperibol calorimetry
Temperature, K	Initial molality of solute, mol/kg	Final molality of solute, mol/kg	Molar enthalpy of dilution, kJ/mol	uncertainty
288.15	.00224	.0067	.38922	.00005
288.15	.0067	.0111	.38054	.00005
288.15	.0111	.01547	.36948	.00005
288.15	.01547	.01978	.36045	.00005
288.15	.01978	.02406	.35282	.00005
288.15	.02406	.02828	.34607	.00005
288.15	.02828	.03247	.33427	.00005
288.15	.03247	.03661	.32901	.00005
288.15	.03661	.0407	.32339	.00005
288.15	.0407	.04475	.31496	.00005
288.15	.04475	.04875	.30818	.00005
288.15	.04875	.05271	.30177	.00005
288.15	.05271	.05663	.29604	.00005
288.15	.05663	.0605	.28873	.00005
288.15	.0605	.06432	.28278	.00005
288.15	.06432	.0681	.27713	.00005
288.15	.0681	.07184	.27154	.00005
288.15	.07184	.07553	.2664	.00005
288.15	.07553	.07918	.25987	.00005
293.15	.00224	.00669	.3302	.00005
293.15	.00669	.0111	.32259	.00005
293.15	.0111	.01546	.31341	.00005
293.15	.01546	.01977	.3054	.00005
293.15	.01977	.02404	.29855	.00005
293.15	.02404	.02827	.29323	.00005
293.15	.02827	.03245	.28328	.00005
293.15	.03245	.03659	.27898	.00005
293.15	.03659	.04068	.2743	.00005
293.15	.04068	.04473	.26678	.00005
293.15	.04473	.04873	.2616	.00005
293.15	.04873	.05269	.25564	.00005
293.15	.05269	.0566	.25127	.00005
293.15	.0566	.06047	.24476	.00005
293.15	.06047	.06429	.23971	.00005
293.15	.06429	.06807	.23529	.00005
293.15	.06807	.07181	.2304	.00005
293.15	.07181	.07549	.2254	.00005
293.15	.07549	.07914	.21988	.00005
298.15	.00226	.00673	.28434	.00005
298.15	.00673	.01117	.27757	.00005
298.15	.01117	.01556	.26945	.00005
298.15	.01556	.0199	.26306	.00005
298.15	.0199	.0242	.25667	.00005
298.15	.0242	.02845	.25272	.00005
298.15	.02845	.03266	.24382	.00005
298.15	.03266	.03682	.24071	.00005
298.15	.03682	.04094	.23596	.00005
298.15	.04094	.04501	.23017	.00005
298.15	.04501	.04904	.22536	.00005
298.15	.04904	.05302	.22067	.00005
298.15	.05302	.05696	.21646	.00005
298.15	.05696	.06085	.21128	.00005
298.15	.06085	.0647	.20717	.00005
298.15	.0647	.0685	.20289	.00005
298.15	.0685	.07226	.19839	.00005
298.15	.07226	.07597	.19403	.00005
298.15	.07597	.07964	.19003	.00005
303.15	.00221	.00661	.23693	.00005
303.15	.00661	.01096	.2311	.00005
303.15	.01096	.01526	.22491	.00005
303.15	.01526	.01953	.21852	.00005
303.15	.01953	.02374	.21325	.00005
303.15	.02374	.02792	.21009	.00005
303.15	.02792	.03205	.20244	.00005
303.15	.03205	.03613	.19879	.00005
303.15	.03613	.04017	.19561	.00005
303.15	.04017	.04417	.18963	.00005
303.15	.04417	.04812	.18617	.00005
303.15	.04812	.05203	.18346	.00005
303.15	.05203	.05589	.1801	.00005
303.15	.05589	.05971	.17587	.00005
303.15	.05971	.06349	.17208	.00005
303.15	.06349	.06722	.16913	.00005
303.15	.06722	.07091	.16502	.00005
303.15	.07091	.07455	.16172	.00005
303.15	.07455	.07815	.15854	.00005
308.15	.00225	.00672	.19879	.00005
308.15	.00672	.01115	.19295	.00005
308.15	.01115	.01553	.18718	.00005
308.15	.01553	.01987	.18262	.00005
308.15	.01987	.02416	.1769	.00005
308.15	.02416	.0284	.17431	.00005
308.15	.0284	.0326	.1676	.00005
308.15	.0326	.03676	.16528	.00005
308.15	.03676	.04087	.16373	.00005
308.15	.04087	.04494	.15903	.00005
308.15	.04494	.04896	.15559	.00005
308.15	.04896	.05294	.15234	.00005
308.15	.05294	.05687	.14923	.00005
308.15	.05687	.06075	.14534	.00005
308.15	.06075	.06459	.14223	.00005
308.15	.06459	.06839	.13947	.00005
308.15	.06839	.07214	.13616	.00005
308.15	.07214	.07585	.13314	.00005
308.15	.07585	.07951	.13019	.00005
313.15	.00225	.00672	.16142	.00005
313.15	.00672	.01115	.15688	.00005
313.15	.01115	.01553	.15169	.00005
313.15	.01553	.01987	.14885	.00005
313.15	.01987	.02416	.14318	.00005
313.15	.02416	.0284	.14177	.00005
313.15	.0284	.0326	.13741	.00005
313.15	.0326	.03676	.13511	.00005
313.15	.03676	.04087	.1331	.00005
313.15	.04087	.04494	.13031	.00005
313.15	.04494	.04896	.12719	.00005
313.15	.04896	.05294	.12531	.00005
313.15	.05294	.05687	.12186	.00005
313.15	.05687	.06075	.11921	.00005
313.15	.06075	.06459	.11676	.00005
313.15	.06459	.06839	.11496	.00005
313.15	.06839	.07214	.11173	.00005
313.15	.07214	.07585	.1097	.00005
313.15	.07585	.07951	.10699	.00005
318.15	.00239	.00714	.13535	.00005
318.15	.00714	.01185	.13147	.00005
318.15	.01185	.0165	.12692	.00005
318.15	.0165	.02111	.12331	.00005
318.15	.02111	.02567	.12136	.00005
318.15	.02567	.03018	.11793	.00005
318.15	.03018	.03464	.11456	.00005
318.15	.03464	.03906	.11112	.00005
318.15	.03906	.04343	.11039	.00005
318.15	.04343	.04775	.10765	.00005
318.15	.04775	.05202	.10558	.00005
318.15	.05202	.05625	.10377	.00005
318.15	.05625	.06042	.10126	.00005
318.15	.06042	.06455	.09911	.00005
318.15	.06455	.06863	.09763	.00005
318.15	.06863	.07267	.09537	.00005
318.15	.07267	.07665	.09264	.00005
318.15	.07665	.08059	.0905	.00005
318.15	.08059	.08448	.08904	.00005
323.15	.0032	.00956	.13148	.00005
323.15	.00956	.01586	.12655	.00005
323.15	.01586	.02209	.12241	.00005
323.15	.02209	.02826	.11925	.00005
323.15	.02826	.03436	.11714	.00005
323.15	.03436	.0404	.11459	.00005
323.15	.0404	.04638	.11055	.00005
323.15	.04638	.05229	.10804	.00005
323.15	.05229	.05814	.1064	.00005
323.15	.05814	.06392	.10372	.00005
323.15	.06392	.06964	.10045	.00005
323.15	.06964	.0753	.09869	.00005
323.15	.0753	.08089	.09696	.00005
323.15	.08089	.08642	.09422	.00005
323.15	.08642	.09188	.09248	.00005
323.15	.09188	.09728	.09068	.00005
323.15	.09728	.10262	.08835	.00005
323.15	.10262	.10789	.08652	.00005
323.15	.10789	.1131	.08568	.00005

System: L-proline + water; phases: Liquid
Fixed: Pressure, kPa = 101.3
Property: Molar enthalpy of dilution, kJ/mol (Liquid); method: Isoperibol calorimetry
Temperature, K	Initial molality of solute, mol/kg	Final molality of solute, mol/kg	Molar enthalpy of dilution, kJ/mol	uncertainty
288.15	.003	.00895	-.16999	.00005
288.15	.00895	.01484	-.16757	.00005
288.15	.01484	.02067	-.1642	.00005
288.15	.02067	.02645	-.16052	.00005
288.15	.02645	.03216	-.15701	.00005
288.15	.03216	.03781	-.15368	.00005
288.15	.03781	.0434	-.1501	.00005
288.15	.0434	.04893	-.1481	.00005
288.15	.04893	.05441	-.14599	.00005
288.15	.05441	.05982	-.14253	.00005
288.15	.05982	.06517	-.14013	.00005
288.15	.06517	.07047	-.13734	.00005
288.15	.07047	.0757	-.13461	.00005
288.15	.0757	.08087	-.13191	.00005
288.15	.08087	.08599	-.12954	.00005
288.15	.08599	.09104	-.12715	.00005
288.15	.09104	.09603	-.1244	.00005
288.15	.09603	.10097	-.12242	.00005
288.15	.10097	.10584	-.11976	.00005
293.15	.003	.00895	-.18247	.00005
293.15	.00895	.01484	-.17957	.00005
293.15	.01484	.02067	-.17697	.00005
293.15	.02067	.02645	-.17247	.00005
293.15	.02645	.03216	-.16869	.00005
293.15	.03216	.03781	-.1641	.00005
293.15	.03781	.0434	-.16038	.00005
293.15	.0434	.04893	-.15834	.00005
293.15	.04893	.05441	-.15382	.00005
293.15	.05441	.05982	-.15099	.00005
293.15	.05982	.06517	-.14807	.00005
293.15	.06517	.07047	-.14594	.00005
293.15	.07047	.0757	-.14343	.00005
293.15	.0757	.08087	-.1397	.00005
293.15	.08087	.08599	-.13715	.00005
293.15	.08599	.09104	-.13458	.00005
293.15	.09104	.09603	-.13236	.00005
293.15	.09603	.10097	-.12959	.00005
293.15	.10097	.10584	-.12674	.00005
298.15	.00179	.00772	-.21511	.00005
298.15	.00772	.01359	-.21097	.00005
298.15	.01359	.0194	-.20625	.00005
298.15	.0194	.02516	-.20402	.00005
298.15	.02516	.03085	-.19802	.00005
298.15	.03085	.03648	-.19547	.00005
298.15	.03648	.04206	-.19086	.00005
298.15	.04206	.04757	-.18814	.00005
298.15	.04757	.05302	-.18386	.00005
298.15	.05302	.05842	-.18103	.00005
298.15	.05842	.06375	-.17752	.00005
298.15	.06375	.06903	-.17442	.00005
298.15	.06903	.07425	-.17126	.00005
298.15	.07425	.0794	-.16647	.00005
298.15	.0794	.0845	-.16487	.00005
298.15	.0845	.08954	-.16239	.00005
298.15	.08954	.09452	-.15927	.00005
298.15	.09452	.09943	-.15591	.00005
298.15	.09943	.10429	-.15361	.00005
303.15	.003	.00895	-.20818	.00005
303.15	.00895	.01484	-.20432	.00005
303.15	.01484	.02067	-.20016	.00005
303.15	.02067	.02645	-.1958	.00005
303.15	.02645	.03216	-.1912	.00005
303.15	.03216	.03781	-.18788	.00005
303.15	.03781	.0434	-.18491	.00005
303.15	.0434	.04893	-.18154	.00005
303.15	.04893	.05441	-.17852	.00005
303.15	.05441	.05982	-.17494	.00005
303.15	.05982	.06517	-.17085	.00005
303.15	.06517	.07047	-.16764	.00005
303.15	.07047	.0757	-.164	.00005
303.15	.0757	.08087	-.15978	.00005
303.15	.08087	.08599	-.15614	.00005
303.15	.08599	.09104	-.15344	.00005
303.15	.09104	.09603	-.1511	.00005
303.15	.09603	.10097	-.14911	.00005
303.15	.10097	.10584	-.14636	.00005
308.15	.003	.00895	-.2215	.00005
308.15	.00895	.01484	-.21867	.00005
308.15	.01484	.02067	-.21416	.00005
308.15	.02067	.02645	-.20964	.00005
308.15	.02645	.03216	-.20543	.00005
308.15	.03216	.03781	-.20163	.00005
308.15	.03781	.0434	-.19682	.00005
308.15	.0434	.04893	-.19507	.00005
308.15	.04893	.05441	-.19256	.00005
308.15	.05441	.05982	-.18697	.00005
308.15	.05982	.06517	-.18235	.00005
308.15	.06517	.07047	-.17999	.00005
308.15	.07047	.0757	-.17657	.00005
308.15	.0757	.08087	-.17266	.00005
308.15	.08087	.08599	-.16946	.00005
308.15	.08599	.09104	-.16651	.00005
308.15	.09104	.09603	-.16355	.00005
308.15	.09603	.10097	-.16068	.00005
308.15	.10097	.10584	-.15668	.00005
315.15	.00305	.0091	-.22309	.00005
315.15	.0091	.01509	-.21817	.00005
315.15	.01509	.02101	-.21525	.00005
315.15	.02101	.02688	-.20875	.00005
315.15	.02688	.03269	-.20758	.00005
315.15	.03269	.03843	-.20366	.00005
315.15	.03843	.04412	-.1993	.00005
315.15	.04412	.04974	-.19477	.00005
315.15	.04974	.0553	-.18783	.00005
315.15	.0553	.06081	-.1841	.00005
315.15	.06081	.06625	-.18272	.00005
315.15	.06625	.07163	-.18103	.00005
315.15	.07163	.07695	-.17738	.00005
315.15	.07695	.0822	-.1746	.00005
315.15	.0822	.0874	-.17113	.00005
315.15	.0874	.09254	-.16759	.00005
315.15	.09254	.09761	-.16646	.00005
315.15	.09761	.10263	-.16202	.00005
315.15	.10263	.10758	-.15973	.00005
318.15	.00323	.00963	-.23681	.00005
318.15	.00963	.01598	-.24299	.00005
318.15	.01598	.02225	-.22639	.00005
318.15	.02225	.02847	-.2181	.00005
318.15	.02847	.03462	-.22475	.00005
318.15	.03462	.0407	-.2155	.00005
318.15	.0407	.04672	-.21183	.00005
318.15	.04672	.05268	-.20887	.00005
318.15	.05268	.05857	-.20824	.00005
318.15	.05857	.0644	-.20139	.00005
318.15	.0644	.07016	-.1973	.00005
318.15	.07016	.07586	-.19242	.00005
318.15	.07586	.08149	-.18952	.00005
318.15	.08149	.08706	-.18478	.00005
318.15	.08706	.09256	-.18292	.00005
318.15	.09256	.098	-.1794	.00005
318.15	.098	.10338	-.17579	.00005
318.15	.10338	.10869	-.17211	.00005
318.15	.10869	.11394	-.16796	.00005
323.15	.00323	.00963	-.24528	.00005
323.15	.00963	.01598	-.24259	.00005
323.15	.01598	.02225	-.24044	.00005
323.15	.02225	.02847	-.23652	.00005
323.15	.02847	.03462	-.23002	.00005
323.15	.03462	.0407	-.22213	.00005
323.15	.0407	.04672	-.22214	.00005
323.15	.04672	.05268	-.21669	.00005
323.15	.05268	.05857	-.21413	.00005
323.15	.05857	.0644	-.208	.00005
323.15	.0644	.07016	-.20542	.00005
323.15	.07016	.07586	-.20083	.00005
323.15	.07586	.08149	-.19783	.00005
323.15	.08149	.08706	-.19355	.00005
323.15	.08706	.09256	-.18983	.00005
323.15	.09256	.098	-.18549	.00005
323.15	.098	.10338	-.18344	.00005
323.15	.10338	.10869	-.17912	.00005
323.15	.10869	.11394	-.17536	.00005

System: D-proline + water; phases: Liquid
Fixed: Pressure, kPa = 101.3
Property: Molar enthalpy of dilution, kJ/mol (Liquid); method: Isoperibol calorimetry
Temperature, K	Initial molality of solute, mol/kg	Final molality of solute, mol/kg	Molar enthalpy of dilution, kJ/mol	uncertainty
298.15	.00304	.00907	-.19336	.00005
323.15	.0031	.00927	-.24056	.00005
308.15	.00312	.00932	-.18192	.00005
313.15	.00312	.00932	-.19219	.00005
318.15	.00312	.00932	-.21137	.00005
293.15	.00325	.0097	-.16865	.00005
288.15	.00325	.0097	-.15484	.00005
303.15	.00325	.0097	-.19005	.00005
298.15	.00907	.01505	-.19259	.00005
323.15	.00927	.01537	-.23735	.00005
308.15	.00932	.01545	-.17768	.00005
313.15	.00932	.01545	-.19165	.00005
318.15	.00932	.01545	-.21014	.00005
293.15	.0097	.01609	-.16675	.00005
303.15	.0097	.01609	-.18741	.00005
288.15	.0097	.01609	-.15349	.00005
298.15	.01505	.02096	-.18799	.00005
323.15	.01537	.02141	-.23263	.00005
308.15	.01545	.02152	-.17407	.00005
313.15	.01545	.02152	-.18726	.00005
318.15	.01545	.02152	-.20792	.00005
293.15	.01609	.02241	-.16451	.00005
303.15	.01609	.02241	-.18406	.00005
288.15	.01609	.02241	-.15086	.00005
298.15	.02096	.02681	-.18489	.00005
323.15	.02141	.02738	-.2296	.00005
308.15	.02152	.02753	-.17049	.00005
313.15	.02152	.02753	-.18294	.00005
318.15	.02152	.02753	-.20438	.00005
293.15	.02241	.02866	-.15997	.00005
303.15	.02241	.02866	-.18043	.00005
288.15	.02241	.02866	-.14769	.00005
298.15	.02681	.0326	-.17977	.00005
323.15	.02738	.0333	-.22429	.00005
308.15	.02753	.03348	-.16636	.00005
313.15	.02753	.03348	-.17847	.00005
318.15	.02753	.03348	-.19577	.00005
303.15	.02866	.03485	-.17524	.00005
293.15	.02866	.03485	-.15617	.00005
288.15	.02866	.03485	-.14431	.00005
298.15	.0326	.03833	-.1758	.00005
323.15	.0333	.03915	-.22043	.00005
308.15	.03348	.03937	-.16245	.00005
313.15	.03348	.03937	-.17498	.00005
318.15	.03348	.03937	-.19281	.00005
303.15	.03485	.04098	-.17099	.00005
288.15	.03485	.04098	-.14147	.00005
293.15	.03485	.04098	-.15241	.00005
298.15	.03833	.044	-.17239	.00005
323.15	.03915	.04494	-.2158	.00005
308.15	.03937	.04519	-.15902	.00005
313.15	.03937	.04519	-.16961	.00005
318.15	.03937	.04519	-.18776	.00005
303.15	.04098	.04704	-.16793	.00005
288.15	.04098	.04704	-.13842	.00005
293.15	.04098	.04704	-.14883	.00005
298.15	.044	.04961	-.16913	.00005
323.15	.04494	.05067	-.20626	.00005
308.15	.04519	.05095	-.15598	.00005
313.15	.04519	.05095	-.16737	.00005
318.15	.04519	.05095	-.18685	.00005
303.15	.04704	.05304	-.1648	.00005
293.15	.04704	.05304	-.14641	.00005
288.15	.04704	.05304	-.13506	.00005
298.15	.04961	.05516	-.16549	.00005
323.15	.05067	.05634	-.20208	.00005
308.15	.05095	.05665	-.15309	.00005
313.15	.05095	.05665	-.16312	.00005
318.15	.05095	.05665	-.18325	.00005
293.15	.05304	.05897	-.14379	.00005
288.15	.05304	.05897	-.13218	.00005
303.15	.05304	.05897	-.16196	.00005
298.15	.05516	.06064	-.16187	.00005
323.15	.05634	.06194	-.20192	.00005
308.15	.05665	.06228	-.15034	.00005
313.15	.05665	.06228	-.15989	.00005
318.15	.05665	.06228	-.17964	.00005
303.15	.05897	.06483	-.15923	.00005
293.15	.05897	.06483	-.14098	.00005
288.15	.05897	.06483	-.12938	.00005
298.15	.06064	.06607	-.15889	.00005
323.15	.06194	.06749	-.20008	.00005
308.15	.06228	.06786	-.14775	.00005
313.15	.06228	.06786	-.15856	.00005
318.15	.06228	.06786	-.17392	.00005
293.15	.06483	.07063	-.13841	.00005
303.15	.06483	.07063	-.15604	.00005
288.15	.06483	.07063	-.12717	.00005
298.15	.06607	.07144	-.15609	.00005
323.15	.06749	.07297	-.19381	.00005
313.15	.06786	.07337	-.15623	.00005
308.15	.06786	.07337	-.14537	.00005
318.15	.06786	.07337	-.1726	.00005
288.15	.07063	.07637	-.12507	.00005
293.15	.07063	.07637	-.13594	.00005
303.15	.07063	.07637	-.15262	.00005
298.15	.07144	.07674	-.153	.00005
323.15	.07297	.07839	-.19203	.00005
313.15	.07337	.07881	-.15376	.00005
318.15	.07337	.07881	-.17003	.00005
308.15	.07337	.07881	-.14241	.00005
303.15	.07637	.08204	-.15004	.00005
288.15	.07637	.08204	-.12274	.00005
293.15	.07637	.08204	-.13356	.00005
298.15	.07674	.08199	-.14983	.00005
323.15	.07839	.08374	-.18712	.00005
313.15	.07881	.0842	-.14953	.00005
318.15	.07881	.0842	-.16713	.00005
308.15	.07881	.0842	-.13953	.00005
298.15	.08199	.08717	-.14549	.00005
303.15	.08204	.08765	-.14717	.00005
288.15	.08204	.08765	-.12022	.00005
293.15	.08204	.08765	-.13039	.00005
323.15	.08374	.08904	-.18366	.00005
313.15	.0842	.08952	-.14765	.00005
318.15	.0842	.08952	-.16395	.00005
308.15	.0842	.08952	-.13758	.00005
298.15	.08717	.09229	-.14525	.00005
293.15	.08765	.09319	-.12784	.00005
303.15	.08765	.09319	-.1447	.00005
288.15	.08765	.09319	-.1181	.00005
323.15	.08904	.09427	-.18159	.00005
308.15	.08952	.09479	-.1349	.00005
318.15	.08952	.09479	-.1609	.00005
313.15	.08952	.09479	-.1448	.00005
298.15	.09229	.09736	-.14275	.00005
288.15	.09319	.09867	-.11589	.00005
303.15	.09319	.09867	-.14259	.00005
293.15	.09319	.09867	-.12515	.00005
323.15	.09427	.09944	-.17992	.00005
318.15	.09479	.09999	-.15802	.00005
313.15	.09479	.09999	-.14225	.00005
308.15	.09479	.09999	-.13299	.00005
298.15	.09736	.10236	-.13775	.00005
293.15	.09867	.10408	-.12258	.00005
288.15	.09867	.10408	-.11369	.00005
303.15	.09867	.10408	-.1394	.00005
323.15	.09944	.10455	-.175	.00005
313.15	.09999	.10512	-.13951	.00005
318.15	.09999	.10512	-.15451	.00005
308.15	.09999	.10512	-.13058	.00005
298.15	.10236	.1073	-.13688	.00005
303.15	.10408	.10943	-.13699	.00005
288.15	.10408	.10943	-.11108	.00005
293.15	.10408	.10943	-.12017	.00005
323.15	.10455	.1096	-.17195	.00005
313.15	.10512	.1102	-.13667	.00005
308.15	.10512	.1102	-.12753	.00005
318.15	.10512	.1102	-.15324	.00005
288.15	.10943	.11471	-.10825	.00005
303.15	.10943	.11471	-.13354	.00005
293.15	.10943	.11471	-.11793	.00005
