Measured thermophysical data. Surface and Micellar Properties of Ionic Liquid 1-Dodecyl-3-methylimidazolium Bromide in Aqueous Solution in the Absence and Presence of a Series of Organic Electrolytes
Source: J. Chem. Eng. Data, 2015, 10.1021/je5010005
Compound 1: 1-dodecyl-3-methylimidazolium bromide, C16H31BrN2, purity 98%
Compound 2: tetramethylammonium bromide, C4H12BrN, purity 99%
Compound 3: tetraethylammonium bromide, C8H20BrN, purity 99%
Compound 4: tetrapropylammonium bromide, C12H28BrN, purity 99%
Compound 5: tetrabutylammonium bromide, C16H36BrN, purity 99%
Compound 6: tetramethylammonium chloride, C4H12ClN, purity 98%
Compound 7: tetramethylammonium iodide, C4H12IN, purity 99%
Compound 8: water, H2O, purity 99.9%

System: tetramethylammonium bromide + water + 1-dodecyl-3-methylimidazolium bromide; phases: Liquid, Air at 1 atmosphere
Property: Surface tension liquid-gas, N/m (Liquid); method: plate method
Solvent: Molality, mol/kg of tetramethylammonium bromide	Temperature, K	Molality, mol/kg of 1-dodecyl-3-methylimidazolium bromide	Surface tension liquid-gas, N/m	uncertainty
.01	298.15	.00183	.045645	.001
.01	298.15	.00302	.042992	.001
.01	298.15	.00389	.040171	.001
.01	298.15	.00423	.038894	.001
.01	298.15	.00432	.038657	.001
.01	298.15	.00491	.03792	.001
.01	298.15	.00513	.037689	.001
.01	298.15	.00558	.037086	.001
.01	298.15	.0058	.036884	.001
.01	298.15	.00595	.036689	.001
.01	298.15	.00646	.036674	.001
.01	298.15	.00663	.037146	.001
.01	298.15	.00708	.037863	.001
.01	298.15	.00758	.037852	.001
.01	298.15	.00877	.037766	.001
.01	298.15	.01037	.03817	.001
.01	298.15	.01379	.038135	.001
.01	298.15	.0173	.038021	.001
.01	308.15	.00183	.04432	.001
.01	308.15	.00302	.041507	.001
.01	308.15	.00389	.039528	.001
.01	308.15	.00423	.037996	.001
.01	308.15	.00432	.0379	.001
.01	308.15	.00491	.037227	.001
.01	308.15	.00513	.036977	.001
.01	308.15	.00558	.03657	.001
.01	308.15	.0058	.036375	.001
.01	308.15	.00595	.036256	.001
.01	308.15	.00646	.036369	.001
.01	308.15	.00663	.03659	.001
.01	308.15	.00708	.037262	.001
.01	308.15	.00758	.037569	.001
.01	308.15	.00877	.037705	.001
.01	308.15	.01037	.037892	.001
.01	308.15	.01379	.037924	.001
.01	308.15	.0173	.037845	.001
.02	298.15	.0012	.044255	.001
.02	298.15	.00155	.043452	.001
.02	298.15	.0018	.042661	.001
.02	298.15	.00247	.041548	.001
.02	298.15	.00304	.040245	.001
.02	298.15	.00328	.039801	.001
.02	298.15	.00439	.038003	.001
.02	298.15	.00458	.037695	.001
.02	298.15	.00548	.036705	.001
.02	298.15	.00613	.036706	.001
.02	298.15	.00671	.037121	.001
.02	298.15	.00747	.037658	.001
.02	298.15	.00891	.037536	.001
.02	298.15	.01129	.037428	.001
.02	298.15	.01517	.037583	.001
.02	298.15	.02137	.037495	.001
.02	308.15	.0012	.043118	.001
.02	308.15	.00155	.042573	.001
.02	308.15	.0018	.041985	.001
.02	308.15	.00247	.040848	.001
.02	308.15	.00304	.039207	.001
.02	308.15	.00328	.038807	.001
.02	308.15	.00439	.037324	.001
.02	308.15	.00458	.037092	.001
.02	308.15	.00548	.036203	.001
.02	308.15	.00613	.036327	.001
.02	308.15	.00671	.036665	.001
.02	308.15	.00747	.037127	.001
.02	308.15	.00891	.037217	.001
.02	308.15	.01129	.03718	.001
.02	308.15	.01517	.037198	.001
.02	308.15	.02137	.037327	.001
.035	298.15	.00059	.047422	.001
.035	298.15	.00113	.045412	.001
.035	298.15	.00141	.043986	.001
.035	298.15	.00159	.041466	.001
.035	298.15	.00184	.039179	.001
.035	298.15	.00212	.038275	.001
.035	298.15	.00243	.037739	.001
.035	298.15	.00256	.037657	.001
.035	298.15	.00288	.037315	.001
.035	298.15	.00315	.036909	.001
.035	298.15	.00353	.036323	.001
.035	298.15	.0037	.03638	.001
.035	298.15	.00391	.036589	.001
.035	298.15	.00429	.036846	.001
.035	298.15	.005	.036962	.001
.035	298.15	.00758	.037158	.001
.035	298.15	.01102	.037047	.001
.035	308.15	.00059	.046617	.001
.035	308.15	.00113	.044813	.001
.035	308.15	.00141	.043007	.001
.035	308.15	.00159	.040789	.001
.035	308.15	.00184	.039107	.001
.035	308.15	.00212	.037908	.001
.035	308.15	.00243	.037128	.001
.035	308.15	.00256	.03692	.001
.035	308.15	.00288	.03645	.001
.035	308.15	.00315	.036115	.001
.035	308.15	.00353	.035677	.001
.035	308.15	.0037	.03577	.001
.035	308.15	.00391	.035995	.001
.035	308.15	.00429	.03634	.001
.035	308.15	.005	.036693	.001
.035	308.15	.00758	.03689	.001
.035	308.15	.01102	.036894	.001

System: tetraethylammonium bromide + water + 1-dodecyl-3-methylimidazolium bromide; phases: Liquid, Air at 1 atmosphere
Property: Surface tension liquid-gas, N/m (Liquid); method: plate method
Solvent: Molality, mol/kg of tetraethylammonium bromide	Temperature, K	Molality, mol/kg of 1-dodecyl-3-methylimidazolium bromide	Surface tension liquid-gas, N/m	uncertainty
.01	298.15	.00139	.046204	.001
.01	298.15	.00208	.044159	.001
.01	298.15	.00303	.042527	.001
.01	298.15	.00356	.040813	.001
.01	298.15	.00448	.038304	.001
.01	298.15	.00476	.037665	.001
.01	298.15	.00503	.036992	.001
.01	298.15	.00544	.035885	.001
.01	298.15	.00571	.035726	.001
.01	298.15	.00581	.036375	.001
.01	298.15	.00595	.03725	.001
.01	298.15	.00608	.037863	.001
.01	298.15	.00706	.037992	.001
.01	298.15	.00805	.038244	.001
.01	298.15	.00933	.038042	.001
.01	308.15	.00139	.045567	.001
.01	308.15	.00208	.043752	.001
.01	308.15	.00303	.041518	.001
.01	308.15	.00356	.040298	.001
.01	308.15	.00448	.037183	.001
.01	308.15	.00476	.036607	.001
.01	308.15	.00503	.035995	.001
.01	308.15	.00544	.035196	.001
.01	308.15	.00571	.035354	.001
.01	308.15	.00581	.03598	.001
.01	308.15	.00595	.036768	.001
.01	308.15	.00608	.037613	.001
.01	308.15	.00706	.03767	.001
.01	308.15	.00805	.03794	.001
.01	308.15	.00933	.037755	.001
.02	298.15	.00063	.049924	.001
.02	298.15	.00124	.04544	.001
.02	298.15	.0018	.044259	.001
.02	298.15	.00225	.042652	.001
.02	298.15	.00306	.041149	.001
.02	298.15	.00378	.038806	.001
.02	298.15	.00394	.037695	.001
.02	298.15	.00416	.036947	.001
.02	298.15	.00451	.035888	.001
.02	298.15	.0048	.035159	.001
.02	298.15	.00498	.035536	.001
.02	298.15	.00552	.036264	.001
.02	298.15	.00593	.037001	.001
.02	298.15	.00743	.037191	.001
.02	298.15	.00922	.037336	.001
.02	298.15	.01248	.037593	.001
.02	308.15	.00063	.047501	.001
.02	308.15	.00124	.044582	.001
.02	308.15	.0018	.043493	.001
.02	308.15	.00225	.041927	.001
.02	308.15	.00306	.040249	.001
.02	308.15	.00378	.037613	.001
.02	308.15	.00394	.036512	.001
.02	308.15	.00416	.035906	.001
.02	308.15	.00451	.035009	.001
.02	308.15	.0048	.034622	.001
.02	308.15	.00498	.035006	.001
.02	308.15	.00552	.035806	.001
.02	308.15	.00593	.03654	.001
.02	308.15	.00743	.03688	.001
.02	308.15	.00922	.037256	.001
.02	308.15	.01248	.037046	.001
.035	298.15	.00059	.04702	.001
.035	298.15	.0012	.044706	.001
.035	298.15	.00147	.043047	.001
.035	298.15	.00183	.041969	.001
.035	298.15	.00242	.040223	.001
.035	298.15	.00267	.038243	.001
.035	298.15	.00285	.037202	.001
.035	298.15	.00309	.0356	.001
.035	298.15	.00317	.034736	.001
.035	298.15	.00347	.034138	.001
.035	298.15	.00352	.034211	.001
.035	298.15	.00382	.034525	.001
.035	298.15	.00422	.035732	.001
.035	298.15	.0045	.036631	.001
.035	298.15	.0051	.036556	.001
.035	298.15	.0075	.036966	.001
.035	298.15	.01023	.037045	.001
.035	308.15	.00059	.046123	.001
.035	308.15	.0012	.0428	.001
.035	308.15	.00147	.041194	.001
.035	308.15	.00183	.039183	.001
.035	308.15	.00242	.037046	.001
.035	308.15	.00267	.036004	.001
.035	308.15	.00285	.035592	.001
.035	308.15	.00309	.0349	.001
.035	308.15	.00317	.03469	.001
.035	308.15	.00347	.03395	.001
.035	308.15	.00352	.034021	.001
.035	308.15	.00382	.034493	.001
.035	308.15	.00422	.03529	.001
.035	308.15	.0045	.03617	.001
.035	308.15	.0051	.036182	.001
.035	308.15	.0075	.03654	.001
.035	308.15	.01023	.036713	.001

System: tetrapropylammonium bromide + water + 1-dodecyl-3-methylimidazolium bromide; phases: Liquid, Air at 1 atmosphere
Property: Surface tension liquid-gas, N/m (Liquid); method: plate method
Solvent: Molality, mol/kg of tetrapropylammonium bromide	Temperature, K	Molality, mol/kg of 1-dodecyl-3-methylimidazolium bromide	Surface tension liquid-gas, N/m	uncertainty
.01	298.15	.00173	.04423	.001
.01	298.15	.00296	.041683	.001
.01	298.15	.00398	.040499	.001
.01	298.15	.0043	.03938	.001
.01	298.15	.00473	.03788	.001
.01	298.15	.00491	.03725	.001
.01	298.15	.00494	.03715	.001
.01	298.15	.00521	.036352	.001
.01	298.15	.00536	.036506	.001
.01	298.15	.00554	.036696	.001
.01	298.15	.00581	.037315	.001
.01	298.15	.00614	.037813	.001
.01	298.15	.007	.037702	.001
.01	298.15	.00751	.037514	.001
.01	298.15	.01022	.037585	.001
.01	308.15	.00173	.04387	.001
.01	308.15	.00296	.04127	.001
.01	308.15	.00398	.039953	.001
.01	308.15	.0043	.0388	.001
.01	308.15	.00473	.037194	.001
.01	308.15	.00491	.0368	.001
.01	308.15	.00494	.03668	.001
.01	308.15	.00521	.036019	.001
.01	308.15	.00536	.03633	.001
.01	308.15	.00554	.03674	.001
.01	308.15	.00581	.037303	.001
.01	308.15	.00614	.037509	.001
.01	308.15	.007	.037473	.001
.01	308.15	.00751	.037299	.001
.01	308.15	.01022	.037411	.001
.02	298.15	.00061	.053867	.001
.02	298.15	.0012	.044038	.001
.02	298.15	.00182	.041601	.001
.02	298.15	.00243	.040956	.001
.02	298.15	.00335	.039601	.001
.02	298.15	.00378	.038294	.001
.02	298.15	.00401	.037626	.001
.02	298.15	.00438	.036532	.001
.02	298.15	.00467	.035987	.001
.02	298.15	.00502	.036645	.001
.02	298.15	.00549	.037591	.001
.02	298.15	.00707	.037569	.001
.02	298.15	.00995	.037764	.001
.02	298.15	.01452	.037578	.001
.02	308.15	.00061	.047462	.001
.02	308.15	.0012	.043781	.001
.02	308.15	.00182	.041555	.001
.02	308.15	.00243	.039902	.001
.02	308.15	.00335	.03865	.001
.02	308.15	.00378	.037307	.001
.02	308.15	.00401	.036709	.001
.02	308.15	.00438	.036098	.001
.02	308.15	.00467	.03565	.001
.02	308.15	.00502	.036181	.001
.02	308.15	.00549	.037026	.001
.02	308.15	.00707	.037434	.001
.02	308.15	.00995	.037635	.001
.02	308.15	.01452	.037334	.001
.035	298.15	.0006	.046714	.001
.035	298.15	.00119	.043023	.001
.035	298.15	.00183	.040227	.001
.035	298.15	.00236	.03887	.001
.035	298.15	.00264	.036514	.001
.035	298.15	.00279	.035455	.001
.035	298.15	.00299	.034586	.001
.035	298.15	.00303	.034441	.001
.035	298.15	.0033	.034094	.001
.035	298.15	.00346	.034194	.001
.035	298.15	.00354	.03417	.001
.035	298.15	.00387	.034603	.001
.035	298.15	.00438	.035495	.001
.035	298.15	.00452	.036076	.001
.035	298.15	.00547	.036586	.001
.035	298.15	.00763	.036489	.001
.035	298.15	.01042	.036932	.001
.035	308.15	.0006	.045841	.001
.035	308.15	.00119	.041768	.001
.035	308.15	.00183	.038683	.001
.035	308.15	.00236	.036849	.001
.035	308.15	.00264	.03558	.001
.035	308.15	.00279	.0349	.001
.035	308.15	.00299	.034162	.001
.035	308.15	.00303	.034058	.001
.035	308.15	.0033	.03379	.001
.035	308.15	.00346	.033933	.001
.035	308.15	.00354	.034045	.001
.035	308.15	.00387	.034465	.001
.035	308.15	.00438	.035067	.001
.035	308.15	.00452	.035341	.001
.035	308.15	.00547	.03612	.001
.035	308.15	.00763	.036039	.001
.035	308.15	.01042	.036582	.001

System: tetrabutylammonium bromide + water + 1-dodecyl-3-methylimidazolium bromide; phases: Liquid, Air at 1 atmosphere
Property: Surface tension liquid-gas, N/m (Liquid); method: plate method
Solvent: Molality, mol/kg of tetrabutylammonium bromide	Temperature, K	Molality, mol/kg of 1-dodecyl-3-methylimidazolium bromide	Surface tension liquid-gas, N/m	uncertainty
.01	298.15	.00193	.042981	.001
.01	298.15	.00296	.041687	.001
.01	298.15	.00393	.040777	.001
.01	298.15	.00423	.039599	.001
.01	298.15	.00444	.039001	.001
.01	298.15	.00453	.038287	.001
.01	298.15	.00476	.036531	.001
.01	298.15	.00486	.035863	.001
.01	298.15	.00497	.035912	.001
.01	298.15	.00518	.036361	.001
.01	298.15	.00535	.036803	.001
.01	298.15	.00545	.037045	.001
.01	298.15	.0057	.037806	.001
.01	298.15	.00629	.037996	.001
.01	298.15	.00711	.038162	.001
.01	298.15	.00829	.038229	.001
.01	298.15	.01031	.037959	.001
.01	308.15	.00193	.04199	.001
.01	308.15	.00296	.041208	.001
.01	308.15	.00393	.040244	.001
.01	308.15	.00423	.038718	.001
.01	308.15	.00444	.037307	.001
.01	308.15	.00453	.0369	.001
.01	308.15	.00476	.035805	.001
.01	308.15	.00486	.035463	.001
.01	308.15	.00497	.035567	.001
.01	308.15	.00518	.035943	.001
.01	308.15	.00535	.036282	.001
.01	308.15	.00545	.036589	.001
.01	308.15	.0057	.037243	.001
.01	308.15	.00629	.037508	.001
.01	308.15	.00711	.037618	.001
.01	308.15	.00829	.037564	.001
.01	308.15	.01031	.037621	.001
.02	298.15	.0006	.043672	.001
.02	298.15	.00121	.042989	.001
.02	298.15	.00178	.042069	.001
.02	298.15	.00238	.041238	.001
.02	298.15	.00325	.040296	.001
.02	298.15	.00386	.038941	.001
.02	298.15	.00423	.037333	.001
.02	298.15	.0044	.036521	.001
.02	298.15	.00456	.035885	.001
.02	298.15	.00483	.036258	.001
.02	298.15	.00498	.036583	.001
.02	298.15	.00522	.037213	.001
.02	298.15	.00705	.03755	.001
.02	298.15	.00967	.037448	.001
.02	298.15	.01469	.037003	.001
.02	308.15	.0006	.042691	.001
.02	308.15	.00121	.041779	.001
.02	308.15	.00178	.041308	.001
.02	308.15	.00238	.040953	.001
.02	308.15	.00325	.039994	.001
.02	308.15	.00386	.038032	.001
.02	308.15	.00423	.03689	.001
.02	308.15	.0044	.036293	.001
.02	308.15	.00456	.03596	.001
.02	308.15	.00483	.036	.001
.02	308.15	.00498	.036235	.001
.02	308.15	.00522	.036777	.001
.02	308.15	.00705	.037023	.001
.02	308.15	.00967	.037148	.001
.02	308.15	.01469	.036962	.001
.035	298.15	.00072	.045272	.001
.035	298.15	.0012	.043099	.001
.035	298.15	.0018	.040986	.001
.035	298.15	.00209	.038709	.001
.035	298.15	.00241	.036729	.001
.035	298.15	.00253	.03605	.001
.035	298.15	.00272	.035942	.001
.035	298.15	.00293	.035621	.001
.035	298.15	.00329	.035704	.001
.035	298.15	.0034	.035881	.001
.035	298.15	.00365	.035998	.001
.035	298.15	.0039	.036526	.001
.035	298.15	.00411	.036509	.001
.035	298.15	.00444	.036568	.001
.035	298.15	.00518	.036598	.001
.035	298.15	.00748	.03687	.001
.035	298.15	.0102	.036873	.001
.035	308.15	.00072	.04345	.001
.035	308.15	.0012	.041997	.001
.035	308.15	.0018	.039499	.001
.035	308.15	.00209	.037653	.001
.035	308.15	.00241	.036016	.001
.035	308.15	.00253	.03544	.001
.035	308.15	.00272	.035024	.001
.035	308.15	.00293	.03494	.001
.035	308.15	.00329	.035076	.001
.035	308.15	.0034	.035157	.001
.035	308.15	.00365	.035469	.001
.035	308.15	.0039	.035596	.001
.035	308.15	.00411	.035666	.001
.035	308.15	.00444	.036052	.001
.035	308.15	.00518	.036403	.001
.035	308.15	.00748	.03679	.001
.035	308.15	.0102	.036746	.001

System: tetramethylammonium chloride + water + 1-dodecyl-3-methylimidazolium bromide; phases: Liquid, Air at 1 atmosphere
Property: Surface tension liquid-gas, N/m (Liquid); method: plate method
Solvent: Molality, mol/kg of tetramethylammonium chloride	Temperature, K	Molality, mol/kg of 1-dodecyl-3-methylimidazolium bromide	Surface tension liquid-gas, N/m	uncertainty
.01	298.15	.00302	.047685	.001
.01	298.15	.00402	.04485	.001
.01	298.15	.00456	.043435	.001
.01	298.15	.00515	.0415	.001
.01	298.15	.0053	.040912	.001
.01	298.15	.00605	.039717	.001
.01	298.15	.00635	.03929	.001
.01	298.15	.00652	.038977	.001
.01	298.15	.00699	.038261	.001
.01	298.15	.00733	.038409	.001
.01	298.15	.00743	.038701	.001
.01	298.15	.00763	.039004	.001
.01	298.15	.00848	.0393	.001
.01	298.15	.01081	.038542	.001
.01	298.15	.01281	.038331	.001
.01	308.15	.00302	.046098	.001
.01	308.15	.00402	.043336	.001
.01	308.15	.00456	.042345	.001
.01	308.15	.00515	.0403	.001
.01	308.15	.0053	.039965	.001
.01	308.15	.00605	.039006	.001
.01	308.15	.00635	.038654	.001
.01	308.15	.00652	.038524	.001
.01	308.15	.00699	.038195	.001
.01	308.15	.00733	.038205	.001
.01	308.15	.00743	.038327	.001
.01	308.15	.00763	.038993	.001
.01	308.15	.00848	.039147	.001
.01	308.15	.01081	.038367	.001
.01	308.15	.01281	.038052	.001
.02	298.15	.00197	.047642	.001
.02	298.15	.00294	.046273	.001
.02	298.15	.0036	.044963	.001
.02	298.15	.00393	.043482	.001
.02	298.15	.0045	.041687	.001
.02	298.15	.00465	.041432	.001
.02	298.15	.00524	.040501	.001
.02	298.15	.00556	.039953	.001
.02	298.15	.00594	.039372	.001
.02	298.15	.00643	.039154	.001
.02	298.15	.00695	.039442	.001
.02	298.15	.00749	.04	.001
.02	298.15	.01017	.039984	.001
.02	298.15	.01353	.03974	.001
.02	308.15	.00197	.046551	.001
.02	308.15	.00294	.045531	.001
.02	308.15	.0036	.04389	.001
.02	308.15	.00393	.043007	.001
.02	308.15	.0045	.041571	.001
.02	308.15	.00465	.041027	.001
.02	308.15	.00524	.039785	.001
.02	308.15	.00556	.039199	.001
.02	308.15	.00594	.0389	.001
.02	308.15	.00643	.038669	.001
.02	308.15	.00695	.039078	.001
.02	308.15	.00749	.039527	.001
.02	308.15	.01017	.039549	.001
.02	308.15	.01353	.039362	.001
.035	298.15	.00053	.052121	.001
.035	298.15	.00117	.050272	.001
.035	298.15	.00184	.049502	.001
.035	298.15	.00245	.047208	.001
.035	298.15	.00279	.045258	.001
.035	298.15	.00319	.042842	.001
.035	298.15	.0039	.040873	.001
.035	298.15	.00455	.039658	.001
.035	298.15	.00483	.03882	.001
.035	298.15	.00523	.038092	.001
.035	298.15	.00595	.036887	.001
.035	298.15	.00662	.037115	.001
.035	298.15	.00742	.037989	.001
.035	298.15	.00824	.038999	.001
.035	298.15	.00945	.039201	.001
.035	298.15	.01403	.03905	.001
.035	298.15	.01598	.038944	.001
.035	308.15	.00053	.051544	.001
.035	308.15	.00117	.049337	.001
.035	308.15	.00184	.0481	.001
.035	308.15	.00245	.046166	.001
.035	308.15	.00279	.043989	.001
.035	308.15	.00319	.041115	.001
.035	308.15	.0039	.039603	.001
.035	308.15	.00455	.038352	.001
.035	308.15	.00483	.037666	.001
.035	308.15	.00523	.036907	.001
.035	308.15	.00595	.036247	.001
.035	308.15	.00662	.036998	.001
.035	308.15	.00742	.037637	.001
.035	308.15	.00824	.038633	.001
.035	308.15	.00945	.038907	.001
.035	308.15	.01403	.038748	.001
.035	308.15	.01598	.038701	.001

System: tetramethylammonium iodide + water + 1-dodecyl-3-methylimidazolium bromide; phases: Liquid, Air at 1 atmosphere
Property: Surface tension liquid-gas, N/m (Liquid); method: plate method
Solvent: Molality, mol/kg of tetramethylammonium iodide	Temperature, K	Molality, mol/kg of 1-dodecyl-3-methylimidazolium bromide	Surface tension liquid-gas, N/m	uncertainty
.01	298.15	.00058	.036968	.001
.01	298.15	.00081	.035384	.001
.01	298.15	.0012	.033022	.001
.01	298.15	.00147	.03219	.001
.01	298.15	.00179	.031494	.001
.01	298.15	.00209	.030845	.001
.01	298.15	.00233	.030526	.001
.01	298.15	.0026	.03074	.001
.01	298.15	.00298	.03128	.001
.01	298.15	.00341	.031842	.001
.01	298.15	.00387	.032011	.001
.01	298.15	.00455	.032015	.001
.01	298.15	.00514	.032108	.001
.01	298.15	.0055	.032051	.001
.01	298.15	.0076	.032044	.001
.01	308.15	.00058	.037076	.001
.01	308.15	.00081	.034876	.001
.01	308.15	.0012	.033173	.001
.01	308.15	.00147	.03145	.001
.01	308.15	.00179	.030993	.001
.01	308.15	.00209	.030545	.001
.01	308.15	.00233	.030231	.001
.01	308.15	.0026	.030523	.001
.01	308.15	.00298	.031063	.001
.01	308.15	.00341	.031757	.001
.01	308.15	.00387	.03192	.001
.01	308.15	.00455	.031984	.001
.01	308.15	.00514	.032	.001
.01	308.15	.0055	.032035	.001
.01	308.15	.0076	.032003	.001
.02	298.15	.00038	.037734	.001
.02	298.15	.0006	.036073	.001
.02	298.15	.00096	.034	.001
.02	298.15	.00107	.032847	.001
.02	298.15	.00121	.031755	.001
.02	298.15	.00146	.031121	.001
.02	298.15	.00162	.030815	.001
.02	298.15	.00178	.030572	.001
.02	298.15	.00201	.030704	.001
.02	298.15	.00242	.030876	.001
.02	298.15	.00322	.031328	.001
.02	298.15	.00391	.031497	.001
.02	298.15	.00444	.031475	.001
.02	298.15	.0048	.031504	.001
.02	298.15	.00533	.031549	.001
.02	298.15	.00741	.031513	.001
.02	298.15	.00966	.031567	.001
.02	308.15	.00038	.037218	.001
.02	308.15	.0006	.036521	.001
.02	308.15	.00096	.032907	.001
.02	308.15	.00107	.032458	.001
.02	308.15	.00121	.03199	.001
.02	308.15	.00146	.030662	.001
.02	308.15	.00162	.030347	.001
.02	308.15	.00178	.030202	.001
.02	308.15	.00201	.03023	.001
.02	308.15	.00242	.030523	.001
.02	308.15	.00322	.030966	.001
.02	308.15	.00391	.031099	.001
.02	308.15	.00444	.031192	.001
.02	308.15	.0048	.031237	.001
.02	308.15	.00533	.031337	.001
.02	308.15	.00741	.031402	.001
.02	308.15	.00966	.03145	.001
.035	298.15	.00031	.035828	.001
.035	298.15	.00045	.032902	.001
.035	298.15	.00067	.031795	.001
.035	298.15	.00075	.031002	.001
.035	298.15	.00093	.030295	.001
.035	298.15	.0012	.03003	.001
.035	298.15	.00131	.0299	.001
.035	298.15	.00153	.029748	.001
.035	298.15	.00169	.029933	.001
.035	298.15	.00187	.030224	.001
.035	298.15	.00212	.030536	.001
.035	298.15	.00272	.030804	.001
.035	298.15	.003	.030884	.001
.035	298.15	.00328	.030969	.001
.035	298.15	.00345	.031077	.001
.035	298.15	.00495	.031262	.001
.035	298.15	.00748	.031215	.001
.035	298.15	.0105	.031233	.001
.035	308.15	.00031	.035034	.001
.035	308.15	.00045	.032378	.001
.035	308.15	.00067	.030567	.001
.035	308.15	.00075	.030123	.001
.035	308.15	.00093	.029758	.001
.035	308.15	.0012	.029308	.001
.035	308.15	.00131	.02913	.001
.035	308.15	.00153	.02907	.001
.035	308.15	.00169	.02929	.001
.035	308.15	.00187	.02947	.001
.035	308.15	.00212	.029801	.001
.035	308.15	.00272	.030478	.001
.035	308.15	.003	.030657	.001
.035	308.15	.00328	.030879	.001
.035	308.15	.00345	.030972	.001
.035	308.15	.00495	.0312	.001
.035	308.15	.00748	.0313	.001
.035	308.15	.0105	.03138	.001

System: water + 1-dodecyl-3-methylimidazolium bromide; phases: Liquid, Air at 1 atmosphere
Property: Surface tension liquid-gas, N/m (Liquid); method: plate method
Temperature, K	Molality, mol/kg of 1-dodecyl-3-methylimidazolium bromide	Surface tension liquid-gas, N/m	uncertainty
298.15	.00056	.061126	.001
298.15	.00127	.059258	.001
298.15	.00272	.053769	.001
298.15	.00431	.04875	.001
298.15	.00538	.045875	.001
298.15	.00658	.043437	.001
298.15	.00743	.041201	.001
298.15	.00749	.040937	.001
298.15	.00856	.038827	.001
298.15	.00882	.0388	.001
298.15	.01035	.038482	.001
298.15	.01463	.038488	.001
298.15	.02015	.038462	.001
308.15	.00056	.059884	.001
308.15	.00127	.057723	.001
308.15	.00272	.052443	.001
308.15	.00431	.047506	.001
308.15	.00538	.044872	.001
308.15	.00658	.04234	.001
308.15	.00743	.040273	.001
308.15	.00749	.039718	.001
308.15	.00856	.038162	.001
308.15	.00882	.038163	.001
308.15	.01035	.037911	.001
308.15	.01463	.037915	.001
308.15	.02015	.0379	.001
