Measured thermophysical data. Determination and Correlation of Solubilities of Lauric Acid in Eight Alcohols
Source: J. Chem. Eng. Data, 2014, 10.1021/je500222s
Compound 1: lauric acid, C12H24O2, purity 98%
Compound 2: methanol, CH4O, purity 99.5%
Compound 3: ethanol, C2H6O, purity 99.5%
Compound 4: n-propanol, C3H8O, purity 99.5%
Compound 5: n-butanol, C4H10O, purity 99.5%
Compound 6: n-pentyl alcohol, C5H12O, purity 99.5%
Compound 7: n-hexanol, C6H14O, purity 99.5%
Compound 8: isobutanol, C4H10O, purity 99.5%
Compound 9: isoamyl alcohol, C5H12O, purity 99.5%

System: methanol + lauric acid; phases: Liquid, Crystal
Fixed: Pressure, kPa = 100
Property: Mole fraction of lauric acid (Liquid); method: laser beam
Temperature, K	Mole fraction of lauric acid	uncertainty
276.17	.0318	.000636
279.16	.0419	.000838
282.16	.0555	.00111
285.15	.0723	.001446
288.15	.0942	.001884
291.14	.1231	.002462
294.14	.1607	.003214
297.13	.2077	.004154
300.13	.2643	.005286
303.12	.3411	.006822
306.12	.4328	.008656

System: ethanol + lauric acid; phases: Liquid, Crystal
Fixed: Pressure, kPa = 100
Property: Mole fraction of lauric acid (Liquid); method: laser beam
Temperature, K	Mole fraction of lauric acid	uncertainty
276.17	.0422	.000844
279.16	.0554	.001108
282.16	.0739	.001478
285.15	.0924	.001848
288.15	.1186	.002372
291.14	.1508	.003016
294.14	.1938	.003876
297.13	.2436	.004872
300.13	.3053	.006106
303.12	.3857	.007714
306.12	.4825	.00965

System: n-propanol + lauric acid; phases: Liquid, Crystal
Fixed: Pressure, kPa = 100
Property: Mole fraction of lauric acid (Liquid); method: laser beam
Temperature, K	Mole fraction of lauric acid	uncertainty
276.17	.054	.00108
279.16	.0685	.00137
282.16	.0859	.001718
285.15	.1083	.002166
288.15	.1352	.002704
291.14	.1685	.00337
294.14	.2103	.004206
297.13	.2611	.005222
300.13	.3189	.006378
303.12	.3992	.007984
306.12	.4882	.009764

System: n-butanol + lauric acid; phases: Liquid, Crystal
Fixed: Pressure, kPa = 100
Property: Mole fraction of lauric acid (Liquid); method: laser beam
Temperature, K	Mole fraction of lauric acid	uncertainty
276.17	.0646	.001292
279.16	.0801	.001602
282.16	.0999	.001998
285.15	.123	.00246
288.15	.1509	.003018
291.14	.1882	.003764
294.14	.2293	.004586
297.13	.2833	.005666
300.13	.3377	.006754
303.12	.4179	.008358
306.12	.5101	.010202

System: n-pentyl alcohol + lauric acid; phases: Liquid, Crystal
Fixed: Pressure, kPa = 100
Property: Mole fraction of lauric acid (Liquid); method: laser beam
Temperature, K	Mole fraction of lauric acid	uncertainty
276.17	.0742	.001484
279.16	.0907	.001814
282.16	.1126	.002252
285.15	.1372	.002744
288.15	.1668	.003336
291.14	.2037	.004074
294.14	.2467	.004934
297.13	.3015	.00603
300.13	.3685	.00737
303.12	.4354	.008708
306.12	.5298	.010596

System: n-hexanol + lauric acid; phases: Liquid, Crystal
Fixed: Pressure, kPa = 100
Property: Mole fraction of lauric acid (Liquid); method: laser beam
Temperature, K	Mole fraction of lauric acid	uncertainty
276.17	.0827	.001654
279.16	.0991	.001982
282.16	.1219	.002438
285.15	.1513	.003026
288.15	.1834	.003668
291.14	.2198	.004396
294.14	.2655	.00531
297.13	.3222	.006444
300.13	.3898	.007796
303.12	.4639	.009278
306.12	.5495	.01099

System: isobutanol + lauric acid; phases: Liquid, Crystal
Fixed: Pressure, kPa = 100
Property: Mole fraction of lauric acid (Liquid); method: laser beam
Temperature, K	Mole fraction of lauric acid	uncertainty
276.17	.0659	.001318
279.16	.0817	.001634
282.16	.1021	.002042
285.15	.1277	.002554
288.15	.1576	.003152
291.14	.1945	.00389
294.14	.238	.00476
297.13	.2889	.005778
300.13	.3514	.007028
303.12	.4224	.008448
306.12	.5138	.010276

System: isoamyl alcohol + lauric acid; phases: Liquid, Crystal
Fixed: Pressure, kPa = 100
Property: Mole fraction of lauric acid (Liquid); method: laser beam
Temperature, K	Mole fraction of lauric acid	uncertainty
276.17	.0814	.001628
279.16	.1001	.002002
282.16	.1218	.002436
285.15	.1497	.002994
288.15	.1788	.003576
291.14	.2168	.004336
294.14	.2625	.00525
297.13	.3147	.006294
300.13	.3764	.007528
303.12	.4463	.008926
306.12	.5371	.010742
