Measured thermophysical data. Experimental Measurement and Modeling of Solubility Data for 2,3-Dichloronitrobenzene in Methanol, Ethanol, and Liquid Mixtures (Methanol + Water, Ethanol + Water)
Source: J. Chem. Eng. Data, 2014, 10.1021/je500494d
Compound 1: 2,3-dichloronitrobenzene, C6H3Cl2NO2, purity 98.5%
Compound 2: methanol, CH4O, purity 99.5%
Compound 3: ethanol, C2H6O, purity 99.5%
Compound 4: water, H2O, purity 99.9%

System: methanol + 2,3-dichloronitrobenzene + water; phases: Liquid, Crystal
Fixed: Pressure, kPa = 101
Property: Mole fraction of 2,3-dichloronitrobenzene (Liquid); method: gravimetric method
Solvent: Mass fraction of methanol	Temperature, K	Mole fraction of 2,3-dichloronitrobenzene	uncertainty
1	278.15	.01221	.00025641
1	280.65	.01373	.00028833
1	283.15	.01569	.00032949
1	285.65	.01818	.00038178
1	288.15	.02062	.00043302
1	290.65	.02319	.00048699
1	293.15	.02581	.00054201
1	295.65	.02875	.00060375
1	298.15	.03152	.00066192
1	300.65	.03434	.00072114
1	303.15	.03755	.00078855
.8767	278.15	.004393	.000092253
.8767	280.65	.004743	.000099603
.8767	283.15	.005377	.000112917
.8767	285.65	.006011	.000126231
.8767	288.15	.006863	.000144123
.8767	290.65	.007388	.000155148
.8767	293.15	.00835	.00017535
.8767	295.65	.009705	.000203805
.8767	298.15	.010864	.000228144
.8767	300.65	.012131	.000254751
.8767	303.15	.013945	.000292845
.7595	278.15	.001853	.000038913
.7595	280.65	.002092	.000043932
.7595	283.15	.002456	.000051576
.7595	285.65	.002921	.000061341
.7595	288.15	.003518	.000073878
.7595	290.65	.004217	.000088557
.7595	293.15	.004973	.000104433
.7595	295.65	.005699	.000119679
.7595	298.15	.006536	.000137256
.7595	300.65	.007635	.000160335
.7595	303.15	.008814	.000185094
.6483	278.15	.0009091	.0000190911
.6483	280.65	.001043	.000021903
.6483	283.15	.001206	.000025326
.6483	285.65	.001389	.000029169
.6483	288.15	.001593	.000033453
.6483	290.65	.001947	.000040887
.6483	293.15	.002284	.000047964
.6483	295.65	.00264	.00005544
.6483	298.15	.003091	.000064911
.6483	300.65	.003504	.000073584
.6483	303.15	.004075	.000085575
.5423	278.15	.0003932	.0000082572
.5423	280.65	.0004341	.0000091161
.5423	283.15	.0005331	.0000111951
.5423	285.65	.0006324	.0000132804
.5423	288.15	.0007282	.0000152922
.5423	290.65	.0009467	.0000198807
.5423	293.15	.001102	.000023142
.5423	295.65	.001321	.000027741
.5423	298.15	.001525	.000032025
.5423	300.65	.001734	.000036414
.5423	303.15	.002036	.000042756
.4413	278.15	.0001573	.0000033033
.4413	280.65	.0001937	.0000040677
.4413	283.15	.0002419	.0000050799
.4413	285.65	.0003104	.0000065184
.4413	288.15	.0003892	.0000081732
.4413	290.65	.0004847	.0000101787
.4413	293.15	.0005699	.0000119679
.4413	295.65	.0006704	.0000140784
.4413	298.15	.0007701	.0000161721
.4413	300.65	.000868	.000018228
.4413	303.15	.0009642	.0000202482
.2604	278.15	.000003427	.000000071967
.2604	280.65	.000004105	.000000086205
.2604	283.15	.000005374	.000000112854
.2604	285.65	.000007133	.000000149793
.2604	288.15	.000009267	.000000194607
.2604	290.65	.00001152	.00000024192
.2604	293.15	.00001463	.00000030723
.2604	295.65	.00001688	.00000035448
.2604	298.15	.00002126	.00000044646
.2604	300.65	.00002487	.00000052227
.2604	303.15	.00002895	.00000060795
0	278.15	.000001598	.000000033558
0	280.65	.000002025	.000000042525
0	283.15	.000002451	.000000051471
0	285.65	.000002877	.000000060417
0	288.15	.000003907	.000000082047
0	290.65	.000004848	.000000101808
0	293.15	.000005855	.000000122955
0	295.65	.00000698	.00000014658
0	298.15	.000008684	.000000182364
0	300.65	.000010656	.000000223776
0	303.15	.000012876	.000000270396

System: ethanol + 2,3-dichloronitrobenzene + water; phases: Liquid, Crystal
Fixed: Pressure, kPa = 101
Property: Mole fraction of 2,3-dichloronitrobenzene (Liquid); method: gravimetric method
Temperature, K	Solvent: Mass fraction of ethanol	Mole fraction of 2,3-dichloronitrobenzene	uncertainty
278.15	1	.013	.000273
280.65	1	.01489	.00031269
283.15	1	.01724	.00036204
285.65	1	.02029	.00042609
288.15	1	.02314	.00048594
290.65	1	.0257	.0005397
293.15	1	.02861	.00060081
295.65	1	.0322	.0006762
298.15	1	.0366	.0007686
300.65	1	.0418	.0008778
303.15	1	.0465	.0009765
278.15	.8767	.004754	.000099834
280.65	.8767	.00541	.00011361
283.15	.8767	.006202	.000130242
285.65	.8767	.007131	.000149751
288.15	.8767	.008579	.000180159
290.65	.8767	.009372	.000196812
293.15	.8767	.01082	.00022722
295.65	.8767	.01227	.00025767
298.15	.8767	.01306	.00027426
300.65	.8767	.01492	.00031332
303.15	.8767	.01623	.00034083
278.15	.7595	.00197	.00004137
280.65	.7595	.002193	.000046053
283.15	.7595	.002591	.000054411
285.65	.7595	.003089	.000064869
288.15	.7595	.003747	.000078687
290.65	.7595	.004572	.000096012
293.15	.7595	.005391	.000113211
295.65	.7595	.006195	.000130095
298.15	.7595	.007324	.000153804
300.65	.7595	.008097	.000170037
303.15	.7595	.009415	.000197715
278.15	.6483	.0009633	.0000202293
280.65	.6483	.001106	.000023226
283.15	.6483	.001281	.000026901
285.65	.6483	.001476	.000030996
288.15	.6483	.001681	.000035301
290.65	.6483	.002024	.000042504
293.15	.6483	.002383	.000050043
295.65	.6483	.002715	.000057015
298.15	.6483	.003192	.000067032
300.65	.6483	.00364	.00007644
303.15	.6483	.004212	.000088452
278.15	.5423	.0004169	.0000087549
280.65	.5423	.0004603	.0000096663
283.15	.5423	.0005576	.0000117096
285.65	.5423	.0006499	.0000136479
288.15	.5423	.0007759	.0000162939
290.65	.5423	.0009747	.0000204687
293.15	.5423	.0011356	.0000238476
295.65	.5423	.0013479	.0000283059
298.15	.5423	.0015436	.0000324156
300.65	.5423	.0017718	.0000372078
303.15	.5423	.0020691	.0000434511
278.15	.4413	.0001622	.0000034062
280.65	.4413	.0002039	.0000042819
283.15	.4413	.000253	.000005313
285.65	.4413	.0003225	.0000067725
288.15	.4413	.0004059	.0000085239
290.65	.4413	.0004967	.0000104307
293.15	.4413	.0005838	.0000122598
295.65	.4413	.0006811	.0000143031
298.15	.4413	.0007794	.0000163674
300.65	.4413	.0008869	.0000186249
303.15	.4413	.001006	.000021126
278.15	.2604	.000003864	.000000081144
280.65	.2604	.000004768	.000000100128
283.15	.2604	.000006144	.000000129024
285.65	.2604	.000007792	.000000163632
288.15	.2604	.000009937	.000000208677
290.65	.2604	.00001218	.00000025578
293.15	.2604	.00001519	.00000031899
295.65	.2604	.00001853	.00000038913
298.15	.2604	.00002247	.00000047187
300.65	.2604	.00002684	.00000056364
303.15	.2604	.00003151	.00000066171
278.15	0	.000001598	.000000033558
280.65	0	.000002025	.000000042525
283.15	0	.000002451	.000000051471
285.65	0	.000002877	.000000060417
288.15	0	.000003907	.000000082047
290.65	0	.000004848	.000000101808
293.15	0	.000005855	.000000122955
295.65	0	.00000698	.00000014658
298.15	0	.000008684	.000000182364
300.65	0	.000010656	.000000223776
303.15	0	.000012876	.000000270396
