Measured thermophysical data. Vapor Liquid Equilibrium Measurements and Thermodynamic Modeling of the System (Methane + Cyclohexane + Ethanol)
Source: J. Chem. Eng. Data, 2015, 10.1021/je5010388
Compound 1: methane, CH4, purity 99.97%
Compound 2: ethanol, C2H6O, purity 99%
Compound 3: cyclohexane, C6H12, purity 99%

System: methane + cyclohexane; phases: Liquid, Gas
Property: Vapor or sublimation pressure, kPa (Liquid); method: Closed cell (Static) method
Mole fraction of methane	Temperature, K	Vapor or sublimation pressure, kPa	uncertainty
.075	293.15	2120	20
.131	293.15	4090	20
.191	293.15	6230	20
.24	293.15	8030	20
.295	293.15	10070	20
.35	293.15	12150	20
.059	313.15	2020	20
.12	313.15	4090	20
.176	313.15	6060	20
.23	313.15	8010	20
.283	313.15	10030	20
.335	313.15	12080	20
.061	323.2	2060	20
.119	323.2	4080	20
.172	323.2	6030	20
.223	323.2	8010	20
.271	323.2	9970	20
.319	323.2	12090	20

System: methane + cyclohexane; phases: Gas, Liquid
Property: Mole fraction of methane (Gas); method: Chromatography
Mole fraction of methane	Temperature, K	Mole fraction of methane	uncertainty
.075	293.15	.991	.002
.131	293.15	.993	.002
.191	293.15	.994	.002
.24	293.15	.993	.002
.295	293.15	.991	.002
.35	293.15	.99	.002
.059	313.15	.983	.002
.12	313.15	.987	.002
.176	313.15	.988	.002
.23	313.15	.987	.002
.283	313.15	.985	.002
.335	313.15	.983	.002
.061	323.2	.976	.002
.119	323.2	.977	.002
.172	323.2	.979	.002
.223	323.2	.979	.002
.271	323.2	.978	.002
.319	323.2	.975	.002

System: ethanol + methane; phases: Liquid, Gas
Property: Vapor or sublimation pressure, kPa (Liquid); method: Closed cell (Static) method
Mole fraction of methane	Temperature, K	Vapor or sublimation pressure, kPa	uncertainty
.031	280.15	2540	20
.045	280.15	3610	20
.063	280.15	5090	20
.075	280.15	6120	20
.1	280.15	8470	20
.114	280.15	10030	20
.027	313.4	2390	20
.046	313.4	4020	20
.061	313.4	5480	20
.072	313.4	6510	20
.092	313.4	8430	20
.109	313.4	10310	20
.124	313.4	11890	20
.023	333.4	2100	20
.044	333.4	4090	20
.063	333.4	6040	20
.091	333.4	8890	20
.102	333.4	10080	20
.12	333.4	12100	20

System: ethanol + methane; phases: Gas, Liquid
Property: Mole fraction of methane (Gas); method: Chromatography
Mole fraction of methane	Temperature, K	Mole fraction of methane	uncertainty
.031	280.15	.995	.002
.045	280.15	.995	.002
.063	280.15	.995	.002
.075	280.15	.996	.002
.1	280.15	.996	.002
.114	280.15	.996	.002
.027	313.4	.991	.002
.046	313.4	.993	.002
.061	313.4	.994	.002
.072	313.4	.995	.002
.092	313.4	.995	.002
.109	313.4	.995	.002
.124	313.4	.995	.002
.023	333.4	.973	.002
.044	333.4	.982	.002
.063	333.4	.985	.002
.091	333.4	.989	.002
.102	333.4	.989	.002
.12	333.4	.989	.002

System: ethanol + methane + cyclohexane; phases: Liquid, Gas
Property: Mole fraction of cyclohexane (Liquid); method: Chromatography
Property: Mole fraction of methane (Gas); method: Chromatography
Property: Mole fraction of cyclohexane (Gas); method: Chromatography
Temperature, K	Pressure, kPa	Mole fraction of methane	Mole fraction of cyclohexane	uncertainty	Mole fraction of methane	uncertainty	Mole fraction of cyclohexane	uncertainty
291.15	2970	.089	.753	.002	.993	.002	.005	.002
303.15	12030	.299	.468	.002	.992	.002	.007	.002
318.15	2990	.067	.635	.002	.976	.002	.011	.002
303.15	12120	.325	.544	.002	.989	.002	.009	.002
318.15	5010	.112	.603	.002	.984	.002	.01	.002
318.15	7090	.16	.571	.002	.986	.002	.009	.002
318.15	9040	.2	.542	.002	.987	.002	.009	.002
291.15	7060	.205	.655	.002	.995	.002	.004	.002
318.15	12060	.279	.487	.002	.987	.002	.01	.002
291.15	9080	.254	.609	.002	.995	.002	.004	.002
291.15	12030	.34	.539	.002	.994	.002	.005	.002
291.15	7010	.187	.551	.002	.996	.002	.003	.002
303.15	2990	.086	.754	.002	.987	.002	.01	.002
303.15	5000	.141	.706	.002	.99	.002	.008	.002
303.15	6980	.19	.659	.002	.991	.002	.007	.002
318.15	3040	.074	.764	.002	.978	.002	.014	.002
303.15	9030	.241	.612	.002	.991	.002	.008	.002
318.15	5180	.136	.71	.002	.981	.002	.014	.002
318.15	7060	.188	.668	.002	.983	.002	.013	.002
318.15	8990	.232	.629	.002	.984	.002	.012	.002
318.15	11960	.319	.556	.002	.984	.002	.013	.002
291.15	3020	.076	.628	.002	.993	.002	.004	.002
291.15	9150	.245	.511	.002	.996	.002	.003	.002
291.15	5050	.132	.588	.002	.996	.002	.003	.002
291.15	5020	.144	.703	.002	.995	.002	.004	.002
291.15	11990	.316	.46	.002	.995	.002	.004	.002
303.15	2910	.074	.631	.002	.988	.002	.008	.002
303.15	5110	.127	.589	.002	.992	.002	.006	.002
303.15	6920	.172	.556	.002	.993	.002	.005	.002
303.15	9040	.224	.518	.002	.993	.002	.006	.002
