Measured thermophysical data. The speed of sound in (carbon dioxide + propane) and derived sound speed of pure carbon dioxide at temperatures between (248 and 373) K and at pressures up to 200 MPa
Source: J. Chem. Eng. Data, 2014, 10.1021/je5007407
Compound 1: carbon dioxide, CO2, purity 99.995%
Compound 2: propane, C3H8, purity 99.9%

System: propane + carbon dioxide; phases: Gas
Fixed: Frequency, MHz = 2
Property: Speed of sound, m/s (Gas); method: Pulse-echo method
Mole fraction of carbon dioxide	Temperature, K	Pressure, kPa	Speed of sound, m/s	uncertainty
.93757	248.88	8270	799.4	.27979
.93757	248.88	15030	855.4	.29939
.93757	248.88	25030	924.8	.32368
.93757	248.88	49910	1056.8	.36988
.93757	248.88	75000	1159.3	.405755
.93757	248.88	100010	1246.2	.43617
.93757	248.88	125000	1320.1	.462035
.93757	248.88	149990	1385.8	.48503
.93757	248.88	174980	1447.1	.506485
.93757	248.88	8270	799.4	.27979
.93757	298.18	8210	388.5	.135975
.93757	298.18	15120	538.7	.188545
.93757	298.18	24990	659	.23065
.93757	298.18	49980	846.6	.29631
.93757	298.18	75090	975.1	.341285
.93757	298.18	100010	1076.7	.376845
.93757	298.18	125020	1162.3	.406805
.93757	298.18	149960	1236.7	.432845
.93757	298.18	175000	1302.7	.455945
.93757	298.18	200100	1364.5	.477575
.93757	298.18	15120	538.6	.18851
.93757	348.18	25050	446.8	.15638
.93757	348.18	50050	682.3	.238805
.93757	348.18	75100	830.6	.29071
.93757	348.18	100100	943.7	.330295
.93757	348.18	125020	1037.1	.362985
.93757	348.18	149940	1117.7	.391195
.93757	348.18	174970	1189.8	.41643
.93757	348.18	200000	1254.3	.439005
.93757	348.18	25040	446.6	.15631
.93757	273.25	8180	614.8	.21518
.93757	273.25	15190	699.7	.244895
.93757	273.25	24920	787.4	.27559
.93757	273.25	50000	946.5	.331275
.93757	273.25	75020	1062.2	.37177
.93757	273.25	100040	1155.2	.40432
.93757	273.25	125010	1236.3	.432705
.93757	273.25	150000	1305.4	.45689
.93757	273.25	175050	1369.6	.47936
.93757	273.25	200000	1428.5	.499975
.93757	273.25	8170	614.5	.215075
.93757	323.19	15160	381.4	.13349
.93757	323.19	25000	541.2	.18942
.93757	323.19	50090	758.5	.265475
.93757	323.19	75070	897.6	.31416
.93757	323.19	100040	1005.2	.35182
.93757	323.19	125050	1095.7	.383495
.93757	323.19	150020	1173.9	.410865
.93757	323.19	175000	1243.4	.43519
.93757	323.19	200420	1307.5	.457625
.93757	323.19	15120	381.2	.13342
.93757	373.12	25060	385	.13475
.93757	373.12	49890	618.8	.21658
.93757	373.12	75090	772.6	.27041
.93757	373.12	100000	889.4	.31129
.93757	373.12	124970	985.6	.34496
.93757	373.12	149930	1069	.37415
.93757	373.12	174970	1141.6	.39956
.93757	373.12	200030	1208.7	.423045
.93757	373.12	25050	384.7	.134645
.96828	249.03	7920	797.2	.27902
.96828	249.03	14790	852.8	.29848
.96828	249.03	25010	922.3	.322805
.96828	249.03	49980	1052.6	.36841
.96828	249.03	75760	1155.3	.404355
.96828	249.03	100410	1239.6	.43386
.96828	249.03	125280	1312.1	.459235
.96828	249.03	150010	1377.4	.48209
.96828	249.03	7920	796.4	.27874
.96828	298.14	14960	532.2	.18627
.96828	298.14	24980	654.5	.229075
.96828	298.14	50050	841.6	.29456
.96828	298.14	74950	969	.33915
.96828	298.14	100060	1070	.3745
.96828	298.14	125000	1154.1	.403935
.96828	298.14	150290	1228.9	.430115
.96828	298.14	175030	1294.1	.452935
.96828	298.14	200020	1354.1	.473935
.96828	298.14	14950	531.8	.18613
.96828	348.09	30400	504.8	.17668
.96828	348.09	50030	675.2	.23632
.96828	348.09	75220	823	.28805
.96828	348.09	100600	937.3	.328055
.96828	348.09	125530	1029	.36015
.96828	348.09	150440	1109.4	.38829
.96828	348.09	174720	1178.6	.41251
.96828	348.09	200040	1243.8	.43533
.96828	348.09	30390	504.8	.17668
.96828	273.34	8010	610.5	.213675
.96828	273.34	14920	694.4	.24304
.96828	273.34	25000	785	.27475
.96828	273.34	50050	942.8	.32998
.96828	273.34	75530	1058.9	.370615
.96828	273.34	100060	1149.4	.40229
.96828	273.34	125060	1229.3	.430255
.96828	273.34	148510	1293.7	.452795
.96828	273.34	175030	1360.3	.476105
.96828	273.34	200040	1417.3	.496055
.96828	273.34	8010	610.9	.213815
.96828	323.09	24940	534.8	.18718
.96828	323.09	50140	752.6	.26341
.96828	323.09	75000	890.2	.31157
.96828	323.09	100590	1000.1	.350035
.96828	323.09	125560	1088.7	.381045
.96828	323.09	75070	897.6	.31416
.96828	323.09	149970	1164.3	.407505
.96828	323.09	175330	1234.8	.43218
.96828	323.09	200000	1296.5	.453775
.96828	323.09	24930	534.6	.18711
.96828	373.12	35170	488.8	.17108
.96828	373.12	49950	611.6	.21406
.96828	373.12	75070	764.5	.267575
.96828	373.12	100300	881.3	.308455
.96828	373.12	125160	976.5	.341775
.96828	373.12	150000	1057.9	.370265
.96828	373.12	175220	1131.5	.396025
.96828	373.12	200010	1196.4	.41874
.96828	373.12	35140	488.3	.170905
.99073	251.21	8050	786.8	.27538
.99073	251.21	15010	844.2	.29547
.99073	251.21	25270	913.8	.31983
.99073	251.21	50770	1045.7	.365995
.99073	251.21	75170	1143.2	.40012
.99073	251.21	101430	1230.8	.43078
.99073	251.21	124940	1299.1	.454685
.99073	251.21	150910	1366.3	.478205
.99073	251.21	8120	787.6	.27566
.99073	298.13	25180	653.9	.228865
.99073	298.13	50020	837.8	.29323
.99073	298.13	75230	965	.33775
.99073	298.13	100100	1064	.3724
.99073	298.13	124970	1147.9	.401765
.99073	298.13	149790	1220.2	.42707
.99073	298.13	174530	1285.6	.44996
.99073	298.13	200530	1346.2	.47117
.99073	298.13	25110	654.1	.228935
.99073	348.09	50370	672.7	.235445
.99073	348.09	75080	816.9	.285915
.99073	348.09	100580	931.1	.325885
.99073	348.09	125700	1023.2	.35812
.99073	348.09	150600	1101.4	.38549
.99073	348.09	175290	1171.4	.40999
.99073	348.09	200720	1236.7	.432845
.99073	348.09	50360	672.7	.235445
.99073	273.39	8070	614	.2149
.99073	273.39	15140	698.1	.244335
.99073	273.39	25280	787.2	.27552
.99073	273.39	50080	941.2	.32942
.99073	273.39	75540	1055.9	.369565
.99073	273.39	100080	1145.5	.400925
.99073	273.39	125360	1225.5	.428925
.99073	273.39	150170	1292.3	.452305
.99073	273.39	174970	1354.8	.47418
.99073	273.39	199910	1410.8	.49378
.99073	273.39	8050	613.9	.214865
.99073	323.1	30220	590.1	.206535
.99073	323.1	49980	747	.26145
.99073	323.1	75170	886.1	.310135
.99073	323.1	100210	992.6	.34741
.99073	323.1	124810	1080.5	.378175
.99073	323.1	149980	1157.2	.40502
.99073	323.1	174620	1224.1	.428435
.99073	323.1	200340	1288.4	.45094
.99073	323.1	30230	589.8	.20643
.99073	373.13	50070	607.5	.212625
.99073	373.13	76000	763.8	.26733
.99073	373.13	100270	874.4	.30604
.99073	373.13	125410	970.3	.339605
.99073	373.13	150430	1051.5	.368025
.99073	373.13	174660	1121.2	.39242
.99073	373.13	200020	1188.3	.415905
.99073	373.13	50050	607.3	.212555
.99814	248.59	8020	802.3	.280805
.99814	248.59	14980	856.8	.29988
.99814	248.59	24990	923	.32305
.99814	248.59	50040	1051.1	.367885
.99814	248.59	74970	1149.9	.402465
.99814	248.59	100010	1233.1	.431585
.99814	248.59	124970	1303.8	.45633
.99814	248.59	150040	1367.4	.47859
.99814	248.59	8030	802.3	.280805
.99814	298.13	50040	837.4	.29309
.99814	298.13	74940	962.5	.336875
.99814	298.13	100020	1061.9	.371665
.99814	298.13	125020	1145.5	.400925
.99814	298.13	150010	1219.2	.42672
.99814	298.13	174980	1285.5	.449925
.99814	298.13	200010	1346.1	.471135
.99814	298.13	50040	837.3	.293055
.99814	348.09	49950	667.1	.233485
.99814	348.09	75020	813.6	.28476
.99814	348.09	99980	924.6	.32361
.99814	348.09	124980	1016.6	.35581
.99814	348.09	149990	1095.6	.38346
.99814	348.09	175000	1165.6	.40796
.99814	348.09	200000	1228.6	.43001
.99814	348.09	49950	667.2	.23352
.99814	273.41	15230	699	.24465
.99814	273.41	25030	785.6	.27496
.99814	273.41	50020	939.4	.32879
.99814	273.41	75010	1052.3	.368305
.99814	273.41	100020	1143.6	.40026
.99814	273.41	124950	1220.2	.42707
.99814	273.41	150010	1288.3	.450905
.99814	273.41	174990	1349.1	.472185
.99814	273.41	200000	1404.5	.491575
.99814	273.41	15200	699	.24465
.99814	323.13	50020	745.8	.26103
.99814	323.13	75120	883.4	.30919
.99814	323.13	100030	988.9	.346115
.99814	323.13	124980	1076.8	.37688
.99814	323.13	150000	1153.2	.40362
.99814	323.13	175020	1220.9	.427315
.99814	323.13	200000	1282.1	.448735
.99814	323.13	50000	745.6	.26096
.99814	373.1	74970	754.7	.264145
.99814	373.1	100020	869.7	.304395
.99814	373.1	125030	963.9	.337365
.99814	373.1	150000	1044.4	.36554
.99814	373.1	175000	1115.5	.390425
.99814	373.1	200000	1179.3	.412755
.99814	373.1	74950	754.4	.26404
