Measured thermophysical data. Solubility Phase Diagram of the Ca(NO3)2-Mg(NO3)2 -H2O system
Source: J. Chem. Eng. Data, 2014, 10.1021/je500629s
Compound 1: calcium nitrate, CaN2O6
Compound 2: magnesium nitrate, MgN2O6
Compound 3: water, H2O

System: water + calcium nitrate + magnesium nitrate; phases: Liquid, Crystal of intercomponent compound 1
Fixed: Pressure, kPa = 101
Property: Mass fraction of magnesium nitrate (Liquid); method: gravimetric
Temperature, K	Mass fraction of calcium nitrate	Mass fraction of magnesium nitrate	uncertainty
273.15	.4941	0	.006
273.15	.3229	.1575	.006
273.15	.4059	.0783	.006
298.15	0	.4187	.006
298.15	.0779	.3709	.006
298.15	.2054	.2941	.006
298.15	.2956	.2421	.006

System: water + calcium nitrate + magnesium nitrate; phases: Liquid, Crystal of intercomponent compound 2
Fixed: Pressure, kPa = 101
Property: Mass fraction of magnesium nitrate (Liquid); method: gravimetric
Temperature, K	Mass fraction of calcium nitrate	Mass fraction of magnesium nitrate	uncertainty
273.15	.0528	.3525	.006
273.15	.1244	.3089	.006
273.15	.1806	.2748	.006
273.15	0	.3921	.006
298.15	.4517	.1214	.006
298.15	.4804	.0873	.006
298.15	.5348	.0349	.006
298.15	.5746	0	.006
323.15	.0782	.4134	.006
323.15	.1704	.36	.006
323.15	.3128	.284	.006
323.15	.4364	.2359	.006
323.15	.4624	.2325	.006
323.15	0	.4586	.006

System: water + calcium nitrate + magnesium nitrate; phases: Liquid, Crystal of intercomponent compound 1, Crystal of intercomponent compound 2
Fixed: Pressure, kPa = 101
Property: Mass fraction of magnesium nitrate (Liquid); method: gravimetric
Temperature, K	Mass fraction of magnesium nitrate	uncertainty
273.15	.233	.006
298.15	.2029	.006

System: water + calcium nitrate + magnesium nitrate; phases: Liquid, Crystal of intercomponent compound 1, Crystal of intercomponent compound 2
Fixed: Pressure, kPa = 101
Property: Mass fraction of calcium nitrate (Liquid); method: Gravimetric
Temperature, K	Mass fraction of calcium nitrate	uncertainty
273.15	.2512	.006
298.15	.384	.006
