Measured thermophysical data. Solubility of Tris(hydroxymethyl)aminomethane in Water + 1-Propanol Mixtures at Various Temperatures
Source: J. Chem. Eng. Data, 2014, 10.1021/je500620m
Compound 1: 1,3-propanediol, 2-amino-2-(hydroxymethyl)-, C4H11NO3, purity 99.9%
Compound 2: 1-propanol, C3H8O, purity 99.9%
Compound 3: water, H2O, purity 99.9%

System: 1-propanol + 1,3-propanediol, 2-amino-2-(hydroxymethyl)- + water; phases: Liquid, Crystal
Fixed: Pressure, kPa = 101
Property: Mole fraction of 1,3-propanediol, 2-amino-2-(hydroxymethyl)- (Liquid); method: laser monitoring technique
Temperature, K	Solvent: Mole fraction of water	Mole fraction of 1,3-propanediol, 2-amino-2-(hydroxymethyl)-	uncertainty
293.2	1	.0831	.0014127
293.2	.97	.0826	.0014042
293.2	.93	.0796	.0013532
293.2	.89	.0763	.0012971
293.2	.83	.0682	.0011594
293.2	.77	.0585	.0009945
293.2	.69	.0503	.0008551
293.2	.59	.0401	.0006817
293.2	.45	.0246	.0004182
293.2	.27	.0138	.0002346
293.2	0	.0038	.0000646
298.2	1	.092	.001564
298.2	.97	.0907	.0015419
298.2	.93	.0868	.0014756
298.2	.89	.0828	.0014076
298.2	.83	.0756	.0012852
298.2	.77	.0675	.0011475
298.2	.69	.0594	.0010098
298.2	.59	.0446	.0007582
298.2	.45	.0286	.0004862
298.2	.27	.0175	.0002975
298.2	0	.005	.000085
303.2	1	.1013	.0017221
303.2	.97	.099	.001683
303.2	.93	.0976	.0016592
303.2	.89	.0931	.0015827
303.2	.83	.0853	.0014501
303.2	.77	.0767	.0013039
303.2	.69	.066	.001122
303.2	.59	.0516	.0008772
303.2	.45	.0331	.0005627
303.2	.27	.0202	.0003434
303.2	0	.0063	.0001071
308.2	1	.1099	.0018683
308.2	.97	.1079	.0018343
308.2	.93	.1061	.0018037
308.2	.89	.1035	.0017595
308.2	.83	.097	.001649
308.2	.77	.0867	.0014739
308.2	.69	.0752	.0012784
308.2	.59	.0592	.0010064
308.2	.45	.0399	.0006783
308.2	.27	.0238	.0004046
308.2	0	.0072	.0001224
313.2	1	.1228	.0020876
313.2	.97	.1196	.0020332
313.2	.93	.1187	.0020179
313.2	.89	.1158	.0019686
313.2	.83	.11	.00187
313.2	.77	.0982	.0016694
313.2	.69	.0858	.0014586
313.2	.59	.0687	.0011679
313.2	.45	.046	.000782
313.2	.27	.0278	.0004726
313.2	0	.0088	.0001496
