Measured thermophysical data. Phase Behavior of Aqueous Biphasic Systems Composed of Ionic Liquids and Organic Salts
Source: J. Chem. Eng. Data, 2015, 10.1021/je500419b
Compound 1: 1-butyl-3-methylimidazolium tetrafluoroborate, C8H15BF4N2, purity 99%
Compound 2: 1-butyl-3-methylimidazolium triflate, C9H15F3N2O3S, purity 99%
Compound 3: 1-butyl-3-methylimidazolium dicyanamide, C10H15N5, purity 99%
Compound 4: dimethyl sulfoxide, C2H6OS, purity 99.7%
Compound 5: N,N-dimethylformamide, C3H7NO, purity 99.7%
Compound 6: N,N-dimethylacetamide, C4H9NO, purity 99.5%
Compound 7: sodium formate, CHNaO2, purity 99.5%
Compound 8: sodium acetate, C2H3NaO2, purity 99%
Compound 9: sodium propionate, C3H5NaO2, purity 99%
Compound 10: disodium succinate, C4H4Na2O4, purity 99%
Compound 11: sodium tartrate, C4H4Na2O6, purity 99%
Compound 12: sodium citrate, C6H5Na3O7, purity 99%
Compound 13: sodium-D-gluconate, C6H11NaO7, purity 98.5%
Compound 14: water, H2O, purity 99.99%

System: sodium formate + water + 1-butyl-3-methylimidazolium tetrafluoroborate; phases: Liquid mixture 2, Liquid mixture 1
Fixed: Temperature, K = 298.2
Fixed: Pressure, kPa = 100
Property: Mass fraction of 1-butyl-3-methylimidazolium tetrafluoroborate (Liquid mixture 2); method: Chromatography
Property: Mole fraction of 1-butyl-3-methylimidazolium tetrafluoroborate (Liquid mixture 1); method: Chromatography
Property: Mass fraction of sodium formate (Liquid mixture 1); method: Chromatography
Mass fraction of sodium formate	Mass fraction of 1-butyl-3-methylimidazolium tetrafluoroborate	uncertainty	Mole fraction of 1-butyl-3-methylimidazolium tetrafluoroborate	uncertainty	Mass fraction of sodium formate	uncertainty
.2224	.1142	.005	.3243	.005	.0378	.005
.2532	.0942	.005	.4967	.005	.0254	.005
.3033	.0765	.005	.6691	.005	.0115	.005

System: sodium formate + water + 1-butyl-3-methylimidazolium tetrafluoroborate; phases: Liquid mixture 1, Liquid mixture 2
Fixed: Pressure, kPa = 100
Fixed: Temperature, K = 298.15
Property: Mass fraction of sodium formate (Liquid mixture 1); method: Titration method
Mass fraction of 1-butyl-3-methylimidazolium tetrafluoroborate	Mass fraction of sodium formate	uncertainty
.8086	.0097	.005
.7724	.0111	.005
.7118	.0119	.005
.6836	.0131	.005
.6576	.0141	.005
.6335	.0151	.005
.6111	.016	.005
.5884	.0183	.005
.5681	.0197	.005
.5493	.021	.005
.5308	.0228	.005
.4981	.0256	.005
.4692	.028	.005
.4435	.0302	.005
.4199	.0326	.005
.3958	.0378	.005
.3762	.0404	.005
.3588	.0424	.005
.3432	.0438	.005
.3225	.0454	.005
.3032	.0481	.005
.285	.052	.005
.2679	.0569	.005
.251	.0638	.005
.234	.0679	.005
.2191	.0714	.005
.2049	.0765	.005
.1876	.0902	.005
.1714	.105	.005
.1482	.1305	.005
.124	.1647	.005
.0997	.2087	.005

System: sodium acetate + water + 1-butyl-3-methylimidazolium tetrafluoroborate; phases: Liquid mixture 2, Liquid mixture 1
Fixed: Temperature, K = 298.2
Fixed: Pressure, kPa = 100
Property: Mass fraction of 1-butyl-3-methylimidazolium tetrafluoroborate (Liquid mixture 2); method: Chromatography
Property: Mass fraction of 1-butyl-3-methylimidazolium tetrafluoroborate (Liquid mixture 1); method: Chromatography
Property: Mass fraction of sodium acetate (Liquid mixture 1); method: Chromatography
Mass fraction of sodium acetate	Mass fraction of 1-butyl-3-methylimidazolium tetrafluoroborate	uncertainty	Mass fraction of 1-butyl-3-methylimidazolium tetrafluoroborate	uncertainty	Mass fraction of sodium acetate	uncertainty
.2513	.1037	.005	.3156	.005	.0512	.005
.3138	.0869	.005	.4412	.005	.0363	.005
.3492	.085	.005	.5351	.005	.0266	.005

System: sodium acetate + water + 1-butyl-3-methylimidazolium tetrafluoroborate; phases: Liquid mixture 1, Liquid mixture 2
Fixed: Pressure, kPa = 100
Fixed: Temperature, K = 298.15
Property: Mass fraction of sodium acetate (Liquid mixture 1); method: Titration method
Mass fraction of 1-butyl-3-methylimidazolium tetrafluoroborate	Mass fraction of sodium acetate	uncertainty
.7951	.0113	.005
.7332	.0107	.005
.7007	.0124	.005
.6704	.0143	.005
.6412	.0166	.005
.6139	.019	.005
.5897	.0207	.005
.5682	.022	.005
.5477	.0233	.005
.5267	.0256	.005
.507	.0279	.005
.4716	.032	.005
.4413	.0353	.005
.4155	.0376	.005
.3926	.0397	.005
.372	.0416	.005
.3508	.0452	.005
.333	.0476	.005
.306	.0536	.005
.2821	.0594	.005
.2617	.0644	.005
.244	.0687	.005
.2225	.0785	.005
.1931	.0955	.005
.0947	.2274	.005
.0894	.2423	.005
.0835	.2663	.005
.0768	.2853	.005
.0689	.3218	.005

System: sodium propionate + water + 1-butyl-3-methylimidazolium tetrafluoroborate; phases: Liquid mixture 2, Liquid mixture 1
Fixed: Temperature, K = 298.2
Fixed: Pressure, kPa = .1
Property: Mass fraction of 1-butyl-3-methylimidazolium tetrafluoroborate (Liquid mixture 2); method: Chromatography
Property: Mass fraction of 1-butyl-3-methylimidazolium tetrafluoroborate (Liquid mixture 1); method: Chromatography
Property: Mass fraction of sodium propionate (Liquid mixture 1); method: Chromatography
Mass fraction of sodium propionate	Mass fraction of 1-butyl-3-methylimidazolium tetrafluoroborate	uncertainty	Mass fraction of 1-butyl-3-methylimidazolium tetrafluoroborate	uncertainty	Mass fraction of sodium propionate	uncertainty
.2598	.1517	.005	.5353	.005	.0456	.005
.3112	.1296	.005	.5682	.005	.0399	.005
.3399	.1192	.005	.6629	.005	.0261	.005

System: sodium propionate + water + 1-butyl-3-methylimidazolium tetrafluoroborate; phases: Liquid mixture 1, Liquid mixture 2
Fixed: Pressure, kPa = 100
Fixed: Temperature, K = 298.15
Property: Mass fraction of sodium propionate (Liquid mixture 1); method: Titration method
Mass fraction of 1-butyl-3-methylimidazolium tetrafluoroborate	Mass fraction of sodium propionate	uncertainty
.787	.0208	.005
.7489	.0237	.005
.6885	.0255	.005
.6591	.0279	.005
.6322	.0301	.005
.6051	.0336	.005
.5783	.0382	.005
.5537	.0424	.005
.5167	.045	.005
.497	.0486	.005
.4787	.0519	.005
.4644	.0527	.005
.4484	.0557	.005
.4335	.0584	.005
.4084	.0615	.005
.3861	.0643	.005
.3629	.07	.005
.3423	.0751	.005

System: disodium succinate + water + 1-butyl-3-methylimidazolium tetrafluoroborate; phases: Liquid mixture 2, Liquid mixture 1
Fixed: Temperature, K = 298.2
Fixed: Pressure, kPa = 100
Property: Mass fraction of 1-butyl-3-methylimidazolium tetrafluoroborate (Liquid mixture 2); method: Chromatography
Property: Mass fraction of 1-butyl-3-methylimidazolium tetrafluoroborate (Liquid mixture 1); method: Chromatography
Property: Mass fraction of disodium succinate (Liquid mixture 1); method: Chromatography
Mass fraction of disodium succinate	Mass fraction of 1-butyl-3-methylimidazolium tetrafluoroborate	uncertainty	Mass fraction of 1-butyl-3-methylimidazolium tetrafluoroborate	uncertainty	Mass fraction of disodium succinate	uncertainty
.1873	.1174	.005	.5145	.005	.0335	.005
.2631	.0913	.005	.5997	.005	.0208	.005
.3471	.0807	.005	.6764	.005	.0185	.005

System: disodium succinate + water + 1-butyl-3-methylimidazolium tetrafluoroborate; phases: Liquid mixture 1, Liquid mixture 2
Fixed: Pressure, kPa = 100
Fixed: Temperature, K = 298.15
Property: Mass fraction of disodium succinate (Liquid mixture 1); method: Titration method
Mass fraction of 1-butyl-3-methylimidazolium tetrafluoroborate	Mass fraction of disodium succinate	uncertainty
.814	.0064	.005
.6303	.0166	.005
.6056	.0191	.005
.5827	.0215	.005
.5615	.0237	.005
.5418	.0257	.005
.5235	.0276	.005
.5047	.0306	.005
.4888	.0322	.005
.4738	.0337	.005
.4584	.0362	.005
.4451	.0375	.005
.4315	.0398	.005
.4198	.0409	.005
.4077	.043	.005
.3972	.0439	.005
.3777	.0458	.005
.3585	.0491	.005
.3412	.0521	.005
.3254	.0549	.005
.3099	.0588	.005
.2809	.0681	.005
.261	.0701	.005
.2372	.0762	.005
.209	.0947	.005
.185	.1082	.005
.1579	.1339	.005
.0922	.2362	.005
.0845	.2558	.005

System: sodium tartrate + water + 1-butyl-3-methylimidazolium tetrafluoroborate; phases: Liquid mixture 1, Liquid mixture 2
Fixed: Pressure, kPa = 100
Fixed: Temperature, K = 298.15
Property: Mass fraction of sodium tartrate (Liquid mixture 1); method: Titration method
Mass fraction of 1-butyl-3-methylimidazolium tetrafluoroborate	Mass fraction of sodium tartrate	uncertainty
.8136	.0045	.005
.5839	.014	.005
.4739	.0227	.005
.3918	.0331	.005
.3676	.0378	.005
.3461	.042	.005
.3162	.0442	.005
.3002	.0475	.005
.2858	.0504	.005
.2726	.0531	.005
.2607	.0556	.005
.2497	.0579	.005
.236	.0634	.005
.2238	.0683	.005
.2132	.069	.005
.2059	.0704	.005
.1965	.0744	.005
.1879	.0781	.005
.1761	.0861	.005
.1642	.0924	.005
.1483	.1025	.005
.1296	.1182	.005
.102	.1455	.005
.0744	.1836	.005
.0714	.1917	.005
.0691	.1938	.005
.0682	.1963	.005
.0658	.2015	.005
.0631	.2084	.005

System: sodium tartrate + water + 1-butyl-3-methylimidazolium tetrafluoroborate; phases: Liquid mixture 1, Liquid mixture 2
Fixed: Temperature, K = 298.2
Fixed: Pressure, kPa = 100
Property: Mass fraction of sodium tartrate (Liquid mixture 1); method: Chromatography
Property: Mass fraction of sodium tartrate (Liquid mixture 2); method: Chromatography
Property: Mass fraction of 1-butyl-3-methylimidazolium tetrafluoroborate (Liquid mixture 2); method: Chromatography
Mass fraction of 1-butyl-3-methylimidazolium tetrafluoroborate	Mass fraction of sodium tartrate	uncertainty	Mass fraction of sodium tartrate	uncertainty	Mass fraction of 1-butyl-3-methylimidazolium tetrafluoroborate	uncertainty
.6809	.0105	.005	.3155	.005	.0489	.005
.7274	.0084	.005	.3253	.005	.0491	.005
.7454	.0075	.005	.3301	.005	.0429	.005

System: sodium citrate + water + 1-butyl-3-methylimidazolium tetrafluoroborate; phases: Liquid mixture 2, Liquid mixture 1
Fixed: Temperature, K = 298.2
Fixed: Pressure, kPa = 100
Property: Mass fraction of 1-butyl-3-methylimidazolium tetrafluoroborate (Liquid mixture 2); method: Chromatography
Property: Mass fraction of 1-butyl-3-methylimidazolium tetrafluoroborate (Liquid mixture 1); method: Chromatography
Property: Mass fraction of sodium citrate (Liquid mixture 1); method: Chromatography
Mass fraction of sodium citrate	Mass fraction of 1-butyl-3-methylimidazolium tetrafluoroborate	uncertainty	Mass fraction of 1-butyl-3-methylimidazolium tetrafluoroborate	uncertainty	Mass fraction of sodium citrate	uncertainty
.2864	.0451	.005	.4155	.005	.0338	.005
.32	.0416	.005	.5867	.005	.0145	.005
.3618	.0384	.005	.7294	.005	.013	.005

System: sodium citrate + water + 1-butyl-3-methylimidazolium tetrafluoroborate; phases: Liquid mixture 1, Liquid mixture 2
Fixed: Pressure, kPa = 100
Fixed: Temperature, K = 298.15
Property: Mass fraction of sodium citrate (Liquid mixture 1); method: Titration method
Mass fraction of 1-butyl-3-methylimidazolium tetrafluoroborate	Mass fraction of sodium citrate	uncertainty
.8131	.0056	.005
.5338	.0159	.005
.4091	.0262	.005
.3892	.0276	.005
.3606	.0314	.005
.3523	.0322	.005
.3443	.0331	.005
.3367	.0339	.005
.3287	.0354	.005
.3217	.0361	.005
.3151	.0368	.005
.3081	.0381	.005
.302	.0387	.005
.2961	.0393	.005
.2899	.0405	.005
.2845	.041	.005
.2793	.0415	.005
.2742	.042	.005
.2689	.0431	.005
.2638	.0441	.005
.2541	.0459	.005
.2451	.0477	.005
.2363	.0498	.005
.2278	.0521	.005
.2114	.058	.005
.1972	.0632	.005
.1847	.0676	.005
.1651	.0793	.005
.1478	.0913	.005
.1285	.1059	.005
.1069	.1272	.005
.0825	.1624	.005

System: sodium-D-gluconate + water + 1-butyl-3-methylimidazolium tetrafluoroborate; phases: Liquid mixture 2, Liquid mixture 1
Fixed: Temperature, K = 298.2
Fixed: Pressure, kPa = 100
Property: Mass fraction of 1-butyl-3-methylimidazolium tetrafluoroborate (Liquid mixture 2); method: Chromatography
Property: Mass fraction of 1-butyl-3-methylimidazolium tetrafluoroborate (Liquid mixture 1); method: Chromatography
Property: Mass fraction of sodium-D-gluconate (Liquid mixture 1); method: Chromatography
Mass fraction of sodium-D-gluconate	Mass fraction of 1-butyl-3-methylimidazolium tetrafluoroborate	uncertainty	Mass fraction of 1-butyl-3-methylimidazolium tetrafluoroborate	uncertainty	Mass fraction of sodium-D-gluconate	uncertainty
.1904	.1258	.005	.4456	.005	.0394	.005
.2597	.0966	.005	.5309	.005	.0318	.005
.3228	.0654	.005	.6127	.005	.0257	.005

System: sodium-D-gluconate + water + 1-butyl-3-methylimidazolium tetrafluoroborate; phases: Liquid mixture 1, Liquid mixture 2
Fixed: Pressure, kPa = 100
Fixed: Temperature, K = 298.15
Property: Mass fraction of sodium-D-gluconate (Liquid mixture 1); method: Titration method
Mass fraction of 1-butyl-3-methylimidazolium tetrafluoroborate	Mass fraction of sodium-D-gluconate	uncertainty
.8015	.0109	.005
.6801	.0123	.005
.6513	.0147	.005
.6248	.017	.005
.5982	.0203	.005
.5758	.0221	.005
.5531	.025	.005
.5321	.0277	.005
.5126	.0301	.005
.493	.0334	.005
.4749	.0365	.005
.4593	.0384	.005
.4299	.0428	.005
.404	.0466	.005
.3811	.05	.005
.3598	.0537	.005
.3401	.0577	.005
.3217	.0618	.005
.3053	.0656	.005
.2852	.0742	.005
.2603	.0795	.005
.2324	.092	.005
.2099	.1021	.005
.1813	.1168	.005
.1477	.1453	.005
.0949	.2158	.005
.0905	.2237	.005

System: sodium formate + water + 1-butyl-3-methylimidazolium triflate; phases: Liquid mixture 1, Liquid mixture 2
Fixed: Pressure, kPa = 100
Fixed: Temperature, K = 298.15
Property: Mass fraction of sodium formate (Liquid mixture 1); method: Titration method
Mass fraction of 1-butyl-3-methylimidazolium triflate	Mass fraction of sodium formate	uncertainty
.9121	.0036	.005
.8703	.0069	.005
.8322	.0099	.005
.7973	.0127	.005
.7665	.0145	.005
.7392	.0154	.005
.7138	.0163	.005
.689	.0178	.005
.6428	.0214	.005
.6009	.0257	.005
.5644	.0292	.005
.5322	.0323	.005
.5034	.035	.005
.4775	.0375	.005
.451	.0426	.005
.4191	.0467	.005
.3914	.0502	.005
.3671	.0533	.005
.3462	.0554	.005
.327	.0579	.005
.3099	.0601	.005
.2939	.0628	.005
.2744	.0668	.005
.2588	.0682	.005
.2443	.0704	.005
.2312	.0724	.005
.219	.0751	.005
.2024	.0795	.005
.1863	.087	.005
.1725	.0935	.005
.1528	.104	.005
.1363	.1145	.005

System: sodium acetate + water + 1-butyl-3-methylimidazolium triflate; phases: Liquid mixture 1, Liquid mixture 2
Fixed: Pressure, kPa = 100
Fixed: Temperature, K = 298.15
Property: Mass fraction of sodium acetate (Liquid mixture 1); method: Titration method
Mass fraction of 1-butyl-3-methylimidazolium triflate	Mass fraction of sodium acetate	uncertainty
.8951	.0079	.005
.8199	.0109	.005
.7854	.0128	.005
.7296	.014	.005
.7001	.0164	.005
.6739	.0181	.005
.6495	.0198	.005
.6269	.0213	.005
.6054	.0229	.005
.5843	.0249	.005
.5646	.0267	.005
.545	.029	.005
.5268	.0312	.005
.5097	.0332	.005
.4778	.036	.005
.4532	.0389	.005
.4285	.0418	.005
.4064	.0445	.005
.3864	.0469	.005
.3683	.049	.005
.343	.0527	.005
.3199	.0568	.005
.3015	.0588	.005
.2827	.0627	.005
.2654	.0667	.005
.2444	.0723	.005
.2291	.0745	.005
.2088	.0834	.005
.1956	.0868	.005
.1775	.0971	.005
.1576	.1072	.005
.1364	.1222	.005

System: sodium propionate + water + 1-butyl-3-methylimidazolium triflate; phases: Liquid mixture 1, Liquid mixture 2
Fixed: Pressure, kPa = 100
Fixed: Temperature, K = 298.15
Property: Mass fraction of sodium propionate (Liquid mixture 1); method: Titration method
Mass fraction of 1-butyl-3-methylimidazolium triflate	Mass fraction of sodium propionate	uncertainty
.8788	.0193	.005
.8391	.0222	.005
.8015	.0254	.005
.766	.029	.005
.7324	.0329	.005
.6798	.0359	.005
.6558	.0375	.005
.6318	.04	.005
.6084	.0431	.005
.5863	.0462	.005
.5644	.0499	.005
.5436	.0538	.005
.5239	.0576	.005
.491	.0627	.005
.462	.0671	.005
.4343	.0726	.005
.4064	.0805	.005
.3833	.086	.005
.3614	.0923	.005
.3419	.0978	.005
.3219	.0992	.005
.3013	.1034	.005
.2816	.1091	.005
.2643	.114	.005
.2472	.1207	.005
.2251	.1317	.005
.1999	.1505	.005
.177	.1698	.005

System: disodium succinate + water + 1-butyl-3-methylimidazolium triflate; phases: Liquid mixture 1, Liquid mixture 2
Fixed: Pressure, kPa = 100
Fixed: Temperature, K = 298.15
Property: Mass fraction of disodium succinate (Liquid mixture 1); method: Titration method
Mass fraction of 1-butyl-3-methylimidazolium triflate	Mass fraction of disodium succinate	uncertainty
.9144	.0024	.005
.8438	.0037	.005
.811	.005	.005
.7807	.0062	.005
.7515	.0079	.005
.7238	.0098	.005
.6976	.0119	.005
.6732	.0139	.005
.6505	.0157	.005
.6292	.0174	.005
.6086	.0195	.005
.5697	.0243	.005
.5356	.0284	.005
.5105	.028	.005
.4815	.0328	.005
.4556	.037	.005
.4323	.0408	.005
.4113	.0442	.005
.3915	.0481	.005
.3654	.0529	.005
.3426	.0571	.005
.3214	.0621	.005
.3017	.0675	.005
.2852	.0713	.005
.2657	.0758	.005
.2481	.0806	.005
.2322	.0856	.005
.2186	.0892	.005
.2066	.0925	.005
.1906	.097	.005
.1696	.1146	.005
.1528	.1287	.005

System: sodium tartrate + water + 1-butyl-3-methylimidazolium triflate; phases: Liquid mixture 1, Liquid mixture 2
Fixed: Pressure, kPa = 100
Fixed: Temperature, K = 298.15
Property: Mass fraction of sodium tartrate (Liquid mixture 1); method: Titration method
Mass fraction of 1-butyl-3-methylimidazolium triflate	Mass fraction of sodium tartrate	uncertainty
.9125	.0022	.005
.7791	.0048	.005
.726	.0058	.005
.7005	.0069	.005
.6758	.0083	.005
.6519	.01	.005
.6296	.0116	.005
.6088	.0131	.005
.5893	.0144	.005
.571	.0157	.005
.5365	.0187	.005
.5048	.022	.005
.4752	.0256	.005
.4489	.0289	.005
.4249	.032	.005
.4031	.0351	.005
.383	.038	.005
.357	.0416	.005
.335	.0441	.005
.3155	.0464	.005
.2963	.0499	.005
.2802	.0524	.005
.2584	.0578	.005
.2421	.0601	.005
.2284	.0616	.005
.2122	.0669	.005
.2003	.0693	.005
.1812	.0766	.005
.164	.0844	.005
.1486	.0924	.005
.1256	.107	.005
.1178	.1095	.005

System: sodium citrate + water + 1-butyl-3-methylimidazolium triflate; phases: Liquid mixture 1, Liquid mixture 2
Fixed: Pressure, kPa = 100
Fixed: Temperature, K = 298.15
Property: Mass fraction of sodium citrate (Liquid mixture 1); method: Titration method
Mass fraction of 1-butyl-3-methylimidazolium triflate	Mass fraction of sodium citrate	uncertainty
.771	.0093	.005
.6384	.0093	.005
.6184	.0105	.005
.6004	.0111	.005
.5827	.0122	.005
.5652	.0137	.005
.5488	.0151	.005
.5333	.0164	.005
.518	.018	.005
.4894	.0213	.005
.4643	.024	.005
.4416	.0264	.005
.421	.0285	.005
.4016	.0311	.005
.3838	.0334	.005
.3676	.0356	.005
.3451	.039	.005
.3254	.0417	.005
.3076	.0444	.005
.2917	.0468	.005
.2765	.05	.005
.2575	.0548	.005
.2409	.0591	.005
.2269	.0621	.005
.2145	.0647	.005
.2028	.0677	.005
.1876	.0717	.005
.1724	.0784	.005
.1583	.0861	.005
.1386	.0977	.005
.125	.1033	.005
.1112	.1134	.005

System: sodium-D-gluconate + water + 1-butyl-3-methylimidazolium triflate; phases: Liquid mixture 1, Liquid mixture 2
Fixed: Pressure, kPa = 100
Fixed: Temperature, K = 298.15
Property: Mass fraction of sodium-D-gluconate (Liquid mixture 1); method: Titration method
Mass fraction of 1-butyl-3-methylimidazolium triflate	Mass fraction of sodium-D-gluconate	uncertainty
.9143	.0021	.005
.8711	.0053	.005
.8319	.0081	.005
.7346	.01	.005
.6639	.0165	.005
.6391	.0193	.005
.6153	.0223	.005
.5933	.025	.005
.5727	.0276	.005
.5458	.0313	.005
.5166	.0358	.005
.4823	.0422	.005
.4523	.0477	.005
.4254	.0529	.005
.4016	.0575	.005
.3802	.0616	.005
.3611	.0653	.005
.3339	.0717	.005
.3116	.0763	.005
.2903	.082	.005
.2717	.087	.005
.2553	.0914	.005
.2354	.0976	.005
.2184	.1028	.005
.2006	.1111	.005
.1834	.1209	.005
.1655	.134	.005
.1442	.1494	.005
.1199	.1738	.005
.115	.1769	.005
.1072	.186	.005
.1005	.1933	.005

System: sodium formate + water + 1-butyl-3-methylimidazolium dicyanamide; phases: Liquid mixture 1, Liquid mixture 2
Fixed: Temperature, K = 298.15
Fixed: Pressure, kPa = 100
Property: Mass fraction of sodium formate (Liquid mixture 1); method: Titration method
Mass fraction of 1-butyl-3-methylimidazolium dicyanamide	Mass fraction of sodium formate	uncertainty
.8402	.0309	.005
.7906	.0364	.005
.7428	.0433	.005
.6873	.0569	.005
.6339	.072	.005
.5882	.0848	.005
.5486	.0959	.005
.5141	.1057	.005
.4836	.1142	.005
.4427	.1317	.005
.4082	.1465	.005
.3887	.1515	.005
.3711	.156	.005
.3465	.1669	.005
.3324	.1703	.005
.3007	.1821	.005
.2748	.1917	.005
.2487	.204	.005
.2271	.2142	.005
.212	.2195	.005
.1988	.2241	.005
.1848	.2309	.005
.1584	.2466	.005
.1397	.2567	.005
.121	.2706	.005
.1029	.2871	.005
.0825	.311	.005
.0784	.3194	.005
.0753	.3226	.005
.0701	.3312	.005
.0655	.3393	.005
.0578	.3548	.005

System: sodium tartrate + water + 1-butyl-3-methylimidazolium dicyanamide; phases: Liquid mixture 1, Liquid mixture 2
Fixed: Temperature, K = 298.15
Fixed: Pressure, kPa = 100
Property: Mass fraction of sodium tartrate (Liquid mixture 1); method: Titration method
Mass fraction of 1-butyl-3-methylimidazolium dicyanamide	Mass fraction of sodium tartrate	uncertainty
.8778	.008	.005
.7172	.0146	.005
.6487	.0206	.005
.5806	.0307	.005
.5204	.0413	.005
.4494	.0612	.005
.3996	.074	.005
.3564	.0862	.005
.3189	.0977	.005
.2761	.1148	.005
.2474	.1253	.005
.2221	.1352	.005
.1881	.1501	.005
.1601	.1634	.005
.1351	.1768	.005
.1104	.1923	.005
.1075	.1947	.005
.1047	.1969	.005
.1011	.2009	.005
.0977	.2047	.005
.0952	.2034	.005
.0921	.2075	.005
.0897	.2081	.005
.0858	.2125	.005
.0822	.2159	.005
.079	.2194	.005
.074	.2252	.005
.0694	.232	.005
.0653	.2382	.005
.062	.2403	.005
.0559	.2487	.005
.0508	.2574	.005
