Measured thermophysical data. Phase Equilibrium, Excess Enthalpies and Densities of Binary Mixtures of Trimethylbutylammonium Bis(trifluoromethylsulfonyl)imide with Ethanol, 1-Propanol and Dimethylformamide
Source: J. Chem. Eng. Data, 2015, 10.1021/je500696p
Compound 1: butyltrimethylammonium bis(trifluoromethylsulfonyl)imide, C9H18F6N2O4S2, purity 99%
Compound 2: ethanol, C2H6O, purity 99.5%
Compound 3: 1-propanol, C3H8O, purity 99.9%
Compound 4: N,N-dimethylformamide, C3H7NO, purity 99.8%
Compound 5: dimethyl sulfoxide, C2H6OS, purity 99.8%

System: ethanol + butyltrimethylammonium bis(trifluoromethylsulfonyl)imide; phases: Liquid
Fixed: Pressure, kPa = 100
Property: Excess molar enthalpy (molar enthalpy of mixing), kJ/mol (Liquid); method: Calvet calorimetry
Temperature, K	Mole fraction of ethanol	Excess molar enthalpy (molar enthalpy of mixing), kJ/mol	uncertainty
308.15	.1229	.848	.01696
308.15	.2546	1.627	.03254
308.15	.2623	1.658	.03316
308.15	.2752	1.721	.03442
308.15	.3943	2.133	.04266
308.15	.5084	2.337	.04674
308.15	.5133	2.306	.04612
308.15	.5408	2.33	.0466
308.15	.6267	2.278	.04556
308.15	.7252	2.131	.04262
308.15	.7354	2.104	.04208
308.15	.7659	1.955	.0391
308.15	.8645	1.471	.02942
313.15	.113	.781	.01562
313.15	.2393	1.564	.03128
313.15	.2549	1.61	.0322
313.15	.3933	2.167	.04334
313.15	.4936	2.379	.04758
313.15	.4959	2.373	.04746
313.15	.499	2.375	.0475
313.15	.6245	2.358	.04716
313.15	.7406	2.123	.04246
313.15	.8666	1.543	.03086
323.15	.1187	.773	.01546
323.15	.2569	1.698	.03396
323.15	.2694	1.765	.0353
323.15	.3969	2.251	.04502
323.15	.527	2.51	.0502
323.15	.5431	2.558	.05116
323.15	.6214	2.504	.05008
323.15	.7499	2.292	.04584
323.15	.8707	1.729	.03458

System: ethanol + butyltrimethylammonium bis(trifluoromethylsulfonyl)imide; phases: Liquid
Fixed: Pressure, kPa = 100
Property: Mass density, kg/m3 (Liquid); method: Vibrating tube method
Temperature, K	Mole fraction of ethanol	Mass density, kg/m3	uncertainty
293.15	0	1397.1	2.7942
293.15	.1284	1379.5	2.759
293.15	.2585	1357.1	2.7142
293.15	.3814	1329.7	2.6594
293.15	.5031	1293.9	2.5878
293.15	.6487	1232.1	2.4642
293.15	.7823	1142	2.284
293.15	.8561	1066.3	2.1326
293.15	.8763	1040.6	2.0812
293.15	.9039	1000.1	2.0002
293.15	.95	916.4	1.8328
293.15	.9745	860.2	1.7204
293.15	1	789.6	1.5792
295.15	0	1395.3	2.7906
295.15	.1284	1377.7	2.7554
295.15	.2585	1355.3	2.7106
295.15	.3814	1327.8	2.6556
295.15	.5031	1292	2.584
295.15	.6487	1230.3	2.4606
295.15	.7823	1140.1	2.2802
295.15	.8561	1064.5	2.129
295.15	.8763	1038.8	2.0776
295.15	.9039	998.3	1.9966
295.15	.95	914.6	1.8292
295.15	.9745	858.4	1.7168
295.15	1	787.9	1.5758
298.15	0	1392.7	2.7854
298.15	.1284	1375.1	2.7502
298.15	.2585	1352.6	2.7052
298.15	.3814	1325.1	2.6502
298.15	.5031	1289.3	2.5786
298.15	.6487	1227.5	2.455
298.15	.7823	1137.3	2.2746
298.15	.8561	1061.7	2.1234
298.15	.8763	1036	2.072
298.15	.9039	995.6	1.9912
298.15	.95	911.9	1.8238
298.15	.9745	855.8	1.7116
298.15	1	785.3	1.5706
303.15	0	1388.3	2.7766
303.15	.1284	1370.6	2.7412
303.15	.2585	1348.1	2.6962
303.15	.3814	1320.6	2.6412
303.15	.5031	1284.7	2.5694
303.15	.6487	1222.8	2.4456
303.15	.7823	1132.7	2.2654
303.15	.8561	1057.1	2.1142
303.15	.8763	1031.4	2.0628
303.15	.9039	991	1.982
303.15	.95	907.4	1.8148
303.15	.9745	851.4	1.7028
303.15	1	781	1.562
308.15	0	1384	2.768
308.15	.1284	1366.2	2.7324
308.15	.2585	1343.7	2.6874
308.15	.3814	1316.1	2.6322
308.15	.5031	1280.1	2.5602
308.15	.6487	1218.2	2.4364
308.15	.7823	1128	2.256
308.15	.8561	1052.4	2.1048
308.15	.8763	1026.8	2.0536
308.15	.9039	986.4	1.9728
308.15	.95	902.9	1.8058
308.15	.9745	846.9	1.6938
308.15	1	776.7	1.5534
313.15	0	1379.6	2.7592
313.15	.1284	1361.8	2.7236
313.15	.2585	1339.2	2.6784
313.15	.3814	1311.6	2.6232
313.15	.5031	1275.6	2.5512
313.15	.6487	1213.6	2.4272
313.15	.7823	1123.3	2.2466
313.15	.8561	1047.8	2.0956
313.15	.8763	1022.1	2.0442
313.15	.9039	981.8	1.9636
313.15	.95	898.4	1.7968
313.15	.9745	842.5	1.685
313.15	1	772.3	1.5446
318.15	0	1375.2	2.7504
318.15	.1284	1357.4	2.7148
318.15	.2585	1334.8	2.6696
318.15	.3814	1307.1	2.6142
318.15	.5031	1271	2.542
318.15	.6487	1209	2.418
318.15	.7823	1118.6	2.2372
318.15	.8561	1043.1	2.0862
318.15	.8763	1017.4	2.0348
318.15	.9039	977.1	1.9542
318.15	.95	893.8	1.7876
318.15	.9745	838	1.676
318.15	1	767.9	1.5358
323.15	0	1370.9	2.7418
323.15	.1284	1353.1	2.7062
323.15	.2585	1330.4	2.6608
323.15	.3814	1302.6	2.6052
323.15	.5031	1266.5	2.533
323.15	.6487	1204.4	2.4088
323.15	.7823	1114	2.228
323.15	.8561	1038.4	2.0768
323.15	.8763	1012.7	2.0254
323.15	.9039	972.4	1.9448
323.15	.95	889.2	1.7784
323.15	.9745	833.4	1.6668
323.15	1	763.5	1.527
328.15	0	1366.6	2.7332
328.15	.1284	1348.7	2.6974
328.15	.2585	1325.9	2.6518
328.15	.3814	1298.1	2.5962
328.15	.5031	1261.9	2.5238
328.15	.6487	1199.7	2.3994
328.15	.7823	1109.2	2.2184
328.15	.8561	1033.7	2.0674
328.15	.8763	1008	2.016
328.15	.9039	967.7	1.9354
328.15	.95	884.5	1.769
328.15	.9745	828.8	1.6576
328.15	1	758.9	1.5178
333.15	0	1362.3	2.7246
333.15	.1284	1344.3	2.6886
333.15	.2585	1321.5	2.643
333.15	.3814	1293.7	2.5874
333.15	.5031	1257.4	2.5148
333.15	.6487	1195.1	2.3902
333.15	.7823	1104.5	2.209
333.15	.8561	1028.9	2.0578
333.15	.8763	1003.3	2.0066
333.15	.9039	963	1.926
333.15	.95	879.8	1.7596
333.15	.9745	824.2	1.6484
333.15	1	754.4	1.5088

System: 1-propanol + butyltrimethylammonium bis(trifluoromethylsulfonyl)imide; phases: Liquid
Fixed: Pressure, kPa = 100
Property: Excess molar enthalpy (molar enthalpy of mixing), kJ/mol (Liquid); method: Calvet calorimetry
Temperature, K	Mole fraction of 1-propanol	Excess molar enthalpy (molar enthalpy of mixing), kJ/mol	uncertainty
308.15	.1224	.935	.0187
308.15	.2622	1.826	.03652
308.15	.2665	1.848	.03696
308.15	.374	2.327	.04654
308.15	.4927	2.604	.05208
308.15	.5007	2.607	.05214
308.15	.5108	2.625	.0525
308.15	.5118	2.636	.05272
308.15	.6191	2.534	.05068
308.15	.744	2.225	.0445
308.15	.7466	2.23	.0446
308.15	.7505	2.178	.04356
308.15	.8709	1.481	.02962
313.15	.113	.781	.01562
313.15	.2393	1.564	.03128
313.15	.2549	1.61	.0322
313.15	.3933	2.167	.04334
313.15	.4936	2.379	.04758
313.15	.4959	2.373	.04746
313.15	.499	2.375	.0475
313.15	.6245	2.358	.04716
313.15	.7406	2.123	.04246
313.15	.8666	1.543	.03086
323.15	.1187	.773	.01546
323.15	.2569	1.698	.03396
323.15	.2694	1.765	.0353
323.15	.3969	2.251	.04502
323.15	.527	2.51	.0502
323.15	.5431	2.558	.05116
323.15	.6214	2.504	.05008
323.15	.7499	2.292	.04584
323.15	.8707	1.729	.03458

System: 1-propanol + butyltrimethylammonium bis(trifluoromethylsulfonyl)imide; phases: Liquid
Fixed: Pressure, kPa = 100
Property: Mass density, kg/m3 (Liquid); method: Vibrating tube method
Temperature, K	Mole fraction of 1-propanol	Mass density, kg/m3	uncertainty
293.15	0	1397.1	2.09565
293.15	.1273	1375	2.0625
293.15	.2596	1346.9	2.02035
293.15	.3787	1315	1.9725
293.15	.4996	1273.9	1.91085
293.15	.6368	1210.1	1.81515
293.15	.7624	1126	1.689
293.15	.8787	1008.7	1.51305
293.15	.9498	903.9	1.35585
293.15	.9799	847.3	1.27095
293.15	1	803.6	1.2054
295.15	0	1395.3	2.09295
295.15	.1273	1373.2	2.0598
295.15	.2596	1345.1	2.01765
295.15	.3787	1313.2	1.9698
295.15	.4996	1272.1	1.90815
295.15	.6368	1208.3	1.81245
295.15	.7624	1124.2	1.6863
295.15	.8787	1006.9	1.51035
295.15	.9498	902.2	1.3533
295.15	.9799	845.7	1.26855
295.15	1	802.1	1.20315
298.15	0	1392.7	2.08905
298.15	.1273	1370.6	2.0559
298.15	.2596	1342.4	2.0136
298.15	.3787	1310.6	1.9659
298.15	.4996	1269.4	1.9041
298.15	.6368	1205.6	1.8084
298.15	.7624	1121.4	1.6821
298.15	.8787	1004.3	1.50645
298.15	.9498	899.7	1.34955
298.15	.9799	843.2	1.2648
298.15	1	799.7	1.19955
303.15	0	1388.3	2.08245
303.15	.1273	1366.2	2.0493
303.15	.2596	1338	2.007
303.15	.3787	1306.1	1.95915
303.15	.4996	1264.9	1.89735
303.15	.6368	1201.1	1.80165
303.15	.7624	1117	1.6755
303.15	.8787	999.9	1.49985
303.15	.9498	895.5	1.34325
303.15	.9799	839.1	1.25865
303.15	1	795.6	1.1934
308.15	0	1384	2.076
308.15	.1273	1361.8	2.0427
308.15	.2596	1333.5	2.00025
308.15	.3787	1301.6	1.9524
308.15	.4996	1260.4	1.8906
308.15	.6368	1196.5	1.79475
308.15	.7624	1112.5	1.66875
308.15	.8787	995.5	1.49325
308.15	.9498	891.2	1.3368
308.15	.9799	835	1.2525
308.15	1	791.6	1.1874
313.15	0	1379.6	2.0694
313.15	.1273	1357.4	2.0361
313.15	.2596	1329.1	1.99365
313.15	.3787	1297.2	1.9458
313.15	.4996	1255.9	1.88385
313.15	.6368	1192	1.788
313.15	.7624	1107.9	1.66185
313.15	.8787	991.1	1.48665
313.15	.9498	887	1.3305
313.15	.9799	830.8	1.2462
313.15	1	787.5	1.18125
318.15	0	1375.2	2.0628
318.15	.1273	1353	2.0295
318.15	.2596	1324.7	1.98705
318.15	.3787	1292.7	1.93905
318.15	.4996	1251.4	1.8771
318.15	.6368	1187.4	1.7811
318.15	.7624	1103.4	1.6551
318.15	.8787	986.7	1.48005
318.15	.9498	882.6	1.3239
318.15	.9799	826.6	1.2399
318.15	1	783.4	1.1751
323.15	0	1370.9	2.05635
323.15	.1273	1348.6	2.0229
323.15	.2596	1320.3	1.98045
323.15	.3787	1288.2	1.9323
323.15	.4996	1246.9	1.87035
323.15	.6368	1182.9	1.77435
323.15	.7624	1098.8	1.6482
323.15	.8787	982.2	1.4733
323.15	.9498	878.3	1.31745
323.15	.9799	822.4	1.2336
323.15	1	779.2	1.1688
328.15	0	1366.6	2.0499
328.15	.1273	1344.3	2.01645
328.15	.2596	1315.9	1.97385
328.15	.3787	1283.8	1.9257
328.15	.4996	1242.4	1.8636
328.15	.6368	1178.3	1.76745
328.15	.7624	1094.3	1.64145
328.15	.8787	977.7	1.46655
328.15	.9498	873.9	1.31085
328.15	.9799	818	1.227
328.15	1	774.9	1.16235
333.15	0	1362.3	2.04345
333.15	.1273	1339.9	2.00985
333.15	.2596	1311.5	1.96725
333.15	.3787	1279.4	1.9191
333.15	.4996	1237.9	1.85685
333.15	.6368	1173.8	1.7607
333.15	.7624	1089.7	1.63455
333.15	.8787	973.1	1.45965
333.15	.9498	869.5	1.30425
333.15	.9799	813.7	1.22055
333.15	1	770.6	1.1559

System: N,N-dimethylformamide + butyltrimethylammonium bis(trifluoromethylsulfonyl)imide; phases: Liquid
Fixed: Pressure, kPa = 100
Property: Excess molar enthalpy (molar enthalpy of mixing), kJ/mol (Liquid); method: Calvet calorimetry
Temperature, K	Mole fraction of N,N-dimethylformamide	Excess molar enthalpy (molar enthalpy of mixing), kJ/mol	uncertainty
308.15	.1285	-.413	-.00826
308.15	.2488	-.699	-.01398
308.15	.2496	-.702	-.01404
308.15	.2543	-.701	-.01402
308.15	.3983	-.972	-.01944
308.15	.5182	-1.138	-.02276
308.15	.5211	-1.138	-.02276
308.15	.6283	-1.187	-.02374
308.15	.7679	-1.058	-.02116
308.15	.889	-.676	-.01352
313.15	.1226	-.402	-.00804
313.15	.2487	-.699	-.01398
313.15	.261	-.73	-.0146
313.15	.3939	-.969	-.01938
313.15	.5209	-1.144	-.02288
313.15	.5249	-1.15	-.023
313.15	.625	-1.198	-.02396
313.15	.7717	-1.033	-.02066
313.15	.8796	-.726	-.01452
323.15	.129	-.425	-.0085
323.15	.2459	-.706	-.01412
323.15	.2473	-.708	-.01416
323.15	.3807	-.96	-.0192
323.15	.5174	-1.162	-.02324
323.15	.5224	-1.169	-.02338
323.15	.6286	-1.218	-.02436
323.15	.7693	-1.087	-.02174
323.15	.8804	-.735	-.0147

System: N,N-dimethylformamide + butyltrimethylammonium bis(trifluoromethylsulfonyl)imide; phases: Liquid, Gas
Property: Vapor or sublimation pressure, kPa (Liquid); method: gas chromatograph
Temperature, K	Mole fraction of N,N-dimethylformamide	Vapor or sublimation pressure, kPa	uncertainty
308.15	.1098	.014	.00042
308.15	.2071	.033	.00099
308.15	.3161	.062	.00186
308.15	.4067	.105	.00315
308.15	.509	.199	.00597
308.15	.6071	.331	.00993
308.15	.7031	.477	.01431
308.15	.8024	.659	.01977
308.15	.9002	.84	.0252
313.15	.1098	.018	.00054
313.15	.2153	.043	.00129
313.15	.3069	.074	.00222
313.15	.4086	.139	.00417
313.15	.51	.258	.00774
313.15	.6059	.427	.01281
313.15	.7074	.63	.0189
313.15	.743	.707	.02121
313.15	.8027	.861	.02583
313.15	.8997	1.093	.03279
323.15	.1017	.028	.00084
323.15	.2155	.074	.00222
323.15	.3405	.157	.00471
323.15	.4102	.247	.00741
323.15	.4948	.397	.01191
323.15	.6046	.707	.02121
323.15	.7032	1.091	.03273
323.15	.8048	1.479	.04437
323.15	.9003	1.892	.05676

System: N,N-dimethylformamide + butyltrimethylammonium bis(trifluoromethylsulfonyl)imide; phases: Liquid
Fixed: Pressure, kPa = 100
Property: Mass density, kg/m3 (Liquid); method: Vibrating tube method
Temperature, K	Mole fraction of N,N-dimethylformamide	Mass density, kg/m3	uncertainty
293.15	0	1397.1	2.09565
293.15	.1268	1379.7	2.06955
293.15	.2011	1367.7	2.05155
293.15	.3028	1348.7	2.02305
293.15	.3824	1331.3	1.99695
293.15	.5078	1297.4	1.9461
293.15	.6249	1255.8	1.8837
293.15	.7548	1191.6	1.7874
293.15	.8764	1101.3	1.65195
293.15	.9157	1061.9	1.59285
293.15	1	948.7	1.42305
295.15	0	1395.3	2.09295
295.15	.1268	1377.9	2.06685
295.15	.2011	1365.9	2.04885
295.15	.3028	1346.9	2.02035
295.15	.3824	1329.5	1.99425
295.15	.5078	1295.6	1.9434
295.15	.6249	1253.9	1.88085
295.15	.7548	1189.7	1.78455
295.15	.8764	1099.4	1.6491
295.15	.9157	1060	1.59
295.15	1	946.8	1.4202
298.15	0	1392.7	2.08905
298.15	.1268	1375.3	2.06295
298.15	.2011	1363.2	2.0448
298.15	.3028	1344.2	2.0163
298.15	.3824	1326.8	1.9902
298.15	.5078	1292.8	1.9392
298.15	.6249	1251.2	1.8768
298.15	.7548	1186.8	1.7802
298.15	.8764	1096.5	1.64475
298.15	.9157	1057.1	1.58565
298.15	1	943.9	1.41585
303.15	0	1388.3	2.08245
303.15	.1268	1370.8	2.0562
303.15	.2011	1358.8	2.0382
303.15	.3028	1339.7	2.00955
303.15	.3824	1322.2	1.9833
303.15	.5078	1288.2	1.9323
303.15	.6249	1246.5	1.86975
303.15	.7548	1182.1	1.77315
303.15	.8764	1091.8	1.6377
303.15	.9157	1052.4	1.5786
303.15	1	939.1	1.40865
308.15	0	1384	2.076
308.15	.1268	1366.4	2.0496
308.15	.2011	1354.3	2.03145
308.15	.3028	1335.2	2.0028
308.15	.3824	1317.7	1.97655
308.15	.5078	1283.6	1.9254
308.15	.6249	1241.8	1.8627
308.15	.7548	1177.4	1.7661
308.15	.8764	1087	1.6305
308.15	.9157	1047.6	1.5714
308.15	1	934.4	1.4016
313.15	0	1379.6	2.0694
313.15	.1268	1362	2.043
313.15	.2011	1349.9	2.02485
313.15	.3028	1330.7	1.99605
313.15	.3824	1313.1	1.96965
313.15	.5078	1279	1.9185
313.15	.6249	1237.2	1.8558
313.15	.7548	1172.7	1.75905
313.15	.8764	1082.3	1.62345
313.15	.9157	1042.8	1.5642
313.15	1	929.6	1.3944
318.15	0	1375.2	2.0628
318.15	.1268	1357.6	2.0364
318.15	.2011	1345.4	2.0181
318.15	.3028	1326.2	1.9893
318.15	.3824	1308.6	1.9629
318.15	.5078	1274.5	1.91175
318.15	.6249	1232.6	1.8489
318.15	.7548	1168	1.752
318.15	.8764	1077.5	1.61625
318.15	.9157	1038.1	1.55715
318.15	1	924.8	1.3872
323.15	0	1370.9	2.05635
323.15	.1268	1353.2	2.0298
323.15	.2011	1341	2.0115
323.15	.3028	1321.8	1.9827
323.15	.3824	1304.1	1.95615
323.15	.5078	1269.9	1.90485
323.15	.6249	1227.9	1.84185
323.15	.7548	1163.3	1.74495
323.15	.8764	1072.8	1.6092
323.15	.9157	1033.3	1.54995
323.15	1	920	1.38
328.15	0	1366.6	2.0499
328.15	.1268	1348.8	2.0232
328.15	.2011	1336.6	2.0049
328.15	.3028	1317.3	1.97595
328.15	.3824	1299.7	1.94955
328.15	.5078	1265.4	1.8981
328.15	.6249	1223.3	1.83495
328.15	.7548	1158.6	1.7379
328.15	.8764	1068	1.602
328.15	.9157	1028.6	1.5429
328.15	1	915.2	1.3728
333.15	0	1362.3	2.04345
333.15	.1268	1344.5	2.01675
333.15	.2011	1332.3	1.99845
333.15	.3028	1312.9	1.96935
333.15	.3824	1295.2	1.9428
333.15	.5078	1260.8	1.8912
333.15	.6249	1218.7	1.82805
333.15	.7548	1153.9	1.73085
333.15	.8764	1063.3	1.59495
333.15	.9157	1023.8	1.5357
333.15	1	910.4	1.3656

System: dimethyl sulfoxide + butyltrimethylammonium bis(trifluoromethylsulfonyl)imide; phases: Liquid
Fixed: Pressure, kPa = 100
Fixed: Temperature, K = 308.15
Property: Excess molar enthalpy (molar enthalpy of mixing), kJ/mol (Liquid); method: Calvet calorimetry
Mole fraction of dimethyl sulfoxide	Excess molar enthalpy (molar enthalpy of mixing), kJ/mol	uncertainty
.1288	-.113	.015
.2255	-.174	.015
.2609	-.192	.015
.3095	-.214	.015
.3626	-.248	.015
.4382	-.263	.015
.4941	-.279	.015
.4983	-.267	.015
.5007	-.269	.015
.559	-.286	.015
.5642	-.284	.015
.5646	-.289	.015
.6132	-.263	.015
.6267	-.259	.015
.7533	-.167	.015
.7693	-.155	.015
.8684	-.065	.015
