Measured thermophysical data. Sublimation Enthalpies of 5-Haloderivatives of 1,3- Dimethyluracil
Source: J. Chem. Eng. Data, 2015, 10.1021/je500719p
Compound 1: 1,3-dimethyl-2,4-(1H,3H)-pyrimidinedione, C6H8N2O2, purity 99%
Compound 2: 2,4(1H,3H)-pyrimidinedione, 5-fluoro-1,3-dimethyl-, C6H7FN2O2, purity 99%
Compound 3: 5-bromo-1,3-dimethyl-2,4(1H,3H)-pyrimidinedione, C6H7BrN2O2, purity 99%
Compound 4: 5-iodo-1,3-dimethyl-2,4(1H,3H)-pyrimidinedione, C6H7IN2O2, purity 99%

System: 1,3-dimethyl-2,4-(1H,3H)-pyrimidinedione; phases: Crystal, Gas
Property: Vapor or sublimation pressure, kPa (Crystal); method: Knudsen effusion method
Temperature, K	Vapor or sublimation pressure, kPa	uncertainty
337.6	.001994	.0000997
327.8	.0007408	.00003704
318	.0002466	.00001233
308.2	.0000773	.000003865
298.3	.00002171	.0000010855
334.9	.001419	.00007095
324.8	.0005273	.000026365
315	.0001755	.000008775
306.6	.00006457	.0000032285
331.8	.001094	.0000547
321.9	.0003946	.00001973
312.1	.0001237	.000006185
302.2	.00003652	.000001826
293.3	.00001089	.0000005445
357.7	.01147	.0005735
347.8	.004904	.0002452
338	.001859	.00009295
354.7	.009025	.00045125
344.9	.003597	.00017985
335.1	.001323	.00006615
351.7	.006686	.0003343
341.9	.002638	.0001319
360.5	.01564	.000782

System: 2,4(1H,3H)-pyrimidinedione, 5-fluoro-1,3-dimethyl-; phases: Crystal, Gas
Property: Vapor or sublimation pressure, kPa (Crystal); method: Knudsen effusion method
Temperature, K	Vapor or sublimation pressure, kPa	uncertainty
322.9	.000172	.0000086
312.8	.00005502	.000002751
303	.0000147	.000000735
288.1	.00000205	.0000001025
287.6	.000001873	.00000009365
325.7	.0002165	.000010825
315.9	.00007577	.0000037885
306.1	.00002305	.0000011525
296	.000006282	.0000003141
319.8	.0001188	.00000594
309.9	.00003579	.0000017895
300	.00001005	.0000005025
293.2	.000003735	.00000018675
290	.000002685	.00000013425
354.8	.004015	.00020075
342	.001221	.00006105
334.8	.0005945	.000029725
325	.000208	.0000104
315.2	.00006654	.000003327
351.6	.003034	.0001517
341.8	.001209	.00006045
332	.0004404	.00002202
322.3	.0001511	.000007555
348.6	.002226	.0001113
338.8	.0008521	.000042605
329.1	.0003135	.000015675
319.3	.0001033	.000005165

System: 5-bromo-1,3-dimethyl-2,4(1H,3H)-pyrimidinedione; phases: Crystal, Gas
Property: Vapor or sublimation pressure, kPa (Crystal); method: Knudsen effusion method
Temperature, K	Vapor or sublimation pressure, kPa	uncertainty
333.2	.00002625	.0000013125
323.1	.000007372	.0000003686
313.2	.000002009	.00000010045
303.3	.0000004139	.000000020695
293.3	.00000009327	.0000000046635
330	.00001691	.0000008455
320.2	.000004844	.0000002422
310.3	.000001347	.00000006735
300.3	.0000002774	.00000001387
327	.00001156	.000000578
317.2	.000003247	.00000016235
307.3	.0000008007	.000000040035
297.3	.0000001805	.000000009025
357.9	.0003791	.000018955
347.8	.0001327	.000006635
337.6	.00004076	.000002038
327.7	.00001253	.0000006265
360.6	.0004868	.00002434
350.6	.0001755	.000008775
340.8	.0000567	.000002835
330.7	.0000176	.00000088
354.5	.0002618	.00001309
344.6	.00008982	.000004491
334.8	.00002901	.0000014505

System: 5-iodo-1,3-dimethyl-2,4(1H,3H)-pyrimidinedione; phases: Crystal, Gas
Property: Vapor or sublimation pressure, kPa (Crystal); method: Knudsen effusion method
Temperature, K	Vapor or sublimation pressure, kPa	uncertainty
362.5	.00009348	.000004674
352.6	.00003239	.0000016195
342.9	.00001046	.000000523
333.2	.000003089	.00000015445
323.4	.0000009119	.000000045595
367.3	.0001466	.00000733
357.5	.0000534	.00000267
347.8	.00001795	.0000008975
338	.000005628	.0000002814
328.2	.000001488	.0000000744
392.1	.00184	.000092
382.4	.0007483	.000037415
372.7	.0002952	.00001476
362.7	.0001044	.00000522
353.5	.00003763	.0000018815
389.2	.001419	.00007095
379.5	.0005712	.00002856
369.8	.0002165	.000010825
360	.0000714	.00000357
386.3	.001073	.00005365
376.5	.0004274	.00002137
366.8	.0001572	.00000786
357.1	.00005558	.000002779
