Measured thermophysical data. Measurement of the Speed of Sound in Hexane and Heptane at Temperatures from (303.15 to 536.15) K and Pressures from (1.0 to 8.5) MPa
Source: J. Chem. Eng. Data, 2016, 10.1021/je501106d
Compound 1: toluene, C7H8, purity 99.5%
Compound 2: hexane, C6H14, purity 99.0%
Compound 3: heptane, C7H16, purity 99.0%

System: toluene; phases: Liquid, Gas
Property: Speed of sound, m/s (Liquid); method: Brillouin scattering
Temperature, K	Speed of sound, m/s	uncertainty
323.15	1200.8	19.2128
423.15	806	12.896
523.15	425.5	6.808

System: hexane; phases: Liquid, Gas
Property: Speed of sound, m/s (Liquid); method: Brillouin scattering
Temperature, K	Speed of sound, m/s	uncertainty
300.15	1073	17.168
313.15	993	15.888
328.15	926.8	14.8288
343.15	882.7	14.1232
353.15	838.8	13.4208
363.15	794.9	12.7184
373.15	751	12.016
383.15	707.2	11.3152
393.15	663.4	10.6144
403.15	619.5	9.912
413.15	575.6	9.2096
423.15	531.6	8.5056
433.15	487.5	7.8
443.15	443.1	7.0896
448.15	420.7	6.7312
453.15	398.2	6.3712
458.15	375.6	6.0096
463.15	352.8	5.6448
468.15	329.8	5.2768
473.15	306.4	4.9024
478.15	282.6	4.5216
483.15	258.2	4.1312
488.15	233	3.728
493.15	206.4	3.3024
498.15	177.3	2.8368
503.15	142	2.272
506.15	109.7	1.7552

System: hexane; phases: Gas, Liquid
Property: Speed of sound, m/s (Gas); method: Brillouin scattering
Temperature, K	Speed of sound, m/s	uncertainty
383.15	178.6	2.8576
393.15	176.6	2.8256
403.15	174.3	2.7888
413.15	171.6	2.7456
423.15	168.3	2.6928
433.15	164.2	2.6272
443.15	159.4	2.5504
448.15	156.6	2.5056
453.15	153.5	2.456
458.15	150.1	2.4016
463.15	146.4	2.3424
468.15	142.2	2.2752
473.15	137.6	2.2016
478.15	132.5	2.12
483.15	126.9	2.0304
488.15	120.6	1.9296
493.15	113.4	1.8144
498.15	105.3	1.6848
503.15	95.91	1.53456
506.15	89.34	1.42944

System: hexane; phases: Liquid, Gas
Property: Vapor or sublimation pressure, kPa (Liquid); method: Closed cell (Static) method
Temperature, K	Vapor or sublimation pressure, kPa	uncertainty
300.15	14	15
313.15	63	15
328.15	94	15
343.15	122	15
353.15	161	15
363.15	214	15
373.15	260	15
383.15	331	15
393.15	413	15
403.15	512	15
413.15	627	15
423.15	762	15
433.15	924	15
443.15	1113	15
448.15	1210	15
453.15	1322	15
458.15	1447	15
463.15	1563	15
468.15	1700	15
473.15	1843	15
478.15	1992	15
483.15	2144	15
488.15	2313	15
493.15	2491	15
498.15	2677	15
503.15	2878	15
506.15	2991	15
383.15	331	15
393.15	413	15
403.15	512	15
413.15	627	15
423.15	762	15
433.15	924	15
443.15	1113	15
448.15	1210	15
453.15	1322	15
458.15	1447	15
463.15	1563	15
468.15	1700	15
473.15	1843	15
478.15	1992	15
483.15	2144	15
488.15	2313	15
493.15	2491	15
498.15	2677	15
503.15	2878	15
506.15	2991	15

System: hexane; phases: Liquid
Property: Speed of sound, m/s (Liquid); method: Brillouin scattering
Temperature, K	Pressure, kPa	Speed of sound, m/s	uncertainty
300.15	1000	1080	17.28
300.15	2500	1090	17.44
300.15	4000	1102	17.632
300.15	5500	1115	17.84
300.15	7000	1129	18.064
300.15	8500	1140	18.24
313.15	1000	1027	16.432
313.15	2500	1038	16.608
313.15	4000	1049	16.784
313.15	5500	1062	16.992
313.15	7000	1077	17.232
313.15	8500	1092	17.472
328.15	1000	964.1	15.4256
328.15	2500	975.9	15.6144
328.15	4000	988.6	15.8176
328.15	5500	1002	16.032
328.15	7000	1017	16.272
328.15	8500	1032	16.512
343.15	1000	900.3	14.4048
343.15	2500	913.8	14.6208
343.15	4000	927.8	14.8448
343.15	5500	942.3	15.0768
343.15	7000	957.3	15.3168
343.15	8500	972.8	15.5648
353.15	1000	857	13.712
353.15	2500	872	13.952
353.15	4000	887.1	14.1936
353.15	5500	902.5	14.44
353.15	7000	918.1	14.6896
353.15	8500	934	14.944
363.15	1000	813.22	13.01152
363.15	2500	829.9	13.2784
363.15	4000	846.4	13.5424
363.15	5500	862.9	13.8064
363.15	7000	879.3	14.0688
363.15	8500	895.7	14.3312
373.15	1000	768.8	12.3008
373.15	2500	787.4	12.5984
373.15	4000	805.6	12.8896
373.15	5500	823.4	13.1744
373.15	7000	840.9	13.4544
373.15	8500	857.9	13.7264
383.15	1000	723.8	11.5808
383.15	2500	744.7	11.9152
383.15	4000	764.8	12.2368
383.15	5500	784.1	12.5456
383.15	7000	802.8	12.8448
383.15	8500	820.7	13.1312
393.15	1000	678.3	10.8528
393.15	2500	701.6	11.2256
393.15	4000	723.8	11.5808
393.15	5500	744.9	11.9184
393.15	7000	765	12.24
393.15	8500	783.9	12.5424
403.15	1000	632.1	10.1136
403.15	2500	658.2	10.5312
403.15	4000	682.8	10.9248
403.15	5500	705.9	11.2944
403.15	7000	727.5	11.64
403.15	8500	747.7	11.9632
413.15	1000	585.4	9.3664
413.15	2500	614.5	9.832
413.15	4000	641.7	10.2672
413.15	5500	667	10.672
413.15	7000	690.4	11.0464
413.15	8500	711.9	11.3904
423.15	1000	538.1	8.6096
423.15	2500	570.5	9.128
423.15	4000	600.6	9.6096
423.15	5500	628.3	10.0528
423.15	7000	653.7	10.4592
423.15	8500	676.7	10.8272
443.15	2500	481.5	7.704
443.15	4000	518	8.288
443.15	5500	551.3	8.8208
443.15	7000	581.2	9.2992
443.15	8500	607.8	9.7248
448.15	2500	459.1	7.3456
448.15	4000	497.4	7.9584
448.15	5500	532.1	8.5136
448.15	7000	563.3	9.0128
448.15	8500	590.9	9.4544
453.15	2500	436.6	6.9856
453.15	4000	476.7	7.6272
453.15	5500	513	8.208
453.15	7000	545.4	8.7264
453.15	8500	574.1	9.1856
458.15	2500	414	6.624
458.15	4000	456	7.296
458.15	5500	493.9	7.9024
458.15	7000	527.7	8.4432
458.15	8500	557.4	8.9184
463.15	2500	391.3	6.2608
463.15	4000	435.2	6.9632
463.15	5500	474.8	7.5968
463.15	7000	510.1	8.1616
463.15	8500	540.9	8.6544
468.15	2500	368.5	5.896
468.15	4000	414.5	6.632
468.15	5500	455.8	7.2928
468.15	7000	492.5	7.88
468.15	8500	524.5	8.392
473.15	2500	345.7	5.5312
473.15	4000	393.7	6.2992
473.15	5500	436.8	6.9888
473.15	7000	475	7.6
473.15	8500	508.2	8.1312
478.15	2500	322.8	5.1648
478.15	4000	372.9	5.9664
478.15	5500	417.9	6.6864
478.15	7000	457.6	7.3216
478.15	8500	492.1	7.8736
483.15	4000	352.1	5.6336
483.15	5500	399	6.384
483.15	7000	440.3	7.0448
483.15	8500	476.1	7.6176
488.15	4000	331.3	5.3008
488.15	5500	380.1	6.0816
493.15	4000	310.5	4.968
493.15	5500	361.3	5.7808
498.15	4000	289.6	4.6336
498.15	5500	342.5	5.48
503.15	4000	268.8	4.3008
503.15	5500	323.7	5.1792
506.15	4000	256.2	4.0992
506.15	5500	312.5	5
433.15	1000	490.1	7.8416
433.15	2500	526.2	8.4192
433.15	4000	559.3	8.9488
433.15	5500	589.7	9.4352
433.15	7500	617.3	9.8768
433.15	8500	642	10.272

System: heptane; phases: Liquid, Gas
Property: Speed of sound, m/s (Liquid); method: Brillouin scattering
Temperature, K	Speed of sound, m/s	uncertainty
302.15	1108	17.728
318.15	1042	16.672
333.15	981.5	15.704
348.15	921.1	14.7376
363.15	861.2	13.7792
378.15	801.6	12.8256
393.15	742.3	11.8768
408.15	683.1	10.9296
418.15	643.5	10.296
428.15	603.9	9.6624
438.15	564	9.024
448.15	523.9	8.3824
453.15	503.6	8.0576
458.15	483.3	7.7328
463.15	462.8	7.4048
468.15	442.2	7.0752
473.15	421.3	6.7408
478.15	400.3	6.4048
483.15	379	6.064
488.15	357.4	5.7184
493.15	335.4	5.3664
498.15	313	5.008
503.15	290.1	4.6416
508.15	266.6	4.2656
513.15	242.4	3.8784
518.15	217.3	3.4768
523.15	190.9	3.0544
528.15	162.7	2.6032
533.15	131.9	2.1104
536.15	111.1	1.7776

System: heptane; phases: Gas, Liquid
Property: Speed of sound, m/s (Gas); method: Brillouin scattering
Temperature, K	Speed of sound, m/s	uncertainty
408.15	170.3	2.7248
418.15	168.1	2.6896
428.15	165.9	2.6544
438.15	163.4	2.6144
448.15	160.5	2.568
453.15	158.8	2.5408
458.15	157	2.512
463.15	155	2.48
468.15	152.8	2.4448
473.15	150.3	2.4048
478.15	147.5	2.36
483.15	144.5	2.312
488.15	141.2	2.2592
493.15	137.5	2.2
498.15	133.4	2.1344
503.15	129	2.064
508.15	124.1	1.9856
513.15	118.7	1.8992
518.15	112.8	1.8048
523.15	106.4	1.7024
528.15	99.37	1.58992
533.15	91.71	1.46736
536.15	86.78	1.38848

System: heptane; phases: Liquid, Gas
Property: Vapor or sublimation pressure, kPa (Liquid); method: Closed cell (Static) method
Temperature, K	Vapor or sublimation pressure, kPa	uncertainty
302.15	12	15
318.15	31	15
333.15	50	15
348.15	84	15
363.15	116	15
378.15	152	15
393.15	204	15
408.15	286	15
418.15	352	15
428.15	441	15
438.15	535	15
448.15	654	15
453.15	711	15
458.15	780	15
463.15	853	15
468.15	935	15
473.15	1022	15
478.15	1114	15
483.15	1203	15
488.15	1307	15
493.15	1409	15
498.15	1532	15
503.15	1649	15
508.15	1781	15
513.15	1910	15
518.15	2049	15
523.15	2201	15
528.15	2358	15
533.15	2519	15
536.15	2630	15
408.15	286	15
418.15	352	15
428.15	441	15
438.15	535	15
448.15	654	15
453.15	711	15
458.15	780	15
463.15	853	15
468.15	935	15
473.15	1022	15
478.15	1114	15
483.15	1203	15
488.15	1307	15
493.15	1409	15
498.15	1532	15
503.15	1649	15
508.15	1781	15
513.15	1910	15
518.15	2049	15
523.15	2201	15
528.15	2358	15
533.15	2519	15
536.15	2630	15

System: heptane; phases: Liquid
Property: Speed of sound, m/s (Liquid); method: Brillouin scattering
Temperature, K	Pressure, kPa	Speed of sound, m/s	uncertainty
302.15	1000	1112.9	17.8064
302.15	2500	1126.4	18.0224
302.15	4000	1139	18.224
302.15	5500	1152	18.432
302.15	7000	1163.2	18.6112
302.15	8500	1174.3	18.7888
318.15	1000	1054.1	16.8656
318.15	2500	1066.6	17.0656
318.15	4000	1079	17.264
318.15	5500	1091	17.456
318.15	7000	1102	17.632
318.15	8500	1113	17.808
333.15	1000	997.8	15.9648
333.15	2500	1010	16.16
333.15	4000	1022	16.352
333.15	5500	1034	16.544
333.15	7000	1045	16.72
333.15	8500	1057	16.912
348.15	1000	940.3	15.0448
348.15	2500	952.9	15.2464
348.15	4000	965.3	15.4448
348.15	5500	977.6	15.6416
348.15	7000	989.7	15.8352
348.15	8500	1002	16.032
363.15	1000	881.6	14.1056
363.15	2500	895.3	14.3248
363.15	4000	908.8	14.5408
363.15	5500	922	14.752
363.15	7000	934.9	14.9584
363.15	8500	947.6	15.1616
378.15	1000	821.8	13.1488
378.15	2500	837.2	13.3952
378.15	4000	852.2	13.6352
378.15	5500	866.8	13.8688
378.15	7000	881	14.096
378.15	8500	894.7	14.3152
393.15	1000	760.8	12.1728
393.15	2500	778.7	12.4592
393.15	4000	795.8	12.7328
393.15	5500	812.2	12.9952
393.15	7000	827.9	13.2464
393.15	8500	842.9	13.4864
408.15	1000	698.6	11.1776
408.15	2500	719.6	11.5136
408.15	4000	739.4	11.8304
408.15	5500	758.2	12.1312
408.15	7000	775.8	12.4128
408.15	8500	792.2	12.6752
418.15	1000	656.6	10.5056
418.15	2500	680	10.88
418.15	4000	701.9	11.2304
418.15	5500	722.4	11.5584
418.15	7000	741.5	11.864
418.15	8500	759.1	12.1456
428.15	1000	614	9.824
428.15	2500	640.1	10.2416
428.15	4000	664.4	10.6304
428.15	5500	686.9	10.9904
428.15	7000	707.6	11.3216
428.15	8500	726.4	11.6224
438.15	1000	570.9	9.1344
438.15	2500	600	9.6
438.15	4000	626.9	10.0304
438.15	5500	651.6	10.4256
438.15	7000	674	10.784
438.15	8500	694.3	11.1088
448.15	1000	527.2	8.4352
448.15	2500	559.7	8.9552
448.15	4000	589.5	9.432
448.15	5500	616.6	9.8656
448.15	7000	640.9	10.2544
448.15	8500	662.6	10.6016
453.15	1000	505.2	8.0832
453.15	2500	539.5	8.632
453.15	4000	570.8	9.1328
453.15	5500	599.1	9.5856
453.15	7000	624.5	9.992
453.15	8500	647	10.352
458.15	1000	483.1	7.7296
458.15	2500	519.2	8.3072
458.15	4000	552.1	8.8336
458.15	5500	581.7	9.3072
458.15	7000	608.2	9.7312
458.15	8500	631.4	10.1024
463.15	2500	498.9	7.9824
463.15	4000	533.4	8.5344
463.15	5500	564.4	9.0304
463.15	7000	592	9.472
463.15	8500	616	9.856
468.15	2500	478.5	7.656
468.15	4000	514.7	8.2352
468.15	5500	547.2	8.7552
468.15	7000	559.8	8.9568
468.15	8500	600.8	9.6128
473.15	2500	458	7.328
473.15	4000	496	7.936
473.15	5500	530	8.48
473.15	7000	543.9	8.7024
473.15	8500	570.6	9.1296
478.15	2500	437.5	7
478.15	4000	477.4	7.6384
478.15	5500	512	8.192
478.15	7000	528.1	8.4496
478.15	8500	555.7	8.8912
483.15	2500	416.9	6.6704
483.15	4000	458.7	7.3392
483.15	5500	495.7	7.9312
483.15	7000	512.3	8.1968
483.15	8500	540.9	8.6544
488.15	2500	396.3	6.3408
488.15	4000	440	7.04
488.15	5500	478.7	7.6592
488.15	7000	496.7	7.9472
488.15	8500	526.3	8.4208
493.15	2500	375.7	6.0112
493.15	4000	421.4	6.7424
493.15	5500	461.7	7.3872
498.15	2500	354.9	5.6784
498.15	4000	402.8	6.4448
498.15	5500	444.8	7.1168
503.15	2500	334.2	5.3472
503.15	4000	384.1	6.1456
503.15	5500	428	6.848
508.15	2500	313.3	5.0128
508.15	4000	365.5	5.848
508.15	5500	411.2	6.5792
513.15	2500	292.4	4.6784
513.15	4000	346.9	5.5504
513.15	5500	394.5	6.312
518.15	2500	271.5	4.344
518.15	4000	328.3	5.2528
518.15	5500	377.8	6.0448
523.15	4000	309.7	4.9552
523.15	5500	361.2	5.7792
528.15	4000	291.1	4.6576
528.15	5500	344.6	5.5136
