Measured thermophysical data. Solubility of N-(4-Chlorophenyl)-2-(pyridin-4-ylcarbonyl)hydrazinecarbothioamide (Isoniazid Analogue) in Five Pure Solvents at (298.15 to 338.15) K
Source: J. Chem. Eng. Data, 2014, 10.1021/je500457p
Compound 1: N-(4-chlorophenyl)-2-(pyridin-4-ylcarbonyl)hydrazinecarbothioamide, C13H11ClN4OS, purity 99%
Compound 2: water, H2O, purity 99.9%
Compound 3: ethanol, C2H6O, purity 99.9%
Compound 4: ethylene glycol, C2H6O2, purity 99.6%
Compound 5: propylene glycol, C3H8O2, purity 99.5%
Compound 6: isopropyl alcohol, C3H8O, purity 99.7%
Compound 7: 2-(2-ethoxyethoxy)ethanol, C6H14O3, purity 99.9%

System: water + N-(4-chlorophenyl)-2-(pyridin-4-ylcarbonyl)hydrazinecarbothioamide; phases: Liquid, Crystal
Fixed: Pressure, kPa = 100
Property: Mole fraction of N-(4-chlorophenyl)-2-(pyridin-4-ylcarbonyl)hydrazinecarbothioamide (Liquid); method: UV-Visible spectrophotometer
Temperature, K	Mole fraction of N-(4-chlorophenyl)-2-(pyridin-4-ylcarbonyl)hydrazinecarbothioamide	uncertainty
298.15	.000000517	.0000000080135
308.15	.000000593	.0000000091915
318.15	.000000705	.0000000109275
328.15	.000000828	.000000012834
338.15	.000000975	.0000000151125

System: ethanol + N-(4-chlorophenyl)-2-(pyridin-4-ylcarbonyl)hydrazinecarbothioamide; phases: Liquid, Crystal
Fixed: Pressure, kPa = 100
Property: Mole fraction of N-(4-chlorophenyl)-2-(pyridin-4-ylcarbonyl)hydrazinecarbothioamide (Liquid); method: UV-Visible spectrophotometer
Temperature, K	Mole fraction of N-(4-chlorophenyl)-2-(pyridin-4-ylcarbonyl)hydrazinecarbothioamide	uncertainty
298.15	.000647	.0000100285
308.15	.000693	.0000107415
318.15	.000743	.0000115165
328.15	.000792	.000012276
338.15	.000834	.000012927

System: isopropyl alcohol + N-(4-chlorophenyl)-2-(pyridin-4-ylcarbonyl)hydrazinecarbothioamide; phases: Liquid, Crystal
Fixed: Pressure, kPa = 100
Property: Mole fraction of N-(4-chlorophenyl)-2-(pyridin-4-ylcarbonyl)hydrazinecarbothioamide (Liquid); method: UV-Visible spectrophotometer
Temperature, K	Mole fraction of N-(4-chlorophenyl)-2-(pyridin-4-ylcarbonyl)hydrazinecarbothioamide	uncertainty
298.15	.00113	.000017515
308.15	.00121	.000018755
318.15	.00121	.000018755
328.15	.00129	.000019995
338.15	.00138	.00002139

System: ethylene glycol + N-(4-chlorophenyl)-2-(pyridin-4-ylcarbonyl)hydrazinecarbothioamide; phases: Liquid, Crystal
Fixed: Pressure, kPa = 100
Property: Mole fraction of N-(4-chlorophenyl)-2-(pyridin-4-ylcarbonyl)hydrazinecarbothioamide (Liquid); method: UV-Visible spectrophotometer
Temperature, K	Mole fraction of N-(4-chlorophenyl)-2-(pyridin-4-ylcarbonyl)hydrazinecarbothioamide	uncertainty
298.15	.0077	.00011935
308.15	.00841	.000130355
318.15	.00894	.00013857
328.15	.00961	.000148955
338.15	.0104	.0001612

System: propylene glycol + N-(4-chlorophenyl)-2-(pyridin-4-ylcarbonyl)hydrazinecarbothioamide; phases: Liquid, Crystal
Fixed: Pressure, kPa = 100
Property: Mole fraction of N-(4-chlorophenyl)-2-(pyridin-4-ylcarbonyl)hydrazinecarbothioamide (Liquid); method: UV-Visible spectrophotometer
Temperature, K	Mole fraction of N-(4-chlorophenyl)-2-(pyridin-4-ylcarbonyl)hydrazinecarbothioamide	uncertainty
298.15	.00738	.00011439
308.15	.00789	.000122295
318.15	.00848	.00013144
328.15	.00909	.000140895
338.15	.00987	.000152985

System: 2-(2-ethoxyethoxy)ethanol + N-(4-chlorophenyl)-2-(pyridin-4-ylcarbonyl)hydrazinecarbothioamide; phases: Liquid, Crystal
Fixed: Pressure, kPa = 100
Property: Mole fraction of N-(4-chlorophenyl)-2-(pyridin-4-ylcarbonyl)hydrazinecarbothioamide (Liquid); method: UV-Visible spectrophotometer
Temperature, K	Mole fraction of N-(4-chlorophenyl)-2-(pyridin-4-ylcarbonyl)hydrazinecarbothioamide	uncertainty
298.15	.0423	.00065565
308.15	.0468	.0007254
318.15	.0514	.0007967
328.15	.0565	.00087575
338.15	.0607	.00094085
