Measured thermophysical data. Thermodynamics Phase Equilibria of the Aqueous Ternary Systems LiCl + KCl (MgCl2) + H2O at 348 K
Source: J. Chem. Eng. Data, 2015, 10.1021/je500700d
Compound 1: lithium chloride, ClLi, purity 99%
Compound 2: potassium chloride, ClK, purity 99.5%
Compound 3: magnesium chloride, Cl2Mg, purity 99%
Compound 4: water, H2O, purity 99.8%

System: lithium chloride + water + magnesium chloride; phases: Liquid, Crystal of intercomponent compound 1
Fixed: Pressure, kPa = 101
Fixed: Temperature, K = 348
Property: Mass fraction of lithium chloride (Liquid); method: chemical analysis
Mass fraction of magnesium chloride	Mass fraction of lithium chloride	uncertainty
0	.5089	50
.0443	.4663	50
.053	.4583	50
.0935	.4163	50
.1179	.3916	50

System: lithium chloride + water + magnesium chloride; phases: Liquid, Crystal of intercomponent compound 2
Fixed: Pressure, kPa = 101
Fixed: Temperature, K = 348
Property: Mass fraction of lithium chloride (Liquid); method: chemical analysis
Mass fraction of magnesium chloride	Mass fraction of lithium chloride	uncertainty
.1569	.3147	50
.1882	.262	50
.2284	.2126	50

System: lithium chloride + water + magnesium chloride; phases: Liquid, Crystal of intercomponent compound 3
Fixed: Pressure, kPa = 101
Fixed: Temperature, K = 348
Property: Mass fraction of lithium chloride (Liquid); method: chemical analysis
Mass fraction of magnesium chloride	Mass fraction of lithium chloride	uncertainty
.288	.1422	50
.3182	.0912	50
.3281	.075	50
.3495	.0479	50
.358	.0334	50
.3938	0	50

System: lithium chloride + water + magnesium chloride; phases: Liquid, Crystal of intercomponent compound 2, Crystal of intercomponent compound 1
Fixed: Pressure, kPa = 100
Property: Mass fraction of lithium chloride (Liquid); method: chemical analysis
Temperature, K	Mass fraction of lithium chloride	uncertainty
348	.3691	.005

System: lithium chloride + water + magnesium chloride; phases: Liquid, Crystal of intercomponent compound 3, Crystal of intercomponent compound 2
Fixed: Pressure, kPa = 100
Property: Mass fraction of lithium chloride (Liquid); method: chemical analysis
Temperature, K	Mass fraction of lithium chloride	uncertainty
348	.1864	.005

System: lithium chloride + water + magnesium chloride; phases: Liquid, Crystal of intercomponent compound 1, Crystal of intercomponent compound 2
Fixed: Pressure, kPa = 100
Property: Mass fraction of magnesium chloride (Liquid); method: chemical analysis
Temperature, K	Mass fraction of magnesium chloride	uncertainty
348	.1206	.005

System: lithium chloride + water + magnesium chloride; phases: Liquid, Crystal of intercomponent compound 2, Crystal of intercomponent compound 3
Fixed: Pressure, kPa = 100
Property: Mass fraction of magnesium chloride (Liquid); method: chemical analysis
Temperature, K	Mass fraction of magnesium chloride	uncertainty
348	.2483	.005

System: lithium chloride + water + magnesium chloride; phases: Liquid
Fixed: Pressure, kPa = 100
Fixed: Temperature, K = 348
Property: Mass density, kg/m3 (Liquid); method: Vibrating tube method
Mass fraction of magnesium chloride	Mass fraction of lithium chloride	Mass density, kg/m3	uncertainty
0	.5089	1443.7	.2
.0443	.4663	1461.7	.2
.053	.4583	1499.8	.2
.0935	.4163	1518.2	.2
.1179	.3916	1528.1	.2
.1206	.3691	1526.2	.2
.1569	.3147	1524	.2
.1882	.262	1522.2	.2
.2284	.2126	1521.7	.2
.2483	.1864	1501.1	.2
.288	.1422	1480.6	.2
.3182	.0912	1499.7	.2
.3281	.075	1503.1	.2
.3495	.0479	1502	.2
.358	.0334	1506.1	.2
.3938	0	1503.6	.2

System: lithium chloride + water + magnesium chloride; phases: Liquid
Fixed: Pressure, kPa = 100
Fixed: Temperature, K = 348
Property: Refractive index (Na D-line) (Liquid); method: Standard Abbe refractometry
Mass fraction of magnesium chloride	Mass fraction of lithium chloride	Refractive index (Na D-line)	uncertainty
0	.5089	1.4454	.0001
.0443	.4663	1.4471	.0001
.053	.4583	1.4498	.0001
.0935	.4163	1.4511	.0001
.1179	.3916	1.4511	.0001
.1206	.3691	1.4518	.0001
.1569	.3147	1.446	.0001
.1882	.262	1.4439	.0001
.2284	.2126	1.4441	.0001
.2483	.1864	1.4447	.0001
.288	.1422	1.44	.0001
.3182	.0912	1.4392	.0001
.3281	.075	1.4388	.0001
.3495	.0479	1.4385	.0001
.358	.0334	1.4388	.0001
.3938	0	1.438	.0001

System: potassium chloride + lithium chloride + water; phases: Liquid, Crystal
Fixed: Temperature, K = 348
Fixed: Pressure, kPa = 100
Property: Mass fraction of lithium chloride (Liquid); method: chemical analysis
Mass fraction of potassium chloride	Mass fraction of lithium chloride	uncertainty
.3229	0	.005
.2869	.0172	.005
.2524	.0401	.005
.2156	.0838	.005
.1899	.1076	.005
.1484	.15	.005
.0963	.2142	.005
.0861	.2384	.005
.0724	.2583	.005
.0645	.3232	.005
.0668	.4049	.005

System: potassium chloride + lithium chloride + water; phases: Liquid, Crystal of intercomponent compound 1
Fixed: Temperature, K = 348
Fixed: Pressure, kPa = 100
Property: Mass fraction of lithium chloride (Liquid); method: chemical analysis
Mass fraction of potassium chloride	Mass fraction of lithium chloride	uncertainty
.0513	.4633	.005
.0375	.4775	.005
.0317	.5015	.005
0	.5089	.005

System: potassium chloride + lithium chloride + water; phases: Liquid, Crystal of intercomponent compound 1, Crystal
Fixed: Pressure, kPa = 100
Property: Mass fraction of potassium chloride (Liquid); method: chemical analysis
Temperature, K	Mass fraction of potassium chloride	uncertainty
348	.0616	.005

System: potassium chloride + lithium chloride + water; phases: Liquid, Crystal of intercomponent compound 1, Crystal
Fixed: Pressure, kPa = 100
Property: Mass fraction of lithium chloride (Liquid); method: chemical analysis
Temperature, K	Mass fraction of lithium chloride	uncertainty
348	.423	.005

System: potassium chloride + lithium chloride + water; phases: Liquid
Fixed: Pressure, kPa = 100
Fixed: Temperature, K = 348
Property: Mass density, kg/m3 (Liquid); method: Vibrating tube method
Mass fraction of potassium chloride	Mass fraction of lithium chloride	Mass density, kg/m3	uncertainty
.3229	0	1312	.2
.2869	.0172	1307.9	.2
.2524	.0401	1307.6	.2
.2156	.0838	1284.3	.2
.1899	.1076	1281.1	.2
.1484	.15	1278.9	.2
.0963	.2142	1306.9	.2
.0861	.2384	1324.7	.2
.0724	.2583	1321.8	.2
.0645	.3232	1373.3	.2
.0668	.4049	1450	.2
.0616	.423	1502.3	.2
.0513	.4633	1497.4	.2
.0375	.4775	1472.9	.2
.0317	.5015	1463.4	.2
0	.5089	1439.3	.2

System: potassium chloride + lithium chloride + water; phases: Liquid
Fixed: Pressure, kPa = 100
Fixed: Temperature, K = 348
Property: Refractive index (Na D-line) (Liquid); method: Standard Abbe refractometry
Mass fraction of potassium chloride	Mass fraction of lithium chloride	Refractive index (Na D-line)	uncertainty
.3229	0	1.3713	.0001
.2869	.0172	1.3768	.0001
.2524	.0401	1.3773	.0001
.2156	.0838	1.3796	.0001
.1899	.1076	1.3812	.0001
.1484	.15	1.3857	.0001
.0963	.2142	1.3924	.0001
.0861	.2384	1.396	.0001
.0724	.2583	1.3981	.0001
.0645	.3232	1.4212	.0001
.0668	.4049	1.4318	.0001
.0616	.423	1.4478	.0001
.0513	.4633	1.4488	.0001
.0375	.4775	1.4468	.0001
.0317	.5015	1.4498	.0001
0	.5089	1.4461	.0001
