Measured thermophysical data. Thermochemistry of Halogen-Substituted Methylbenzenes
Source: J. Chem. Eng. Data, 2015, 10.1021/je500784s
Compound 1: benzene, bromo-, C6H5Br, purity 99%
Compound 2: benzene, iodo-, C6H5I, purity 98%
Compound 3: 1-bromo-2-methylbenzene, C7H7Br, purity 99%
Compound 4: 1-bromo-3-methylbenzene, C7H7Br, purity 99%
Compound 5: 1-bromo-4-methylbenzene, C7H7Br, purity 99%
Compound 6: 1-iodo-2-methylbenzene, C7H7I, purity 97%
Compound 7: 1-iodo-3-methylbenzene, C7H7I, purity 99%
Compound 8: 1-iodo-4-methylbenzene, C7H7I, purity 99%
Compound 9: 2-bromo-1,3-dimethylbenzene, C8H9Br, purity 97%
Compound 10: 1-iodo-2,6-dimethylbenzene, C8H9I, purity 97%
Compound 11: 1-iodo-2,4-dimethylbenzene, C8H9I, purity 97%

System: benzene, bromo-; phases: Liquid, Gas
Property: Vapor or sublimation pressure, kPa (Liquid); method: Transpiration method
Temperature, K	Vapor or sublimation pressure, kPa	uncertainty
276.4	.1345	.0028245
278.3	.1534	.0032214
282.2	.1957	.0041097
283.1	.2092	.0043932
285.4	.2487	.0052227
286.2	.2532	.0053172
288.3	.2954	.0062034
289.3	.3211	.0067431
291.4	.3549	.0074529
292.4	.3794	.0079674
293.2	.4046	.0084966
294.4	.4413	.0092673
295.5	.4596	.0096516
297.4	.5225	.0109725
300.4	.6407	.0134547
303.4	.7604	.0159684

System: benzene, iodo-; phases: Liquid, Gas
Property: Vapor or sublimation pressure, kPa (Liquid); method: Transpiration method
Temperature, K	Vapor or sublimation pressure, kPa	uncertainty
283.8	.05269	.00110649
286.8	.06386	.00134106
289.9	.08034	.00168714
293	.09644	.00202524
294	.1029	.0021609
296.8	.1261	.0026481
299.6	.1487	.0031227
302.6	.1853	.0038913
305.7	.2226	.0046746
308.7	.2722	.0057162
311.8	.3239	.0068019
314.6	.3944	.0082824

System: 1-bromo-2-methylbenzene; phases: Liquid, Gas
Property: Vapor or sublimation pressure, kPa (Liquid); method: Transpiration method
Temperature, K	Vapor or sublimation pressure, kPa	uncertainty
281.2	.04946	.00103866
284.2	.06067	.00127407
285.2	.06568	.00137928
287.2	.07592	.00159432
287.2	.07526	.00158046
290.2	.09238	.00193998
293.2	.1131	.0023751
296.2	.1381	.0029001
299.2	.1684	.0035364
302.2	.2053	.0043113
305.2	.25	.00525
308.2	.3031	.0063651
308.2	.3008	.0063168
308.2	.2962	.0062202
308.2	.2944	.0061824
313.1	.3903	.0081963
313.1	.3953	.0083013
313.1	.3936	.0082656
313.1	.3872	.0081312
313.1	.3865	.0081165
313.1	.388	.008148

System: 1-bromo-3-methylbenzene; phases: Liquid, Gas
Property: Vapor or sublimation pressure, kPa (Liquid); method: Transpiration method
Temperature, K	Vapor or sublimation pressure, kPa	uncertainty
274.2	.02006	.00042126
276.2	.0234	.0004914
278.2	.02748	.00057708
278.3	.02776	.00058296
279.2	.0289	.0006069
280.3	.03259	.00068439
281.3	.0351	.0007371
282.2	.03686	.00077406
282.5	.03833	.00080493
284.2	.04171	.00087591
284.2	.0421	.0008841
287.2	.05299	.00111279
287.3	.0526	.0011046
290.2	.06611	.00138831
290.4	.06761	.00141981
293.2	.08432	.00177072
293.6	.08569	.00179949
296.2	.09718	.00204078
296.7	.1039	.0021819
299.2	.1199	.0025179
299.8	.1279	.0026859
302.2	.1478	.0031038
302.8	.1548	.0032508
305.2	.18	.00378
308.2	.2084	.0043764
308.2	.2115	.0044415
308.2	.2068	.0043428

System: 1-bromo-4-methylbenzene; phases: Crystal, Liquid, Air at 1 atmosphere
Property: Normal melting temperature, K (Crystal); method: DSC/DTA
Normal melting temperature, K	uncertainty
301.3	

System: 1-bromo-4-methylbenzene; phases: Crystal, Liquid, Air at 1 atmosphere
Property: Molar enthalpy of transition or fusion, kJ/mol (Crystal); method: DSC
Molar enthalpy of transition or fusion, kJ/mol	uncertainty
14.9	.3

System: 1-bromo-4-methylbenzene; phases: Liquid, Gas
Property: Vapor or sublimation pressure, kPa (Liquid); method: Transpiration method
Temperature, K	Vapor or sublimation pressure, kPa	uncertainty
301.9	.1746	.0036666
304.2	.1989	.0041769
304.9	.2137	.0044877
307.2	.2422	.0050862
310.3	.2964	.0062244
313.2	.3477	.0073017
314.4	.3671	.0077091
316.3	.4044	.0084924
317.5	.4335	.0091035
319.3	.4827	.0101367
320.6	.507	.010647
322.4	.5742	.0120582
325.3	.6696	.0140616
328.2	.7835	.0164535
331.3	.8879	.0186459
332.3	.9409	.0197589
335.3	1.1	.0231

System: 1-bromo-4-methylbenzene; phases: Crystal, Gas
Property: Vapor or sublimation pressure, kPa (Crystal); method: Transpiration method
Temperature, K	Vapor or sublimation pressure, kPa	uncertainty
274.5	.01409	.00029589
277.2	.01853	.00038913
278.3	.02013	.00042273
280.2	.02439	.00051219
282.2	.02935	.00061635
283.2	.0328	.0006888
285.5	.04128	.00086688
286.2	.04379	.00091959
288.3	.05178	.00108738
289.6	.05809	.00121989
291.2	.06948	.00145908
294.3	.08957	.00188097
297.3	.1161	.0024381
298.2	.1223	.0025683
299.2	.1357	.0028497
300.8	.1543	.0032403

System: 1-iodo-2-methylbenzene; phases: Liquid, Gas
Property: Vapor or sublimation pressure, kPa (Liquid); method: Transpiration method
Temperature, K	Vapor or sublimation pressure, kPa	uncertainty
283.2	.01623	.00034083
288.2	.02387	.00050127
293.2	.0355	.0007455
301.2	.06212	.00130452
304.2	.07615	.00159915
307.4	.0943	.0019803
310.3	.1131	.0023751
313.1	.1354	.0028434
316.2	.1655	.0034755
319.3	.1983	.0041643
322.1	.2325	.0048825
325.1	.2843	.0059703

System: 1-iodo-3-methylbenzene; phases: Liquid, Gas
Property: Vapor or sublimation pressure, kPa (Liquid); method: Transpiration method
Temperature, K	Vapor or sublimation pressure, kPa	uncertainty
279.3	.00936	.00019656
275.7	.00715	.00015015
283.5	.01241	.00026061
286.4	.0157	.0003297
281.9	.01131	.00023751
289.3	.01945	.00040845
289.3	.01996	.00041916
293.1	.02757	.00057897
293.2	.02683	.00056343
298.1	.0403	.0008463
298.2	.03887	.00081627
308	.07665	.00160965
308	.07718	.00162078
302.9	.05424	.00113904
302.9	.05679	.00119259
313.1	.1065	.0022365

System: 1-iodo-4-methylbenzene; phases: Crystal, Liquid, Air at 1 atmosphere
Property: Normal melting temperature, K (Crystal); method: DSC/DTA
Normal melting temperature, K	uncertainty
307.5	

System: 1-iodo-4-methylbenzene; phases: Crystal, Liquid, Air at 1 atmosphere
Property: Molar enthalpy of transition or fusion, kJ/mol (Crystal); method: DSC
Molar enthalpy of transition or fusion, kJ/mol	uncertainty
15	.3

System: 1-iodo-4-methylbenzene; phases: Liquid, Gas
Property: Vapor or sublimation pressure, kPa (Liquid); method: Transpiration method
Temperature, K	Vapor or sublimation pressure, kPa	uncertainty
308	.08115	.00170415
311	.09922	.00208362
315	.1261	.0026481
319.1	.1599	.0033579
323.2	.2025	.0042525
328.1	.2776	.0058296
332.9	.3665	.0076965

System: 1-iodo-4-methylbenzene; phases: Crystal, Gas
Property: Vapor or sublimation pressure, kPa (Crystal); method: Transpiration method
Temperature, K	Vapor or sublimation pressure, kPa	uncertainty
279.5	.00537	.00011277
283.3	.008	.000168
286.3	.01101	.00023121
289.4	.01456	.00030576
293.2	.0205	.0004305
293.2	.02183	.00045843
298.1	.0335	.0007035
303	.0526	.0011046

System: 2-bromo-1,3-dimethylbenzene; phases: Liquid, Gas
Property: Vapor or sublimation pressure, kPa (Liquid); method: Transpiration method
Temperature, K	Vapor or sublimation pressure, kPa	uncertainty
274.2	.00695	.00014595
276.2	.0084	.0001764
278.3	.01013	.00021273
281.2	.01282	.00026922
284.2	.0161	.0003381
287.2	.02071	.00043491
290.2	.02551	.00053571
293.3	.0317	.0006657
293.3	.03214	.00067494
293.4	.03244	.00068124
296.3	.03998	.00083958
299.3	.04922	.00103362
302.2	.06313	.00132573
305.3	.07815	.00164115

System: 1-iodo-2,6-dimethylbenzene; phases: Liquid, Gas
Property: Vapor or sublimation pressure, kPa (Liquid); method: Transpiration method
Temperature, K	Vapor or sublimation pressure, kPa	uncertainty
284.5	.005	.000105
288.4	.00709	.00014889
291.6	.00925	.00019425
296.5	.014	.000294
298.4	.01572	.00033012
299.5	.01696	.00035616
301.5	.01972	.00041412
303.3	.02303	.00048363
306.4	.02867	.00060207
308.3	.03267	.00068607
311.4	.04222	.00088662
313.6	.04835	.00101535
316.4	.05818	.00122178
318.4	.06657	.00139797
321.2	.08028	.00168588
323.4	.09228	.00193788
326.3	.1123	.0023583
328.5	.1277	.0026817
331.3	.1526	.0032046
333.4	.1721	.0036141

System: 1-iodo-2,4-dimethylbenzene; phases: Liquid, Gas
Property: Vapor or sublimation pressure, kPa (Liquid); method: Transpiration method
Temperature, K	Vapor or sublimation pressure, kPa	uncertainty
293.5	.00972	.00020412
298.4	.01434	.00030114
301.4	.01827	.00038367
303.4	.02175	.00045675
306.3	.02654	.00055734
308.3	.03017	.00063357
311.3	.03876	.00081396
313.3	.04322	.00090762
316.4	.05407	.00113547
318.6	.06284	.00131964
321.4	.07438	.00156198
323.4	.08333	.00174993
326.4	.1058	.0022218
326.4	.1032	.0021672
328.5	.1158	.0024318
