Measured thermophysical data. Viscosity of {xCH4 + (1-x)C3H8} with x = 0.949 for Temperatures Between (200 and 423) K and Pressures Between (10 and 31) MPa
Source: J. Chem. Eng. Data, 2015, 10.1021/je500857w
Compound 1: methane, CH4, purity 99.995%
Compound 2: propane, C3H8, purity 99.995%

System: methane + propane; phases: Gas
Fixed: Mole fraction of methane = .949
Property: Viscosity, Pa*s (Gas); method: Vibrating wire viscometry
Pressure, kPa	Temperature, K	Viscosity, Pa*s	uncertainty
10367	199.918	.00003814	.00000096
13841	200.599	.00004236	.00000078
17279	202.317	.00004452	.00000084
20735	203.359	.00004739	.00000093
24182	203.235	.00005008	.00000088
25922	203.431	.0000511	.00000096
27628	203.356	.00005294	.0000009
31114	204.187	.00005549	.00000091
20701	255.619	.00002791	.00000021
24135	255.515	.00003085	.00000021
25902	255.586	.00003221	.00000023
27592	255.591	.00003348	.00000024
31095	255.575	.00003577	.0000003
20946	311.121	.00002061	.00000031
24419	311.131	.00002279	.00000031
25869	311.082	.00002348	.00000019
27584	311.129	.00002453	.00000023
31037	311.105	.0000265	.0000002
24192	366.882	.00001997	.00000016
25926	366.894	.00002064	.00000015
27645	366.886	.00002138	.00000016
31144	366.889	.0000226	.00000027
24191	423.625	.00001944	.00000017
25937	423.632	.00001988	.00000014
27640	423.633	.00002032	.00000017
31097	423.633	.00002136	.00000015
