Measured thermophysical data. Liquid Liquid Equilibria for Quaternary Systems of Water + Ethanol + Diethyl Carbonate + Methylbenzene or Heptane
Source: J. Chem. Eng. Data, 2014, 10.1021/je500530q
Compound 1: water, H2O, purity 99.8%
Compound 2: diethyl carbonate, C5H10O3, purity 99.4%
Compound 3: ethanol, C2H6O, purity 99.7%
Compound 4: methylbenzene, C7H8, purity 99.7%
Compound 5: heptane, C7H16, purity 99.5%

System: ethanol + diethyl carbonate + water; phases: Liquid mixture 2, Liquid mixture 1
Fixed: Temperature, K = 303.15
Fixed: Pressure, kPa = 100
Property: Mole fraction of ethanol (Liquid mixture 2); method: Chromatography
Property: Mole fraction of water (Liquid mixture 1); method: Chromatography
Property: Mole fraction of ethanol (Liquid mixture 1); method: Chromatography
Mole fraction of water	Mole fraction of ethanol	uncertainty	Mole fraction of water	uncertainty	Mole fraction of ethanol	uncertainty
.999	0	.001	.053	.001	0	.001
.977	.02	.001	.061	.001	.023	.001
.951	.045	.001	.082	.001	.059	.001
.929	.067	.001	.111	.001	.096	.001
.904	.09	.001	.147	.001	.145	.001
.886	.107	.001	.187	.001	.187	.001
.863	.126	.001	.248	.001	.227	.001
.842	.143	.001	.311	.001	.257	.001
.822	.157	.001	.378	.001	.271	.001

System: diethyl carbonate + methylbenzene + water; phases: Liquid mixture 2, Liquid mixture 1
Fixed: Temperature, K = 303.15
Fixed: Pressure, kPa = 100
Property: Mole fraction of water (Liquid mixture 2); method: Chromatography
Property: Mole fraction of diethyl carbonate (Liquid mixture 1); method: Chromatography
Property: Mole fraction of water (Liquid mixture 1); method: Chromatography
Mole fraction of diethyl carbonate	Mole fraction of water	uncertainty	Mole fraction of diethyl carbonate	uncertainty	Mole fraction of water	uncertainty
.001	.999	.001	.851	.001	.054	.001
.001	.999	.001	.746	.001	.036	.001
.001	.999	.001	.662	.001	.028	.001
.001	.999	.001	.595	.001	.027	.001
.001	.999	.001	.526	.001	.021	.001
.001	.999	.001	.467	.001	.019	.001
0	1	.001	0	.001	.003	.001
.001	.999	.001	.947	.001	.053	.001

System: diethyl carbonate + heptane + water; phases: Liquid mixture 1, Liquid mixture 2
Fixed: Temperature, K = 303.15
Fixed: Pressure, kPa = 100
Property: Mole fraction of water (Liquid mixture 1); method: Chromatography
Property: Mole fraction of water (Liquid mixture 2); method: Chromatography
Property: Mole fraction of diethyl carbonate (Liquid mixture 2); method: Chromatography
Mole fraction of diethyl carbonate	Mole fraction of water	uncertainty	Mole fraction of water	uncertainty	Mole fraction of diethyl carbonate	uncertainty
.88	.047	.001	.998	.001	.002	.001
0	.001	.001	1	.001	0	.001
.947	.053	.001	.999	.001	.001	.001
.807	.031	.001	.999	.001	.001	.001
.73	.026	.001	.998	.001	.002	.001
.67	.022	.001	.999	.001	.001	.001
.622	.019	.001	.999	.001	.001	.001
.584	.016	.001	.999	.001	.001	.001
.536	.016	.001	.999	.001	.001	.001
.502	.014	.001	.999	.001	.001	.001

System: diethyl carbonate + water; phases: Liquid mixture 1, Liquid mixture 2
Fixed: Pressure, kPa = 101
Property: Mole fraction of water (Liquid mixture 1); method: Chromatography
Temperature, K	Mole fraction of water	uncertainty
303.15	.053	.001

System: diethyl carbonate + water; phases: Liquid mixture 2, Liquid mixture 1
Fixed: Pressure, kPa = 101
Property: Mole fraction of water (Liquid mixture 2); method: Chromatography
Temperature, K	Mole fraction of water	uncertainty
303.15	.999	.001
