Measured thermophysical data. Vapor Liquid Equilibrium of Three Hydrofluorocarbons with [HMIM][Tf2N]
Source: J. Chem. Eng. Data, 2015, 10.1021/je501069b
Compound 1: 1-hexyl-3-methylimidazolium bis(trifluoromethylsulfonyl)imide, C12H19F6N3O4S2, purity 99%
Compound 2: difluoromethane, CH2F2, purity 99.9%
Compound 3: 1,1-difluoroethane, C2H4F2, purity 99.9%
Compound 4: pentafluoroethane, C2HF5, purity 99.9%
Compound 5: carbon dioxide, CO2, purity 99.999%

System: carbon dioxide + 1-hexyl-3-methylimidazolium bis(trifluoromethylsulfonyl)imide; phases: Liquid, Gas
Property: Mole fraction of carbon dioxide (Liquid); method: Phase equilibration
Temperature, K	Pressure, kPa	Mole fraction of carbon dioxide	uncertainty
323.4	1650	.264	.01056
324.6	2487	.355	.0142
323.2	2927	.4081	.016324
324	3814	.4763	.019052
323.4	4649	.5337	.021348

System: difluoromethane + 1-hexyl-3-methylimidazolium bis(trifluoromethylsulfonyl)imide; phases: Liquid, Gas
Property: Mole fraction of difluoromethane (Liquid); method: Phase equilibration
Temperature, K	Pressure, kPa	Mole fraction of difluoromethane	uncertainty
302.7	114.4	.1114	.004456
303.3	210.8	.198	.00792
302.9	302.1	.2806	.011224
302.5	414.2	.3621	.014484
302.9	513.6	.4192	.016768
303.4	585.4	.4548	.018192
303.5	639.5	.4972	.019888
313.9	139	.106	.00424
313.2	250.7	.1907	.007628
313	363.3	.2714	.010856
313.9	509.7	.3504	.014016
312.5	613.7	.4088	.016352
312.2	693.1	.4447	.017788
313.4	778.7	.4858	.019432
323.6	161.5	.1013	.004052
323.9	295.7	.1829	.007316
323.2	428.4	.2618	.010472
323.9	600.2	.3396	.013584
322.6	740.4	.3954	.015816
324.1	848.2	.4304	.017216
322.4	902.8	.476	.01904
332.6	182.6	.0971	.003884
333.4	338.7	.1755	.00702
332.6	492.1	.2527	.010108
332.6	682.6	.3299	.013196
333.5	861.3	.3834	.015336
333.7	977.6	.4186	.016744
333	1068.6	.4626	.018504
343.2	208.1	.0923	.003692
342.9	381.5	.1687	.006748
343.3	563.4	.243	.00972
343.3	791.4	.3173	.012692
343.1	979.4	.3717	.014868
344.1	1130.7	.4046	.016184
342.6	1220.8	.4506	.018024

System: 1,1-difluoroethane + 1-hexyl-3-methylimidazolium bis(trifluoromethylsulfonyl)imide; phases: Liquid, Gas
Property: Mole fraction of 1,1-difluoroethane (Liquid); method: Phase equilibration
Temperature, K	Pressure, kPa	Mole fraction of 1,1-difluoroethane	uncertainty
302.4	37.6	.0672	.002688
302.9	55.9	.0999	.003996
303.2	73.8	.1367	.005468
302.8	96.2	.1814	.007256
303.2	115.4	.2122	.008488
302.3	134.4	.2528	.010112
313.5	47.8	.0646	.002584
312.3	68.9	.0968	.003872
313.4	93.1	.1324	.005296
313.4	122.6	.1761	.007044
312.2	141.3	.2074	.008296
313.4	174.8	.2459	.009836
322.8	57.5	.0629	.002516
323.5	86.2	.0929	.003716
323.6	114.5	.1279	.005116
322.2	146.9	.1714	.006856
323.7	180.3	.2003	.008012
322.3	209.6	.2402	.009608
333.1	68.5	.0598	.002392
332.8	101	.0897	.003588
333.8	137.3	.1233	.004932
333.4	181	.165	.0066
332.5	210.9	.195	.0078
332.9	256.4	.2326	.009304
343.3	79.8	.0573	.002292
343	118.3	.0861	.003444
342.6	157.8	.1193	.004772
342.7	210.1	.1598	.006392
342.8	252.1	.188	.00752
343.4	307.4	.2247	.008988

System: pentafluoroethane + 1-hexyl-3-methylimidazolium bis(trifluoromethylsulfonyl)imide; phases: Liquid, Gas
Property: Mole fraction of pentafluoroethane (Liquid); method: Phase equilibration
Temperature, K	Pressure, kPa	Mole fraction of pentafluoroethane	uncertainty
303.1	109.1	.072	.00288
303.3	212.4	.141	.00564
303.2	291.3	.1885	.00754
302.6	409.2	.261	.01044
303.1	473.2	.2936	.011744
303.5	543.5	.3282	.013128
312.4	126.4	.0679	.002716
312.7	251.7	.1326	.005304
313.5	355.9	.1757	.007028
312.5	497.7	.2458	.009832
312.3	566.4	.2787	.011148
312.7	653.7	.3186	.012744
322.6	149.1	.0627	.002508
323.4	302	.122	.00488
323.3	418.8	.1636	.006544
323.2	598.7	.2286	.009144
322.3	678.1	.2608	.010432
322.5	781.1	.2927	.011708
332.7	172.3	.0576	.002304
332.5	344.4	.1136	.004544
332.6	480.7	.1521	.006084
332.5	689.3	.2135	.00854
332.5	795.6	.2422	.009688
332.8	917.2	.2756	.011024
342.9	194.9	.053	.00212
343	393.5	.1043	.004172
342.8	548.6	.1399	.005596
343	793.4	.1966	.007864
342.5	911.3	.2243	.008972
343.2	1059.2	.255	.0102
