Measured thermophysical data. Isobaric Vapor Liquid Equilibria of Binary Systems (Propyl Acetate + 2-Methylbutan-1-ol), (Propyl Acetate + Hexan-1-ol), and (Propyl Acetate + Heptan-1-ol) at 101.3 kPa
Source: J. Chem. Eng. Data, 2014, 10.1021/je500331g
Compound 1: propyl acetate, C5H10O2, purity 99.8%
Compound 2: 2-methyl-1-butanol, C5H12O, purity 99.7%
Compound 3: n-hexanol, C6H14O, purity 99.9%
Compound 4: 1-heptanol, C7H16O, purity 99.7%

System: propyl acetate + 2-methyl-1-butanol; phases: Liquid, Gas
Property: Boiling temperature at pressure P, K (Liquid); method: Ebulliometric method (Recirculating still)
Mole fraction of propyl acetate	Pressure, kPa	Boiling temperature at pressure P, K	uncertainty
.0355	101.3	401.15	.05
.0813	101.3	399.25	.05
.1121	101.3	398.05	.05
.1461	101.3	396.55	.05
.2047	101.3	394.45	.05
.2439	101.3	392.85	.05
.291	101.3	391.45	.05
.345	101.3	389.75	.05
.3865	101.3	388.65	.05
.4348	101.3	387.35	.05
.4799	101.3	386.15	.05
.5322	101.3	384.75	.05
.5829	101.3	383.45	.05
.6451	101.3	381.95	.05
.687	101.3	380.95	.05
.7429	101.3	379.85	.05
.8043	101.3	378.55	.05
.8584	101.3	377.65	.05
.9179	101.3	376.85	.05

System: propyl acetate + 2-methyl-1-butanol; phases: Gas, Liquid
Property: Mole fraction of propyl acetate (Gas); method: Chromatography
Mole fraction of propyl acetate	Pressure, kPa	Mole fraction of propyl acetate	uncertainty
.0355	101.3	.0988	.001
.0813	101.3	.1922	.001
.1121	101.3	.2497	.001
.1461	101.3	.3103	.001
.2047	101.3	.4018	.001
.2439	101.3	.4583	.001
.291	101.3	.5203	.001
.345	101.3	.5755	.001
.3865	101.3	.6172	.001
.4348	101.3	.6605	.001
.4799	101.3	.6973	.001
.5322	101.3	.7404	.001
.5829	101.3	.7727	.001
.6451	101.3	.8116	.001
.687	101.3	.8393	.001
.7429	101.3	.8709	.001
.8043	101.3	.9065	.001
.8584	101.3	.9298	.001
.9179	101.3	.9587	.001

System: propyl acetate + n-hexanol; phases: Liquid, Gas
Property: Boiling temperature at pressure P, K (Liquid); method: Ebulliometric method (Recirculating still)
Mole fraction of propyl acetate	Pressure, kPa	Boiling temperature at pressure P, K	uncertainty
.0345	101.3	427.05	.05
.076	101.3	421.85	.05
.1102	101.3	418.1	.05
.164	101.3	412.95	.05
.2064	101.3	409.85	.05
.2633	101.3	405.19	.05
.3071	101.3	402.55	.05
.3563	101.3	399.35	.05
.408	101.3	396.35	.05
.4626	101.3	393.55	.05
.5053	101.3	391.95	.05
.5706	101.3	388.95	.05
.6255	101.3	387.25	.05
.6787	101.3	385.35	.05
.724	101.3	383.57	.05
.7878	101.3	381.79	.05
.8333	101.3	380.25	.05
.8803	101.3	378.52	.05
.9512	101.3	376.95	.05

System: propyl acetate + n-hexanol; phases: Gas, Liquid
Property: Mole fraction of propyl acetate (Gas); method: Chromatography
Mole fraction of propyl acetate	Pressure, kPa	Mole fraction of propyl acetate	uncertainty
.0345	101.3	.1677	.001
.076	101.3	.3263	.001
.1102	101.3	.427	.001
.164	101.3	.555	.001
.2064	101.3	.629	.001
.2633	101.3	.7018	.001
.3071	101.3	.7323	.001
.3563	101.3	.7758	.001
.408	101.3	.8148	.001
.4626	101.3	.8494	.001
.5053	101.3	.8657	.001
.5706	101.3	.8936	.001
.6255	101.3	.9136	.001
.6787	101.3	.9273	.001
.724	101.3	.9418	.001
.7878	101.3	.9565	.001
.8333	101.3	.9675	.001
.8803	101.3	.9773	.001
.9512	101.3	.9917	.001

System: propyl acetate + 1-heptanol; phases: Liquid, Gas
Property: Boiling temperature at pressure P, K (Liquid); method: Ebulliometric method (Recirculating still)
Mole fraction of propyl acetate	Pressure, kPa	Boiling temperature at pressure P, K	uncertainty
.026	101.3	445.05	.05
.0695	101.3	437.05	.05
.1171	101.3	430.15	.05
.1547	101.3	424.95	.05
.2109	101.3	416.98	.05
.2487	101.3	413.15	.05
.3164	101.3	406.95	.05
.3778	101.3	402.43	.05
.4234	101.3	398.85	.05
.479	101.3	395.95	.05
.536	101.3	393.15	.05
.5985	101.3	390.37	.05
.642	101.3	388.25	.05
.6506	101.3	387.85	.05
.7195	101.3	385.15	.05
.7968	101.3	382.35	.05
.8416	101.3	380.45	.05
.8996	101.3	378.45	.05
.9526	101.3	376.85	.05

System: propyl acetate + 1-heptanol; phases: Gas, Liquid
Property: Mole fraction of propyl acetate (Gas); method: Chromatography
Mole fraction of propyl acetate	Pressure, kPa	Mole fraction of propyl acetate	uncertainty
.026	101.3	.1905	.001
.0695	101.3	.4119	.001
.1171	101.3	.5706	.001
.1547	101.3	.6576	.001
.2109	101.3	.7508	.001
.2487	101.3	.7941	.001
.3164	101.3	.8472	.001
.3778	101.3	.8815	.001
.4234	101.3	.902	.001
.479	101.3	.9223	.001
.536	101.3	.9397	.001
.5985	101.3	.9517	.001
.642	101.3	.9599	.001
.6506	101.3	.9601	.001
.7195	101.3	.9711	.001
.7968	101.3	.9801	.001
.8416	101.3	.9857	.001
.8996	101.3	.9916	.001
.9526	101.3	.9964	.001
