Measured thermophysical data. Isothermal Vapor Liquid Equilibrium of Ethanol + Glycerol and 2-Propanol + Glycerol at Different Temperatures
Source: J. Chem. Eng. Data, 2015, 10.1021/je501019y
Compound 1: ethanol, C2H6O, purity 99.9%
Compound 2: 2-propanol, C3H8O, purity 99.8%
Compound 3: glycerol, C3H8O3, purity 99.5%

System: glycerol + ethanol; phases: Liquid, Gas
Property: Vapor or sublimation pressure, kPa (Liquid); method: Ebulliometric method (Recirculating still)
Temperature, K	Mole fraction of ethanol	Vapor or sublimation pressure, kPa	uncertainty
323.15	.1018	6	.05
323.15	.2005	10.53	.05
323.15	.3002	13.33	.05
323.15	.4013	16.27	.05
323.15	.5018	17.6	.05
323.15	.6008	19.73	.05
323.15	.6995	21.6	.05
323.15	.7999	23.73	.05
323.15	.8994	26	.05
323.15	1	29.44	.05
333.15	.1018	7.47	.05
333.15	.2005	13.2	.05
333.15	.3002	17.6	.05
333.15	.4013	23.33	.05
333.15	.5018	26	.05
333.15	.6008	30.66	.05
333.15	.6995	33.33	.05
333.15	.7999	37.6	.05
333.15	.8994	40.66	.05
333.15	1	46.86	.05

System: glycerol + 2-propanol; phases: Liquid, Gas
Property: Vapor or sublimation pressure, kPa (Liquid); method: Ebulliometric method (Recirculating still)
Temperature, K	Mole fraction of 2-propanol	Vapor or sublimation pressure, kPa	uncertainty
333.15	.0986	9.33	.05
333.15	.2015	16.13	.05
333.15	.3017	19.73	.05
333.15	.3999	22.66	.05
333.15	.4998	26.66	.05
333.15	.5998	28.66	.05
333.15	.6995	30.66	.05
333.15	.7993	33.33	.05
333.15	.9024	34.93	.05
333.15	1	38.84	.05
343.15	.0986	10.67	.05
343.15	.2015	18.67	.05
343.15	.3017	25.33	.05
343.15	.3999	30.4	.05
343.15	.4998	35.66	.05
343.15	.5998	39.93	.05
343.15	.6995	46.66	.05
343.15	.7993	50.66	.05
343.15	.9024	56	.05
343.15	1	60.75	.05
