Measured thermophysical data. Improved Methods for Gas Mixture Viscometry Using a Vibrating Wire Clamped at Both Ends
Source: J. Chem. Eng. Data, 2014, 10.1021/je500083n
Compound 1: carbon dioxide, CO2, purity 99.999%
Compound 2: methane, CH4, purity 99.999%
Compound 3: propane, C3H8, purity 99.999%

System: methane + propane; phases: Gas
Fixed: Mole fraction of propane = .0548
Property: Viscosity, Pa*s (Gas); method: Vibrating wire viscometry
Temperature, K	Pressure, kPa	Viscosity, Pa*s	uncertainty
280.16	610	.000010394	.000000087
280.16	1550	.00001051	.000000067
280.17	3150	.000010832	.00000008
280.17	4970	.000011435	.000000094
280.18	5880	.000011795	.000000078
280.2	6560	.000012111	.000000081
280.21	6970	.000012296	.000000077
298.18	870	.000010831	.000000089
298.18	1450	.000010965	.000000093
298.2	2650	.000011235	.00000012
298.19	4110	.000011633	.000000073
298.2	5430	.000012107	.000000081
298.22	6340	.000012436	.00000008
298.22	6700	.000012588	.000000078

System: methane + carbon dioxide; phases: Gas
Fixed: Mole fraction of methane = .57
Property: Viscosity, Pa*s (Gas); method: Vibrating wire viscometry
Temperature, K	Pressure, kPa	Viscosity, Pa*s	uncertainty
280.32	1510	.000013031	.000000117
280.31	2510	.000013097	.000000161
280.24	3500	.000013381	.000000091
280.22	4480	.000013644	.000000057
280.2	5490	.000014077	.000000028
280.17	6410	.000014566	.000000025
303.2	1500	.000013811	.00000006
303.2	2500	.000013872	.000000072
303.19	3500	.000014109	.000000034
303.19	4500	.000014405	.000000046
303.18	5440	.000014765	.000000042
303.18	6330	.000015227	.000000051
328.16	1510	.00001447	.00000006
328.15	2500	.000014533	.000000072
328.14	3490	.00001477	.000000034
328.14	4490	.000015041	.000000047
328.14	5500	.00001538	.000000042
328.13	6450	.000015732	.000000051
