Measured thermophysical data. Density, Viscosity, Refractive Index, and Surface Tension for Six Binary Systems of Adamantane Derivatives with 1-Heptanol and Cyclohexylmethanol
Source: J. Chem. Eng. Data, 2014, 10.1021/je500381c
Compound 1: 1,3-dimethyladamantane, C12H20, purity 99%
Compound 2: 1-ethyladamantane, C12H20, purity 99%
Compound 3: 1,3,5-trimethyladamantane, C13H22, purity 99%
Compound 4: 1-heptanol, C7H16O, purity 99%
Compound 5: cyclohexylmethanol, C7H14O, purity 99%

System: 1,3-dimethyladamantane; phases: Liquid
Property: Mass density, kg/m3 (Liquid); method: Vibrating tube method
Temperature, K	Pressure, kPa	Mass density, kg/m3	uncertainty
293.15	100	901.58	.05
298.15	100	898.04	.05
303.15	100	894.48	.05
308.15	100	890.92	.05
313.15	100	887.35	.05
318.15	100	883.77	.05
323.15	100	880.19	.05
328.15	100	876.6	.05
333.15	100	873.01	.05

System: 1,3-dimethyladamantane; phases: Liquid
Property: Viscosity, Pa*s (Liquid); method: Falling or rolling sphere viscometry
Temperature, K	Pressure, kPa	Viscosity, Pa*s	uncertainty
293.15	100	.003764	.000005
298.15	100	.003345	.000005
303.15	100	.003004	.000005
308.15	100	.002711	.000005
313.15	100	.002458	.000005
318.15	100	.002237	.000005
323.15	100	.002045	.000005
328.15	100	.001876	.000005
333.15	100	.001728	.000005

System: 1,3-dimethyladamantane; phases: Liquid
Fixed: Pressure, kPa = 101.325
Property: Refractive index (Na D-line) (Liquid); method: Standard Abbe refractometry
Temperature, K	Refractive index (Na D-line)	uncertainty
293.15	1.4776	.0005
298.15	1.4757	.0005
303.15	1.4734	.0005
313.15	1.4691	.0005
323.15	1.4651	.0005
333.15	1.461	.0005

System: 1,3-dimethyladamantane; phases: Liquid, Air at 1 atmosphere
Property: Surface tension liquid-gas, N/m (Liquid); method: Drop volume
Temperature, K	Surface tension liquid-gas, N/m	uncertainty
298.15	.02788	.00001

System: 1-ethyladamantane; phases: Liquid
Property: Mass density, kg/m3 (Liquid); method: Vibrating tube method
Temperature, K	Pressure, kPa	Mass density, kg/m3	uncertainty
293.15	100	937.11	.05
298.15	100	933.58	.05
303.15	100	929.99	.05
308.15	100	926.4	.05
313.15	100	922.81	.05
318.15	100	919.21	.05
323.15	100	915.62	.05
328.15	100	912.01	.05
333.15	100	908.41	.05

System: 1-ethyladamantane; phases: Liquid
Property: Viscosity, Pa*s (Liquid); method: Falling or rolling sphere viscometry
Temperature, K	Pressure, kPa	Viscosity, Pa*s	uncertainty
293.15	100	.006371	.000005
298.15	100	.005565	.000005
303.15	100	.004903	.000005
308.15	100	.004348	.000005
313.15	100	.003878	.000005
318.15	100	.003478	.000005
323.15	100	.003134	.000005
328.15	100	.002838	.000005
333.15	100	.002581	.000005

System: 1-ethyladamantane; phases: Liquid
Fixed: Pressure, kPa = 101.325
Property: Refractive index (Na D-line) (Liquid); method: Standard Abbe refractometry
Temperature, K	Refractive index (Na D-line)	uncertainty
293.15	1.4927	.0005
298.15	1.4906	.0005
303.15	1.4884	.0005
313.15	1.4839	.0005
323.15	1.4802	.0005
333.15	1.4759	.0005

System: 1-ethyladamantane; phases: Liquid, Air at 1 atmosphere
Property: Surface tension liquid-gas, N/m (Liquid); method: Drop volume
Temperature, K	Surface tension liquid-gas, N/m	uncertainty
298.15	.02987	.00001

System: 1,3,5-trimethyladamantane; phases: Liquid
Property: Mass density, kg/m3 (Liquid); method: Vibrating tube method
Temperature, K	Pressure, kPa	Mass density, kg/m3	uncertainty
293.15	100	887.48	.05
298.15	100	883.99	.05
303.15	100	880.47	.05
308.15	100	876.94	.05
313.15	100	873.4	.05
318.15	100	869.86	.05
323.15	100	866.31	.05
328.15	100	862.76	.05
333.15	100	859.2	.05

System: 1,3,5-trimethyladamantane; phases: Liquid
Property: Viscosity, Pa*s (Liquid); method: Falling or rolling sphere viscometry
Temperature, K	Pressure, kPa	Viscosity, Pa*s	uncertainty
293.15	100	.002601	.000005
298.15	100	.002338	.000005
303.15	100	.002118	.000005
308.15	100	.00193	.000005
313.15	100	.001765	.000005
318.15	100	.001621	.000005
323.15	100	.001494	.000005
328.15	100	.001384	.000005
333.15	100	.001284	.000005

System: 1,3,5-trimethyladamantane; phases: Liquid
Fixed: Pressure, kPa = 101.325
Property: Refractive index (Na D-line) (Liquid); method: Standard Abbe refractometry
Temperature, K	Refractive index (Na D-line)	uncertainty
293.15	1.4736	.0005
298.15	1.4715	.0005
303.15	1.4695	.0005
313.15	1.4649	.0005
323.15	1.4612	.0005
333.15	1.4568	.0005

System: 1,3,5-trimethyladamantane; phases: Liquid, Air at 1 atmosphere
Property: Surface tension liquid-gas, N/m (Liquid); method: Drop volume
Temperature, K	Surface tension liquid-gas, N/m	uncertainty
298.15	.02617	.00001

System: 1-heptanol; phases: Liquid
Property: Mass density, kg/m3 (Liquid); method: Vibrating tube method
Temperature, K	Pressure, kPa	Mass density, kg/m3	uncertainty
293.15	100	822.28	.05
298.15	100	818.79	.05
303.15	100	815.28	.05
308.15	100	811.74	.05
313.15	100	808.16	.05
318.15	100	804.56	.05
323.15	100	800.92	.05
328.15	100	797.24	.05
333.15	100	793.52	.05

System: 1-heptanol; phases: Liquid
Property: Viscosity, Pa*s (Liquid); method: Falling or rolling sphere viscometry
Temperature, K	Pressure, kPa	Viscosity, Pa*s	uncertainty
293.15	100	.006887	.000005
298.15	100	.005812	.000005
303.15	100	.00495	.000005
308.15	100	.004245	.000005
313.15	100	.003654	.000005
318.15	100	.00317	.000005
323.15	100	.002768	.000005
328.15	100	.002428	.000005
333.15	100	.002141	.000005

System: 1-heptanol; phases: Liquid
Fixed: Pressure, kPa = 101.325
Property: Refractive index (Na D-line) (Liquid); method: Standard Abbe refractometry
Temperature, K	Refractive index (Na D-line)	uncertainty
293.15	1.4236	.0005
298.15	1.422	.0005
303.15	1.4203	.0005
313.15	1.4156	.0005
323.15	1.4115	.0005
333.15	1.4077	.0005

System: 1-heptanol; phases: Liquid, Air at 1 atmosphere
Property: Surface tension liquid-gas, N/m (Liquid); method: Drop volume
Temperature, K	Surface tension liquid-gas, N/m	uncertainty
298.15	.02623	.00001

System: cyclohexylmethanol; phases: Liquid
Property: Mass density, kg/m3 (Liquid); method: Vibrating tube method
Temperature, K	Pressure, kPa	Mass density, kg/m3	uncertainty
293.15	100	929.76	.05
298.15	100	926.25	.05
303.15	100	922.71	.05
308.15	100	919.14	.05
313.15	100	915.53	.05
318.15	100	911.88	.05
323.15	100	908.19	.05
328.15	100	904.45	.05
333.15	100	900.67	.05

System: cyclohexylmethanol; phases: Liquid
Property: Viscosity, Pa*s (Liquid); method: Falling or rolling sphere viscometry
Temperature, K	Pressure, kPa	Viscosity, Pa*s	uncertainty
293.15	100	.037751	.000005
298.15	100	.02867	.000005
303.15	100	.022339	.000005
308.15	100	.017573	.000005
313.15	100	.014093	.000005
318.15	100	.011429	.000005
323.15	100	.009354	.000005
328.15	100	.007766	.000005
333.15	100	.006462	.000005

System: cyclohexylmethanol; phases: Liquid
Fixed: Pressure, kPa = 101.325
Property: Refractive index (Na D-line) (Liquid); method: Standard Abbe refractometry
Temperature, K	Refractive index (Na D-line)	uncertainty
293.15	1.4629	.0005
298.15	1.4612	.0005
303.15	1.4592	.0005
313.15	1.455	.0005
323.15	1.4507	.0005
333.15	1.4463	.0005

System: cyclohexylmethanol; phases: Liquid, Air at 1 atmosphere
Property: Surface tension liquid-gas, N/m (Liquid); method: Drop volume
Temperature, K	Surface tension liquid-gas, N/m	uncertainty
298.15	.03243	.00001

System: 1-heptanol + 1,3-dimethyladamantane; phases: Liquid
Fixed: Pressure, kPa = 100
Property: Mass density, kg/m3 (Liquid); method: Vibrating tube method
Temperature, K	Mole fraction of 1-heptanol	Mass density, kg/m3	uncertainty
293.15	0	901.58	.05
293.15	.1001	895.5	.05
293.15	.199	889.11	.05
293.15	.2998	882.35	.05
293.15	.3997	875.32	.05
293.15	.4997	867.82	.05
293.15	.6002	859.93	.05
293.15	.7	851.41	.05
293.15	.7996	842.45	.05
293.15	.8999	832.71	.05
293.15	1	822.28	.05
298.15	0	898.04	.05
298.15	.1001	891.87	.05
298.15	.199	885.48	.05
298.15	.2998	878.72	.05
298.15	.3997	871.68	.05
298.15	.4997	864.19	.05
298.15	.6002	856.3	.05
298.15	.7	847.82	.05
298.15	.7996	838.88	.05
298.15	.8999	829.21	.05
298.15	1	818.79	.05
303.15	0	894.48	.05
303.15	.1001	888.23	.05
303.15	.199	881.84	.05
303.15	.2998	875.06	.05
303.15	.3997	868.01	.05
303.15	.4997	860.52	.05
303.15	.6002	852.65	.05
303.15	.7	844.21	.05
303.15	.7996	835.28	.05
303.15	.8999	825.66	.05
303.15	1	815.28	.05
308.15	0	890.92	.05
308.15	.1001	884.58	.05
308.15	.199	878.15	.05
308.15	.2998	871.37	.05
308.15	.3997	864.33	.05
308.15	.4997	856.84	.05
308.15	.6002	848.97	.05
308.15	.7	840.56	.05
308.15	.7996	831.66	.05
308.15	.8999	822.07	.05
308.15	1	811.74	.05
313.15	0	887.35	.05
313.15	.1001	880.92	.05
313.15	.199	874.46	.05
313.15	.2998	867.67	.05
313.15	.3997	860.62	.05
313.15	.4997	853.13	.05
313.15	.6002	845.27	.05
313.15	.7	836.88	.05
313.15	.7996	828.01	.05
313.15	.8999	818.46	.05
313.15	1	808.16	.05
318.15	0	883.77	.05
318.15	.1001	877.24	.05
318.15	.199	870.75	.05
318.15	.2998	863.95	.05
318.15	.3997	856.89	.05
318.15	.4997	849.4	.05
318.15	.6002	841.54	.05
318.15	.7	833.18	.05
318.15	.7996	824.33	.05
318.15	.8999	814.8	.05
318.15	1	804.56	.05
323.15	0	880.19	.05
323.15	.1001	873.55	.05
323.15	.199	867.02	.05
323.15	.2998	860.2	.05
323.15	.3997	853.14	.05
323.15	.4997	845.65	.05
323.15	.6002	837.79	.05
323.15	.7	829.46	.05
323.15	.7996	820.62	.05
323.15	.8999	811.12	.05
323.15	1	800.92	.05
328.15	0	876.6	.05
328.15	.1001	869.84	.05
328.15	.199	863.27	.05
328.15	.2998	856.43	.05
328.15	.3997	849.36	.05
328.15	.4997	841.86	.05
328.15	.6002	834.01	.05
328.15	.7	825.68	.05
328.15	.7996	816.87	.05
328.15	.8999	807.4	.05
328.15	1	797.24	.05
333.15	0	873.01	.05
333.15	.1001	866.11	.05
333.15	.199	859.5	.05
333.15	.2998	852.63	.05
333.15	.3997	845.56	.05
333.15	.4997	838.05	.05
333.15	.6002	830.19	.05
333.15	.7	821.88	.05
333.15	.7996	813.08	.05
333.15	.8999	803.64	.05
333.15	1	793.52	.05

System: 1-heptanol + 1,3-dimethyladamantane; phases: Liquid
Fixed: Pressure, kPa = 100
Property: Viscosity, Pa*s (Liquid); method: Falling or rolling sphere viscometry
Temperature, K	Mole fraction of 1-heptanol	Viscosity, Pa*s	uncertainty
293.15	0	.003764	.000005
293.15	.1001	.003692	.000005
293.15	.199	.003788	.000005
293.15	.2998	.003972	.000005
293.15	.3997	.004181	.000005
293.15	.4997	.004522	.000005
293.15	.6002	.00492	.000005
293.15	.7	.005419	.000005
293.15	.7996	.005924	.000005
293.15	.8999	.006447	.000005
293.15	1	.006887	.000005
298.15	0	.003345	.000005
298.15	.1001	.003271	.000005
298.15	.199	.003342	.000005
298.15	.2998	.003475	.000005
298.15	.3997	.003686	.000005
298.15	.4997	.003909	.000005
298.15	.6002	.004218	.000005
298.15	.7	.004611	.000005
298.15	.7996	.005028	.000005
298.15	.8999	.005454	.000005
298.15	1	.005812	.000005
303.15	0	.003004	.000005
303.15	.1001	.002913	.000005
303.15	.199	.002963	.000005
303.15	.2998	.003066	.000005
303.15	.3997	.003238	.000005
303.15	.4997	.003414	.000005
303.15	.6002	.003657	.000005
303.15	.7	.003967	.000005
303.15	.7996	.004304	.000005
303.15	.8999	.004649	.000005
303.15	1	.00495	.000005
308.15	0	.002711	.000005
308.15	.1001	.002609	.000005
308.15	.199	.002642	.000005
308.15	.2998	.002721	.000005
308.15	.3997	.002862	.000005
308.15	.4997	.003	.000005
308.15	.6002	.003194	.000005
308.15	.7	.003439	.000005
308.15	.7996	.003711	.000005
308.15	.8999	.003992	.000005
308.15	1	.004245	.000005
313.15	0	.002458	.000005
313.15	.1001	.002347	.000005
313.15	.199	.002366	.000005
313.15	.2998	.002427	.000005
313.15	.3997	.002542	.000005
313.15	.4997	.002653	.000005
313.15	.6002	.002807	.000005
313.15	.7	.003001	.000005
313.15	.7996	.00322	.000005
313.15	.8999	.00345	.000005
313.15	1	.003654	.000005
318.15	0	.002237	.000005
318.15	.1001	.002121	.000005
318.15	.199	.002129	.000005
318.15	.2998	.002175	.000005
318.15	.3997	.002269	.000005
318.15	.4997	.002359	.000005
318.15	.6002	.002481	.000005
318.15	.7	.002636	.000005
318.15	.7996	.002813	.000005
318.15	.8999	.003002	.000005
318.15	1	.00317	.000005
323.15	0	.002045	.000005
323.15	.1001	.001925	.000005
323.15	.199	.001925	.000005
323.15	.2998	.001958	.000005
323.15	.3997	.002035	.000005
323.15	.4997	.002107	.000005
323.15	.6002	.002205	.000005
323.15	.7	.002329	.000005
323.15	.7996	.002472	.000005
323.15	.8999	.002626	.000005
323.15	1	.002768	.000005
328.15	0	.001876	.000005
328.15	.1001	.001754	.000005
328.15	.199	.001745	.000005
328.15	.2998	.001769	.000005
328.15	.3997	.001833	.000005
328.15	.4997	.001891	.000005
328.15	.6002	.00197	.000005
328.15	.7	.002069	.000005
328.15	.7996	.002184	.000005
328.15	.8999	.002311	.000005
328.15	1	.002428	.000005
333.15	0	.001728	.000005
333.15	.1001	.001603	.000005
333.15	.199	.001589	.000005
333.15	.2998	.001605	.000005
333.15	.3997	.001658	.000005
333.15	.4997	.001704	.000005
333.15	.6002	.001767	.000005
333.15	.7	.001847	.000005
333.15	.7996	.001938	.000005
333.15	.8999	.002044	.000005
333.15	1	.002141	.000005

System: 1-heptanol + 1,3-dimethyladamantane; phases: Liquid
Fixed: Pressure, kPa = 100
Property: Refractive index (Na D-line) (Liquid); method: Standard Abbe refractometry
Temperature, K	Mole fraction of 1-heptanol	Refractive index (Na D-line)	uncertainty
293.15	0	1.4776	.0005
293.15	.1001	1.4735	.0005
293.15	.1997	1.4696	.0005
293.15	.2998	1.4642	.0005
293.15	.3997	1.4591	.0005
293.15	.4997	1.4541	.0005
293.15	.6002	1.4483	.0005
293.15	.7	1.4427	.0005
293.15	.7996	1.4365	.0005
293.15	.8999	1.4299	.0005
293.15	1	1.4236	.0005
298.15	0	1.4757	.0005
298.15	.1001	1.4714	.0005
298.15	.1997	1.4678	.0005
298.15	.2998	1.4624	.0005
298.15	.3997	1.4572	.0005
298.15	.4997	1.4519	.0005
298.15	.6002	1.4468	.0005
298.15	.7	1.4411	.0005
298.15	.7996	1.4351	.0005
298.15	.8999	1.4282	.0005
298.15	1	1.422	.0005
303.15	0	1.4734	.0005
303.15	.1001	1.4695	.0005
303.15	.1997	1.4654	.0005
303.15	.2998	1.4603	.0005
303.15	.3997	1.4551	.0005
303.15	.4997	1.4495	.0005
303.15	.6002	1.4442	.0005
303.15	.7	1.4389	.0005
303.15	.7996	1.4333	.0005
303.15	.8999	1.4265	.0005
303.15	1	1.4203	.0005
313.15	0	1.4691	.0005
313.15	.1001	1.4646	.0005
313.15	.1997	1.4608	.0005
313.15	.2998	1.4558	.0005
313.15	.3997	1.4508	.0005
313.15	.4997	1.4457	.0005
313.15	.6002	1.4402	.0005
313.15	.7	1.4347	.0005
313.15	.7996	1.4288	.0005
313.15	.8999	1.4223	.0005
313.15	1	1.4156	.0005
323.15	0	1.4651	.0005
323.15	.1001	1.4606	.0005
323.15	.1997	1.4567	.0005
323.15	.2998	1.4514	.0005
323.15	.3997	1.4464	.0005
323.15	.4997	1.4411	.0005
323.15	.6002	1.4359	.0005
323.15	.7	1.4301	.0005
323.15	.7996	1.4244	.0005
323.15	.8999	1.4178	.0005
323.15	1	1.4115	.0005
333.15	0	1.461	.0005
333.15	.1001	1.4564	.0005
333.15	.1997	1.4527	.0005
333.15	.2998	1.4473	.0005
333.15	.3997	1.4422	.0005
333.15	.4997	1.437	.0005
333.15	.6002	1.4316	.0005
333.15	.7	1.4262	.0005
333.15	.7996	1.4206	.0005
333.15	.8999	1.4141	.0005
333.15	1	1.4077	.0005

System: 1-heptanol + 1,3-dimethyladamantane; phases: Liquid, Air at 1 atmosphere
Fixed: Temperature, K = 298.15
Property: Surface tension liquid-gas, N/m (Liquid); method: Drop volume
Mole fraction of 1-heptanol	Surface tension liquid-gas, N/m	uncertainty
0	.02788	.00001
.1001	.02782	.00001
.1997	.02769	.00001
.2998	.02748	.00001
.3997	.02735	.00001
.4997	.02715	.00001
.6002	.02702	.00001
.7	.02679	.00001
.7996	.02656	.00001
.8999	.02636	.00001
1	.02623	.00001

System: 1-heptanol + 1-ethyladamantane; phases: Liquid
Fixed: Pressure, kPa = 100
Property: Mass density, kg/m3 (Liquid); method: Vibrating tube method
Temperature, K	Mole fraction of 1-heptanol	Mass density, kg/m3	uncertainty
293.15	0	937.11	.05
293.15	.0999	927.59	.05
293.15	.1999	917.88	.05
293.15	.2988	907.92	.05
293.15	.3991	897.36	.05
293.15	.4998	886.28	.05
293.15	.5995	874.78	.05
293.15	.7	862.6	.05
293.15	.8002	849.85	.05
293.15	.9	836.45	.05
293.15	1	822.28	.05
298.15	0	933.58	.05
298.15	.0999	924.02	.05
298.15	.1999	914.26	.05
298.15	.2988	904.28	.05
298.15	.3991	893.7	.05
298.15	.4998	882.65	.05
298.15	.5995	871.16	.05
298.15	.7	859.01	.05
298.15	.8002	846.29	.05
298.15	.9	832.93	.05
298.15	1	818.79	.05
303.15	0	929.99	.05
303.15	.0999	920.37	.05
303.15	.1999	910.61	.05
303.15	.2988	900.6	.05
303.15	.3991	890.03	.05
303.15	.4998	878.99	.05
303.15	.5995	867.51	.05
303.15	.7	855.39	.05
303.15	.8002	842.7	.05
303.15	.9	829.37	.05
303.15	1	815.28	.05
308.15	0	926.4	.05
308.15	.0999	916.7	.05
308.15	.1999	906.92	.05
308.15	.2988	896.92	.05
308.15	.3991	886.35	.05
308.15	.4998	875.31	.05
308.15	.5995	863.84	.05
308.15	.7	851.75	.05
308.15	.8002	839.08	.05
308.15	.9	825.79	.05
308.15	1	811.74	.05
313.15	0	922.81	.05
313.15	.0999	913.02	.05
313.15	.1999	903.22	.05
313.15	.2988	893.21	.05
313.15	.3991	882.64	.05
313.15	.4998	871.61	.05
313.15	.5995	860.15	.05
313.15	.7	848.08	.05
313.15	.8002	835.43	.05
313.15	.9	822.17	.05
313.15	1	808.16	.05
318.15	0	919.21	.05
318.15	.0999	909.33	.05
318.15	.1999	899.51	.05
318.15	.2988	889.49	.05
318.15	.3991	878.91	.05
318.15	.4998	867.88	.05
318.15	.5995	856.43	.05
318.15	.7	844.37	.05
318.15	.8002	831.75	.05
318.15	.9	818.53	.05
318.15	1	804.56	.05
323.15	0	915.62	.05
323.15	.0999	905.62	.05
323.15	.1999	895.76	.05
323.15	.2988	885.74	.05
323.15	.3991	875.17	.05
323.15	.4998	864.13	.05
323.15	.5995	852.69	.05
323.15	.7	840.64	.05
323.15	.8002	828.04	.05
323.15	.9	814.85	.05
323.15	1	800.92	.05
328.15	0	912.01	.05
328.15	.0999	901.91	.05
328.15	.1999	892.03	.05
328.15	.2988	881.97	.05
328.15	.3991	871.39	.05
328.15	.4998	860.35	.05
328.15	.5995	848.92	.05
328.15	.7	836.88	.05
328.15	.8002	824.29	.05
328.15	.9	811.13	.05
328.15	1	797.24	.05
333.15	0	908.41	.05
333.15	.0999	898.19	.05
333.15	.1999	888.26	.05
333.15	.2988	878.19	.05
333.15	.3991	867.59	.05
333.15	.4998	856.55	.05
333.15	.5995	845.11	.05
333.15	.7	833.08	.05
333.15	.8002	820.51	.05
333.15	.9	807.38	.05
333.15	1	793.52	.05

System: 1-heptanol + 1-ethyladamantane; phases: Liquid
Fixed: Pressure, kPa = 100
Property: Viscosity, Pa*s (Liquid); method: Falling or rolling sphere viscometry
Temperature, K	Mole fraction of 1-heptanol	Viscosity, Pa*s	uncertainty
293.15	0	.006371	.000005
293.15	.0999	.00591	.000005
293.15	.1999	.005707	.000005
293.15	.2988	.00562	.000005
293.15	.3991	.005584	.000005
293.15	.4998	.005647	.000005
293.15	.5995	.005843	.000005
293.15	.7	.006077	.000005
293.15	.8002	.00641	.000005
293.15	.9	.006719	.000005
293.15	1	.006887	.000005
298.15	0	.005565	.000005
298.15	.0999	.005136	.000005
298.15	.1999	.004958	.000005
298.15	.2988	.00486	.000005
298.15	.3991	.004836	.000005
298.15	.4998	.004859	.000005
298.15	.5995	.004989	.000005
298.15	.7	.005156	.000005
298.15	.8002	.005422	.000005
298.15	.9	.005683	.000005
298.15	1	.005812	.000005
303.15	0	.004903	.000005
303.15	.0999	.004506	.000005
303.15	.1999	.004337	.000005
303.15	.2988	.004238	.000005
303.15	.3991	.004215	.000005
303.15	.4998	.004215	.000005
303.15	.5995	.004306	.000005
303.15	.7	.004424	.000005
303.15	.8002	.00463	.000005
303.15	.9	.004841	.000005
303.15	1	.00495	.000005
308.15	0	.004348	.000005
308.15	.0999	.003965	.000005
308.15	.1999	.003814	.000005
308.15	.2988	.003722	.000005
308.15	.3991	.003692	.000005
308.15	.4998	.003681	.000005
308.15	.5995	.003742	.000005
308.15	.7	.003824	.000005
308.15	.8002	.003985	.000005
308.15	.9	.004154	.000005
308.15	1	.004245	.000005
313.15	0	.003878	.000005
313.15	.0999	.003516	.000005
313.15	.1999	.003376	.000005
313.15	.2988	.003286	.000005
313.15	.3991	.003251	.000005
313.15	.4998	.003235	.000005
313.15	.5995	.003275	.000005
313.15	.7	.003331	.000005
313.15	.8002	.003454	.000005
313.15	.9	.003589	.000005
313.15	1	.003654	.000005
318.15	0	.003478	.000005
318.15	.0999	.003135	.000005
318.15	.1999	.003003	.000005
318.15	.2988	.002922	.000005
318.15	.3991	.002882	.000005
318.15	.4998	.002859	.000005
318.15	.5995	.002884	.000005
318.15	.7	.002919	.000005
318.15	.8002	.003012	.000005
318.15	.9	.00312	.000005
318.15	1	.00317	.000005
323.15	0	.003134	.000005
323.15	.0999	.002811	.000005
323.15	.1999	.002687	.000005
323.15	.2988	.002608	.000005
323.15	.3991	.002569	.000005
323.15	.4998	.00254	.000005
323.15	.5995	.002555	.000005
323.15	.7	.002573	.000005
323.15	.8002	.002644	.000005
323.15	.9	.002728	.000005
323.15	1	.002768	.000005
328.15	0	.002838	.000005
328.15	.0999	.002531	.000005
328.15	.1999	.002413	.000005
328.15	.2988	.002338	.000005
328.15	.3991	.002299	.000005
328.15	.4998	.002267	.000005
328.15	.5995	.002271	.000005
328.15	.7	.00228	.000005
328.15	.8002	.002333	.000005
328.15	.9	.002399	.000005
328.15	1	.002428	.000005
333.15	0	.002581	.000005
333.15	.0999	.002291	.000005
333.15	.1999	.002178	.000005
333.15	.2988	.002106	.000005
333.15	.3991	.002066	.000005
333.15	.4998	.002033	.000005
333.15	.5995	.00203	.000005
333.15	.7	.002033	.000005
333.15	.8002	.00207	.000005
333.15	.9	.002121	.000005
333.15	1	.002141	.000005

System: 1-heptanol + 1-ethyladamantane; phases: Liquid
Fixed: Pressure, kPa = 100
Property: Refractive index (Na D-line) (Liquid); method: Standard Abbe refractometry
Temperature, K	Mole fraction of 1-heptanol	Refractive index (Na D-line)	uncertainty
293.15	0	1.4927	.0005
293.15	.0999	1.4869	.0005
293.15	.1999	1.4809	.0005
293.15	.2988	1.4746	.0005
293.15	.3991	1.4682	.0005
293.15	.4998	1.461	.0005
293.15	.5995	1.4546	.0005
293.15	.7	1.4473	.0005
293.15	.8002	1.4397	.0005
293.15	.9	1.4316	.0005
293.15	1	1.4236	.0005
298.15	0	1.4906	.0005
298.15	.0999	1.4847	.0005
298.15	.1999	1.4785	.0005
298.15	.2988	1.4725	.0005
298.15	.3991	1.466	.0005
298.15	.4998	1.4594	.0005
298.15	.5995	1.4522	.0005
298.15	.7	1.4451	.0005
298.15	.8002	1.4376	.0005
298.15	.9	1.4298	.0005
298.15	1	1.422	.0005
303.15	0	1.4884	.0005
303.15	.0999	1.4827	.0005
303.15	.1999	1.4768	.0005
303.15	.2988	1.4704	.0005
303.15	.3991	1.464	.0005
303.15	.4998	1.4573	.0005
303.15	.5995	1.4499	.0005
303.15	.7	1.4433	.0005
303.15	.8002	1.4359	.0005
303.15	.9	1.4278	.0005
303.15	1	1.4203	.0005
313.15	0	1.4839	.0005
313.15	.0999	1.4782	.0005
313.15	.1999	1.4722	.0005
313.15	.2988	1.466	.0005
313.15	.3991	1.4596	.0005
313.15	.4998	1.4528	.0005
313.15	.5995	1.4462	.0005
313.15	.7	1.4389	.0005
313.15	.8002	1.4316	.0005
313.15	.9	1.4236	.0005
313.15	1	1.4156	.0005
323.15	0	1.4802	.0005
323.15	.0999	1.474	.0005
323.15	.1999	1.468	.0005
323.15	.2988	1.4618	.0005
323.15	.3991	1.4554	.0005
323.15	.4998	1.4486	.0005
323.15	.5995	1.4419	.0005
323.15	.7	1.4349	.0005
323.15	.8002	1.4273	.0005
323.15	.9	1.4198	.0005
323.15	1	1.4115	.0005
333.15	0	1.4759	.0005
333.15	.0999	1.4697	.0005
333.15	.1999	1.4635	.0005
333.15	.2988	1.4577	.0005
333.15	.3991	1.451	.0005
333.15	.4998	1.4443	.0005
333.15	.5995	1.4373	.0005
333.15	.7	1.4305	.0005
333.15	.8002	1.423	.0005
333.15	.9	1.4156	.0005
333.15	1	1.4077	.0005

System: 1-heptanol + 1-ethyladamantane; phases: Liquid, Air at 1 atmosphere
Fixed: Temperature, K = 298.15
Property: Surface tension liquid-gas, N/m (Liquid); method: Drop volume
Mole fraction of 1-heptanol	Surface tension liquid-gas, N/m	uncertainty
0	.02987	.00001
.0999	.02966	.00001
.1999	.02921	.00001
.2988	.02887	.00001
.3991	.02872	.00001
.4998	.02842	.00001
.5995	.0281	.00001
.7	.02775	.00001
.8002	.02723	.00001
.9	.02674	.00001
1	.02623	.00001

System: 1-heptanol + 1,3,5-trimethyladamantane; phases: Liquid
Fixed: Pressure, kPa = 100
Property: Mass density, kg/m3 (Liquid); method: Vibrating tube method
Temperature, K	Mole fraction of 1-heptanol	Mass density, kg/m3	uncertainty
293.15	0	887.48	.05
293.15	.1001	882.47	.05
293.15	.2001	877.46	.05
293.15	.3002	872.11	.05
293.15	.4004	866.49	.05
293.15	.5001	860.53	.05
293.15	.6002	854.11	.05
293.15	.7001	847.23	.05
293.15	.7999	839.77	.05
293.15	.9002	831.44	.05
293.15	1	822.28	.05
298.15	0	883.99	.05
298.15	.1001	878.9	.05
298.15	.2001	873.88	.05
298.15	.3002	868.52	.05
298.15	.4004	862.91	.05
298.15	.5001	856.94	.05
298.15	.6002	850.53	.05
298.15	.7001	843.66	.05
298.15	.7999	836.22	.05
298.15	.9002	827.93	.05
298.15	1	818.79	.05
303.15	0	880.47	.05
303.15	.1001	875.31	.05
303.15	.2001	870.27	.05
303.15	.3002	864.91	.05
303.15	.4004	859.29	.05
303.15	.5001	853.32	.05
303.15	.6002	846.91	.05
303.15	.7001	840.05	.05
303.15	.7999	832.63	.05
303.15	.9002	824.38	.05
303.15	1	815.28	.05
308.15	0	876.94	.05
308.15	.1001	871.72	.05
308.15	.2001	866.65	.05
308.15	.3002	861.27	.05
308.15	.4004	855.65	.05
308.15	.5001	849.68	.05
308.15	.6002	843.28	.05
308.15	.7001	836.41	.05
308.15	.7999	829.02	.05
308.15	.9002	820.8	.05
308.15	1	811.74	.05
313.15	0	873.4	.05
313.15	.1001	868.1	.05
313.15	.2001	863	.05
313.15	.3002	857.62	.05
313.15	.4004	851.98	.05
313.15	.5001	846.01	.05
313.15	.6002	839.62	.05
313.15	.7001	832.76	.05
313.15	.7999	825.37	.05
313.15	.9002	817.19	.05
313.15	1	808.16	.05
318.15	0	869.86	.05
318.15	.1001	864.47	.05
318.15	.2001	859.34	.05
318.15	.3002	853.95	.05
318.15	.4004	848.3	.05
318.15	.5001	842.32	.05
318.15	.6002	835.93	.05
318.15	.7001	829.07	.05
318.15	.7999	821.7	.05
318.15	.9002	813.54	.05
318.15	1	804.56	.05
323.15	0	866.31	.05
323.15	.1001	860.82	.05
323.15	.2001	855.66	.05
323.15	.3002	850.25	.05
323.15	.4004	844.59	.05
323.15	.5001	838.61	.05
323.15	.6002	832.21	.05
323.15	.7001	825.35	.05
323.15	.7999	817.99	.05
323.15	.9002	809.87	.05
323.15	1	800.92	.05
328.15	0	862.76	.05
328.15	.1001	857.16	.05
328.15	.2001	851.96	.05
328.15	.3002	846.53	.05
328.15	.4004	840.86	.05
328.15	.5001	834.86	.05
328.15	.6002	828.46	.05
328.15	.7001	821.6	.05
328.15	.7999	814.26	.05
328.15	.9002	806.15	.05
328.15	1	797.24	.05
333.15	0	859.2	.05
333.15	.1001	853.48	.05
333.15	.2001	848.24	.05
333.15	.3002	842.78	.05
333.15	.4004	837.09	.05
333.15	.5001	831.09	.05
333.15	.6002	824.68	.05
333.15	.7001	817.82	.05
333.15	.7999	810.48	.05
333.15	.9002	802.4	.05
333.15	1	793.52	.05

System: 1-heptanol + 1,3,5-trimethyladamantane; phases: Liquid
Fixed: Pressure, kPa = 100
Property: Viscosity, Pa*s (Liquid); method: Falling or rolling sphere viscometry
Temperature, K	Mole fraction of 1-heptanol	Viscosity, Pa*s	uncertainty
293.15	0	.002601	.000005
293.15	.1001	.002626	.000005
293.15	.2001	.002775	.000005
293.15	.3002	.00297	.000005
293.15	.4004	.003242	.000005
293.15	.5001	.0035	.000005
293.15	.6002	.004051	.000005
293.15	.7001	.004645	.000005
293.15	.7999	.005371	.000005
293.15	.9002	.006221	.000005
293.15	1	.006887	.000005
298.15	0	.002338	.000005
298.15	.1001	.002349	.000005
298.15	.2001	.002469	.000005
298.15	.3002	.002632	.000005
298.15	.4004	.002854	.000005
298.15	.5001	.003131	.000005
298.15	.6002	.00351	.000005
298.15	.7001	.00399	.000005
298.15	.7999	.004567	.000005
298.15	.9002	.005229	.000005
298.15	1	.005812	.000005
303.15	0	.002118	.000005
303.15	.1001	.002114	.000005
303.15	.2001	.002212	.000005
303.15	.3002	.00235	.000005
303.15	.4004	.002533	.000005
303.15	.5001	.002758	.000005
303.15	.6002	.003066	.000005
303.15	.7001	.003457	.000005
303.15	.7999	.003924	.000005
303.15	.9002	.004464	.000005
303.15	1	.00495	.000005
308.15	0	.00193	.000005
308.15	.1001	.001911	.000005
308.15	.2001	.001992	.000005
308.15	.3002	.002108	.000005
308.15	.4004	.002261	.000005
308.15	.5001	.002444	.000005
308.15	.6002	.002699	.000005
308.15	.7001	.003015	.000005
308.15	.7999	.003396	.000005
308.15	.9002	.003841	.000005
308.15	1	.004245	.000005
313.15	0	.001765	.000005
313.15	.1001	.001737	.000005
313.15	.2001	.001802	.000005
313.15	.3002	.001899	.000005
313.15	.4004	.002027	.000005
313.15	.5001	.002178	.000005
313.15	.6002	.002387	.000005
313.15	.7001	.002648	.000005
313.15	.7999	.002957	.000005
313.15	.9002	.003327	.000005
313.15	1	.003654	.000005
318.15	0	.001621	.000005
318.15	.1001	.001585	.000005
318.15	.2001	.001636	.000005
318.15	.3002	.001719	.000005
318.15	.4004	.001826	.000005
318.15	.5001	.001952	.000005
318.15	.6002	.002124	.000005
318.15	.7001	.002338	.000005
318.15	.7999	.002593	.000005
318.15	.9002	.002899	.000005
318.15	1	.00317	.000005
323.15	0	.001494	.000005
323.15	.1001	.001452	.000005
323.15	.2001	.001494	.000005
323.15	.3002	.001561	.000005
323.15	.4004	.001652	.000005
323.15	.5001	.001756	.000005
323.15	.6002	.001899	.000005
323.15	.7001	.002049	.000005
323.15	.7999	.002287	.000005
323.15	.9002	.002541	.000005
323.15	1	.002768	.000005
328.15	0	.001384	.000005
328.15	.1001	.001335	.000005
328.15	.2001	.001368	.000005
328.15	.3002	.001424	.000005
328.15	.4004	.0015	.000005
328.15	.5001	.001587	.000005
328.15	.6002	.001707	.000005
328.15	.7001	.001855	.000005
328.15	.7999	.002029	.000005
328.15	.9002	.002239	.000005
328.15	1	.002428	.000005
333.15	0	.001284	.000005
333.15	.1001	.001232	.000005
333.15	.2001	.001257	.000005
333.15	.3002	.001303	.000005
333.15	.4004	.001367	.000005
333.15	.5001	.00144	.000005
333.15	.6002	.00154	.000005
333.15	.7001	.001663	.000005
333.15	.7999	.001808	.000005
333.15	.9002	.001984	.000005
333.15	1	.002141	.000005

System: 1-heptanol + 1,3,5-trimethyladamantane; phases: Liquid
Fixed: Pressure, kPa = 100
Property: Refractive index (Na D-line) (Liquid); method: Standard Abbe refractometry
Temperature, K	Mole fraction of 1-heptanol	Refractive index (Na D-line)	uncertainty
293.15	0	1.4736	.0005
293.15	.1001	1.4695	.0005
293.15	.2001	1.4657	.0005
293.15	.3002	1.4617	.0005
293.15	.4004	1.4573	.0005
293.15	.5001	1.4524	.0005
293.15	.6002	1.4476	.0005
293.15	.7001	1.4424	.0005
293.15	.7999	1.4366	.0005
293.15	.9002	1.4303	.0005
293.15	1	1.4236	.0005
298.15	0	1.4715	.0005
298.15	.1001	1.4677	.0005
298.15	.2001	1.4637	.0005
298.15	.3002	1.4597	.0005
298.15	.4004	1.4552	.0005
298.15	.5001	1.4504	.0005
298.15	.6002	1.4458	.0005
298.15	.7001	1.4405	.0005
298.15	.7999	1.4348	.0005
298.15	.9002	1.4286	.0005
298.15	1	1.422	.0005
303.15	0	1.4695	.0005
303.15	.1001	1.4652	.0005
303.15	.2001	1.4614	.0005
303.15	.3002	1.4574	.0005
303.15	.4004	1.453	.0005
303.15	.5001	1.4484	.0005
303.15	.6002	1.4434	.0005
303.15	.7001	1.4382	.0005
303.15	.7999	1.4325	.0005
303.15	.9002	1.4262	.0005
303.15	1	1.4203	.0005
313.15	0	1.4649	.0005
313.15	.1001	1.4612	.0005
313.15	.2001	1.4571	.0005
313.15	.3002	1.453	.0005
313.15	.4004	1.4487	.0005
313.15	.5001	1.4438	.0005
313.15	.6002	1.4389	.0005
313.15	.7001	1.4341	.0005
313.15	.7999	1.4283	.0005
313.15	.9002	1.4224	.0005
313.15	1	1.4156	.0005
323.15	0	1.4612	.0005
323.15	.1001	1.4569	.0005
323.15	.2001	1.453	.0005
323.15	.3002	1.4489	.0005
323.15	.4004	1.4445	.0005
323.15	.5001	1.4398	.0005
323.15	.6002	1.435	.0005
323.15	.7001	1.4299	.0005
323.15	.7999	1.4244	.0005
323.15	.9002	1.4182	.0005
323.15	1	1.4115	.0005
333.15	0	1.4568	.0005
333.15	.1001	1.4526	.0005
333.15	.2001	1.4485	.0005
333.15	.3002	1.4444	.0005
333.15	.4004	1.4401	.0005
333.15	.5001	1.4354	.0005
333.15	.6002	1.4303	.0005
333.15	.7001	1.4255	.0005
333.15	.7999	1.4195	.0005
333.15	.9002	1.4138	.0005
333.15	1	1.4077	.0005

System: 1-heptanol + 1,3,5-trimethyladamantane; phases: Liquid, Air at 1 atmosphere
Fixed: Temperature, K = 298.15
Property: Surface tension liquid-gas, N/m (Liquid); method: Drop volume
Mole fraction of 1-heptanol	Surface tension liquid-gas, N/m	uncertainty
0	.02617	.00001
.1001	.02619	.00001
.2001	.02622	.00001
.3002	.02626	.00001
.4004	.02632	.00001
.5001	.02634	.00001
.6002	.02636	.00001
.7001	.02632	.00001
.7999	.0263	.00001
.9002	.02629	.00001
1	.02623	.00001

System: cyclohexylmethanol + 1,3-dimethyladamantane; phases: Liquid
Fixed: Pressure, kPa = 100
Property: Mass density, kg/m3 (Liquid); method: Vibrating tube method
Temperature, K	Mole fraction of cyclohexylmethanol	Mass density, kg/m3	uncertainty
293.15	0	901.58	.05
293.15	.1027	903.21	.05
293.15	.1995	905.07	.05
293.15	.3012	907.15	.05
293.15	.4004	909.76	.05
293.15	.4973	912.51	.05
293.15	.6008	915.54	.05
293.15	.7002	918.7	.05
293.15	.7892	922.49	.05
293.15	.9	925.92	.05
293.15	1	929.76	.05
298.15	0	898.04	.05
298.15	.1027	899.59	.05
298.15	.1995	901.44	.05
298.15	.3012	903.51	.05
298.15	.4004	906.13	.05
298.15	.4973	908.85	.05
298.15	.6008	911.97	.05
298.15	.7002	915.07	.05
298.15	.7892	918.88	.05
298.15	.9	922.36	.05
298.15	1	926.25	.05
303.15	0	894.48	.05
303.15	.1027	895.96	.05
303.15	.1995	897.78	.05
303.15	.3012	899.85	.05
303.15	.4004	902.45	.05
303.15	.4973	905.16	.05
303.15	.6008	908.3	.05
303.15	.7002	911.44	.05
303.15	.7892	915.23	.05
303.15	.9	918.75	.05
303.15	1	922.71	.05
308.15	0	890.92	.05
308.15	.1027	892.31	.05
308.15	.1995	894.11	.05
308.15	.3012	896.17	.05
308.15	.4004	898.75	.05
308.15	.4973	901.46	.05
308.15	.6008	904.6	.05
308.15	.7002	907.77	.05
308.15	.7892	911.57	.05
308.15	.9	915.12	.05
308.15	1	919.14	.05
313.15	0	887.35	.05
313.15	.1027	888.65	.05
313.15	.1995	890.42	.05
313.15	.3012	892.47	.05
313.15	.4004	895.03	.05
313.15	.4973	897.73	.05
313.15	.6008	900.87	.05
313.15	.7002	904.09	.05
313.15	.7892	907.87	.05
313.15	.9	911.45	.05
313.15	1	915.53	.05
318.15	0	883.77	.05
318.15	.1027	884.98	.05
318.15	.1995	886.71	.05
318.15	.3012	888.75	.05
318.15	.4004	891.29	.05
318.15	.4973	893.98	.05
318.15	.6008	897.11	.05
318.15	.7002	900.37	.05
318.15	.7892	904.14	.05
318.15	.9	907.74	.05
318.15	1	911.88	.05
323.15	0	880.19	.05
323.15	.1027	881.29	.05
323.15	.1995	882.99	.05
323.15	.3012	885.01	.05
323.15	.4004	887.53	.05
323.15	.4973	890.21	.05
323.15	.6008	893.33	.05
323.15	.7002	896.61	.05
323.15	.7892	900.37	.05
323.15	.9	904	.05
323.15	1	908.19	.05
328.15	0	876.6	.05
328.15	.1027	877.59	.05
328.15	.1995	879.24	.05
328.15	.3012	881.25	.05
328.15	.4004	883.75	.05
328.15	.4973	886.41	.05
328.15	.6008	889.51	.05
328.15	.7002	892.81	.05
328.15	.7892	896.56	.05
328.15	.9	900.21	.05
328.15	1	904.45	.05
333.15	0	873.01	.05
333.15	.1027	873.88	.05
333.15	.1995	875.48	.05
333.15	.3012	877.47	.05
333.15	.4004	879.94	.05
333.15	.4973	882.58	.05
333.15	.6008	885.67	.05
333.15	.7002	888.98	.05
333.15	.7892	892.71	.05
333.15	.9	896.38	.05
333.15	1	900.67	.05

System: cyclohexylmethanol + 1,3-dimethyladamantane; phases: Liquid
Fixed: Pressure, kPa = 100
Property: Viscosity, Pa*s (Liquid); method: Falling or rolling sphere viscometry
Temperature, K	Mole fraction of cyclohexylmethanol	Viscosity, Pa*s	uncertainty
293.15	0	.003764	.000005
293.15	.1027	.004113	.000005
293.15	.1995	.004718	.000005
293.15	.3012	.005602	.000005
293.15	.4004	.006901	.000005
293.15	.4973	.008435	.000005
293.15	.6008	.011198	.000005
293.15	.7002	.014925	.000005
293.15	.7892	.021139	.000005
293.15	.9	.028689	.000005
293.15	1	.037751	.000005
298.15	0	.003345	.000005
298.15	.1027	.003615	.000005
298.15	.1995	.004111	.000005
298.15	.3012	.004827	.000005
298.15	.4004	.005842	.000005
298.15	.4973	.007114	.000005
298.15	.6008	.009121	.000005
298.15	.7002	.011896	.000005
298.15	.7892	.016634	.000005
298.15	.9	.022114	.000005
298.15	1	.02867	.000005
303.15	0	.003004	.000005
303.15	.1027	.003204	.000005
303.15	.1995	.003618	.000005
303.15	.3012	.004192	.000005
303.15	.4004	.005005	.000005
303.15	.4973	.005993	.000005
303.15	.6008	.007528	.000005
303.15	.7002	.00963	.000005
303.15	.7892	.013353	.000005
303.15	.9	.01736	.000005
303.15	1	.022339	.000005
308.15	0	.002711	.000005
308.15	.1027	.002857	.000005
308.15	.1995	.003194	.000005
308.15	.3012	.003666	.000005
308.15	.4004	.004326	.000005
308.15	.4973	.005097	.000005
308.15	.6008	.006204	.000005
308.15	.7002	.007907	.000005
308.15	.7892	.010817	.000005
308.15	.9	.01392	.000005
308.15	1	.017573	.000005
313.15	0	.002458	.000005
313.15	.1027	.00256	.000005
313.15	.1995	.002841	.000005
313.15	.3012	.003229	.000005
313.15	.4004	.003764	.000005
313.15	.4973	.004377	.000005
313.15	.6008	.005311	.000005
313.15	.7002	.006578	.000005
313.15	.7892	.008883	.000005
313.15	.9	.011303	.000005
313.15	1	.014093	.000005
318.15	0	.002237	.000005
318.15	.1027	.002305	.000005
318.15	.1995	.002539	.000005
318.15	.3012	.002859	.000005
318.15	.4004	.003299	.000005
318.15	.4973	.003787	.000005
318.15	.6008	.004529	.000005
318.15	.7002	.005508	.000005
318.15	.7892	.00734	.000005
318.15	.9	.009262	.000005
318.15	1	.011429	.000005
323.15	0	.002045	.000005
323.15	.1027	.002085	.000005
323.15	.1995	.00228	.000005
323.15	.3012	.002546	.000005
323.15	.4004	.002911	.000005
323.15	.4973	.003302	.000005
323.15	.6008	.003896	.000005
323.15	.7002	.004604	.000005
323.15	.7892	.006145	.000005
323.15	.9	.007642	.000005
323.15	1	.009354	.000005
328.15	0	.001876	.000005
328.15	.1027	.001894	.000005
328.15	.1995	.002057	.000005
328.15	.3012	.002279	.000005
328.15	.4004	.00258	.000005
328.15	.4973	.002898	.000005
328.15	.6008	.003375	.000005
328.15	.7002	.003992	.000005
328.15	.7892	.005076	.000005
328.15	.9	.006342	.000005
328.15	1	.007766	.000005
333.15	0	.001728	.000005
333.15	.1027	.001727	.000005
333.15	.1995	.002105	.000005
333.15	.3012	.002048	.000005
333.15	.4004	.0023	.000005
333.15	.4973	.00256	.000005
333.15	.6008	.002946	.000005
333.15	.7002	.003443	.000005
333.15	.7892	.004253	.000005
333.15	.9	.005984	.000005
333.15	1	.006462	.000005

System: cyclohexylmethanol + 1,3-dimethyladamantane; phases: Liquid
Fixed: Pressure, kPa = 100
Property: Refractive index (Na D-line) (Liquid); method: Standard Abbe refractometry
Temperature, K	Mole fraction of cyclohexylmethanol	Refractive index (Na D-line)	uncertainty
293.15	0	1.4776	.0005
293.15	.1002	1.4759	.0005
293.15	.1995	1.4754	.0005
293.15	.2996	1.4742	.0005
293.15	.4004	1.4732	.0005
293.15	.4973	1.4719	.0005
293.15	.6008	1.4705	.0005
293.15	.7002	1.4692	.0005
293.15	.7999	1.4673	.0005
293.15	.9	1.4655	.0005
293.15	1	1.4629	.0005
298.15	0	1.4757	.0005
298.15	.1002	1.4738	.0005
298.15	.1995	1.4734	.0005
298.15	.2996	1.4722	.0005
298.15	.4004	1.4709	.0005
298.15	.4973	1.4698	.0005
298.15	.6008	1.4688	.0005
298.15	.7002	1.467	.0005
298.15	.7999	1.4653	.0005
298.15	.9	1.4638	.0005
298.15	1	1.4612	.0005
303.15	0	1.4734	.0005
303.15	.1002	1.4716	.0005
303.15	.1995	1.4712	.0005
303.15	.2996	1.47	.0005
303.15	.4004	1.4689	.0005
303.15	.4973	1.4679	.0005
303.15	.6008	1.4664	.0005
303.15	.7002	1.4651	.0005
303.15	.7999	1.4635	.0005
303.15	.9	1.4617	.0005
303.15	1	1.4592	.0005
313.15	0	1.4691	.0005
313.15	.1002	1.4673	.0005
313.15	.1995	1.4669	.0005
313.15	.2996	1.4656	.0005
313.15	.4004	1.4645	.0005
313.15	.4973	1.4633	.0005
313.15	.6008	1.462	.0005
313.15	.7002	1.4607	.0005
313.15	.7999	1.4584	.0005
313.15	.9	1.4571	.0005
313.15	1	1.455	.0005
323.15	0	1.4651	.0005
323.15	.1002	1.4626	.0005
323.15	.1995	1.4623	.0005
323.15	.2996	1.461	.0005
323.15	.4004	1.4602	.0005
323.15	.4973	1.459	.0005
323.15	.6008	1.4575	.0005
323.15	.7002	1.4564	.0005
323.15	.7999	1.4548	.0005
323.15	.9	1.4535	.0005
323.15	1	1.4507	.0005
333.15	0	1.461	.0005
333.15	.1002	1.4583	.0005
333.15	.1995	1.4578	.0005
333.15	.2996	1.4565	.0005
333.15	.4004	1.4554	.0005
333.15	.4973	1.4544	.0005
333.15	.6008	1.4529	.0005
333.15	.7002	1.4514	.0005
333.15	.7999	1.45	.0005
333.15	.9	1.4488	.0005
333.15	1	1.4463	.0005

System: cyclohexylmethanol + 1,3-dimethyladamantane; phases: Liquid, Air at 1 atmosphere
Fixed: Temperature, K = 298.15
Property: Surface tension liquid-gas, N/m (Liquid); method: Drop volume
Mole fraction of cyclohexylmethanol	Surface tension liquid-gas, N/m	uncertainty
0	.02788	.00001
.1002	.0282	.00001
.1995	.02836	.00001
.2996	.02856	.00001
.4004	.02874	.00001
.4973	.02895	.00001
.6008	.02935	.00001
.7002	.02983	.00001
.7999	.03046	.00001
.9	.03133	.00001
1	.03243	.00001

System: cyclohexylmethanol + 1-ethyladamantane; phases: Liquid
Fixed: Pressure, kPa = 100
Property: Mass density, kg/m3 (Liquid); method: Vibrating tube method
Temperature, K	Mole fraction of cyclohexylmethanol	Mass density, kg/m3	uncertainty
293.15	0	937.11	.05
293.15	.1	936.13	.05
293.15	.2002	935.23	.05
293.15	.2997	934.37	.05
293.15	.3999	933.76	.05
293.15	.4998	933.1	.05
293.15	.5989	932.54	.05
293.15	.7001	931.93	.05
293.15	.8023	931.24	.05
293.15	.8996	930.57	.05
293.15	1	929.76	.05
298.15	0	933.58	.05
298.15	.1	932.5	.05
298.15	.2002	931.58	.05
298.15	.2997	930.72	.05
298.15	.3999	930.09	.05
298.15	.4998	929.43	.05
298.15	.5989	928.87	.05
298.15	.7001	928.31	.05
298.15	.8023	927.68	.05
298.15	.8996	927	.05
298.15	1	926.25	.05
303.15	0	929.99	.05
303.15	.1	928.84	.05
303.15	.2002	927.89	.05
303.15	.2997	927.06	.05
303.15	.3999	926.4	.05
303.15	.4998	925.74	.05
303.15	.5989	925.17	.05
303.15	.7001	924.63	.05
303.15	.8023	924.04	.05
303.15	.8996	923.4	.05
303.15	1	922.71	.05
308.15	0	926.4	.05
308.15	.1	925.16	.05
308.15	.2002	924.2	.05
308.15	.2997	923.39	.05
308.15	.3999	922.68	.05
308.15	.4998	922.03	.05
308.15	.5989	921.45	.05
308.15	.7001	920.92	.05
308.15	.8023	920.38	.05
308.15	.8996	919.77	.05
308.15	1	919.14	.05
313.15	0	922.81	.05
313.15	.1	921.48	.05
313.15	.2002	920.49	.05
313.15	.2997	919.69	.05
313.15	.3999	918.95	.05
313.15	.4998	918.29	.05
313.15	.5989	917.71	.05
313.15	.7001	917.19	.05
313.15	.8023	916.67	.05
313.15	.8996	916.12	.05
313.15	1	915.53	.05
318.15	0	919.21	.05
318.15	.1	917.79	.05
318.15	.2002	916.77	.05
318.15	.2997	915.95	.05
318.15	.3999	915.2	.05
318.15	.4998	914.53	.05
318.15	.5989	913.94	.05
318.15	.7001	913.43	.05
318.15	.8023	912.93	.05
318.15	.8996	912.44	.05
318.15	1	911.88	.05
323.15	0	915.62	.05
323.15	.1	914.09	.05
323.15	.2002	913.03	.05
323.15	.2997	912.19	.05
323.15	.3999	911.42	.05
323.15	.4998	910.75	.05
323.15	.5989	910.15	.05
323.15	.7001	909.63	.05
323.15	.8023	909.16	.05
323.15	.8996	908.7	.05
323.15	1	908.19	.05
328.15	0	912.01	.05
328.15	.1	910.38	.05
328.15	.2002	909.27	.05
328.15	.2997	908.41	.05
328.15	.3999	907.62	.05
328.15	.4998	906.94	.05
328.15	.5989	906.33	.05
328.15	.7001	905.81	.05
328.15	.8023	905.35	.05
328.15	.8996	904.92	.05
328.15	1	904.45	.05
333.15	0	908.41	.05
333.15	.1	906.65	.05
333.15	.2002	905.5	.05
333.15	.2997	904.61	.05
333.15	.3999	903.81	.05
333.15	.4998	903.1	.05
333.15	.5989	902.49	.05
333.15	.7001	901.96	.05
333.15	.8023	901.5	.05
333.15	.8996	901.1	.05
333.15	1	900.67	.05

System: cyclohexylmethanol + 1-ethyladamantane; phases: Liquid
Fixed: Pressure, kPa = 100
Property: Viscosity, Pa*s (Liquid); method: Falling or rolling sphere viscometry
Temperature, K	Mole fraction of cyclohexylmethanol	Viscosity, Pa*s	uncertainty
293.15	0	.006371	.000005
293.15	.1	.006695	.000005
293.15	.2002	.007433	.000005
293.15	.2997	.008368	.000005
293.15	.3999	.009674	.000005
293.15	.4998	.011538	.000005
293.15	.5989	.014085	.000005
293.15	.7001	.017673	.000005
293.15	.8023	.023658	.000005
293.15	.8996	.029605	.000005
293.15	1	.037751	.000005
298.15	0	.005565	.000005
298.15	.1	.005776	.000005
298.15	.2002	.006348	.000005
298.15	.2997	.007083	.000005
298.15	.3999	.008081	.000005
298.15	.4998	.009483	.000005
298.15	.5989	.011384	.000005
298.15	.7001	.014041	.000005
298.15	.8023	.018531	.000005
298.15	.8996	.022862	.000005
298.15	1	.02867	.000005
303.15	0	.004903	.000005
303.15	.1	.005033	.000005
303.15	.2002	.005484	.000005
303.15	.2997	.006058	.000005
303.15	.3999	.006832	.000005
303.15	.4998	.007675	.000005
303.15	.5989	.009337	.000005
303.15	.7001	.011313	.000005
303.15	.8023	.014748	.000005
303.15	.8996	.018073	.000005
303.15	1	.022339	.000005
308.15	0	.004348	.000005
308.15	.1	.004417	.000005
308.15	.2002	.004772	.000005
308.15	.2997	.005224	.000005
308.15	.3999	.005833	.000005
308.15	.4998	.006657	.000005
308.15	.5989	.007748	.000005
308.15	.7001	.009236	.000005
308.15	.8023	.011881	.000005
308.15	.8996	.014389	.000005
308.15	1	.017573	.000005
313.15	0	.003878	.000005
313.15	.1	.003897	.000005
313.15	.2002	.004182	.000005
313.15	.2997	.004542	.000005
313.15	.3999	.005016	.000005
313.15	.4998	.005663	.000005
313.15	.5989	.006499	.000005
313.15	.7001	.007629	.000005
313.15	.8023	.00975	.000005
313.15	.8996	.011655	.000005
313.15	1	.014093	.000005
318.15	0	.003478	.000005
318.15	.1	.003463	.000005
318.15	.2002	.003688	.000005
318.15	.2997	.003973	.000005
318.15	.3999	.00435	.000005
318.15	.4998	.004857	.000005
318.15	.5989	.005504	.000005
318.15	.7001	.006374	.000005
318.15	.8023	.008051	.000005
318.15	.8996	.009556	.000005
318.15	1	.011429	.000005
323.15	0	.003134	.000005
323.15	.1	.003094	.000005
323.15	.2002	.00327	.000005
323.15	.2997	.003497	.000005
323.15	.3999	.003798	.000005
323.15	.4998	.004199	.000005
323.15	.5989	.004707	.000005
323.15	.7001	.005378	.000005
323.15	.8023	.006705	.000005
323.15	.8996	.007906	.000005
323.15	1	.009354	.000005
328.15	0	.002838	.000005
328.15	.1	.002777	.000005
328.15	.2002	.002915	.000005
328.15	.2997	.003096	.000005
328.15	.3999	.003338	.000005
328.15	.4998	.003657	.000005
328.15	.5989	.004059	.000005
328.15	.7001	.004581	.000005
328.15	.8023	.005629	.000005
328.15	.8996	.006508	.000005
328.15	1	.007766	.000005
333.15	0	.002581	.000005
333.15	.1	.002507	.000005
333.15	.2002	.002613	.000005
333.15	.2997	.002756	.000005
333.15	.3999	.002952	.000005
333.15	.4998	.003208	.000005
333.15	.5989	.003525	.000005
333.15	.7001	.003935	.000005
333.15	.8023	.004674	.000005
333.15	.8996	.005472	.000005
333.15	1	.006462	.000005

System: cyclohexylmethanol + 1-ethyladamantane; phases: Liquid
Fixed: Pressure, kPa = 100
Property: Refractive index (Na D-line) (Liquid); method: Standard Abbe refractometry
Temperature, K	Mole fraction of cyclohexylmethanol	Refractive index (Na D-line)	uncertainty
293.15	0	1.4927	.0005
293.15	.1	1.4903	.0005
293.15	.2002	1.4877	.0005
293.15	.2997	1.4853	.0005
293.15	.3999	1.4828	.0005
293.15	.4998	1.4801	.0005
293.15	.5989	1.477	.0005
293.15	.7001	1.474	.0005
293.15	.8023	1.4708	.0005
293.15	.8996	1.4673	.0005
293.15	1	1.4629	.0005
298.15	0	1.4906	.0005
298.15	.1	1.4883	.0005
298.15	.2002	1.4861	.0005
298.15	.2997	1.4835	.0005
298.15	.3999	1.4807	.0005
298.15	.4998	1.478	.0005
298.15	.5989	1.4754	.0005
298.15	.7001	1.4721	.0005
298.15	.8023	1.4689	.0005
298.15	.8996	1.4655	.0005
298.15	1	1.4612	.0005
303.15	0	1.4884	.0005
303.15	.1	1.4861	.0005
303.15	.2002	1.4836	.0005
303.15	.2997	1.4812	.0005
303.15	.3999	1.4783	.0005
303.15	.4998	1.4757	.0005
303.15	.5989	1.4733	.0005
303.15	.7001	1.47	.0005
303.15	.8023	1.4668	.0005
303.15	.8996	1.4634	.0005
303.15	1	1.4592	.0005
313.15	0	1.4839	.0005
313.15	.1	1.4816	.0005
313.15	.2002	1.4791	.0005
313.15	.2997	1.4768	.0005
313.15	.3999	1.4741	.0005
313.15	.4998	1.471	.0005
313.15	.5989	1.4687	.0005
313.15	.7001	1.4657	.0005
313.15	.8023	1.4623	.0005
313.15	.8996	1.4593	.0005
313.15	1	1.455	.0005
323.15	0	1.4802	.0005
323.15	.1	1.4775	.0005
323.15	.2002	1.4751	.0005
323.15	.2997	1.4725	.0005
323.15	.3999	1.4699	.0005
323.15	.4998	1.4672	.0005
323.15	.5989	1.4645	.0005
323.15	.7001	1.4616	.0005
323.15	.8023	1.4584	.0005
323.15	.8996	1.4553	.0005
323.15	1	1.4507	.0005
333.15	0	1.4759	.0005
333.15	.1	1.4725	.0005
333.15	.2002	1.4703	.0005
333.15	.2997	1.4678	.0005
333.15	.3999	1.4652	.0005
333.15	.4998	1.4627	.0005
333.15	.5989	1.4599	.0005
333.15	.7001	1.4571	.0005
333.15	.8023	1.4541	.0005
333.15	.8996	1.451	.0005
333.15	1	1.4463	.0005

System: cyclohexylmethanol + 1-ethyladamantane; phases: Liquid, Air at 1 atmosphere
Fixed: Temperature, K = 298.15
Property: Surface tension liquid-gas, N/m (Liquid); method: Drop volume
Mole fraction of cyclohexylmethanol	Surface tension liquid-gas, N/m	uncertainty
0	.02987	.00001
.1	.03021	.00001
.2002	.03084	.00001
.2997	.03099	.00001
.3999	.03123	.00001
.4998	.03151	.00001
.5989	.03186	.00001
.7001	.03198	.00001
.8023	.0321	.00001
.8996	.03221	.00001
1	.03243	.00001

System: cyclohexylmethanol + 1,3,5-trimethyladamantane; phases: Liquid
Fixed: Pressure, kPa = 100
Property: Mass density, kg/m3 (Liquid); method: Vibrating tube method
Temperature, K	Mole fraction of cyclohexylmethanol	Mass density, kg/m3	uncertainty
293.15	0	887.48	.05
293.15	.1	889.7	.05
293.15	.2001	892.4	.05
293.15	.2997	895.41	.05
293.15	.4	898.82	.05
293.15	.4994	902.62	.05
293.15	.5991	906.88	.05
293.15	.7	911.64	.05
293.15	.801	917.1	.05
293.15	.8927	922.52	.05
293.15	1	929.76	.05
298.15	0	883.99	.05
298.15	.1	886.13	.05
298.15	.2001	888.82	.05
298.15	.2997	891.83	.05
298.15	.4	895.23	.05
298.15	.4994	899.02	.05
298.15	.5991	903.29	.05
298.15	.7	908.13	.05
298.15	.801	913.53	.05
298.15	.8927	918.95	.05
298.15	1	926.25	.05
303.15	0	880.47	.05
303.15	.1	882.54	.05
303.15	.2001	885.21	.05
303.15	.2997	888.21	.05
303.15	.4	891.61	.05
303.15	.4994	895.4	.05
303.15	.5991	899.66	.05
303.15	.7	904.52	.05
303.15	.801	909.91	.05
303.15	.8927	915.34	.05
303.15	1	922.71	.05
308.15	0	876.94	.05
308.15	.1	878.93	.05
308.15	.2001	881.59	.05
308.15	.2997	884.59	.05
308.15	.4	887.97	.05
308.15	.4994	891.76	.05
308.15	.5991	896.02	.05
308.15	.7	900.87	.05
308.15	.801	906.27	.05
308.15	.8927	911.73	.05
308.15	1	919.14	.05
313.15	0	873.4	.05
313.15	.1	875.32	.05
313.15	.2001	877.95	.05
313.15	.2997	880.94	.05
313.15	.4	884.32	.05
313.15	.4994	888.09	.05
313.15	.5991	892.35	.05
313.15	.7	897.2	.05
313.15	.801	902.61	.05
313.15	.8927	908.08	.05
313.15	1	915.53	.05
318.15	0	869.86	.05
318.15	.1	871.69	.05
318.15	.2001	874.3	.05
318.15	.2997	877.27	.05
318.15	.4	880.63	.05
318.15	.4994	884.4	.05
318.15	.5991	888.66	.05
318.15	.7	893.49	.05
318.15	.801	898.9	.05
318.15	.8927	904.4	.05
318.15	1	911.88	.05
323.15	0	866.31	.05
323.15	.1	868.04	.05
323.15	.2001	870.63	.05
323.15	.2997	873.58	.05
323.15	.4	876.93	.05
323.15	.4994	880.69	.05
323.15	.5991	884.94	.05
323.15	.7	889.76	.05
323.15	.801	895.17	.05
323.15	.8927	900.68	.05
323.15	1	908.19	.05
328.15	0	862.76	.05
328.15	.1	864.39	.05
328.15	.2001	866.94	.05
328.15	.2997	869.86	.05
328.15	.4	873.2	.05
328.15	.4994	876.94	.05
328.15	.5991	881.18	.05
328.15	.7	885.99	.05
328.15	.801	891.4	.05
328.15	.8927	896.92	.05
328.15	1	904.45	.05
333.15	0	859.2	.05
333.15	.1	860.72	.05
333.15	.2001	863.23	.05
333.15	.2997	866.13	.05
333.15	.4	869.45	.05
333.15	.4994	873.17	.05
333.15	.5991	877.4	.05
333.15	.7	882.2	.05
333.15	.801	887.6	.05
333.15	.8927	893.12	.05
333.15	1	900.67	.05

System: cyclohexylmethanol + 1,3,5-trimethyladamantane; phases: Liquid
Fixed: Pressure, kPa = 100
Property: Viscosity, Pa*s (Liquid); method: Falling or rolling sphere viscometry
Temperature, K	Mole fraction of cyclohexylmethanol	Viscosity, Pa*s	uncertainty
293.15	0	.002601	.000005
293.15	.1	.002872	.000005
293.15	.2001	.003328	.000005
293.15	.2997	.003955	.000005
293.15	.4	.004859	.000005
293.15	.4994	.006211	.000005
293.15	.5991	.008288	.000005
293.15	.7	.011514	.000005
293.15	.801	.016659	.000005
293.15	.8927	.024616	.000005
293.15	1	.037751	.000005
298.15	0	.002338	.000005
298.15	.1	.00255	.000005
298.15	.2001	.002939	.000005
298.15	.2997	.003455	.000005
298.15	.4	.004184	.000005
298.15	.4994	.005256	.000005
298.15	.5991	.006866	.000005
298.15	.7	.009343	.000005
298.15	.801	.013222	.000005
298.15	.8927	.019186	.000005
298.15	1	.02867	.000005
303.15	0	.002118	.000005
303.15	.1	.002297	.000005
303.15	.2001	.002615	.000005
303.15	.2997	.003041	.000005
303.15	.4	.003639	.000005
303.15	.4994	.004492	.000005
303.15	.5991	.00576	.000005
303.15	.7	.007681	.000005
303.15	.801	.010654	.000005
303.15	.8927	.015278	.000005
303.15	1	.022339	.000005
308.15	0	.00193	.000005
308.15	.1	.002072	.000005
308.15	.2001	.002336	.000005
308.15	.2997	.002694	.000005
308.15	.4	.003187	.000005
308.15	.4994	.003876	.000005
308.15	.5991	.004884	.000005
308.15	.7	.006386	.000005
308.15	.801	.008659	.000005
308.15	.8927	.012261	.000005
308.15	1	.017573	.000005
313.15	0	.001765	.000005
313.15	.1	.001878	.000005
313.15	.2001	.0021	.000005
313.15	.2997	.002402	.000005
313.15	.4	.002811	.000005
313.15	.4994	.003371	.000005
313.15	.5991	.004181	.000005
313.15	.7	.005366	.000005
313.15	.801	.007126	.000005
313.15	.8927	.009952	.000005
313.15	1	.014093	.000005
318.15	0	.001621	.000005
318.15	.1	.00171	.000005
318.15	.2001	.001898	.000005
318.15	.2997	.002151	.000005
318.15	.4	.002494	.000005
318.15	.4994	.002954	.000005
318.15	.5991	.003609	.000005
318.15	.7	.004552	.000005
318.15	.801	.005932	.000005
318.15	.8927	.008189	.000005
318.15	1	.011429	.000005
323.15	0	.001494	.000005
323.15	.1	.001564	.000005
323.15	.2001	.001723	.000005
323.15	.2997	.001936	.000005
323.15	.4	.002224	.000005
323.15	.4994	.002604	.000005
323.15	.5991	.00314	.000005
323.15	.7	.003899	.000005
323.15	.801	.00499	.000005
323.15	.8927	.006785	.000005
323.15	1	.009354	.000005
328.15	0	.001384	.000005
328.15	.1	.001435	.000005
328.15	.2001	.001569	.000005
328.15	.2997	.001752	.000005
328.15	.4	.001994	.000005
328.15	.4994	.002311	.000005
328.15	.5991	.002751	.000005
328.15	.7	.003367	.000005
328.15	.801	.004238	.000005
328.15	.8927	.005705	.000005
328.15	1	.007766	.000005
333.15	0	.001284	.000005
333.15	.1	.001322	.000005
333.15	.2001	.001436	.000005
333.15	.2997	.00159	.000005
333.15	.4	.001797	.000005
333.15	.4994	.002061	.000005
333.15	.5991	.002426	.000005
333.15	.7	.00293	.000005
333.15	.801	.003632	.000005
333.15	.8927	.004772	.000005
333.15	1	.006462	.000005

System: cyclohexylmethanol + 1,3,5-trimethyladamantane; phases: Liquid
Fixed: Pressure, kPa = 100
Property: Refractive index (Na D-line) (Liquid); method: Standard Abbe refractometry
Temperature, K	Mole fraction of cyclohexylmethanol	Refractive index (Na D-line)	uncertainty
293.15	0	1.4736	.0005
293.15	.1	1.4727	.0005
293.15	.2001	1.4718	.0005
293.15	.2997	1.4711	.0005
293.15	.4	1.4703	.0005
293.15	.4994	1.4694	.0005
293.15	.5991	1.4684	.0005
293.15	.7	1.4673	.0005
293.15	.801	1.4661	.0005
293.15	.8927	1.465	.0005
293.15	1	1.4629	.0005
298.15	0	1.4715	.0005
298.15	.1	1.4708	.0005
298.15	.2001	1.47	.0005
298.15	.2997	1.4691	.0005
298.15	.4	1.4681	.0005
298.15	.4994	1.4672	.0005
298.15	.5991	1.4663	.0005
298.15	.7	1.4655	.0005
298.15	.801	1.4641	.0005
298.15	.8927	1.4631	.0005
298.15	1	1.4612	.0005
303.15	0	1.4695	.0005
303.15	.1	1.4686	.0005
303.15	.2001	1.4676	.0005
303.15	.2997	1.4669	.0005
303.15	.4	1.4659	.0005
303.15	.4994	1.465	.0005
303.15	.5991	1.4643	.0005
303.15	.7	1.4632	.0005
303.15	.801	1.4621	.0005
303.15	.8927	1.4609	.0005
303.15	1	1.4592	.0005
313.15	0	1.4649	.0005
313.15	.1	1.4641	.0005
313.15	.2001	1.4633	.0005
313.15	.2997	1.4625	.0005
313.15	.4	1.4618	.0005
313.15	.4994	1.4608	.0005
313.15	.5991	1.46	.0005
313.15	.7	1.459	.0005
313.15	.801	1.458	.0005
313.15	.8927	1.4568	.0005
313.15	1	1.455	.0005
323.15	0	1.4612	.0005
323.15	.1	1.46	.0005
323.15	.2001	1.4589	.0005
323.15	.2997	1.4582	.0005
323.15	.4	1.4573	.0005
323.15	.4994	1.4565	.0005
323.15	.5991	1.4556	.0005
323.15	.7	1.4549	.0005
323.15	.801	1.4539	.0005
323.15	.8927	1.4528	.0005
323.15	1	1.4507	.0005
333.15	0	1.4568	.0005
333.15	.1	1.4552	.0005
333.15	.2001	1.4545	.0005
333.15	.2997	1.4538	.0005
333.15	.4	1.453	.0005
333.15	.4994	1.4522	.0005
333.15	.5991	1.4513	.0005
333.15	.7	1.4504	.0005
333.15	.801	1.4492	.0005
333.15	.8927	1.4486	.0005
333.15	1	1.4463	.0005

System: cyclohexylmethanol + 1,3,5-trimethyladamantane; phases: Liquid, Air at 1 atmosphere
Fixed: Temperature, K = 298.15
Property: Surface tension liquid-gas, N/m (Liquid); method: Drop volume
Mole fraction of cyclohexylmethanol	Surface tension liquid-gas, N/m	uncertainty
0	.02617	.00001
.1	.02618	.00001
.2001	.0264	.00001
.2997	.02677	.00001
.4	.02722	.00001
.4994	.02765	.00001
.5991	.02816	.00001
.7	.02888	.00001
.801	.02974	.00001
.8927	.03063	.00001
1	.03243	.00001
