Measured thermophysical data. Measurements and Comparative Study of Ternary Liquid Liquid Equilibria for Water + Acrylic Acid + Cyclopentyl Methyl Ether at (293.15, 303.15, and 313.15) K and 100.249 kPa
Source: J. Chem. Eng. Data, 2015, 10.1021/je501085y
Compound 1: water, H2O, purity 99.95%
Compound 2: acrylic acid, C3H4O2, purity 99.75%
Compound 3: methoxycyclopentane, C6H12O, purity 99.95%

System: acrylic acid; phases: Liquid
Fixed: Pressure, kPa = 101.325
Property: Mass density, kg/m3 (Liquid); method: Vibrating tube method
Temperature, K	Mass density, kg/m3	uncertainty
293.15	1051.22	

System: acrylic acid; phases: Liquid
Fixed: Pressure, kPa = 101.325
Property: Refractive index (Na D-line) (Liquid); method: Standard Abbe refractometry
Temperature, K	Refractive index (Na D-line)	uncertainty
293.15	1.4223	

System: methoxycyclopentane; phases: Liquid
Fixed: Pressure, kPa = 101.325
Property: Mass density, kg/m3 (Liquid); method: Vibrating tube method
Temperature, K	Mass density, kg/m3	uncertainty
293.15	860.43	

System: methoxycyclopentane; phases: Liquid
Fixed: Pressure, kPa = 101.325
Property: Refractive index (Na D-line) (Liquid); method: Standard Abbe refractometry
Temperature, K	Refractive index (Na D-line)	uncertainty
293.15	1.4187	

System: acrylic acid + methoxycyclopentane + water; phases: Liquid mixture 2, Liquid mixture 1
Fixed: Pressure, kPa = 100.249
Property: Mass fraction of acrylic acid (Liquid mixture 2); method: Chromatography
Property: Mass fraction of acrylic acid (Liquid mixture 1); method: Chromatography
Property: Mass fraction of water (Liquid mixture 1); method: Chromatography
Temperature, K	Mass fraction of water	Mass fraction of acrylic acid	uncertainty	Mass fraction of acrylic acid	uncertainty	Mass fraction of water	uncertainty
293.15	.9889	0	.005	0	.005	.0086	.005
303.15	.9832	0	.005	0	.005	.0102	.005
303.15	.9295	.0396	.005	.1649	.005	.0365	.005
303.15	.8976	.0698	.005	.2453	.005	.0668	.005
303.15	.8727	.0918	.005	.2858	.005	.0836	.005
303.15	.8395	.1175	.005	.3192	.005	.0986	.005
303.15	.7898	.1591	.005	.3608	.005	.1216	.005
303.15	.7578	.1815	.005	.3806	.005	.1456	.005
303.15	.7365	.1995	.005	.4002	.005	.1689	.005
303.15	.7038	.2211	.005	.4241	.005	.1979	.005
313.15	.9808	0	.005	0	.005	.0156	.005
293.15	.9475	.0234	.005	.151	.005	.0237	.005
313.15	.9186	.0457	.005	.1621	.005	.0412	.005
313.15	.8818	.0793	.005	.2402	.005	.0745	.005
313.15	.8622	.0976	.005	.2838	.005	.0889	.005
313.15	.8255	.1272	.005	.3134	.005	.1069	.005
313.15	.7737	.1697	.005	.3557	.005	.1342	.005
313.15	.7422	.1931	.005	.3735	.005	.1596	.005
313.15	.7183	.2121	.005	.3924	.005	.1813	.005
313.15	.6856	.2346	.005	.415	.005	.2152	.005
293.15	.9173	.048	.005	.2295	.005	.0486	.005
293.15	.8803	.0864	.005	.2952	.005	.0671	.005
293.15	.8546	.1066	.005	.3283	.005	.0806	.005
293.15	.8224	.1306	.005	.3571	.005	.1025	.005
293.15	.7753	.1683	.005	.3849	.005	.1188	.005
293.15	.7513	.1882	.005	.4211	.005	.1551	.005
293.15	.7172	.2109	.005	.4418	.005	.1983	.005

System: methoxycyclopentane + water; phases: Liquid mixture 2, Liquid mixture 1
Property: Mass fraction of water (Liquid mixture 2); method: Chromatography
Temperature, K	Pressure, kPa	Mass fraction of water	uncertainty
293.15	100.249	.9889	.005
303.15	100.249	.9832	.005
313.15	100.249	.9808	.005

System: methoxycyclopentane + water; phases: Liquid mixture 1, Liquid mixture 2
Property: Mass fraction of water (Liquid mixture 1); method: Chromatography
Temperature, K	Pressure, kPa	Mass fraction of water	uncertainty
293.15	100.249	.0086	.005
303.15	100.249	.0102	.005
313.15	100.249	.0156	.005
