Measured thermophysical data. Solubility of Glycyrrhizin in supercritical carbon dioxide with and without cosolvent
Source: J. Chem. Eng. Data, 2015, 10.1021/je5011328
Compound 1: Glycyrrhizin, C42H62O16, purity 98%
Compound 2: carbon dioxide, CO2, purity 98%
Compound 3: ethanol, C2H6O, purity 99.5%
Compound 4: salicylic acid, C7H6O3, purity 99.6%

System: carbon dioxide + Glycyrrhizin; phases: Fluid (supercritical or subcritical phases), Crystal
Property: Mole fraction of Glycyrrhizin (Fluid (supercritical or subcritical phases)); method: UV-vis spectrophotometry
Temperature, K	Pressure, kPa	Mole fraction of Glycyrrhizin	uncertainty
308	9000	.00000154	.000000028952
308	12000	.00000206	.000000038728
308	15000	.00000217	.000000040796
308	18000	.00000249	.000000046812
308	21000	.00000298	.000000056024
318	9000	.00000227	.000000042676
318	12000	.0000032	.00000006016
318	15000	.00000385	.00000007238
318	18000	.00000475	.0000000893
318	21000	.00000572	.000000107536
328	9000	.00000205	.00000003854
328	12000	.00000385	.00000007238
328	15000	.00000537	.000000100956
328	18000	.00000695	.00000013066
328	21000	.00000861	.000000161868

System: ethanol + carbon dioxide + Glycyrrhizin; phases: Fluid (supercritical or subcritical phases), Crystal
Property: Mole fraction of Glycyrrhizin (Fluid (supercritical or subcritical phases)); method: UV-vis spectrophotometry
Temperature, K	Pressure, kPa	Solvent: Mole fraction of ethanol	Mole fraction of Glycyrrhizin	uncertainty
308	9000	.02	.00000261	.00000003393
308	12000	.02	.00000369	.00000004797
308	15000	.02	.0000056	.0000000728
308	18000	.02	.00000763	.00000009919
308	21000	.02	.00000952	.00000012376
318	9000	.02	.00000381	.00000004953
318	12000	.02	.00000712	.00000009256
318	15000	.02	.00001094	.00000014222
318	18000	.02	.00001516	.00000019708
318	21000	.02	.00001825	.00000023725
328	9000	.02	.00000473	.00000006149
328	12000	.02	.0000098	.0000001274
328	15000	.02	.00001511	.00000019643
328	18000	.02	.00002156	.00000028028
328	21000	.02	.0000273	.0000003549
308	9000	.04	.00000497	.00000006461
308	12000	.04	.00001243	.00000016159
308	15000	.04	.00002099	.00000027287
308	18000	.04	.00002997	.00000038961
308	21000	.04	.00003729	.00000048477
318	9000	.04	.00000518	.00000006734
318	12000	.04	.00001532	.00000019916
318	15000	.04	.00002662	.00000034606
318	18000	.04	.00003741	.00000048633
318	21000	.04	.00004557	.00000059241
328	9000	.04	.0000064	.0000000832
328	12000	.04	.00001886	.00000024518
328	15000	.04	.0000327	.0000004251
328	18000	.04	.00004464	.00000058032
328	21000	.04	.0000543	.0000007059

System: salicylic acid + carbon dioxide; phases: Liquid, Crystal
Fixed: Temperature, K = 308
Property: Mole fraction of salicylic acid (Liquid); method: UV-vis spectrophotometry
Pressure, kPa	Mole fraction of salicylic acid	uncertainty
9000	.000033	.000000759
12000	.000229	.000005267
13000	.000264	.000006072
15000	.000312	.000007176
18000	.000405	.000009315
21000	.000458	.000010534
