Measured thermophysical data. Influence of Sodium Salts on the Micellization and Interfacial Behavior of Cationic Surfactant Dodecyltrimethylammonium Bromide in Aqueous Solution
Source: J. Chem. Eng. Data, 2015, 10.1021/je501058a
Compound 1: dodecyltrimethylammonium bromide, C15H34BrN, purity 99%
Compound 2: sodium chloride, ClNa, purity 99.5%
Compound 3: sodium dihydrogen phosphate anhydrous, H2NaO4P, purity 99.5%
Compound 4: disodium hydrogen phosphate, HNa2O4P, purity 99.5%
Compound 5: trisodium phosphate, Na3O4P, purity 99%
Compound 6: sodium carbonate, CNa2O3, purity 99.9%
Compound 7: sodium sulfate, Na2O4S, purity 99%
Compound 8: sodium citrate, C6H5Na3O7, purity 99%
Compound 9: water, H2O, purity 98%

System: dodecyltrimethylammonium bromide + water; phases: Liquid
Fixed: Pressure, kPa = 101
Fixed: Temperature, K = 298.15
Property: Electrical conductivity, S/m (Liquid); method: dipping-type conductivity cell
Molality, mol/kg of dodecyltrimethylammonium bromide	Electrical conductivity, S/m	uncertainty
0	.00021	.00000021
.00239	.02398	.00002398
.00309	.0306	.0000306
.00381	.03743	.00003743
.00452	.04413	.00004413
.00525	.0508	.0000508
.00593	.05714	.00005714
.00665	.06364	.00006364
.00734	.06995	.00006995
.00808	.07656	.00007656
.00879	.0829	.0000829
.00946	.08876	.00008876
.01031	.09628	.00009628
.01115	.1036	.0001036
.0118	.1093	.0001093
.01245	.1151	.0001151
.01307	.1205	.0001205
.01338	.1232	.0001232
.01369	.1259	.0001259
.01385	.1271	.0001271
.01399	.1283	.0001283
.01423	.1305	.0001305
.0146	.1336	.0001336
.01495	.1363	.0001363
.01542	.1391	.0001391
.01602	.1416	.0001416
.01661	.1437	.0001437
.01705	.145	.000145
.01749	.1462	.0001462
.01793	.1474	.0001474
.0185	.1488	.0001488
.01907	.1503	.0001503
.01964	.1517	.0001517
.02021	.153	.000153
.02078	.1545	.0001545
.02133	.1558	.0001558
.0219	.1572	.0001572

System: dodecyltrimethylammonium bromide + water; phases: Liquid, Air at 1 atmosphere
Fixed: Temperature, K = 298.15
Property: Surface tension liquid-gas, N/m (Liquid); method: plate method
Molality, mol/kg of dodecyltrimethylammonium bromide	Surface tension liquid-gas, N/m	uncertainty
0	.0728	.001
.00493	.05339	.001
.00646	.04887	.001
.00813	.04664	.001
.00988	.04404	.001
.01154	.04237	.001
.01325	.04038	.001
.01472	.03865	.001
.02771	.03829	.001
.03274	.03871	.001
.04607	.03873	.001
.0796	.03813	.001

System: dodecyltrimethylammonium bromide + sodium chloride + water; phases: Liquid
Fixed: Pressure, kPa = 101
Fixed: Temperature, K = 298.15
Property: Electrical conductivity, S/m (Liquid); method: dipping-type conductivity cell
Solvent: Molality, mol/kg of sodium chloride	Molality, mol/kg of dodecyltrimethylammonium bromide	Electrical conductivity, S/m	uncertainty
.01	0	.1161	.0001161
.01	.00025	.1179	.0001179
.01	.00052	.1201	.0001201
.01	.00078	.1223	.0001223
.01	.00113	.1252	.0001252
.01	.00162	.1294	.0001294
.01	.00224	.1348	.0001348
.01	.0028	.1397	.0001397
.01	.00343	.1451	.0001451
.01	.00406	.1504	.0001504
.01	.00466	.1556	.0001556
.01	.00526	.1607	.0001607
.01	.00594	.1667	.0001667
.01	.00665	.1727	.0001727
.01	.00726	.1778	.0001778
.01	.00796	.1838	.0001838
.01	.00859	.1892	.0001892
.01	.00928	.1949	.0001949
.01	.00995	.2005	.0002005
.01	.01062	.2061	.0002061
.01	.01122	.2111	.0002111
.01	.01186	.2164	.0002164
.01	.01249	.2214	.0002214
.01	.01312	.2263	.0002263
.01	.01365	.2301	.0002301
.01	.01426	.2333	.0002333
.01	.0149	.2357	.0002357
.01	.01552	.2376	.0002376
.01	.01616	.2394	.0002394
.01	.01689	.2413	.0002413
.01	.0177	.2432	.0002432
.01	.01864	.2454	.0002454
.01	.01963	.2477	.0002477
.01	.02073	.2502	.0002502
.01	.02195	.2528	.0002528
.01	.02361	.2566	.0002566
.1	0	.8806	.0008806
.1	.00016	.8786	.0008786
.1	.00041	.8778	.0008778
.1	.00075	.878	.000878
.1	.00126	.8786	.0008786
.1	.00176	.8802	.0008802
.1	.00225	.8816	.0008816
.1	.00274	.8831	.0008831
.1	.00306	.8846	.0008846
.1	.00338	.8858	.0008858
.1	.0037	.8876	.0008876
.1	.00402	.8895	.0008895
.1	.00435	.8913	.0008913
.1	.00468	.893	.000893
.1	.00501	.8946	.0008946
.1	.00533	.8963	.0008963
.1	.00564	.8978	.0008978
.1	.00596	.8993	.0008993
.1	.00627	.9008	.0009008
.1	.00674	.9032	.0009032
.1	.00705	.9048	.0009048
.1	.00736	.9066	.0009066
.1	.00782	.9086	.0009086
.1	.00828	.9101	.0009101
.1	.00859	.9111	.0009111
.1	.0089	.9122	.0009122
.1	.00936	.9132	.0009132
.1	.00982	.9143	.0009143
.1	.01026	.9156	.0009156
.1	.0107	.9166	.0009166
.1	.01115	.9175	.0009175
.1	.0116	.9186	.0009186
.1	.01205	.9197	.0009197
.1	.01249	.9207	.0009207
.1	.01293	.9217	.0009217

System: dodecyltrimethylammonium bromide + sodium chloride + water; phases: Liquid, Air at 1 atmosphere
Fixed: Temperature, K = 298.15
Fixed: Solvent: Molality, mol/kg of sodium chloride = .01
Property: Surface tension liquid-gas, N/m (Liquid); method: plate method
Molality, mol/kg of dodecyltrimethylammonium bromide	Surface tension liquid-gas, N/m	uncertainty
0	.07124	.001
.00065	.06514	.001
.00129	.05986	.001
.00265	.05797	.001
.00389	.05517	.001
.00517	.05134	.001
.0065	.04928	.001
.00804	.0464	.001
.00976	.04267	.001
.01267	.03937	.001
.01463	.03749	.001
.02217	.03943	.001
.03258	.03929	.001
.04946	.03919	.001
.06793	.03892	.001

System: dodecyltrimethylammonium bromide + sodium dihydrogen phosphate anhydrous + water; phases: Liquid
Fixed: Pressure, kPa = 101
Fixed: Temperature, K = 298.15
Property: Electrical conductivity, S/m (Liquid); method: dipping-type conductivity cell
Solvent: Molality, mol/kg of sodium dihydrogen phosphate anhydrous	Molality, mol/kg of dodecyltrimethylammonium bromide	Electrical conductivity, S/m	uncertainty
.01	0	.1015	.0001015
.01	.00021	.1031	.0001031
.01	.00043	.1049	.0001049
.01	.00073	.1075	.0001075
.01	.00103	.1101	.0001101
.01	.0013	.1124	.0001124
.01	.0019	.1175	.0001175
.01	.00244	.1222	.0001222
.01	.003	.127	.000127
.01	.00358	.132	.000132
.01	.00414	.1368	.0001368
.01	.0047	.1416	.0001416
.01	.00529	.1467	.0001467
.01	.00585	.1516	.0001516
.01	.0064	.1563	.0001563
.01	.00696	.161	.000161
.01	.0076	.1667	.0001667
.01	.00825	.1723	.0001723
.01	.00888	.1777	.0001777
.01	.00951	.1831	.0001831
.01	.01014	.1884	.0001884
.01	.01076	.1937	.0001937
.01	.01139	.1991	.0001991
.01	.01201	.2043	.0002043
.01	.01262	.2096	.0002096
.01	.01322	.2146	.0002146
.01	.01382	.2196	.0002196
.01	.01442	.2239	.0002239
.01	.01493	.2266	.0002266
.01	.0155	.2291	.0002291
.01	.01618	.2316	.0002316
.01	.01698	.234	.000234
.01	.01787	.2367	.0002367
.01	.01882	.2394	.0002394
.01	.0203	.2432	.0002432
.01	.02175	.2467	.0002467
.1	0	.7566	.0007566
.1	.00031	.7559	.0007559
.1	.00061	.7567	.0007567
.1	.00104	.7581	.0007581
.1	.00143	.7597	.0007597
.1	.00195	.7617	.0007617
.1	.00259	.7635	.0007635
.1	.00321	.766	.000766
.1	.00382	.7685	.0007685
.1	.00444	.771	.000771
.1	.00507	.7738	.0007738
.1	.00568	.777	.000777
.1	.00629	.7803	.0007803
.1	.00691	.7836	.0007836
.1	.00749	.7867	.0007867
.1	.00807	.7899	.0007899
.1	.00867	.793	.000793
.1	.00927	.7962	.0007962
.1	.00987	.7996	.0007996
.1	.01047	.8028	.0008028
.1	.01105	.8057	.0008057
.1	.01163	.8081	.0008081
.1	.01222	.8103	.0008103
.1	.01278	.8125	.0008125
.1	.01336	.8147	.0008147
.1	.01394	.8169	.0008169
.1	.01451	.8191	.0008191
.1	.01508	.8212	.0008212
.1	.01565	.8234	.0008234

System: dodecyltrimethylammonium bromide + sodium dihydrogen phosphate anhydrous + water; phases: Liquid, Air at 1 atmosphere
Fixed: Temperature, K = 298.15
Fixed: Solvent: Molality, mol/kg of sodium dihydrogen phosphate anhydrous = .01
Property: Surface tension liquid-gas, N/m (Liquid); method: plate method
Molality, mol/kg of dodecyltrimethylammonium bromide	Surface tension liquid-gas, N/m	uncertainty
0	.07187	.001
.00065	.0639	.001
.0013	.05719	.001
.00259	.05625	.001
.00393	.05232	.001
.00648	.05074	.001
.0081	.04789	.001
.00986	.04564	.001
.013	.04069	.001
.01466	.03861	.001
.01869	.03914	.001
.02271	.03988	.001
.03279	.03981	.001
.04941	.03936	.001
.07201	.03829	.001

System: dodecyltrimethylammonium bromide + disodium hydrogen phosphate + water; phases: Liquid
Fixed: Pressure, kPa = 101
Fixed: Temperature, K = 298.15
Property: Electrical conductivity, S/m (Liquid); method: dipping-type conductivity cell
Solvent: Molality, mol/kg of disodium hydrogen phosphate	Molality, mol/kg of dodecyltrimethylammonium bromide	Electrical conductivity, S/m	uncertainty
.01	0	.1834	.0001834
.01	.00019	.1849	.0001849
.01	.0004	.1863	.0001863
.01	.00069	.1888	.0001888
.01	.00109	.1919	.0001919
.01	.00158	.1958	.0001958
.01	.00206	.1997	.0001997
.01	.00256	.2038	.0002038
.01	.00306	.2079	.0002079
.01	.00356	.212	.000212
.01	.00405	.2161	.0002161
.01	.00453	.2201	.0002201
.01	.00502	.224	.000224
.01	.0055	.2279	.0002279
.01	.00597	.2317	.0002317
.01	.00646	.2356	.0002356
.01	.00693	.2393	.0002393
.01	.0074	.243	.000243
.01	.00799	.2473	.0002473
.01	.00845	.2509	.0002509
.01	.00892	.2547	.0002547
.01	.00939	.2586	.0002586
.01	.00985	.2624	.0002624
.01	.0103	.2662	.0002662
.01	.01074	.2697	.0002697
.01	.01119	.2733	.0002733
.01	.01166	.2774	.0002774
.01	.01211	.2809	.0002809
.01	.01253	.2841	.0002841
.01	.01297	.2867	.0002867
.01	.01342	.2888	.0002888
.01	.01395	.2909	.0002909
.01	.01455	.2928	.0002928
.01	.01521	.2947	.0002947
.01	.01598	.2967	.0002967
.01	.01684	.2989	.0002989
.01	.01768	.3011	.0003011
.01	.0183	.3025	.0003025
.1	0	1.203	.001203
.1	.00022	1.201	.001201
.1	.0006	1.202	.001202
.1	.0011	1.204	.001204
.1	.00158	1.205	.001205
.1	.00231	1.207	.001207
.1	.00306	1.209	.001209
.1	.00378	1.212	.001212
.1	.0045	1.215	.001215
.1	.00522	1.218	.001218
.1	.00596	1.221	.001221
.1	.00668	1.224	.001224
.1	.00749	1.228	.001228
.1	.00833	1.232	.001232
.1	.00914	1.236	.001236
.1	.00994	1.24	.00124
.1	.01076	1.243	.001243
.1	.01154	1.246	.001246
.1	.01231	1.249	.001249
.1	.01309	1.252	.001252
.1	.01384	1.254	.001254
.1	.0146	1.257	.001257
.1	.01536	1.259	.001259
.1	.0161	1.262	.001262
.1	.01684	1.265	.001265
.1	.01756	1.268	.001268
.1	.01806	1.27	.00127

System: dodecyltrimethylammonium bromide + disodium hydrogen phosphate + water; phases: Liquid, Air at 1 atmosphere
Fixed: Temperature, K = 298.15
Fixed: Solvent: Molality, mol/kg of disodium hydrogen phosphate = .01
Property: Surface tension liquid-gas, N/m (Liquid); method: plate method
Molality, mol/kg of dodecyltrimethylammonium bromide	Surface tension liquid-gas, N/m	uncertainty
0	.07052	.001
.00065	.05921	.001
.00162	.05712	.001
.00259	.05309	.001
.0039	.04985	.001
.00519	.0481	.001
.00645	.04705	.001
.00797	.04524	.001
.00913	.04224	.001
.00975	.04019	.001
.012	.03682	.001
.01935	.0373	.001
.02596	.03862	.001
.04739	.03965	.001
.06574	.03926	.001

System: dodecyltrimethylammonium bromide + trisodium phosphate + water; phases: Liquid
Fixed: Pressure, kPa = 101
Fixed: Temperature, K = 298.15
Property: Electrical conductivity, S/m (Liquid); method: dipping-type conductivity cell
Solvent: Molality, mol/kg of trisodium phosphate	Molality, mol/kg of dodecyltrimethylammonium bromide	Electrical conductivity, S/m	uncertainty
.01	0	.411	.000411
.01	.00029	.411	.000411
.01	.00067	.4123	.0004123
.01	.00105	.4139	.0004139
.01	.0016	.4171	.0004171
.01	.00198	.4194	.0004194
.01	.00234	.4213	.0004213
.01	.00271	.4235	.0004235
.01	.00319	.4261	.0004261
.01	.00366	.429	.000429
.01	.00411	.4318	.0004318
.01	.00457	.4346	.0004346
.01	.00502	.4375	.0004375
.01	.00546	.4405	.0004405
.01	.00593	.444	.000444
.01	.0064	.4477	.0004477
.01	.00691	.4515	.0004515
.01	.00734	.4544	.0004544
.01	.00778	.4573	.0004573
.01	.0082	.4602	.0004602
.01	.00868	.4633	.0004633
.01	.00919	.4669	.0004669
.01	.0097	.4702	.0004702
.01	.01021	.4735	.0004735
.01	.01072	.4766	.0004766
.01	.01123	.4791	.0004791
.01	.01173	.481	.000481
.01	.01222	.4824	.0004824
.01	.0129	.4842	.0004842
.01	.0135	.4857	.0004857
.01	.01399	.4866	.0004866
.01	.01448	.4876	.0004876
.01	.01511	.489	.000489
.01	.0158	.4902	.0004902
.01	.01654	.4919	.0004919
.01	.01715	.4931	.0004931
.01	.01881	.4959	.0004959
.1	0	2.052	.002052
.1	.00043	2.048	.002048
.1	.00087	2.047	.002047
.1	.00144	2.047	.002047
.1	.00214	2.048	.002048
.1	.00285	2.049	.002049
.1	.00365	2.051	.002051
.1	.00447	2.054	.002054
.1	.0054	2.059	.002059
.1	.0062	2.063	.002063
.1	.00712	2.067	.002067
.1	.00804	2.07	.00207
.1	.00893	2.074	.002074
.1	.0098	2.078	.002078
.1	.01069	2.081	.002081
.1	.01155	2.083	.002083
.1	.01241	2.086	.002086
.1	.01328	2.089	.002089
.1	.01411	2.091	.002091
.1	.01494	2.094	.002094
.1	.01568	2.096	.002096
.1	.01651	2.099	.002099
.1	.01735	2.101	.002101
.1	.01814	2.103	.002103
.1	.01896	2.105	.002105
.1	.01974	2.108	.002108
.1	.02054	2.11	.00211
.1	.02131	2.112	.002112
.1	.02205	2.114	.002114
.1	.02301	2.117	.002117

System: dodecyltrimethylammonium bromide + trisodium phosphate + water; phases: Liquid, Air at 1 atmosphere
Fixed: Temperature, K = 298.15
Fixed: Solvent: Molality, mol/kg of trisodium phosphate = .01
Property: Surface tension liquid-gas, N/m (Liquid); method: plate method
Molality, mol/kg of dodecyltrimethylammonium bromide	Surface tension liquid-gas, N/m	uncertainty
0	.07167	.001
.00258	.04509	.001
.00324	.04436	.001
.00387	.04384	.001
.00483	.04297	.001
.00644	.04115	.001
.00803	.03723	.001
.00972	.03883	.001
.01077	.03882	.001
.01197	.03903	.001
.01623	.03922	.001
.01686	.03873	.001
.01843	.03922	.001
.02186	.03924	.001
.02594	.03899	.001
.03836	.03874	.001

System: sodium citrate + dodecyltrimethylammonium bromide + water; phases: Liquid
Fixed: Pressure, kPa = 101
Fixed: Temperature, K = 298.15
Property: Electrical conductivity, S/m (Liquid); method: dipping-type conductivity cell
Solvent: Molality, mol/kg of sodium citrate	Molality, mol/kg of dodecyltrimethylammonium bromide	Electrical conductivity, S/m	uncertainty
.01	0	.2438	.0002438
.01	.00017	.2445	.0002445
.01	.00035	.2456	.0002456
.01	.00077	.2483	.0002483
.01	.0013	.2516	.0002516
.01	.0018	.2548	.0002548
.01	.0023	.258	.000258
.01	.00281	.2614	.0002614
.01	.00333	.2648	.0002648
.01	.00387	.2684	.0002684
.01	.00439	.2719	.0002719
.01	.0049	.2754	.0002754
.01	.0054	.2789	.0002789
.01	.00592	.2823	.0002823
.01	.00643	.2857	.0002857
.01	.00694	.2892	.0002892
.01	.00744	.2925	.0002925
.01	.00794	.2957	.0002957
.01	.00844	.2987	.0002987
.01	.00892	.3009	.0003009
.01	.00939	.3029	.0003029
.01	.00988	.3047	.0003047
.01	.01061	.3068	.0003068
.01	.01134	.3082	.0003082
.01	.01206	.3097	.0003097
.01	.01277	.311	.000311
.01	.01348	.3121	.0003121
.01	.01418	.3132	.0003132
.01	.01487	.3143	.0003143
.01	.01556	.3154	.0003154
.01	.01624	.3165	.0003165
.01	.01692	.3176	.0003176
.1	0	1.541	.001541
.1	.00033	1.538	.001538
.1	.00079	1.538	.001538
.1	.0012	1.539	.001539
.1	.00162	1.54	.00154
.1	.00227	1.542	.001542
.1	.00311	1.543	.001543
.1	.00395	1.544	.001544
.1	.005	1.547	.001547
.1	.00597	1.55	.00155
.1	.007	1.554	.001554
.1	.00802	1.558	.001558
.1	.00903	1.562	.001562
.1	.01001	1.565	.001565
.1	.011	1.569	.001569
.1	.01196	1.573	.001573
.1	.01292	1.576	.001576
.1	.01387	1.579	.001579
.1	.0148	1.582	.001582
.1	.01571	1.585	.001585
.1	.01663	1.588	.001588
.1	.01753	1.591	.001591
.1	.01841	1.594	.001594
.1	.01929	1.597	.001597
.1	.02015	1.599	.001599
.1	.0209	1.602	.001602
.1	.02177	1.604	.001604
.1	.02261	1.607	.001607
.1	.02429	1.611	.001611

System: sodium citrate + dodecyltrimethylammonium bromide + water; phases: Liquid, Air at 1 atmosphere
Fixed: Temperature, K = 298.15
Fixed: Solvent: Molality, mol/kg of sodium citrate = .01
Property: Surface tension liquid-gas, N/m (Liquid); method: plate method
Molality, mol/kg of dodecyltrimethylammonium bromide	Surface tension liquid-gas, N/m	uncertainty
0	.07155	.001
.00065	.05233	.001
.00256	.04803	.001
.00389	.04502	.001
.00484	.04442	.001
.00646	.04293	.001
.00748	.04202	.001
.00816	.03724	.001
.00877	.03771	.001
.00968	.04044	.001
.0114	.0405	.001
.01295	.04046	.001
.01575	.03984	.001
.01939	.04022	.001
.02269	.0402	.001
.03078	.03934	.001
.04831	.0394	.001

System: sodium carbonate + dodecyltrimethylammonium bromide + water; phases: Liquid
Fixed: Pressure, kPa = 101
Fixed: Temperature, K = 298.15
Property: Electrical conductivity, S/m (Liquid); method: dipping-type conductivity cell
Solvent: Molality, mol/kg of sodium carbonate	Molality, mol/kg of dodecyltrimethylammonium bromide	Electrical conductivity, S/m	uncertainty
.01	0	.1927	.0001927
.01	.00012	.1931	.0001931
.01	.00025	.1938	.0001938
.01	.00044	.1951	.0001951
.01	.00064	.1963	.0001963
.01	.00092	.1981	.0001981
.01	.00128	.2004	.0002004
.01	.00176	.2037	.0002037
.01	.00239	.2082	.0002082
.01	.00304	.2128	.0002128
.01	.00369	.2175	.0002175
.01	.00433	.2221	.0002221
.01	.00497	.2267	.0002267
.01	.0056	.2313	.0002313
.01	.00624	.2359	.0002359
.01	.00688	.2404	.0002404
.01	.00752	.2449	.0002449
.01	.00813	.2493	.0002493
.01	.00876	.2537	.0002537
.01	.00937	.2579	.0002579
.01	.00998	.2622	.0002622
.01	.01058	.2663	.0002663
.01	.01119	.2705	.0002705
.01	.01179	.2745	.0002745
.01	.01239	.278	.000278
.01	.01298	.2806	.0002806
.01	.01357	.2825	.0002825
.01	.01415	.2841	.0002841
.01	.01474	.2855	.0002855
.01	.01532	.2868	.0002868
.01	.0159	.288	.000288
.01	.01656	.2893	.0002893
.01	.01728	.2908	.0002908
.01	.01897	.2939	.0002939
.1	0	1.335	.001335
.1	.00045	1.333	.001333
.1	.00086	1.333	.001333
.1	.00131	1.333	.001333
.1	.00177	1.333	.001333
.1	.00224	1.334	.001334
.1	.00282	1.335	.001335
.1	.00352	1.338	.001338
.1	.00422	1.34	.00134
.1	.00489	1.343	.001343
.1	.00558	1.346	.001346
.1	.00626	1.349	.001349
.1	.00693	1.352	.001352
.1	.00759	1.355	.001355
.1	.00824	1.359	.001359
.1	.0089	1.363	.001363
.1	.00977	1.367	.001367
.1	.01064	1.371	.001371
.1	.0115	1.374	.001374
.1	.01236	1.377	.001377
.1	.01321	1.38	.00138
.1	.01406	1.383	.001383
.1	.01487	1.386	.001386
.1	.01569	1.389	.001389
.1	.01671	1.393	.001393
.1	.0177	1.396	.001396
.1	.01868	1.399	.001399
.1	.01968	1.402	.001402
.1	.02065	1.405	.001405
.1	.0216	1.408	.001408

System: sodium carbonate + dodecyltrimethylammonium bromide + water; phases: Liquid, Air at 1 atmosphere
Fixed: Temperature, K = 298.15
Fixed: Solvent: Molality, mol/kg of sodium carbonate = .01
Property: Surface tension liquid-gas, N/m (Liquid); method: plate method
Molality, mol/kg of dodecyltrimethylammonium bromide	Surface tension liquid-gas, N/m	uncertainty
0	.07164	.001
.00065	.05753	.001
.00128	.05217	.001
.0026	.05118	.001
.0039	.05043	.001
.0052	.04725	.001
.00647	.04566	.001
.00812	.04226	.001
.00862	.0397	.001
.01467	.03848	.001
.03269	.03847	.001
.049	.03848	.001
.06911	.0387	.001

System: dodecyltrimethylammonium bromide + water + sodium sulfate; phases: Liquid
Fixed: Pressure, kPa = 101
Fixed: Temperature, K = 298.15
Property: Electrical conductivity, S/m (Liquid); method: dipping-type conductivity cell
Solvent: Molality, mol/kg of sodium sulfate	Molality, mol/kg of dodecyltrimethylammonium bromide	Electrical conductivity, S/m	uncertainty
.01	0	.219	.000219
.01	.00011	.2192	.0002192
.01	.00035	.2208	.0002208
.01	.00059	.2225	.0002225
.01	.00084	.2243	.0002243
.01	.00122	.2272	.0002272
.01	.0017	.231	.000231
.01	.00219	.2348	.0002348
.01	.00282	.2397	.0002397
.01	.00343	.2448	.0002448
.01	.00403	.2498	.0002498
.01	.00463	.2543	.0002543
.01	.00523	.2592	.0002592
.01	.00581	.2637	.0002637
.01	.00639	.2682	.0002682
.01	.00697	.2729	.0002729
.01	.00756	.2774	.0002774
.01	.00813	.2821	.0002821
.01	.0087	.2866	.0002866
.01	.00927	.2912	.0002912
.01	.00984	.2956	.0002956
.01	.0104	.3	.0003
.01	.01095	.3042	.0003042
.01	.01151	.308	.000308
.01	.01206	.311	.000311
.01	.01261	.3132	.0003132
.01	.01313	.3149	.0003149
.01	.01367	.3165	.0003165
.01	.01422	.3178	.0003178
.01	.01475	.3191	.0003191
.01	.01539	.3205	.0003205
.01	.01613	.322	.000322
.01	.01697	.3238	.0003238
.01	.01792	.3257	.0003257
.01	.01898	.3278	.0003278
.01	.02016	.3305	.0003305
.01	.02158	.3335	.0003335
.1	0	1.527	.001527
.1	.00023	1.523	.001523
.1	.00068	1.523	.001523
.1	.00113	1.525	.001525
.1	.00158	1.526	.001526
.1	.00201	1.528	.001528
.1	.00244	1.531	.001531
.1	.00287	1.533	.001533
.1	.00341	1.536	.001536
.1	.0038	1.538	.001538
.1	.0042	1.54	.00154
.1	.0046	1.542	.001542
.1	.00496	1.544	.001544
.1	.00534	1.546	.001546
.1	.00569	1.548	.001548
.1	.00605	1.55	.00155
.1	.00643	1.553	.001553
.1	.00679	1.556	.001556
.1	.00721	1.56	.00156
.1	.0077	1.563	.001563
.1	.0081	1.565	.001565
.1	.00849	1.567	.001567
.1	.0089	1.569	.001569
.1	.00933	1.571	.001571
.1	.00974	1.573	.001573
.1	.01015	1.575	.001575
.1	.01058	1.577	.001577
.1	.01095	1.579	.001579
.1	.01137	1.58	.00158
.1	.01179	1.582	.001582
.1	.01217	1.584	.001584
.1	.01254	1.586	.001586
.1	.01293	1.588	.001588
.1	.01333	1.589	.001589
.1	.01373	1.591	.001591
.1	.01432	1.594	.001594
.1	.01502	1.597	.001597

System: dodecyltrimethylammonium bromide + water + sodium sulfate; phases: Liquid, Air at 1 atmosphere
Fixed: Temperature, K = 298.15
Fixed: Solvent: Molality, mol/kg of sodium sulfate = .01
Property: Surface tension liquid-gas, N/m (Liquid); method: plate method
Molality, mol/kg of dodecyltrimethylammonium bromide	Surface tension liquid-gas, N/m	uncertainty
0	.07147	.001
.0013	.05656	.001
.00259	.0506	.001
.00487	.04683	.001
.0057	.04493	.001
.00649	.04284	.001
.00733	.04215	.001
.00808	.04166	.001
.0089	.04066	.001
.00968	.04011	.001
.01132	.03941	.001
.01295	.0393	.001
.01459	.03916	.001
.01628	.03937	.001
.01792	.03938	.001
.02044	.03975	.001
.02623	.03974	.001

System: sodium chloride + water; phases: Liquid
Property: Electrical conductivity, S/m (Liquid); method: dipping-type conductivity cell
Molality, mol/kg of sodium chloride	Pressure, kPa	Temperature, K	Electrical conductivity, S/m	uncertainty
.01	101	298.15	.1161	.0001161
.1	101	298.15	.8806	.0008806

System: sodium chloride + water; phases: Liquid, Air at 1 atmosphere
Property: Surface tension liquid-gas, N/m (Liquid); method: plate method
Temperature, K	Molality, mol/kg of sodium chloride	Surface tension liquid-gas, N/m	uncertainty
298.15	.01	.07124	.001

System: sodium dihydrogen phosphate anhydrous + water; phases: Liquid
Property: Electrical conductivity, S/m (Liquid); method: dipping-type conductivity cell
Molality, mol/kg of sodium dihydrogen phosphate anhydrous	Pressure, kPa	Temperature, K	Electrical conductivity, S/m	uncertainty
.01	101	298.15	.1015	.0001015
.1	101	298.15	.7566	.0007566

System: sodium dihydrogen phosphate anhydrous + water; phases: Liquid, Air at 1 atmosphere
Property: Surface tension liquid-gas, N/m (Liquid); method: plate method
Temperature, K	Molality, mol/kg of sodium dihydrogen phosphate anhydrous	Surface tension liquid-gas, N/m	uncertainty
298.15	.01	.07187	.001

System: disodium hydrogen phosphate + water; phases: Liquid
Property: Electrical conductivity, S/m (Liquid); method: dipping-type conductivity cell
Molality, mol/kg of disodium hydrogen phosphate	Pressure, kPa	Temperature, K	Electrical conductivity, S/m	uncertainty
.01	101	298.15	.1834	.0001834
.1	101	298.15	1.203	.001203

System: disodium hydrogen phosphate + water; phases: Liquid, Air at 1 atmosphere
Property: Surface tension liquid-gas, N/m (Liquid); method: plate method
Temperature, K	Molality, mol/kg of disodium hydrogen phosphate	Surface tension liquid-gas, N/m	uncertainty
298.15	.01	.07052	.001

System: trisodium phosphate + water; phases: Liquid
Property: Electrical conductivity, S/m (Liquid); method: dipping-type conductivity cell
Molality, mol/kg of trisodium phosphate	Pressure, kPa	Temperature, K	Electrical conductivity, S/m	uncertainty
.01	101	298.15	.411	.000411
.1	101	298.15	2.052	.002052

System: trisodium phosphate + water; phases: Liquid, Air at 1 atmosphere
Property: Surface tension liquid-gas, N/m (Liquid); method: plate method
Temperature, K	Molality, mol/kg of trisodium phosphate	Surface tension liquid-gas, N/m	uncertainty
298.15	.01	.07167	.001

System: sodium citrate + water; phases: Liquid
Property: Electrical conductivity, S/m (Liquid); method: dipping-type conductivity cell
Molality, mol/kg of sodium citrate	Pressure, kPa	Temperature, K	Electrical conductivity, S/m	uncertainty
.01	101	298.15	.2438	.0002438
.1	101	298.15	1.541	.001541

System: sodium citrate + water; phases: Liquid, Air at 1 atmosphere
Property: Surface tension liquid-gas, N/m (Liquid); method: plate method
Temperature, K	Molality, mol/kg of sodium citrate	Surface tension liquid-gas, N/m	uncertainty
298.15	.01	.07155	.001

System: sodium carbonate + water; phases: Liquid
Property: Electrical conductivity, S/m (Liquid); method: dipping-type conductivity cell
Molality, mol/kg of sodium carbonate	Pressure, kPa	Temperature, K	Electrical conductivity, S/m	uncertainty
.01	101	298.15	.1927	.0001927
.1	101	298.15	1.335	.001335

System: sodium carbonate + water; phases: Liquid, Air at 1 atmosphere
Property: Surface tension liquid-gas, N/m (Liquid); method: plate method
Temperature, K	Molality, mol/kg of sodium carbonate	Surface tension liquid-gas, N/m	uncertainty
298.15	.01	.07164	.001

System: water + sodium sulfate; phases: Liquid
Property: Electrical conductivity, S/m (Liquid); method: dipping-type conductivity cell
Molality, mol/kg of sodium sulfate	Pressure, kPa	Temperature, K	Electrical conductivity, S/m	uncertainty
.01	101	298.15	.219	.000219
.1	101	298.15	1.527	.001527

System: water + sodium sulfate; phases: Liquid, Air at 1 atmosphere
Property: Surface tension liquid-gas, N/m (Liquid); method: plate method
Temperature, K	Molality, mol/kg of sodium sulfate	Surface tension liquid-gas, N/m	uncertainty
298.15	.01	.07147	.001
