Measured thermophysical data. Determination and Correlation of Solubility Data and Dissolution Thermodynamic Data of Cefixime Trihydrate in Seven Pure Solvents
Source: J. Chem. Eng. Data, 2014, 10.1021/je5000605
Compound 1: cefixime trihydrate, C16H21N5O10S2, purity 99.7%
Compound 2: ethanol, C2H6O, purity 99.7%
Compound 3: propan-2-ol, C3H8O, purity 99.8%
Compound 4: butan-1-ol, C4H10O, purity 99.5%
Compound 5: butan-2-ol, C4H10O, purity 99.5%
Compound 6: pentan-1-ol, C5H12O, purity 99.6%
Compound 7: ethyl acetate, C4H8O2, purity 99.6%
Compound 8: acetone, C3H6O, purity 99.6%

System: cefixime trihydrate; phases: Crystal
Fixed: Pressure, kPa = 101.325
Property: Molar volume, m3/mol (Crystal); method: Pycnometric method
Temperature, K	Molar volume, m3/mol	uncertainty
293.15	.0004982	.000004982

System: ethanol + cefixime trihydrate; phases: Liquid, Crystal
Fixed: Pressure, kPa = 100
Property: Mole fraction of cefixime trihydrate (Liquid); method: gravimetric method
Temperature, K	Mole fraction of cefixime trihydrate	uncertainty
278.15	.001893	.00011358
283.15	.002095	.0001257
288.15	.002461	.00014766
293.15	.002846	.00017076
298.15	.003213	.00019278
303.15	.003705	.0002223
308.15	.004152	.00024912
313.15	.004778	.00028668
318.15	.005357	.00032142
323.15	.006321	.00037926

System: propan-2-ol + cefixime trihydrate; phases: Liquid, Crystal
Fixed: Pressure, kPa = 100
Property: Mole fraction of cefixime trihydrate (Liquid); method: gravimetric method
Temperature, K	Mole fraction of cefixime trihydrate	uncertainty
278.15	.000918	.00005508
283.15	.001047	.00006282
288.15	.001282	.00007692
293.15	.001481	.00008886
298.15	.001783	.00010698
303.15	.001954	.00011724
308.15	.002303	.00013818
313.15	.002553	.00015318
318.15	.002905	.0001743
323.15	.003501	.00021006

System: butan-1-ol + cefixime trihydrate; phases: Liquid, Crystal
Fixed: Pressure, kPa = 100
Property: Mole fraction of cefixime trihydrate (Liquid); method: gravimetric method
Temperature, K	Mole fraction of cefixime trihydrate	uncertainty
278.15	.0009831	.000058986
283.15	.001022	.00006132
288.15	.001224	.00007344
293.15	.001512	.00009072
298.15	.001724	.00010344
303.15	.002001	.00012006
308.15	.002491	.00014946
313.15	.002932	.00017592
318.15	.003431	.00020586
323.15	.004368	.00026208

System: butan-2-ol + cefixime trihydrate; phases: Liquid, Crystal
Fixed: Pressure, kPa = 100
Property: Mole fraction of cefixime trihydrate (Liquid); method: gravimetric method
Temperature, K	Mole fraction of cefixime trihydrate	uncertainty
278.15	.000899	.00005394
283.15	.000995	.0000597
288.15	.001186	.00007116
293.15	.001428	.00008568
298.15	.001504	.00009024
303.15	.001732	.00010392
308.15	.002107	.00012642
313.15	.002343	.00014058
318.15	.002758	.00016548
323.15	.00316	.0001896

System: pentan-1-ol + cefixime trihydrate; phases: Liquid, Crystal
Fixed: Pressure, kPa = 100
Property: Mole fraction of cefixime trihydrate (Liquid); method: gravimetric method
Temperature, K	Mole fraction of cefixime trihydrate	uncertainty
278.15	.000403	.00002418
283.15	.00051	.0000306
288.15	.000602	.00003612
293.15	.000779	.00004674
298.15	.00101	.0000606
303.15	.001364	.00008184
308.15	.001515	.0000909
313.15	.001914	.00011484
318.15	.002547	.00015282
323.15	.002997	.00017982

System: ethyl acetate + cefixime trihydrate; phases: Liquid, Crystal
Fixed: Pressure, kPa = 100
Property: Mole fraction of cefixime trihydrate (Liquid); method: gravimetric method
Temperature, K	Mole fraction of cefixime trihydrate	uncertainty
278.15	.0006785	.00004071
283.15	.0007472	.000044832
288.15	.0009712	.000058272
293.15	.00116	.0000696
298.15	.001393	.00008358
303.15	.00159	.0000954
308.15	.001851	.00011106
313.15	.002259	.00013554
318.15	.002568	.00015408
323.15	.003338	.00020028

System: acetone + cefixime trihydrate; phases: Liquid, Crystal
Fixed: Pressure, kPa = 100
Property: Mole fraction of cefixime trihydrate (Liquid); method: gravimetric method
Temperature, K	Mole fraction of cefixime trihydrate	uncertainty
278.15	.002231	.00013386
283.15	.002755	.0001653
288.15	.003084	.00018504
293.15	.003456	.00020736
298.15	.003996	.00023976
303.15	.004402	.00026412
308.15	.005184	.00031104
313.15	.005807	.00034842
318.15	.007012	.00042072
323.15	.00854	.0005124
