Measured thermophysical data. Effect of Water on the Density, Viscosity, and CO2 Solubility in Choline Chloride/Urea
Source: J. Chem. Eng. Data, 2014, 10.1021/je500320c
Compound 1: choline chloride, C5H14ClNO, purity 99%
Compound 2: urea, CH4N2O, purity 99%
Compound 3: water, H2O

System: urea + choline chloride + water; phases: Liquid
Fixed: Pressure, kPa = 101
Fixed: Solvent: Amount ratio of component to other component of binary solvent of urea = 2
Property: Mass density, kg/m3 (Liquid); method: Vibrating tube method
Temperature, K	Mass fraction of water	Mass density, kg/m3	uncertainty
298.15	0	1197.9	.35937
298.15	.1525	1190.7	.35721
298.15	.2566	1184.1	.35523
298.15	.3647	1175.9	.35277
298.15	.467	1165.9	.34977
298.15	.5742	1152.7	.34581
298.15	.688	1133	.3399
298.15	.8269	1095.1	.32853
298.15	1	997.1	.29913
303.15	0	1195.2	.35856
303.15	.1525	1188	.3564
303.15	.2566	1181.5	.35445
303.15	.3647	1173.3	.35199
303.15	.467	1163.2	.34896
303.15	.5742	1150	.345
303.15	.688	1130.4	.33912
303.15	.8269	1092.7	.32781
303.15	1	995.7	.29871
308.15	0	1192.7	.35781
308.15	.1525	1185.4	.35562
308.15	.2566	1178.8	.35364
308.15	.3647	1170.7	.35121
308.15	.467	1160.6	.34818
308.15	.5742	1147.5	.34425
308.15	.688	1127.7	.33831
308.15	.8269	1090.1	.32703
308.15	1	994.1	.29823
313.15	0	1190.1	.35703
313.15	.1525	1182.7	.35481
313.15	.2566	1176.1	.35283
313.15	.3647	1168	.3504
313.15	.467	1157.9	.34737
313.15	.5742	1144.8	.34344
313.15	.688	1125.1	.33753
313.15	.8269	1087.5	.32625
313.15	1	992.2	.29766
318.15	0	1187.5	.35625
318.15	.1525	1180.1	.35403
318.15	.2566	1173.5	.35205
318.15	.3647	1165.3	.34959
318.15	.467	1155.2	.34656
318.15	.5742	1142.1	.34263
318.15	.688	1122.4	.33672
318.15	.8269	1084.9	.32547
318.15	1	989.8	.29694
323.15	0	1184.9	.35547
323.15	.1525	1177.4	.35322
323.15	.2566	1170.8	.35124
323.15	.3647	1162.6	.34878
323.15	.467	1152.5	.34575
323.15	.5742	1139.4	.34182
323.15	.688	1119.6	.33588
323.15	.8269	1082.2	.32466
323.15	1	988.1	.29643
328.15	0	1182.3	.35469
328.15	.1525	1174.8	.35244
328.15	.2566	1168.1	.35043
328.15	.3647	1160	.348
328.15	.467	1149.8	.34494
328.15	.5742	1136.7	.34101
328.15	.688	1116.9	.33507
328.15	.8269	1079.4	.32382
328.15	1	985.7	.29571
333.15	0	1179.7	.35391
333.15	.1525	1172.1	.35163
333.15	.2566	1165.5	.34965
333.15	.3647	1157	.3471
333.15	.467	1147.1	.34413
333.15	.5742	1133.7	.34011
333.15	.688	1114.1	.33423
333.15	.8269	1076.6	.32298
333.15	1	983.2	.29496

System: urea + choline chloride + water; phases: Liquid
Fixed: Pressure, kPa = 101
Fixed: Solvent: Amount ratio of component to other component of binary solvent of urea = 2
Property: Viscosity, Pa*s (Liquid); method: Concentric cylinders viscometry
Temperature, K	Mole fraction of water	Viscosity, Pa*s	uncertainty
298.15	0	1.571	
298.15	.1525	.3239	
298.15	.2566	.1138	
298.15	.3647	.04506	
298.15	.467	.0211	
298.15	.5742	.01022	
298.15	.688	.005076	
298.15	.8269	.002261	
298.15	1	.000894	
303.15	0	.9537	
303.15	.1525	.2225	
303.15	.2566	.08387	
303.15	.3647	.03551	
303.15	.467	.01737	
303.15	.5742	.008743	
303.15	.688	.004448	
303.15	.8269	.002027	
303.15	1	.000801	
308.15	0	.6084	
308.15	.1525	.1528	
308.15	.2566	.06434	
308.15	.3647	.02857	
308.15	.467	.01454	
308.15	.5742	.007578	
308.15	.688	.003951	
308.15	.8269	.001843	
308.15	1	.000723	
313.15	0	.4032	
313.15	.1525	.1127	
313.15	.2566	.05038	
313.15	.3647	.02337	
313.15	.467	.01236	
313.15	.5742	.00662	
313.15	.688	.003521	
313.15	.8269	.001621	
313.15	1	.000656	
318.15	0	.2772	
318.15	.1525	.08368	
318.15	.2566	.04031	
318.15	.3647	.01938	
318.15	.467	.0106	
318.15	.5742	.005845	
318.15	.688	.003226	
318.15	.8269	.001513	
318.15	1	.000599	
323.15	0	.1959	
323.15	.1525	.06636	
323.15	.2566	.03284	
323.15	.3647	.01632	
323.15	.467	.009191	
323.15	.5742	.005221	
323.15	.688	.002897	
323.15	.8269	.001388	
323.15	1	.000549	
328.15	0	.1436	
328.15	.1525	.05213	
328.15	.2566	.02703	
328.15	.3647	.01394	
328.15	.467	.00803	
328.15	.5742	.004699	
328.15	.688	.002645	
328.15	.8269	.001277	
328.15	1	.000506	
333.15	0	.1077	
333.15	.1525	.04252	
333.15	.2566	.02272	
333.15	.3647	.01203	
333.15	.467	.007078	
333.15	.5742	.004165	
333.15	.688	.002389	
333.15	.8269	.001182	
333.15	1	.000469	
