Measured thermophysical data. Modeling of Liquid Liquid Interfacial Properties of Binary and Ternary Mixtures
Source: J. Chem. Eng. Data, 2014, 10.1021/je500113q
Compound 1: propylene carbonate, C4H6O3, purity 99%
Compound 2: DMF, C3H7NO, purity 99%
Compound 3: decane, C10H22, purity 99%
Compound 4: 1-dodecene, C12H24, purity 99%
Compound 5: dodecanal, C12H24O, purity 99%
Compound 6: octanal, C8H16O, purity 99.5%
Compound 7: butanal, C4H8O, purity 99.5%

System: DMF + 1-dodecene; phases: Liquid mixture 1, Liquid mixture 2
Fixed: Pressure, kPa = 101
Property: Mass density, kg/m3 (Liquid mixture 1); method: Vibrating tube method
Temperature, K	Mass density, kg/m3	uncertainty
298.15	765.32	.01
298.15	765.3	.01
303.15	763.03	.01
313.15	760.43	.01
318.15	760	.01

System: DMF + 1-dodecene; phases: Liquid mixture 2, Liquid mixture 1
Fixed: Pressure, kPa = 101
Property: Mass density, kg/m3 (Liquid mixture 2); method: Vibrating tube method
Temperature, K	Mass density, kg/m3	uncertainty
298.15	919.28	.01
298.15	919.3	.01
303.15	911.52	.01
313.15	895.29	.01
318.15	890	.01

System: DMF + 1-dodecene; phases: Liquid mixture 1, Liquid mixture 2
Fixed: Pressure, kPa = 101
Property: Interfacial tension, N/m (Liquid mixture 1); method: Drop volume
Temperature, K	Interfacial tension, N/m	uncertainty
298.15	.00151	.00002
298.15	.0015	.00002
303.15	.00136	.00002
313.15	.00092	.00002
318.15	.00072	.00002

System: propylene carbonate + 1-dodecene; phases: Liquid mixture 1, Liquid mixture 2
Fixed: Pressure, kPa = 101
Property: Mass density, kg/m3 (Liquid mixture 1); method: Vibrating tube method
Temperature, K	Mass density, kg/m3	uncertainty
298.15	755.69	.01
298.15	755.69	.01
313.15	740.33	.01
328.15	734.31	.01

System: propylene carbonate + 1-dodecene; phases: Liquid mixture 2, Liquid mixture 1
Fixed: Pressure, kPa = 101
Property: Mass density, kg/m3 (Liquid mixture 2); method: Vibrating tube method
Temperature, K	Mass density, kg/m3	uncertainty
298.15	1192.17	.01
298.15	1192.17	.01
313.15	1173.67	.01
328.15	1155.59	.01

System: propylene carbonate + 1-dodecene; phases: Liquid mixture 1, Liquid mixture 2
Fixed: Pressure, kPa = 101
Property: Interfacial tension, N/m (Liquid mixture 1); method: Drop volume
Temperature, K	Interfacial tension, N/m	uncertainty
298.15	.00839	.00002
298.15	.0084	.00002
313.15	.00765	.00002
328.15	.0071	.00002
328.15	.00711	.00002
