Measured thermophysical data. Liquid Liquid Equilibria for the Ternary System Methyl Isobutyl Ketone + m-Benzenediol + Water
Source: J. Chem. Eng. Data, 2014, 10.1021/je5003048
Compound 1: methyl isobutyl ketone, C6H12O, purity 99%
Compound 2: m-benzenediol, C6H6O2, purity 99.5%
Compound 3: water, H2O

System: methyl isobutyl ketone + m-benzenediol + water; phases: Liquid mixture 2, Liquid mixture 1
Fixed: Pressure, kPa = 101
Property: Mass fraction of methyl isobutyl ketone (Liquid mixture 2); method: Chromatography
Property: Mass fraction of m-benzenediol (Liquid mixture 1); method: Chromatography
Property: Mass fraction of methyl isobutyl ketone (Liquid mixture 1); method: Chromatography
Temperature, K	Mass fraction of m-benzenediol	Mass fraction of methyl isobutyl ketone	uncertainty	Mass fraction of m-benzenediol	uncertainty	Mass fraction of methyl isobutyl ketone	uncertainty
298.15	0	.0181	.0021	0	.0021	.9802	.0021
308.15	.0777	.0149	.0021	.3207	.0021	.5949	.0021
308.15	.122	.0154	.0021	.3899	.0021	.5013	.0021
298.15	.0475	.0154	.0021	.2779	.0021	.6489	.0021
308.15	.1635	.018	.0021	.433	.0021	.4339	.0021
308.15	.213	.0239	.0021	.473	.0021	.3517	.0021
318.15	0	.0146	.0021	0	.0021	.9766	.0021
298.15	.0002	.0179	.0021	.0057	.0021	.973	.0021
318.15	.0001	.0146	.0021	.0024	.0021	.974	.0021
318.15	.0003	.0145	.0021	.0053	.0021	.9707	.0021
318.15	.0007	.0144	.0021	.0121	.0021	.9633	.0021
308.15	.0005	.0157	.0021	.0107	.0021	.9645	.0021
318.15	.0023	.0142	.0021	.0354	.0021	.9365	.0021
318.15	.0049	.0138	.0021	.0645	.0021	.9036	.0021
318.15	.0116	.0134	.0021	.1186	.0021	.8421	.0021
298.15	.0809	.0166	.0021	.3408	.0021	.5618	.0021
318.15	.0205	.0131	.0021	.1586	.0021	.7949	.0021
318.15	.026	.013	.0021	.1868	.0021	.7616	.0021
318.15	.0449	.0131	.0021	.2461	.0021	.6903	.0021
318.15	.0807	.0141	.0021	.3214	.0021	.5955	.0021
298.15	.0004	.0179	.0021	.0111	.0021	.9653	.0021
318.15	.1386	.0165	.0021	.3974	.0021	.4885	.0021
308.15	.0017	.0155	.0021	.0337	.0021	.9387	.0021
318.15	.1799	.0189	.0021	.4405	.0021	.4176	.0021
318.15	.2171	.0222	.0021	.4572	.0021	.371	.0021
298.15	.0014	.0175	.0021	.0327	.0021	.9408	.0021
298.15	.004	.0169	.0021	.0726	.0021	.8959	.0021
298.15	.1508	.0185	.0021	.4323	.0021	.4341	.0021
298.15	.0093	.0162	.0021	.1182	.0021	.8434	.0021
298.15	.0161	.0157	.0021	.1554	.0021	.7993	.0021
298.15	.024	.0154	.0021	.195	.0021	.7504	.0021
298.15	.1844	.0212	.0021	.4654	.0021	.3782	.0021
298.15	.2177	.0267	.0021	.4904	.0021	.3217	.0021
298.15	.0001	.018	.0021	.0032	.0021	.9766	.0021
308.15	0	.0159	.0021	0	.0021	.978	.0021
308.15	.0001	.0159	.0021	.0023	.0021	.9753	.0021
308.15	.0002	.0159	.0021	.0047	.0021	.9716	.0021
308.15	.0046	.015	.0021	.0693	.0021	.8979	.0021
308.15	.0099	.0144	.0021	.1155	.0021	.8463	.0021
308.15	.0136	.0142	.0021	.1487	.0021	.8095	.0021
308.15	.0256	.0139	.0021	.194	.0021	.7548	.0021
308.15	.0474	.014	.0021	.267	.0021	.6665	.0021

System: methyl isobutyl ketone + water; phases: Liquid mixture 2, Liquid mixture 1
Property: Mass fraction of methyl isobutyl ketone (Liquid mixture 2); method: Chromatography
Temperature, K	Pressure, kPa	Mass fraction of methyl isobutyl ketone	uncertainty
298.15	101	.0181	.0021
318.15	101	.0146	.0021
308.15	101	.0159	.0021

System: methyl isobutyl ketone + water; phases: Liquid mixture 1, Liquid mixture 2
Property: Mass fraction of methyl isobutyl ketone (Liquid mixture 1); method: Chromatography
Temperature, K	Pressure, kPa	Mass fraction of methyl isobutyl ketone	uncertainty
298.15	101	.9802	.0021
318.15	101	.9766	.0021
308.15	101	.978	.0021
