Measured thermophysical data. Phase equilibrium study of binary and ternary mixtures of ionic liquids + acetone + methanol
Source: J. Chem. Eng. Data, 2014, 10.1021/je500418f
Compound 1: 1-ethyl-3-methylimidazolium bromide, C6H11BrN2, purity 99%
Compound 2: 1-butyl-3-methylimidazolium bromide, C8H15BrN2, purity 99%
Compound 3: acetone, C3H6O, purity 99.5%
Compound 4: methanol, CH4O, purity 99.5%

System: 1-ethyl-3-methylimidazolium bromide; phases: Liquid
Fixed: Pressure, kPa = 101.325
Property: Mass density, kg/m3 (Liquid); method: Vibrating tube method
Temperature, K	Mass density, kg/m3	uncertainty
298.15	1388.1	1

System: 1-butyl-3-methylimidazolium bromide; phases: Liquid
Fixed: Pressure, kPa = 101.325
Property: Mass density, kg/m3 (Liquid); method: Vibrating tube method
Temperature, K	Mass density, kg/m3	uncertainty
298.15	1302.3	1

System: acetone; phases: Liquid
Fixed: Pressure, kPa = 101.325
Property: Mass density, kg/m3 (Liquid); method: Vibrating tube method
Temperature, K	Mass density, kg/m3	uncertainty
298.15	784.3	1

System: methanol; phases: Liquid
Fixed: Pressure, kPa = 101.325
Property: Mass density, kg/m3 (Liquid); method: Vibrating tube method
Temperature, K	Mass density, kg/m3	uncertainty
298.15	789.7	1

System: methanol; phases: Liquid, Gas
Property: Vapor or sublimation pressure, kPa (Liquid); method: Other
Temperature, K	Vapor or sublimation pressure, kPa	uncertainty
338.68	101.3	
339.19	101.3	

System: acetone + 1-ethyl-3-methylimidazolium bromide; phases: Liquid, Gas
Fixed: Pressure, kPa = 101.3
Property: Boiling temperature at pressure P, K (Liquid); method: Ebulliometric method (Recirculating still)
Mole fraction of 1-ethyl-3-methylimidazolium bromide	Boiling temperature at pressure P, K	uncertainty
.0109	329.61	.15
.0117	329.63	.15
.0127	329.65	.15
.0147	329.69	.15
.0158	329.73	.15
.017	329.78	.15
.0196	329.82	.15
.0207	329.85	.15
.0217	329.88	.15
.023	329.93	.15

System: methanol + 1-ethyl-3-methylimidazolium bromide; phases: Liquid, Gas
Fixed: Pressure, kPa = 101.3
Property: Boiling temperature at pressure P, K (Liquid); method: Ebulliometric method (Recirculating still)
Mole fraction of 1-ethyl-3-methylimidazolium bromide	Boiling temperature at pressure P, K	uncertainty
.0221	337.42	.15
.0488	337.58	.15
.0907	337.94	.15
.1375	338.26	.15
.1987	338.77	.15
.2828	339.7	.15
.3785	341.47	.15
.4484	342.86	.15
.5007	344.52	.15
.558	346.87	.15
.054	338.68	.15

System: acetone + 1-butyl-3-methylimidazolium bromide; phases: Liquid, Gas
Fixed: Pressure, kPa = 101.3
Property: Boiling temperature at pressure P, K (Liquid); method: Ebulliometric method (Recirculating still)
Mole fraction of 1-butyl-3-methylimidazolium bromide	Boiling temperature at pressure P, K	uncertainty
.0156	330.13	.15
.0168	330.17	.15
.0182	330.22	.15
.0197	330.28	.15
.0213	330.33	.15
.0221	330.35	.15
.0244	330.41	.15
.0259	330.46	.15
.0271	330.5	.15
.0303	330.58	.15

System: methanol + 1-butyl-3-methylimidazolium bromide; phases: Liquid, Gas
Fixed: Pressure, kPa = 101.3
Property: Boiling temperature at pressure P, K (Liquid); method: Ebulliometric method (Recirculating still)
Mole fraction of 1-butyl-3-methylimidazolium bromide	Boiling temperature at pressure P, K	uncertainty
.0416	338.13	.15
.1034	338.77	.15
.1774	339.49	.15
.2339	339.96	.15
.3025	340.72	.15
.3843	342.31	.15
.4392	343.04	.15
.5186	344.15	.15
.6037	346.48	.15
.6628	348.22	.15
.062	339.19	.15

System: methanol + acetone + 1-ethyl-3-methylimidazolium bromide; phases: Liquid, Gas
Property: Mole fraction of methanol (Liquid); method: Chromatography
Property: Mole fraction of acetone (Gas); method: Chromatography
Property: Mole fraction of methanol (Gas); method: Chromatography
Temperature, K	Pressure, kPa	Mole fraction of acetone	Mole fraction of methanol	uncertainty	Mole fraction of acetone	uncertainty	Mole fraction of methanol	uncertainty
338.68	101.3	0	.946	.01	0	.01	1	.01
332.65	101.3	.319	.631	.01	.453	.01	.547	.01
332.07	101.3	.37	.577	.01	.495	.01	.505	.01
331.46	101.3	.422	.532	.01	.54	.01	.46	.01
330.95	101.3	.475	.478	.01	.583	.01	.417	.01
337.46	101.3	.045	.908	.01	.088	.01	.912	.01
336.7	101.3	.081	.867	.01	.151	.01	.849	.01
335.62	101.3	.131	.818	.01	.234	.01	.766	.01
334.95	101.3	.169	.779	.01	.289	.01	.711	.01
334.14	101.3	.217	.732	.01	.347	.01	.653	.01
333.39	101.3	.264	.683	.01	.398	.01	.602	.01

System: methanol + acetone + 1-butyl-3-methylimidazolium bromide; phases: Liquid, Gas
Property: Mole fraction of methanol (Liquid); method: Chromatography
Property: Mole fraction of acetone (Gas); method: Chromatography
Property: Mole fraction of methanol (Gas); method: Chromatography
Temperature, K	Pressure, kPa	Mole fraction of acetone	Mole fraction of methanol	uncertainty	Mole fraction of acetone	uncertainty	Mole fraction of methanol	uncertainty
339.19	101.3	0	.938	.01	0	.01	1	.01
332.47	101.3	.314	.627	.01	.482	.01	.518	.01
331.88	101.3	.366	.575	.01	.532	.01	.468	.01
331.32	101.3	.42	.512	.01	.574	.01	.426	.01
330.82	101.3	.48	.459	.01	.615	.01	.385	.01
338.25	101.3	.033	.91	.01	.06	.01	.94	.01
337.09	101.3	.072	.865	.01	.141	.01	.859	.01
336.03	101.3	.114	.827	.01	.224	.01	.776	.01
334.86	101.3	.166	.769	.01	.306	.01	.694	.01
333.97	101.3	.214	.72	.01	.373	.01	.627	.01
333.19	101.3	.261	.678	.01	.428	.01	.572	.01
