Measured thermophysical data. Liquid-Liquid Equilibrium for the Ternary System Water + Ethylbenzene + Acetophenone and Water + Ethylbenzene + 1-Phenylethanol
Source: J. Chem. Eng. Data, 2014, 10.1021/je500726x
Compound 1: water, H2O, purity 99.9%
Compound 2: ethylbenzene, C8H10, purity 99.5%
Compound 3: acetophenone, C8H8O, purity 99.5%
Compound 4: 1-phenylethanol, C8H10O, purity 99%

System: acetophenone + ethylbenzene + water; phases: Liquid mixture 1, Liquid mixture 2
Fixed: Pressure, kPa = 100
Property: Mass fraction of ethylbenzene (Liquid mixture 1); method: Chromatography
Property: Mass fraction of ethylbenzene (Liquid mixture 2); method: Chromatography
Property: Mass fraction of water (Liquid mixture 2); method: Chromatography
Temperature, K	Mass fraction of water	Mass fraction of ethylbenzene	uncertainty	Mass fraction of ethylbenzene	uncertainty	Mass fraction of water	uncertainty
298.2	.9934	0	.0009	0	.0003	.09	.0009
308.2	.9974	.0002	.0009	.6138	.0003	.0035	.0009
308.2	.9978	.0002	.0009	.7179	.0003	.0034	.0009
298.2	.9946	.0001	.0009	.171	.0003	.0107	.0009
308.2	.9984	.0002	.0009	.821	.0003	.0024	.0009
308.2	.9987	.0002	.0009	.8578	.0003	.0021	.0009
308.2	.9995	.0005	.0009	.9979	.0003	.0021	.0009
318.2	.9924	0	.0009	0	.0003	.0731	.0009
318.2	.9946	.0001	.0009	.2081	.0003	.0137	.0009
318.2	.9951	.0001	.0009	.3015	.0003	.0095	.0009
318.2	.9948	.0001	.0009	.2687	.0003	.007	.0009
298.2	.9985	.0004	.0009	.8579	.0003	.0029	.0009
318.2	.9962	.0001	.0009	.4284	.0003	.0042	.0009
318.2	.9965	.0002	.0009	.5091	.0003	.0026	.0009
318.2	.9971	.0002	.0009	.631	.0003	.0026	.0009
298.2	.9955	.0001	.0009	.263	.0003	.0074	.0009
318.2	.9976	.0002	.0009	.7155	.0003	.0021	.0009
318.2	.9984	.0002	.0009	.8195	.0003	.002	.0009
318.2	.9986	.0002	.0009	.8584	.0003	.0016	.0009
318.2	.9995	.0005	.0009	.9994	.0003	.0006	.0009
328.2	.9918	0	.0009	0	.0003	.0698	.0009
328.2	.9936	.0001	.0009	.1495	.0003	.0166	.0009
298.2	.9996	.0004	.0009	.9975	.0003	.0025	.0009
328.2	.9943	.0001	.0009	.2891	.0003	.0117	.0009
328.2	.9943	.0001	.0009	.262	.0003	.0126	.0009
328.2	.9946	.0002	.0009	.4232	.0003	.0102	.0009
328.2	.9959	.0002	.0009	.4856	.0003	.0094	.0009
298.2	.9954	.0002	.0009	.2504	.0003	.0062	.0009
328.2	.9963	.0002	.0009	.5759	.0003	.0045	.0009
328.2	.9972	.0002	.0009	.6974	.0003	.0027	.0009
328.2	.9977	.0002	.0009	.8066	.0003	.0023	.0009
328.2	.9977	.0003	.0009	.8565	.0003	.002	.0009
328.2	.9994	.0006	.0009	.9996	.0003	.0004	.0009
308.2	.9925	0	.0009	0	.0003	.081	.0009
298.2	.9962	.0002	.0009	.4128	.0003	.0044	.0009
298.2	.9968	.0002	.0009	.5082	.0003	.0043	.0009
298.2	.9972	.0003	.0009	.6086	.0003	.0042	.0009
298.2	.9977	.0003	.0009	.7162	.0003	.0038	.0009
298.2	.9982	.0004	.0009	.8216	.0003	.0035	.0009
308.2	.9938	.0001	.0009	.1663	.0003	.0134	.0009
308.2	.995	.0001	.0009	.3066	.0003	.0098	.0009
308.2	.9952	.0001	.0009	.266	.0003	.0087	.0009
308.2	.9963	.0001	.0009	.4185	.0003	.0053	.0009
308.2	.9965	.0002	.0009	.5106	.0003	.0045	.0009

System: 1-phenylethanol + ethylbenzene + water; phases: Liquid mixture 1, Liquid mixture 2
Fixed: Pressure, kPa = 100
Property: Mass fraction of ethylbenzene (Liquid mixture 1); method: Chromatography
Property: Mass fraction of ethylbenzene (Liquid mixture 2); method: Chromatography
Property: Mass fraction of water (Liquid mixture 2); method: Chromatography
Temperature, K	Mass fraction of water	Mass fraction of ethylbenzene	uncertainty	Mass fraction of ethylbenzene	uncertainty	Mass fraction of water	uncertainty
298.2	.9734	0	.0009	0	.0003	.0536	.0009
308.2	.9869	.0002	.0009	.6082	.0003	.0066	.0009
308.2	.9885	.0003	.0009	.7012	.0003	.0058	.0009
298.2	.9765	.0001	.0009	.1212	.0003	.0396	.0009
308.2	.9902	.0003	.0009	.8068	.0003	.0057	.0009
308.2	.9913	.0004	.0009	.8471	.0003	.0032	.0009
308.2	.9995	.0005	.0009	.9979	.0003	.0021	.0009
318.2	.9756	0	.0009	0	.0003	.0681	.0009
318.2	.981	.0001	.0009	.1169	.0003	.0487	.0009
318.2	.982	.0001	.0009	.2071	.0003	.0404	.0009
318.2	.9835	.0001	.0009	.3056	.0003	.0322	.0009
298.2	.9919	.0003	.0009	.844	.0003	.0045	.0009
318.2	.9856	.0001	.0009	.4016	.0003	.0262	.0009
318.2	.9877	.0003	.0009	.5048	.0003	.0191	.0009
318.2	.9887	.0003	.0009	.6075	.0003	.0129	.0009
298.2	.98	.0001	.0009	.2142	.0003	.0313	.0009
318.2	.99	.0003	.0009	.7094	.0003	.0082	.0009
318.2	.9914	.0003	.0009	.7904	.0003	.0053	.0009
318.2	.993	.0004	.0009	.8412	.0003	.0045	.0009
318.2	.9995	.0005	.0009	.9994	.0003	.0006	.0009
328.2	.9761	0	.0009	0	.0003	.0676	.0009
328.2	.9794	.0001	.0009	.1199	.0003	.0524	.0009
298.2	.9996	.0004	.0009	.9975	.0003	.0025	.0009
328.2	.9822	.0001	.0009	.2051	.0003	.0432	.0009
328.2	.9835	.0001	.0009	.3125	.0003	.0302	.0009
328.2	.9864	.0001	.0009	.4104	.0003	.0226	.0009
328.2	.9867	.0002	.0009	.4983	.0003	.0181	.0009
298.2	.9809	.0002	.0009	.3118	.0003	.0241	.0009
328.2	.9885	.0002	.0009	.5888	.0003	.014	.0009
328.2	.99	.0003	.0009	.6932	.0003	.0097	.0009
328.2	.9912	.0003	.0009	.7947	.0003	.0064	.0009
328.2	.9918	.0003	.0009	.8172	.0003	.0046	.0009
328.2	.9994	.0006	.0009	.9996	.0003	.0004	.0009
308.2	.9742	0	.0009	0	.0003	.0613	.0009
298.2	.9849	.0002	.0009	.4111	.0003	.0196	.0009
298.2	.9862	.0003	.0009	.5321	.0003	.0175	.0009
298.2	.9875	.0003	.0009	.5994	.0003	.0097	.0009
298.2	.9886	.0003	.0009	.7005	.0003	.0092	.0009
298.2	.9915	.0003	.0009	.7999	.0003	.0084	.0009
308.2	.9771	.0001	.0009	.1202	.0003	.0426	.0009
308.2	.9799	.0001	.0009	.2194	.0003	.037	.0009
308.2	.9816	.0001	.0009	.3122	.0003	.0277	.0009
308.2	.9826	.0001	.0009	.4091	.0003	.0177	.0009
308.2	.9851	.0002	.0009	.5103	.0003	.0162	.0009

System: acetophenone + water; phases: Liquid mixture 1, Liquid mixture 2
Property: Mass fraction of water (Liquid mixture 1); method: Chromatography
Temperature, K	Pressure, kPa	Mass fraction of water	uncertainty
298.2	100	.9934	.0003
318.2	100	.9924	.0003
328.2	100	.9918	.0003
308.2	100	.9925	.0003

System: acetophenone + water; phases: Liquid mixture 2, Liquid mixture 1
Property: Mass fraction of water (Liquid mixture 2); method: Chromatography
Temperature, K	Pressure, kPa	Mass fraction of water	uncertainty
298.2	100	.09	.0009
318.2	100	.0731	.0009
328.2	100	.0698	.0009
308.2	100	.081	.0009

System: ethylbenzene + water; phases: Liquid mixture 1, Liquid mixture 2
Property: Mass fraction of ethylbenzene (Liquid mixture 1); method: Chromatography
Temperature, K	Pressure, kPa	Mass fraction of ethylbenzene	uncertainty
308.2	100	.0005	.0009
318.2	100	.0005	.0009
298.2	100	.0004	.0009
328.2	100	.0006	.0009

System: ethylbenzene + water; phases: Liquid mixture 2, Liquid mixture 1
Property: Mass fraction of water (Liquid mixture 2); method: Chromatography
Temperature, K	Pressure, kPa	Mass fraction of water	uncertainty
308.2	100	.0021	.0009
318.2	100	.0006	.0009
298.2	100	.0025	.0009
328.2	100	.0004	.0009

System: 1-phenylethanol + water; phases: Liquid mixture 1, Liquid mixture 2
Property: Mass fraction of water (Liquid mixture 1); method: Chromatography
Temperature, K	Pressure, kPa	Mass fraction of water	uncertainty
298.2	100	.9734	.0003
318.2	100	.9756	.0003
328.2	100	.9761	.0003
308.2	100	.9742	.0003

System: 1-phenylethanol + water; phases: Liquid mixture 2, Liquid mixture 1
Property: Mass fraction of water (Liquid mixture 2); method: Chromatography
Temperature, K	Pressure, kPa	Mass fraction of water	uncertainty
298.2	100	.0536	.0009
318.2	100	.0681	.0009
328.2	100	.0676	.0009
308.2	100	.0613	.0009
