Measured thermophysical data. Thermodynamics of Mixtures Containing Amines. XV. Liquid Liquid Equilibria for Benzylamine + CH3(CH2)nCH3 (n = 8, 9, 10, 12, 14)
Source: J. Chem. Eng. Data, 2014, 10.1021/je500283s
Compound 1: benzylamine, C7H9N, purity 99%
Compound 2: decane, C10H22, purity 99%
Compound 3: undecane, C11H24, purity 99%
Compound 4: dodecane, C12H26, purity 98%
Compound 5: tetradecane, C14H30, purity 99%
Compound 6: hexadecane, C16H34, purity 98%

System: benzylamine; phases: Liquid
Fixed: Pressure, kPa = 101.325
Property: Mass density, kg/m3 (Liquid); method: Vibrating tube method
Temperature, K	Mass density, kg/m3	uncertainty
298.15	978.34	.02

System: decane; phases: Liquid
Fixed: Pressure, kPa = 101.325
Property: Mass density, kg/m3 (Liquid); method: Vibrating tube method
Temperature, K	Mass density, kg/m3	uncertainty
298.15	726.34	.02

System: undecane; phases: Liquid
Fixed: Pressure, kPa = 101.325
Property: Mass density, kg/m3 (Liquid); method: Vibrating tube method
Temperature, K	Mass density, kg/m3	uncertainty
298.15	736.71	.02

System: dodecane; phases: Liquid
Fixed: Pressure, kPa = 101.325
Property: Mass density, kg/m3 (Liquid); method: Vibrating tube method
Temperature, K	Mass density, kg/m3	uncertainty
298.15	745.52	.02

System: tetradecane; phases: Liquid
Fixed: Pressure, kPa = 101.325
Property: Mass density, kg/m3 (Liquid); method: Vibrating tube method
Temperature, K	Mass density, kg/m3	uncertainty
298.15	759.32	.02

System: hexadecane; phases: Liquid
Fixed: Pressure, kPa = 101.325
Property: Mass density, kg/m3 (Liquid); method: Vibrating tube method
Temperature, K	Mass density, kg/m3	uncertainty
298.15	770.32	.02

System: benzylamine + decane; phases: Liquid mixture 1, Liquid mixture 2
Fixed: Pressure, kPa = 100
Property: Liquid-liquid equilibrium temperature, K (Liquid mixture 1); method: Visual observation
Mole fraction of benzylamine	Liquid-liquid equilibrium temperature, K	uncertainty
.3037	276.69	.05
.3147	277.04	.05
.3185	277.13	.05
.3476	278.03	.05
.3595	278.38	.05
.3728	278.69	.05
.4042	279.19	.05
.4341	279.69	.05
.4436	279.82	.05
.4576	279.92	.05
.4595	279.88	.05
.4792	280.06	.05
.4987	280.07	.05
.5305	280.11	.05
.5661	280.06	.05
.5755	280.02	.05
.5913	280.07	.05
.6011	280.03	.05
.6263	280.05	.05
.6354	280.03	.05
.6497	279.99	.05
.6813	279.79	.05
.7061	279.53	.05
.733	279.2	.05
.7436	279.02	.05
.7614	278.63	.05
.7691	278.41	.05
.7742	278.31	.05
.8024	277.34	.05
.8152	276.86	.05
.8374	275.83	.05

System: benzylamine + undecane; phases: Liquid mixture 1, Liquid mixture 2
Fixed: Pressure, kPa = 100
Property: Liquid-liquid equilibrium temperature, K (Liquid mixture 1); method: Visual observation
Mole fraction of benzylamine	Liquid-liquid equilibrium temperature, K	uncertainty
.3501	278.83	.05
.3885	280.53	.05
.407	281.22	.05
.4322	282.13	.05
.4336	282.14	.05
.4623	282.86	.05
.4847	283.14	.05
.4854	283.09	.05
.5075	283.23	.05
.5354	283.4	.05
.5724	283.69	.05
.5754	283.6	.05
.5972	283.67	.05
.6032	283.7	.05
.613	283.61	.05
.6375	283.65	.05
.6562	283.6	.05
.6593	283.68	.05
.6756	283.41	.05
.696	283.37	.05
.7122	283.12	.05
.7423	282.71	.05
.7555	282.51	.05
.7926	281.5	.05
.8145	280.98	.05
.8377	279.58	.05

System: benzylamine + dodecane; phases: Liquid mixture 1, Liquid mixture 2
Fixed: Pressure, kPa = 100
Property: Liquid-liquid equilibrium temperature, K (Liquid mixture 1); method: Visual observation
Mole fraction of benzylamine	Liquid-liquid equilibrium temperature, K	uncertainty
.3528	281.75	.05
.3677	282.45	.05
.3746	282.79	.05
.3813	283.15	.05
.4022	283.67	.05
.4509	285.53	.05
.4658	285.85	.05
.4838	286.16	.05
.4916	286.28	.05
.5041	286.47	.05
.5249	286.55	.05
.5423	286.75	.05
.5617	286.86	.05
.5658	286.81	.05
.5804	286.88	.05
.5921	286.87	.05
.5983	286.86	.05
.6072	286.84	.05
.6236	286.87	.05
.6364	286.79	.05
.6667	286.7	.05
.6926	286.62	.05
.6973	286.66	.05
.7373	286.38	.05
.7418	286.38	.05
.7597	286.26	.05
.7853	285.85	.05
.7954	285.52	.05
.7969	285.55	.05
.824	284.55	.05
.8336	284.15	.05
.8496	283.15	.05
.8506	283.03	.05
.856	282.67	.05
.8654	282.24	.05

System: benzylamine + tetradecane; phases: Liquid mixture 1, Liquid mixture 2
Fixed: Pressure, kPa = 100
Property: Liquid-liquid equilibrium temperature, K (Liquid mixture 1); method: Visual observation
Mole fraction of benzylamine	Liquid-liquid equilibrium temperature, K	uncertainty
.3783	285.88	.05
.3895	286.23	.05
.3924	286.52	.05
.4311	288.14	.05
.4656	289.3	.05
.4835	289.89	.05
.5201	290.68	.05
.5373	290.94	.05
.5619	291.4	.05
.6025	291.98	.05
.6424	291.98	.05
.6614	291.97	.05
.6797	291.92	.05
.7009	291.93	.05
.7203	292.01	.05
.7372	291.97	.05
.7588	291.86	.05
.8037	291.56	.05
.8151	291.42	.05
.8401	290.63	.05
.8565	289.96	.05
.8743	288.53	.05
.8843	287.87	.05
.8987	286.12	.05
.932	279.35	.05

System: benzylamine + hexadecane; phases: Liquid mixture 1, Liquid mixture 2
Fixed: Pressure, kPa = 100
Property: Liquid-liquid equilibrium temperature, K (Liquid mixture 1); method: Visual observation
Mole fraction of benzylamine	Liquid-liquid equilibrium temperature, K	uncertainty
.4124	288.97	.05
.4372	290.54	.05
.4705	292.06	.05
.4913	293.11	.05
.495	293.22	.05
.5212	294.52	.05
.5644	295.99	.05
.5728	296.26	.05
.5851	296.48	.05
.6037	297.22	.05
.6591	298.26	.05
.6774	298.25	.05
.7026	298.37	.05
.7156	298.33	.05
.7334	298.3	.05
.7533	298.34	.05
.7656	298.32	.05
.7733	298.23	.05
.8002	297.97	.05
.8092	297.88	.05
.8373	297.67	.05
.8383	297.49	.05
.8484	297.16	.05
.8806	296.02	.05
.8952	294.76	.05
.912	292.89	.05
