Measured thermophysical data. Liquid Liquid Equilibria for the Ternary System Water + Benzyl Alcohol + Benzaldehyde at (303.2 to 343.2) K
Source: J. Chem. Eng. Data, 2014, 10.1021/je500439z
Compound 1: benzaldehyde, C7H6O, purity 99%
Compound 2: benzyl alcohol, C7H8O, purity 99%
Compound 3: water, H2O, purity 99.9%

System: benzyl alcohol + benzaldehyde + water; phases: Liquid mixture 1, Liquid mixture 2
Property: Mass fraction of water (Liquid mixture 1); method: Chromatography
Property: Mass fraction of benzyl alcohol (Liquid mixture 2); method: Chromatography
Property: Mass fraction of water (Liquid mixture 2); method: Chromatography
Temperature, K	Pressure, kPa	Mass fraction of benzyl alcohol	Mass fraction of water	uncertainty	Mass fraction of benzyl alcohol	uncertainty	Mass fraction of water	uncertainty
303.2	101.3	0	.9925	.0008	0	.002	.0139	.003
313.2	101.3	.027	.9681	.0008	.5641	.002	.0676	.003
313.2	101.3	.0308	.965	.0008	.6135	.002	.0759	.003
303.2	101.3	.0052	.9877	.0008	.0895	.002	.0207	.003
313.2	101.3	.0353	.9614	.0008	.6906	.002	.0843	.003
313.2	101.3	.04	.9581	.0008	.7787	.002	.1031	.003
313.2	101.3	.0471	.9529	.0008	.8944	.002	.1056	.003
323.2	101.3	0	.9919	.0008	0	.002	.0211	.003
323.2	101.3	.007	.9835	.0008	.0892	.002	.0333	.003
323.2	101.3	.0095	.9817	.0008	.1791	.002	.04	.003
323.2	101.3	.0181	.9736	.0008	.2663	.002	.0484	.003
303.2	101.3	.0382	.9603	.0008	.791	.002	.0887	.003
323.2	101.3	.0205	.9721	.0008	.3908	.002	.0572	.003
323.2	101.3	.0226	.9708	.0008	.4903	.002	.066	.003
323.2	101.3	.0259	.9684	.0008	.5582	.002	.0772	.003
303.2	101.3	.0082	.9848	.0008	.1776	.002	.0256	.003
323.2	101.3	.0313	.9641	.0008	.6124	.002	.0855	.003
323.2	101.3	.0355	.9611	.0008	.7041	.002	.1052	.003
323.2	101.3	.0419	.9559	.0008	.7788	.002	.1169	.003
323.2	101.3	.0479	.9521	.0008	.8872	.002	.1128	.003
333.2	101.3	0	.9909	.0008	0	.002	.0249	.003
333.2	101.3	.0073	.9829	.0008	.0946	.002	.0364	.003
303.2	101.3	.0448	.9552	.0008	.8973	.002	.1027	.003
333.2	101.3	.0109	.9795	.0008	.1807	.002	.0433	.003
333.2	101.3	.019	.9723	.0008	.2739	.002	.0495	.003
333.2	101.3	.0219	.9703	.0008	.4058	.002	.0585	.003
333.2	101.3	.023	.9698	.0008	.5008	.002	.0775	.003
303.2	101.3	.0132	.9801	.0008	.2738	.002	.0362	.003
333.2	101.3	.0272	.967	.0008	.5644	.002	.0822	.003
333.2	101.3	.033	.9621	.0008	.6297	.002	.0905	.003
333.2	101.3	.0395	.9566	.0008	.7113	.002	.107	.003
333.2	101.3	.0467	.951	.0008	.7793	.002	.1328	.003
333.2	101.3	.0485	.9515	.0008	.875	.002	.125	.003
313.2	101.3	0	.9921	.0008	0	.002	.0185	.003
343.2	101.3	0	.9896	.0008	0	.002	.0283	.003
343.2	101.3	.0074	.9812	.0008	.1016	.002	.0414	.003
343.2	101.3	.0134	.9765	.0008	.2077	.002	.0462	.003
343.2	101.3	.0199	.971	.0008	.2847	.002	.0516	.003
343.2	101.3	.023	.9688	.0008	.4184	.002	.0603	.003
303.2	101.3	.0179	.976	.0008	.3552	.002	.0428	.003
343.2	101.3	.0276	.9649	.0008	.5114	.002	.0784	.003
343.2	101.3	.0311	.962	.0008	.5686	.002	.0853	.003
343.2	101.3	.0392	.9551	.0008	.6333	.002	.0947	.003
343.2	101.3	.042	.9536	.0008	.716	.002	.1108	.003
313.2	101.3	.0051	.9867	.0008	.0907	.002	.0254	.003
343.2	101.3	.0506	.9469	.0008	.7828	.002	.135	.003
343.2	101.3	.0501	.9499	.0008	.8589	.002	.1411	.003
303.2	101.3	.0206	.9739	.0008	.4539	.002	.0504	.003
303.2	101.3	.0244	.971	.0008	.5426	.002	.0579	.003
303.2	101.3	.0281	.9682	.0008	.6266	.002	.0691	.003
303.2	101.3	.0347	.9623	.0008	.7014	.002	.0758	.003
313.2	101.3	.0092	.983	.0008	.186	.002	.032	.003
313.2	101.3	.0166	.9759	.0008	.2883	.002	.0412	.003
313.2	101.3	.0193	.9741	.0008	.3836	.002	.0493	.003
313.2	101.3	.0206	.9738	.0008	.4693	.002	.0548	.003

System: benzaldehyde + water; phases: Liquid mixture 1, Liquid mixture 2
Property: Mass fraction of water (Liquid mixture 1); method: Chromatography
Temperature, K	Pressure, kPa	Mass fraction of water	uncertainty
303.2	101.3	.9925	.0008
323.2	101.3	.9919	.0008
333.2	101.3	.9909	.0008
313.2	101.3	.9921	.0008
343.2	101.3	.9896	.0008

System: benzaldehyde + water; phases: Liquid mixture 2, Liquid mixture 1
Property: Mass fraction of water (Liquid mixture 2); method: Chromatography
Temperature, K	Pressure, kPa	Mass fraction of water	uncertainty
303.2	101.3	.0139	.003
323.2	101.3	.0211	.003
333.2	101.3	.0249	.003
313.2	101.3	.0185	.003
343.2	101.3	.0283	.003

System: benzyl alcohol + water; phases: Liquid mixture 1, Liquid mixture 2
Property: Mass fraction of water (Liquid mixture 1); method: Chromatography
Temperature, K	Pressure, kPa	Mass fraction of water	uncertainty
313.2	101.3	.9529	.0008
323.2	101.3	.9521	.0008
303.2	101.3	.9552	.0008
333.2	101.3	.9515	.0008
343.2	101.3	.9499	.0008

System: benzyl alcohol + water; phases: Liquid mixture 2, Liquid mixture 1
Property: Mass fraction of water (Liquid mixture 2); method: Chromatography
Temperature, K	Pressure, kPa	Mass fraction of water	uncertainty
313.2	101.3	.1056	.003
323.2	101.3	.1128	.003
303.2	101.3	.1027	.003
333.2	101.3	.125	.003
343.2	101.3	.1411	.003
