Measured thermophysical data. Density and Viscosity of Binary Liquid Mixtures of Ethanol + 1-Hexanol and Ethanol + 1-Heptanol from (293.15 to 328.15) K at 0.1 MPa
Source: J. Chem. Eng. Data, 2015, 10.1021/je501133u
Compound 1: ethanol, C2H6O, purity 99.8%
Compound 2: 1-hexanol, C6H14O, purity 99%
Compound 3: 1-heptanol, C7H16O, purity 99%

System: ethanol; phases: Liquid
Property: Mass density, kg/m3 (Liquid); method: Vibrating tube method
Temperature, K	Pressure, kPa	Mass density, kg/m3	uncertainty
293.15	100	790.1	.08
298.15	100	785.9	.08
303.15	100	781.6	.08
308.15	100	777.2	.08
313.15	100	772.9	.08
318.15	100	768.4	.08
323.15	100	764	.08
328.15	100	759.4	.08

System: ethanol; phases: Liquid
Property: Viscosity, Pa*s (Liquid); method: Falling or rolling sphere viscometry
Temperature, K	Pressure, kPa	Viscosity, Pa*s	uncertainty
293.15	100	.00115	.00001
298.15	100	.00107	.00001
303.15	100	.00097	.00001
308.15	100	.00089	.00001
313.15	100	.00081	.00001
318.15	100	.00076	.00001
323.15	100	.00068	.00001
328.15	100	.00063	.00001

System: 1-hexanol; phases: Liquid
Property: Mass density, kg/m3 (Liquid); method: Vibrating tube method
Temperature, K	Pressure, kPa	Mass density, kg/m3	uncertainty
293.15	100	818.9	.08
298.15	100	815.3	.08
303.15	100	811.7	.08
308.15	100	808.1	.08
313.15	100	804.5	.08
318.15	100	800.8	.08
323.15	100	797.1	.08
328.15	100	793.4	.08

System: 1-hexanol; phases: Liquid
Property: Viscosity, Pa*s (Liquid); method: Falling or rolling sphere viscometry
Temperature, K	Pressure, kPa	Viscosity, Pa*s	uncertainty
293.15	100	.00535	.00001
298.15	100	.00456	.00001
303.15	100	.0039	.00001
308.15	100	.00336	.00001
313.15	100	.00291	.00001
318.15	100	.00254	.00001
323.15	100	.00223	.00001
328.15	100	.00197	.00001

System: 1-heptanol; phases: Liquid
Property: Mass density, kg/m3 (Liquid); method: Vibrating tube method
Temperature, K	Pressure, kPa	Mass density, kg/m3	uncertainty
293.15	100	822.3	.08
298.15	100	818.8	.08
303.15	100	815.3	.08
308.15	100	811.8	.08
313.15	100	808.2	.08
318.15	100	804.6	.08
323.15	100	801	.08
328.15	100	797.4	.08

System: 1-heptanol; phases: Liquid
Property: Viscosity, Pa*s (Liquid); method: Falling or rolling sphere viscometry
Temperature, K	Pressure, kPa	Viscosity, Pa*s	uncertainty
293.15	100	.00715	.00001
298.15	100	.00607	.00001
303.15	100	.00518	.00001
308.15	100	.00444	.00001
313.15	100	.00383	.00001
318.15	100	.00333	.00001
323.15	100	.00289	.00001
328.15	100	.00254	.00001

System: ethanol + 1-hexanol; phases: Liquid
Fixed: Pressure, kPa = 100
Property: Mass density, kg/m3 (Liquid); method: Vibrating tube method
Temperature, K	Mole fraction of ethanol	Mass density, kg/m3	uncertainty
293.15	0	818.9	.08
293.15	.1001	816.7	.08
293.15	.2003	815.1	.08
293.15	.3004	813.3	.08
293.15	.4006	811.6	.08
293.15	.4998	808.7	.08
293.15	.6009	806	.08
293.15	.7001	802.9	.08
293.15	.7995	799.2	.08
293.15	.9001	794.9	.08
293.15	1	790.1	.08
298.15	0	815.3	.08
298.15	.1001	813.1	.08
298.15	.2003	811.5	.08
298.15	.3004	809.7	.08
298.15	.4006	807.9	.08
298.15	.4998	805	.08
298.15	.6009	802.2	.08
298.15	.7001	798.9	.08
298.15	.7995	795.2	.08
298.15	.9001	790.8	.08
298.15	1	785.9	.08
303.15	0	811.7	.08
303.15	.1001	809.5	.08
303.15	.2003	807.8	.08
303.15	.3004	806	.08
303.15	.4006	804.1	.08
303.15	.4998	801.2	.08
303.15	.6009	798.4	.08
303.15	.7001	795	.08
303.15	.7995	791.2	.08
303.15	.9001	786.6	.08
303.15	1	781.6	.08
308.15	0	808.1	.08
308.15	.1001	805.9	.08
308.15	.2003	804.2	.08
308.15	.3004	802.3	.08
308.15	.4006	800.4	.08
308.15	.4998	797.4	.08
308.15	.6009	794.5	.08
308.15	.7001	791.1	.08
308.15	.7995	787.1	.08
308.15	.9001	782.5	.08
308.15	1	777.2	.08
313.15	0	804.5	.08
313.15	.1001	802.2	.08
313.15	.2003	800.5	.08
313.15	.3004	798.5	.08
313.15	.4006	796.6	.08
313.15	.4998	793.6	.08
313.15	.6009	790.6	.08
313.15	.7001	787.1	.08
313.15	.7995	783	.08
313.15	.9001	778.2	.08
313.15	1	772.9	.08
318.15	0	800.8	.08
318.15	.1001	798.5	.08
318.15	.2003	796.7	.08
318.15	.3004	794.8	.08
318.15	.4006	792.7	.08
318.15	.4998	789.7	.08
318.15	.6009	786.6	.08
318.15	.7001	783	.08
318.15	.7995	778.9	.08
318.15	.9001	774	.08
318.15	1	768.4	.08
323.15	0	797.1	.08
323.15	.1001	794.8	.08
323.15	.2003	793	.08
323.15	.3004	790.9	.08
323.15	.4006	788.9	.08
323.15	.4998	785.7	.08
323.15	.6009	782.6	.08
323.15	.7001	779	.08
323.15	.7995	774.7	.08
323.15	.9001	769.7	.08
323.15	1	764	.08
328.15	0	793.4	.08
328.15	.1001	791	.08
328.15	.2003	789.2	.08
328.15	.3004	787.1	.08
328.15	.4006	784.9	.08
328.15	.4998	781.8	.08
328.15	.6009	778.6	.08
328.15	.7001	774.8	.08
328.15	.7995	770.4	.08
328.15	.9001	765.3	.08
328.15	1	759.4	.08

System: ethanol + 1-hexanol; phases: Liquid
Fixed: Pressure, kPa = 100
Property: Viscosity, Pa*s (Liquid); method: Falling or rolling sphere viscometry
Temperature, K	Mole fraction of ethanol	Viscosity, Pa*s	uncertainty
293.15	0	.00535	.00001
293.15	.1001	.00467	.00001
293.15	.2003	.00415	.00001
293.15	.3004	.00366	.00001
293.15	.4006	.00319	.00001
293.15	.4998	.00276	.00001
293.15	.6009	.00241	.00001
293.15	.7001	.00203	.00001
293.15	.7995	.00171	.00001
293.15	.9001	.00143	.00001
293.15	1	.00115	.00001
298.15	0	.00456	.00001
298.15	.1001	.00402	.00001
298.15	.2003	.0036	.00001
298.15	.3004	.00319	.00001
298.15	.4006	.0028	.00001
298.15	.4998	.00244	.00001
298.15	.6009	.00214	.00001
298.15	.7001	.00181	.00001
298.15	.7995	.00154	.00001
298.15	.9001	.00129	.00001
298.15	1	.00107	.00001
303.15	0	.0039	.00001
303.15	.1001	.00348	.00001
303.15	.2003	.00314	.00001
303.15	.3004	.0028	.00001
303.15	.4006	.00247	.00001
303.15	.4998	.00217	.00001
303.15	.6009	.00191	.00001
303.15	.7001	.00163	.00001
303.15	.7995	.00139	.00001
303.15	.9001	.00117	.00001
303.15	1	.00097	.00001
308.15	0	.00336	.00001
308.15	.1001	.00303	.00001
308.15	.2003	.00275	.00001
308.15	.3004	.00247	.00001
308.15	.4006	.00219	.00001
308.15	.4998	.00193	.00001
308.15	.6009	.00171	.00001
308.15	.7001	.00147	.00001
308.15	.7995	.00126	.00001
308.15	.9001	.00107	.00001
308.15	1	.00089	.00001
313.15	0	.00291	.00001
313.15	.1001	.00265	.00001
313.15	.2003	.00242	.00001
313.15	.3004	.00218	.00001
313.15	.4006	.00194	.00001
313.15	.4998	.00173	.00001
313.15	.6009	.00154	.00001
313.15	.7001	.00132	.00001
313.15	.7995	.00114	.00001
313.15	.9001	.00097	.00001
313.15	1	.00081	.00001
318.15	0	.00254	.00001
318.15	.1001	.00233	.00001
318.15	.2003	.00214	.00001
318.15	.3004	.00194	.00001
318.15	.4006	.00173	.00001
318.15	.4998	.00155	.00001
318.15	.6009	.00139	.00001
318.15	.7001	.0012	.00001
318.15	.7995	.00104	.00001
318.15	.9001	.00089	.00001
318.15	1	.00076	.00001
323.15	0	.00223	.00001
323.15	.1001	.00206	.00001
323.15	.2003	.0019	.00001
323.15	.3004	.00173	.00001
323.15	.4006	.00155	.00001
323.15	.4998	.00139	.00001
323.15	.6009	.00125	.00001
323.15	.7001	.00109	.00001
323.15	.7995	.00094	.00001
323.15	.9001	.00081	.00001
323.15	1	.00068	.00001
328.15	0	.00197	.00001
328.15	.1001	.00182	.00001
328.15	.2003	.00169	.00001
328.15	.3004	.00154	.00001
328.15	.4006	.00139	.00001
328.15	.4998	.00125	.00001
328.15	.6009	.00113	.00001
328.15	.7001	.00099	.00001
328.15	.7995	.00086	.00001
328.15	.9001	.00075	.00001
328.15	1	.00063	.00001

System: ethanol + 1-heptanol; phases: Liquid
Fixed: Pressure, kPa = 100
Property: Mass density, kg/m3 (Liquid); method: Vibrating tube method
Temperature, K	Mole fraction of ethanol	Mass density, kg/m3	uncertainty
293.15	0	822.3	.08
293.15	.1	820.6	.08
293.15	.2004	818.7	.08
293.15	.3007	816.9	.08
293.15	.3995	814.7	.08
293.15	.5007	812.1	.08
293.15	.5995	809	.08
293.15	.7001	805.5	.08
293.15	.8002	801.4	.08
293.15	.9003	796.5	.08
293.15	1	790.1	.08
298.15	0	818.8	.08
298.15	.1	817.1	.08
298.15	.2004	815.1	.08
298.15	.3007	813.3	.08
298.15	.3995	811.1	.08
298.15	.5007	808.4	.08
298.15	.5995	805.3	.08
298.15	.7001	801.6	.08
298.15	.8002	797.4	.08
298.15	.9003	792.4	.08
298.15	1	785.9	.08
303.15	0	815.3	.08
303.15	.1	813.6	.08
303.15	.2004	811.6	.08
303.15	.3007	809.7	.08
303.15	.3995	807.4	.08
303.15	.5007	804.7	.08
303.15	.5995	801.5	.08
303.15	.7001	797.8	.08
303.15	.8002	793.5	.08
303.15	.9003	788.3	.08
303.15	1	781.6	.08
308.15	0	811.8	.08
308.15	.1	810	.08
308.15	.2004	808	.08
308.15	.3007	806	.08
308.15	.3995	803.8	.08
308.15	.5007	800.9	.08
308.15	.5995	797.7	.08
308.15	.7001	793.9	.08
308.15	.8002	789.5	.08
308.15	.9003	784.2	.08
308.15	1	777.2	.08
313.15	0	808.2	.08
313.15	.1	806.4	.08
313.15	.2004	804.4	.08
313.15	.3007	802.4	.08
313.15	.3995	800.1	.08
313.15	.5007	797.2	.08
313.15	.5995	793.8	.08
313.15	.7001	790	.08
313.15	.8002	785.4	.08
313.15	.9003	780	.08
313.15	1	772.9	.08
318.15	0	804.6	.08
318.15	.1	802.8	.08
318.15	.2004	800.7	.08
318.15	.3007	798.7	.08
318.15	.3995	796.3	.08
318.15	.5007	793.4	.08
318.15	.5995	790	.08
318.15	.7001	786	.08
318.15	.8002	781.4	.08
318.15	.9003	775.8	.08
318.15	1	768.4	.08
323.15	0	801	.08
323.15	.1	799.1	.08
323.15	.2004	797	.08
323.15	.3007	794.9	.08
323.15	.3995	792.5	.08
323.15	.5007	789.5	.08
323.15	.5995	786	.08
323.15	.7001	782	.08
323.15	.8002	777.2	.08
323.15	.9003	771.5	.08
323.15	1	764	.08
328.15	0	797.4	.08
328.15	.1	795.4	.08
328.15	.2004	793.3	.08
328.15	.3007	791.2	.08
328.15	.3995	788.7	.08
328.15	.5007	785.6	.08
328.15	.5995	782.1	.08
328.15	.7001	777.9	.08
328.15	.8002	773	.08
328.15	.9003	767.1	.08
328.15	1	759.4	.08

System: ethanol + 1-heptanol; phases: Liquid
Fixed: Pressure, kPa = 100
Property: Viscosity, Pa*s (Liquid); method: Falling or rolling sphere viscometry
Temperature, K	Mole fraction of ethanol	Viscosity, Pa*s	uncertainty
293.15	0	.00715	.00001
293.15	.1	.00621	.00001
293.15	.2004	.00536	.00001
293.15	.3007	.00463	.00001
293.15	.3995	.00404	.00001
293.15	.5007	.00341	.00001
293.15	.5995	.00285	.00001
293.15	.7001	.00234	.00001
293.15	.8002	.0019	.00001
293.15	.9003	.00152	.00001
293.15	1	.00115	.00001
298.15	0	.00607	.00001
298.15	.1	.00529	.00001
298.15	.2004	.00459	.00001
298.15	.3007	.004	.00001
298.15	.3995	.00351	.00001
298.15	.5007	.00299	.00001
298.15	.5995	.00252	.00001
298.15	.7001	.00209	.00001
298.15	.8002	.00171	.00001
298.15	.9003	.00138	.00001
298.15	1	.00107	.00001
303.15	0	.00518	.00001
303.15	.1	.00454	.00001
303.15	.2004	.00396	.00001
303.15	.3007	.00348	.00001
303.15	.3995	.00307	.00001
303.15	.5007	.00264	.00001
303.15	.5995	.00223	.00001
303.15	.7001	.00187	.00001
303.15	.8002	.00154	.00001
303.15	.9003	.00125	.00001
303.15	1	.00097	.00001
308.15	0	.00444	.00001
308.15	.1	.00391	.00001
308.15	.2004	.00344	.00001
308.15	.3007	.00303	.00001
308.15	.3995	.0027	.00001
308.15	.5007	.00233	.00001
308.15	.5995	.00199	.00001
308.15	.7001	.00167	.00001
308.15	.8002	.00139	.00001
308.15	.9003	.00113	.00001
308.15	1	.00089	.00001
313.15	0	.00383	.00001
313.15	.1	.00339	.00001
313.15	.2004	.003	.00001
313.15	.3007	.00266	.00001
313.15	.3995	.00238	.00001
313.15	.5007	.00207	.00001
313.15	.5995	.00178	.00001
313.15	.7001	.0015	.00001
313.15	.8002	.00126	.00001
313.15	.9003	.00103	.00001
313.15	1	.00081	.00001
318.15	0	.00333	.00001
318.15	.1	.00296	.00001
318.15	.2004	.00263	.00001
318.15	.3007	.00235	.00001
318.15	.3995	.00211	.00001
318.15	.5007	.00185	.00001
318.15	.5995	.0016	.00001
318.15	.7001	.00136	.00001
318.15	.8002	.00114	.00001
318.15	.9003	.00094	.00001
318.15	1	.00076	.00001
323.15	0	.00289	.00001
323.15	.1	.00259	.00001
323.15	.2004	.00231	.00001
323.15	.3007	.00208	.00001
323.15	.3995	.00188	.00001
323.15	.5007	.00165	.00001
323.15	.5995	.00144	.00001
323.15	.7001	.00123	.00001
323.15	.8002	.00104	.00001
323.15	.9003	.00087	.00001
323.15	1	.00068	.00001
328.15	0	.00254	.00001
328.15	.1	.00228	.00001
328.15	.2004	.00205	.00001
328.15	.3007	.00184	.00001
328.15	.3995	.00168	.00001
328.15	.5007	.00148	.00001
328.15	.5995	.00129	.00001
328.15	.7001	.00111	.00001
328.15	.8002	.00094	.00001
328.15	.9003	.00079	.00001
328.15	1	.00063	.00001
