Measured thermophysical data. Liquid-liquid equilibria for the system acetone + solketal + glycerol at 303.2, 313.2 and 323.2 K
Source: J. Chem. Eng. Data, 2014, 10.1021/je500469a
Compound 1: glycerol, C3H8O3, purity 99.8%
Compound 2: Solketal, C6H12O3, purity 98%
Compound 3: acetone, C3H6O, purity 99.5%

System: glycerol + acetone + Solketal; phases: Liquid mixture 1, Liquid mixture 2
Fixed: Pressure, kPa = 101.3
Property: Mole fraction of Solketal (Liquid mixture 1); method: Chromatography
Property: Mole fraction of acetone (Liquid mixture 2); method: Chromatography
Property: Mole fraction of Solketal (Liquid mixture 2); method: Chromatography
Temperature, K	Mole fraction of acetone	Mole fraction of Solketal	uncertainty	Mole fraction of acetone	uncertainty	Mole fraction of Solketal	uncertainty
303.2	.121	0	.019	.943	.019	0	.019
323.2	.148	.014	.019	.88	.019	.039	.019
323.2	.16	.023	.019	.842	.019	.053	.019
303.2	.125	.008	.019	.908	.019	.035	.019
323.2	.18	.035	.019	.777	.019	.084	.019
323.2	.202	.053	.019	.727	.019	.101	.019
323.2	.215	.074	.019	.647	.019	.132	.019
323.2	.247	.098	.019	.589	.019	.146	.019
323.2	.288	.12	.019	.51	.019	.159	.019
303.2	.136	.023	.019	.863	.019	.062	.019
303.2	.146	.029	.019	.815	.019	.081	.019
313.2	.139	.013	.019	.901	.019	.034	.019
303.2	.159	.044	.019	.767	.019	.11	.019
303.2	.174	.057	.019	.698	.019	.132	.019
303.2	.198	.075	.019	.633	.019	.149	.019
303.2	.251	.102	.019	.551	.019	.162	.019
313.2	.123	0	.019	.939	.019	0	.019
313.2	.151	.025	.019	.86	.019	.054	.019
313.2	.169	.031	.019	.801	.019	.084	.019
313.2	.182	.045	.019	.747	.019	.107	.019
313.2	.198	.062	.019	.664	.019	.134	.019
313.2	.25	.084	.019	.601	.019	.143	.019
313.2	.296	.104	.019	.517	.019	.152	.019
323.2	.145	0	.019	.938	.019	0	.019
