Measured thermophysical data. Density, Viscosity, Speed of Sound, Bulk Modulus, and Surface Tension of Binary Mixtures of n-Heptane + 2,2,4-Trimethylpentane at (293.15 to 338.15) K and 0.1 MPa
Source: J. Chem. Eng. Data, 2014, 10.1021/je5007532
Compound 1: n-heptane, C7H16, purity 99.9%
Compound 2: 2,2,4-trimethylpentane, C8H18, purity 99.6%

System: n-heptane; phases: Liquid
Property: Mass density, kg/m3 (Liquid); method: Vibrating tube method
Temperature, K	Pressure, kPa	Mass density, kg/m3	uncertainty
293.15	101	683.85	.06
298.15	101	679.61	.06
303.15	101	675.35	.06
308.15	101	671.05	.06
313.15	101	666.73	.06
318.15	101	662.38	.06
323.15	101	657.99	.06
328.15	101	653.57	.06
333.15	101	649.11	.06
338.15	101	644.6	.06

System: n-heptane; phases: Liquid
Property: Speed of sound, m/s (Liquid); method: Sing-around technique in a fixed-path interferometer
Temperature, K	Pressure, kPa	Speed of sound, m/s	uncertainty
293.15	101	1151.7	.5
298.15	101	1130.1	.5
303.15	101	1109.1	.5
308.15	101	1087.5	.5
313.15	101	1066.6	.5
318.15	101	1045.4	.5
323.15	101	1024.7	.5
328.15	101	1003.6	.5
333.15	101	983	.5
338.15	101	962.3	.5

System: n-heptane; phases: Liquid
Property: Viscosity, Pa*s (Liquid); method: Falling or rolling sphere viscometry
Temperature, K	Pressure, kPa	Viscosity, Pa*s	uncertainty
293.15	100	.00041	.000002
298.15	100	.000389	.000002
303.15	100	.000368	.000002
308.15	100	.000349	.000002
318.15	100	.000315	.000002
323.15	100	.0003	.000002
328.15	100	.000284	.000002
333.15	100	.000271	.000004

System: n-heptane; phases: Liquid, Air at 1 atmosphere
Property: Surface tension liquid-gas, N/m (Liquid); method: Pendant drop shape
Temperature, K	Surface tension liquid-gas, N/m	uncertainty
294.4	.0203	.00016

System: 2,2,4-trimethylpentane; phases: Liquid
Property: Mass density, kg/m3 (Liquid); method: Vibrating tube method
Temperature, K	Pressure, kPa	Mass density, kg/m3	uncertainty
293.15	101	691.84	.06
298.15	101	687.7	.06
303.15	101	683.59	.06
308.15	101	679.4	.06
313.15	101	675.23	.06
318.15	101	670.98	.06
323.15	101	666.75	.06
328.15	101	662.44	.06
333.15	101	658.16	.06
338.15	101	653.8	.06
343.15	101	649.4	.06

System: 2,2,4-trimethylpentane; phases: Liquid
Property: Speed of sound, m/s (Liquid); method: Sing-around technique in a fixed-path interferometer
Temperature, K	Pressure, kPa	Speed of sound, m/s	uncertainty
293.15	101	1103.2	.5
298.15	101	1082	.5
303.15	101	1061.4	.5
308.15	101	1040.4	.5
313.15	101	1020	.5
318.15	101	999.3	.5
323.15	101	979.2	.5
328.15	101	958.7	.5
333.15	101	938.6	.5
338.15	101	918.7	.5
343.15	101	899	.1

System: 2,2,4-trimethylpentane; phases: Liquid
Property: Viscosity, Pa*s (Liquid); method: Falling or rolling sphere viscometry
Temperature, K	Pressure, kPa	Viscosity, Pa*s	uncertainty
293.15	100	.000501	.000002
298.15	100	.000473	.000002
303.15	100	.000447	.000002
308.15	100	.000423	.000002
318.15	100	.00038	.000002
323.15	100	.000361	.000002
328.15	100	.000343	.000002
333.15	100	.000326	.000004

System: 2,2,4-trimethylpentane; phases: Liquid, Air at 1 atmosphere
Property: Surface tension liquid-gas, N/m (Liquid); method: Pendant drop shape
Temperature, K	Surface tension liquid-gas, N/m	uncertainty
294.4	.0187	.00031

System: n-heptane + 2,2,4-trimethylpentane; phases: Liquid
Fixed: Pressure, kPa = 101
Property: Mass density, kg/m3 (Liquid); method: Vibrating tube method
Mole fraction of 2,2,4-trimethylpentane	Temperature, K	Mass density, kg/m3	uncertainty
0	293.15	683.85	.06
0	298.15	679.61	.06
0	303.15	675.35	.06
0	308.15	671.05	.06
0	313.15	666.73	.06
0	318.15	662.38	.06
0	323.15	657.99	.06
0	328.15	653.57	.06
0	333.15	649.11	.06
0	338.15	644.6	.06
.1	293.15	684.83	.13
.1	298.15	680.61	.13
.1	303.15	676.36	.13
.1	308.15	672.09	.13
.1	313.15	667.78	.13
.1	318.15	663.44	.13
.1	323.15	659.07	.13
.1	328.15	654.65	.13
.1	333.15	650.21	.13
.1	338.15	645.76	.13
.2001	293.15	685.71	.08
.2001	298.15	681.5	.08
.2001	303.15	677.27	.08
.2001	308.15	673.01	.08
.2001	313.15	668.71	.08
.2001	318.15	664.39	.08
.2001	323.15	660.04	.08
.2001	328.15	655.64	.08
.2001	333.15	651.22	.08
.2001	338.15	646.75	.08
.2999	293.15	686.59	.08
.2999	298.15	682.4	.08
.2999	303.15	678.18	.08
.2999	308.15	673.93	.08
.2999	313.15	669.65	.08
.2999	318.15	665.34	.08
.2999	323.15	661	.08
.2999	328.15	656.61	.08
.2999	333.15	652.2	.08
.2999	338.15	647.77	.08
.4001	293.15	687.45	.08
.4001	298.15	683.27	.08
.4001	303.15	679.07	.08
.4001	308.15	674.83	.08
.4001	313.15	670.57	.08
.4001	318.15	666.28	.08
.4001	323.15	661.95	.08
.4001	328.15	657.59	.08
.4001	333.15	653.19	.08
.4001	338.15	648.75	.08
.5001	293.15	688.28	.08
.5001	298.15	684.12	.08
.5001	303.15	679.93	.08
.5001	308.15	675.71	.08
.5001	313.15	671.46	.08
.5001	318.15	667.18	.08
.5001	323.15	662.86	.08
.5001	328.15	658.52	.08
.5001	333.15	654.14	.08
.5001	338.15	649.71	.08
.6	293.15	689.06	.08
.6	298.15	684.91	.08
.6	303.15	680.73	.08
.6	308.15	676.52	.08
.6	313.15	672.28	.08
.6	318.15	668.02	.08
.6	323.15	663.71	.08
.6	328.15	659.37	.08
.6	333.15	655.01	.08
.6	338.15	650.6	.08
.6999	293.15	689.77	.08
.6999	298.15	685.63	.08
.6999	303.15	681.46	.08
.6999	308.15	677.26	.08
.6999	313.15	673.03	.08
.6999	318.15	668.78	.08
.6999	323.15	664.49	.08
.6999	328.15	660.16	.08
.6999	333.15	655.81	.08
.6999	338.15	651.41	.08
.8	293.15	690.5	.08
.8	298.15	686.36	.08
.8	303.15	682.2	.08
.8	308.15	678.02	.08
.8	313.15	673.8	.08
.8	318.15	669.55	.08
.8	323.15	665.28	.08
.8	328.15	660.98	.08
.8	333.15	656.64	.08
.8	338.15	652.29	.08
.9	293.15	691.17	.08
.9	298.15	687.05	.08
.9	303.15	682.89	.08
.9	308.15	678.72	.08
.9	313.15	674.52	.08
.9	318.15	670.28	.08
.9	323.15	666.02	.08
.9	328.15	661.73	.08
.9	333.15	657.4	.08
.9	338.15	653.03	.08
1	293.15	691.84	.06
1	298.15	687.7	.06
1	303.15	683.59	.06
1	308.15	679.4	.06
1	313.15	675.23	.06
1	318.15	670.98	.06
1	323.15	666.75	.06
1	328.15	662.44	.06
1	333.15	658.16	.06
1	338.15	653.8	.06
1	343.15	649.4	.06

System: n-heptane + 2,2,4-trimethylpentane; phases: Liquid
Fixed: Pressure, kPa = 101
Property: Speed of sound, m/s (Liquid); method: Sing-around technique in a fixed-path interferometer
Mole fraction of 2,2,4-trimethylpentane	Temperature, K	Speed of sound, m/s	uncertainty
0	293.15	1151.7	.5
0	298.15	1130.1	.5
0	303.15	1109.1	.5
0	308.15	1087.5	.5
0	313.15	1066.6	.5
0	318.15	1045.4	.5
0	323.15	1024.7	.5
0	328.15	1003.6	.5
0	333.15	983	.5
0	338.15	962.3	.5
1	293.15	1103.2	.5
1	298.15	1082	.5
1	303.15	1061.4	.5
1	308.15	1040.4	.5
1	313.15	1020	.5
1	318.15	999.3	.5
1	323.15	979.2	.5
1	328.15	958.7	.5
1	333.15	938.6	.5
1	338.15	918.7	.5
1	343.15	899	.1
.1	293.15	1146.5	.5
.1	298.15	1125.3	.5
.1	303.15	1103.9	.5
.1	308.15	1082.7	.5
.1	313.15	1061.7	.5
.1	318.15	1040.7	.5
.1	323.15	1019.8	.5
.1	328.15	999	.5
.1	333.15	978.3	.5
.1	338.15	957.8	.5
.2001	293.15	1141.7	.5
.2001	298.15	1120.5	.5
.2001	303.15	1099.2	.5
.2001	308.15	1078	.5
.2001	313.15	1057	.5
.2001	318.15	1036.1	.5
.2001	323.15	1015.2	.5
.2001	328.15	994.4	.5
.2001	333.15	973.9	.5
.2001	338.15	953.3	.5
.2999	293.15	1136.6	.5
.2999	298.15	1115.5	.5
.2999	303.15	1094.2	.5
.2999	308.15	1073.1	.5
.2999	313.15	1052.2	.5
.2999	318.15	1031.3	.5
.2999	323.15	1010.5	.5
.2999	328.15	989.8	.5
.2999	333.15	969.2	.5
.2999	338.15	948.7	.5
.4001	293.15	1131.6	.5
.4001	298.15	1110.5	.5
.4001	303.15	1089.3	.5
.4001	308.15	1068.2	.5
.4001	313.15	1047.3	.5
.4001	318.15	1026.5	.5
.4001	323.15	1005.7	.5
.4001	328.15	985.1	.5
.4001	333.15	964.6	.5
.4001	338.15	944.3	.5
.5001	293.15	1127	.5
.5001	298.15	1105.9	.5
.5001	303.15	1084.7	.5
.5001	308.15	1063.7	.5
.5001	313.15	1042.8	.5
.5001	318.15	1022.1	.5
.5001	323.15	1001.4	.5
.5001	328.15	980.8	.5
.5001	333.15	960.4	.5
.5001	338.15	940.1	.5
.6	293.15	1122	.5
.6	298.15	1101	.5
.6	303.15	1079.9	.5
.6	308.15	1058.9	.5
.6	313.15	1038.1	.5
.6	318.15	1017.4	.5
.6	323.15	996.8	.5
.6	328.15	976.3	.5
.6	333.15	955.8	.5
.6	338.15	935.8	.5
.6999	293.15	1117.2	.5
.6999	298.15	1096.2	.5
.6999	303.15	1075.1	.5
.6999	308.15	1054.2	.5
.6999	313.15	1033.5	.5
.6999	318.15	1012.8	.5
.6999	323.15	992.3	.5
.6999	328.15	971.8	.5
.6999	333.15	951.6	.5
.6999	338.15	931.3	.5
.8	293.15	1112.5	.5
.8	298.15	1091.6	.5
.8	303.15	1070.5	.5
.8	308.15	1049.7	.5
.8	313.15	1029	.5
.8	318.15	1008.4	.5
.8	323.15	987.9	.5
.8	328.15	967.4	.5
.8	333.15	947.3	.5
.8	338.15	927.2	.5
.9	293.15	1107.7	.5
.9	298.15	1086.7	.5
.9	303.15	1065.8	.5
.9	308.15	1045	.5
.9	313.15	1024.3	.5
.9	318.15	1003.8	.5
.9	323.15	983.3	.5
.9	328.15	963	.5
.9	333.15	942.9	.5
.9	338.15	922.9	.5

System: n-heptane + 2,2,4-trimethylpentane; phases: Liquid
Fixed: Pressure, kPa = 100
Property: Viscosity, Pa*s (Liquid); method: Falling or rolling sphere viscometry
Temperature, K	Mole fraction of 2,2,4-trimethylpentane	Viscosity, Pa*s	uncertainty
293.15	0	.00041	.000002
293.15	.1	.000416	.000002
293.15	.2001	.000423	.000002
293.15	.2999	.00043	.000002
293.15	.4001	.000438	.000002
293.15	.5001	.000447	.000002
293.15	.6	.000456	.000002
293.15	.6999	.000466	.000002
293.15	.8	.000477	.000002
293.15	.9	.000488	.000002
293.15	1	.000501	.000002
298.15	0	.000389	.000002
298.15	.1	.000394	.000002
298.15	.2001	.0004	.000002
298.15	.2999	.000407	.000002
298.15	.4001	.000415	.000002
298.15	.5001	.000423	.000002
298.15	.6	.000432	.000002
298.15	.6999	.000441	.000002
298.15	.8	.000451	.000002
298.15	.9	.000462	.000002
298.15	1	.000473	.000002
303.15	0	.000368	.000002
303.15	.1	.000373	.000002
303.15	.2001	.000379	.000002
303.15	.2999	.000386	.000002
303.15	.4001	.000393	.000002
303.15	.5001	.0004	.000002
303.15	.6	.000408	.000002
303.15	.6999	.000417	.000002
303.15	.8	.000426	.000002
303.15	.9	.000436	.000002
303.15	1	.000447	.000002
308.15	0	.000349	.000002
308.15	.1	.000355	.000002
308.15	.2001	.00036	.000002
308.15	.2999	.000366	.000002
308.15	.4001	.000373	.000002
308.15	.5001	.00038	.000002
308.15	.6	.000387	.000002
308.15	.6999	.000396	.000002
308.15	.8	.000404	.000002
308.15	.9	.000413	.000002
308.15	1	.000423	.000002
318.15	0	.000315	.000002
318.15	.1	.00032	.000002
318.15	.2001	.000325	.000002
318.15	.2999	.00033	.000002
318.15	.4001	.000336	.000002
318.15	.5001	.000343	.000002
318.15	.6	.000349	.000002
318.15	.6999	.000356	.000002
318.15	.8	.000363	.000002
318.15	.9	.000372	.000002
318.15	1	.00038	.000002
323.15	0	.0003	.000002
323.15	.1	.000305	.000002
323.15	.2001	.000309	.000002
323.15	.2999	.000314	.000002
323.15	.4001	.00032	.000002
323.15	.5001	.000326	.000002
323.15	.6	.000332	.000002
323.15	.6999	.000338	.000002
323.15	.8	.000345	.000002
323.15	.9	.000353	.000002
323.15	1	.000361	.000002
328.15	0	.000284	.000002
328.15	.1	.000291	.000002
328.15	.2001	.000295	.000002
328.15	.2999	.0003	.000002
328.15	.4001	.000305	.000002
328.15	.5001	.000311	.000002
328.15	.6	.000316	.000002
328.15	.6999	.000323	.000002
328.15	.8	.000329	.000002
328.15	.9	.000335	.000002
328.15	1	.000343	.000002
333.15	0	.000271	.000004
333.15	.1	.000276	.000004
333.15	.2001	.00028	.000004
333.15	.2999	.000286	.000004
333.15	.4001	.00029	.000004
333.15	.5001	.000294	.000004
333.15	.6	.0003	.000004
333.15	.6999	.000306	.000004
333.15	.8	.000313	.000004
333.15	.9	.000319	.000004
333.15	1	.000326	.000004

System: n-heptane + 2,2,4-trimethylpentane; phases: Liquid, Air at 1 atmosphere
Fixed: Temperature, K = 294.4
Property: Surface tension liquid-gas, N/m (Liquid); method: Pendant drop shape
Mole fraction of 2,2,4-trimethylpentane	Surface tension liquid-gas, N/m	uncertainty
0	.0203	.00016
.1	.0199	.00014
.2001	.0197	.0002
.2999	.0195	.00023
.4001	.0194	.00013
.5001	.0192	.00022
.6999	.019	.00027
.8	.0189	.00016
1	.0187	.00031
