Measured thermophysical data. Densities and Viscosities of Binary Mixtures of 2,2,4-Trimethylpentane + 1-Propanol, + 1-Pentanol, + 1-Hexanol, and + 1-Heptanol from (298.15 to 323.15) K
Source: J. Chem. Eng. Data, 2015, 10.1021/je501041r
Compound 1: 2,2,4-trimethylpentane, C8H18, purity 99.8%
Compound 2: 1-propanol, C3H8O, purity 99.5%
Compound 3: 1-pentanol, C5H12O, purity 99%
Compound 4: 1-hexanol, C6H14O, purity 99%
Compound 5: 1-heptanol, C7H16O, purity 99%

System: 2,2,4-trimethylpentane; phases: Liquid
Property: Viscosity, Pa*s (Liquid); method: Capillary tube (Ostwald; Ubbelohde) method
Temperature, K	Pressure, kPa	Viscosity, Pa*s	uncertainty
298.15	101	.000478	.00000478
303.15	101	.000453	.00000453
308.15	101	.000429	.00000429
313.15	101	.000408	.00000408
318.15	101	.000388	.00000388
323.15	101	.000369	.00000369

System: 2,2,4-trimethylpentane; phases: Liquid
Property: Mass density, kg/m3 (Liquid); method: Vibrating tube method
Temperature, K	Pressure, kPa	Mass density, kg/m3	uncertainty
298.15	101	687.82	1
303.15	101	683.68	1
308.15	101	679.52	1
313.15	101	675.32	1
318.15	101	671.1	1
323.15	101	666.85	1

System: 1-propanol; phases: Liquid
Property: Viscosity, Pa*s (Liquid); method: Capillary tube (Ostwald; Ubbelohde) method
Temperature, K	Pressure, kPa	Viscosity, Pa*s	uncertainty
298.15	101	.001955	.00001955
303.15	101	.001737	.00001737
308.15	101	.001548	.00001548
313.15	101	.001384	.00001384
318.15	101	.001241	.00001241
323.15	101	.001117	.00001117

System: 1-propanol; phases: Liquid
Property: Mass density, kg/m3 (Liquid); method: Vibrating tube method
Temperature, K	Pressure, kPa	Mass density, kg/m3	uncertainty
298.15	101	800.03	1
303.15	101	796.01	1
308.15	101	791.92	1
313.15	101	787.79	1
318.15	101	783.65	1
323.15	101	779.43	1

System: 1-pentanol; phases: Liquid
Property: Viscosity, Pa*s (Liquid); method: Capillary tube (Ostwald; Ubbelohde) method
Temperature, K	Pressure, kPa	Viscosity, Pa*s	uncertainty
298.15	101	.003458	.00003458
303.15	101	.003007	.00003007
308.15	101	.002625	.00002625
313.15	101	.002317	.00002317
318.15	101	.002029	.00002029
323.15	101	.001795	.00001795

System: 1-pentanol; phases: Liquid
Property: Mass density, kg/m3 (Liquid); method: Vibrating tube method
Temperature, K	Pressure, kPa	Mass density, kg/m3	uncertainty
298.15	101	810.59	1
303.15	101	807.89	1
308.15	101	804.16	1
313.15	101	800.4	1
318.15	101	796.59	1
323.15	101	792.75	1

System: 1-hexanol; phases: Liquid
Property: Viscosity, Pa*s (Liquid); method: Capillary tube (Ostwald; Ubbelohde) method
Temperature, K	Pressure, kPa	Viscosity, Pa*s	uncertainty
298.15	101	.004605	.00004605
303.15	101	.003944	.00003944
308.15	101	.003414	.00003414
313.15	101	.00296	.0000296
318.15	101	.002581	.00002581
323.15	101	.002251	.00002251

System: 1-hexanol; phases: Liquid
Property: Mass density, kg/m3 (Liquid); method: Vibrating tube method
Temperature, K	Pressure, kPa	Mass density, kg/m3	uncertainty
298.15	101	815.3	1
303.15	101	811.71	1
308.15	101	808.09	1
313.15	101	804.43	1
318.15	101	800.75	1
323.15	101	797.02	1

System: 1-heptanol; phases: Liquid
Property: Viscosity, Pa*s (Liquid); method: Capillary tube (Ostwald; Ubbelohde) method
Temperature, K	Pressure, kPa	Viscosity, Pa*s	uncertainty
298.15	101	.006004	.00006004
303.15	101	.005079	.00005079
308.15	101	.004374	.00004374
313.15	101	.0038	.000038
318.15	101	.003224	.00003224
323.15	101	.002851	.00002851

System: 1-heptanol; phases: Liquid
Property: Mass density, kg/m3 (Liquid); method: Vibrating tube method
Temperature, K	Pressure, kPa	Mass density, kg/m3	uncertainty
298.15	101	818.82	1
303.15	101	815.3	1
308.15	101	811.75	1
313.15	101	808.17	1
318.15	101	804.57	1
323.15	101	800.93	1

System: 1-propanol + 2,2,4-trimethylpentane; phases: Liquid
Fixed: Pressure, kPa = 101
Property: Mass density, kg/m3 (Liquid); method: Vibrating tube method
Temperature, K	Mole fraction of 2,2,4-trimethylpentane	Mass density, kg/m3	uncertainty
298.15	0	800.03	1
298.15	.02	795.39	1
298.15	.04	790.82	1
298.15	.06	786.22	1
298.15	.1	777.82	1
298.15	.2	759.71	1
298.15	.3	744.88	1
298.15	.4	732.42	1
298.15	.4999	721.93	1
298.15	.5996	712.88	1
298.15	.6998	704.9	1
298.15	.7995	698.16	1
298.15	.9	692.36	1
298.15	1	687.82	1
303.15	0	796.01	1
303.15	.02	791.36	1
303.15	.04	786.77	1
303.15	.06	782.15	1
303.15	.1	773.72	1
303.15	.2	755.54	1
303.15	.3	740.67	1
303.15	.4	728.17	1
303.15	.4999	717.66	1
303.15	.5996	708.61	1
303.15	.6998	700.62	1
303.15	.7995	693.9	1
303.15	.9	688.13	1
303.15	1	683.68	1
308.15	0	791.92	1
308.15	.02	787.26	1
308.15	.04	782.66	1
308.15	.06	778.03	1
308.15	.1	769.57	1
308.15	.2	751.33	1
308.15	.3	736.41	1
308.15	.4	723.88	1
308.15	.4999	713.35	1
308.15	.5996	704.28	1
308.15	.6998	696.31	1
308.15	.7995	689.61	1
308.15	.9	683.86	1
308.15	1	679.52	1
313.15	0	787.79	1
313.15	.02	783.12	1
313.15	.04	778.51	1
313.15	.06	773.86	1
313.15	.1	765.38	1
313.15	.2	747.08	1
313.15	.3	732.1	1
313.15	.4	719.54	1
313.15	.4999	708.99	1
313.15	.5996	699.91	1
313.15	.6998	691.95	1
313.15	.7995	685.26	1
313.15	.9	679.55	1
313.15	1	675.32	1
318.15	0	783.65	1
318.15	.02	778.94	1
318.15	.04	774.31	1
318.15	.06	769.64	1
318.15	.1	761.14	1
318.15	.2	742.76	1
318.15	.3	727.73	1
318.15	.4	715.13	1
318.15	.4999	704.58	1
318.15	.5996	695.48	1
318.15	.6998	687.53	1
318.15	.7995	680.87	1
318.15	.9	675.2	1
318.15	1	671.1	1
323.15	0	779.43	1
323.15	.02	774.7	1
323.15	.04	770.05	1
323.15	.06	765.36	1
323.15	.1	756.84	1
323.15	.2	738.39	1
323.15	.3	723.3	1
323.15	.4	710.67	1
323.15	.4999	700.11	1
323.15	.5996	691	1
323.15	.6998	683.07	1
323.15	.7995	676.44	1
323.15	.9	670.81	1
323.15	1	666.85	1

System: 1-propanol + 2,2,4-trimethylpentane; phases: Liquid
Fixed: Pressure, kPa = 101
Property: Viscosity, Pa*s (Liquid); method: Capillary tube (Ostwald; Ubbelohde) method
Temperature, K	Mole fraction of 2,2,4-trimethylpentane	Viscosity, Pa*s	uncertainty
298.15	0	.001955	.00001955
298.15	.1	.001518	.00001518
298.15	.2	.001231	.00001231
298.15	.3	.001007	.00001007
298.15	.4	.00084	.0000084
298.15	.4999	.000718	.00000718
298.15	.5996	.000644	.00000644
298.15	.6998	.000572	.00000572
298.15	.7995	.000519	.00000519
298.15	.9	.000491	.00000491
298.15	1	.000478	.00000478
303.15	0	.001737	.00001737
303.15	.1	.001361	.00001361
303.15	.2	.001113	.00001113
303.15	.3	.000909	.00000909
303.15	.4	.000769	.00000769
303.15	.4999	.000664	.00000664
303.15	.5996	.000585	.00000585
303.15	.6998	.000531	.00000531
303.15	.7995	.000488	.00000488
303.15	.9	.000464	.00000464
303.15	1	.000453	.00000453
308.15	0	.001548	.00001548
308.15	.1	.001223	.00001223
308.15	.2	.001004	.00001004
308.15	.3	.000831	.00000831
308.15	.4	.000709	.00000709
308.15	.4999	.000613	.00000613
308.15	.5996	.000543	.00000543
308.15	.6998	.0005	.000005
308.15	.7995	.00046	.0000046
308.15	.9	.000438	.00000438
308.15	1	.000429	.00000429
313.15	0	.001384	.00001384
313.15	.1	.0011	.000011
313.15	.2	.00092	.0000092
313.15	.3	.000758	.00000758
313.15	.4	.000648	.00000648
313.15	.4999	.000569	.00000569
313.15	.5996	.00051	.0000051
313.15	.6998	.000467	.00000467
313.15	.7995	.000434	.00000434
313.15	.9	.000414	.00000414
313.15	1	.000408	.00000408
318.15	0	.001241	.00001241
318.15	.1	.000994	.00000994
318.15	.2	.000833	.00000833
318.15	.3	.000693	.00000693
318.15	.4	.000596	.00000596
318.15	.4999	.000529	.00000529
318.15	.5996	.000479	.00000479
318.15	.6998	.000439	.00000439
318.15	.7995	.00041	.0000041
318.15	.9	.000393	.00000393
318.15	1	.000388	.00000388
323.15	0	.001117	.00001117
323.15	.1	.000903	.00000903
323.15	.2	.000767	.00000767
323.15	.3	.000648	.00000648
323.15	.4	.000554	.00000554
323.15	.4999	.000491	.00000491
323.15	.5996	.000445	.00000445
323.15	.6998	.000413	.00000413
323.15	.7995	.000388	.00000388
323.15	.9	.000373	.00000373
323.15	1	.000369	.00000369

System: 1-pentanol + 2,2,4-trimethylpentane; phases: Liquid
Fixed: Pressure, kPa = 101
Property: Mass density, kg/m3 (Liquid); method: Vibrating tube method
Temperature, K	Mole fraction of 2,2,4-trimethylpentane	Mass density, kg/m3	uncertainty
298.15	0	810.59	1
298.15	.1004	794.33	1
298.15	.2003	778.35	1
298.15	.3	763.77	1
298.15	.4	749.96	1
298.15	.5	737.18	1
298.15	.5999	725.64	1
298.15	.6998	714.97	1
298.15	.7999	705.08	1
298.15	.8996	696.03	1
298.15	1	687.82	1
303.15	0	807.89	1
303.15	.1004	790.55	1
303.15	.2003	774.49	1
303.15	.3	759.83	1
303.15	.4	745.97	1
303.15	.5	733.13	1
303.15	.5999	721.55	1
303.15	.6998	710.84	1
303.15	.7999	700.93	1
303.15	.8996	691.85	1
303.15	1	683.68	1
308.15	0	804.16	1
308.15	.1004	786.73	1
308.15	.2003	770.6	1
308.15	.3	755.86	1
308.15	.4	741.94	1
308.15	.5	729.05	1
308.15	.5999	717.43	1
308.15	.6998	706.68	1
308.15	.7999	696.74	1
308.15	.8996	687.64	1
308.15	1	679.52	1
313.15	0	800.4	1
313.15	.1004	782.88	1
313.15	.2003	766.66	1
313.15	.3	751.85	1
313.15	.4	737.87	1
313.15	.5	724.94	1
313.15	.5999	713.27	1
313.15	.6998	702.49	1
313.15	.7999	692.51	1
313.15	.8996	683.4	1
313.15	1	675.32	1
318.15	0	796.59	1
318.15	.1004	778.99	1
318.15	.2003	762.69	1
318.15	.3	747.8	1
318.15	.4	733.76	1
318.15	.5	720.78	1
318.15	.5999	709.06	1
318.15	.6998	698.25	1
318.15	.7999	688.24	1
318.15	.8996	679.11	1
318.15	1	671.1	1
323.15	0	792.75	1
323.15	.1004	775.05	1
323.15	.2003	758.67	1
323.15	.3	743.71	1
323.15	.4	729.61	1
323.15	.5	716.58	1
323.15	.5999	704.82	1
323.15	.6998	693.98	1
323.15	.7999	683.93	1
323.15	.8996	674.79	1
323.15	1	666.85	1

System: 1-pentanol + 2,2,4-trimethylpentane; phases: Liquid
Fixed: Pressure, kPa = 101
Property: Viscosity, Pa*s (Liquid); method: Capillary tube (Ostwald; Ubbelohde) method
Temperature, K	Mole fraction of 2,2,4-trimethylpentane	Viscosity, Pa*s	uncertainty
298.15	0	.003458	.00003458
298.15	.1004	.002615	.00002615
298.15	.2003	.001984	.00001984
298.15	.3	.001525	.00001525
298.15	.4	.001189	.00001189
298.15	.5	.000948	.00000948
298.15	.5999	.000785	.00000785
298.15	.6998	.000663	.00000663
298.15	.7999	.000579	.00000579
298.15	.8996	.000518	.00000518
298.15	1	.000478	.00000478
303.15	0	.003007	.00003007
303.15	.1004	.002291	.00002291
303.15	.2003	.001758	.00001758
303.15	.3	.001365	.00001365
303.15	.4	.001076	.00001076
303.15	.5	.000867	.00000867
303.15	.5999	.000724	.00000724
303.15	.6998	.000623	.00000623
303.15	.7999	.000552	.00000552
303.15	.8996	.00049	.0000049
303.15	1	.000453	.00000453
308.15	0	.002625	.00002625
308.15	.1004	.002038	.00002038
308.15	.2003	.001562	.00001562
308.15	.3	.001225	.00001225
308.15	.4	.000977	.00000977
308.15	.5	.000797	.00000797
308.15	.5999	.000671	.00000671
308.15	.6998	.000579	.00000579
308.15	.7999	.000513	.00000513
308.15	.8996	.000466	.00000466
308.15	1	.000429	.00000429
313.15	0	.002317	.00002317
313.15	.1004	.001806	.00001806
313.15	.2003	.001403	.00001403
313.15	.3	.001105	.00001105
313.15	.4	.00089	.0000089
313.15	.5	.000734	.00000734
313.15	.5999	.000624	.00000624
313.15	.6998	.000549	.00000549
313.15	.7999	.000482	.00000482
313.15	.8996	.000438	.00000438
313.15	1	.000408	.00000408
318.15	0	.002029	.00002029
318.15	.1004	.001618	.00001618
318.15	.2003	.001255	.00001255
318.15	.3	.001001	.00001001
318.15	.4	.000815	.00000815
318.15	.5	.000679	.00000679
318.15	.5999	.000582	.00000582
318.15	.6998	.000518	.00000518
318.15	.7999	.000454	.00000454
318.15	.8996	.000422	.00000422
318.15	1	.000388	.00000388
323.15	0	.001795	.00001795
323.15	.1004	.001443	.00001443
323.15	.2003	.001131	.00001131
323.15	.3	.000914	.00000914
323.15	.4	.000749	.00000749
323.15	.5	.00063	.0000063
323.15	.5999	.000548	.00000548
323.15	.6998	.000486	.00000486
323.15	.7999	.000428	.00000428
323.15	.8996	.000393	.00000393
323.15	1	.000369	.00000369

System: 1-hexanol + 2,2,4-trimethylpentane; phases: Liquid
Fixed: Pressure, kPa = 101
Property: Mass density, kg/m3 (Liquid); method: Vibrating tube method
Temperature, K	Mole fraction of 2,2,4-trimethylpentane	Mass density, kg/m3	uncertainty
298.15	0	815.3	1
298.15	.1001	799.99	1
298.15	.2	785	1
298.15	.3001	770.65	1
298.15	.4	756.92	1
298.15	.5	743.89	1
298.15	.6001	731.33	1
298.15	.7001	719.63	1
298.15	.7997	708.41	1
298.15	.8998	697.73	1
298.15	.9199	695.61	1
298.15	.9396	693.66	1
298.15	.9595	691.69	1
298.15	1	687.82	1
303.15	0	811.71	1
303.15	.1001	796.32	1
303.15	.2	781.24	1
303.15	.3001	766.82	1
303.15	.4	753.03	1
303.15	.5	739.93	1
303.15	.6001	727.33	1
303.15	.7001	715.58	1
303.15	.7997	704.3	1
303.15	.8998	693.58	1
303.15	.9199	691.45	1
303.15	.9396	689.52	1
303.15	.9595	687.54	1
303.15	1	683.68	1
308.15	0	808.09	1
308.15	.1001	792.61	1
308.15	.2	777.46	1
308.15	.3001	762.96	1
308.15	.4	749.11	1
308.15	.5	735.95	1
308.15	.6001	723.29	1
308.15	.7001	711.48	1
308.15	.7997	700.16	1
308.15	.8998	689.39	1
308.15	.9199	687.26	1
308.15	.9396	685.32	1
308.15	.9595	683.35	1
308.15	1	679.52	1
313.15	0	804.43	1
313.15	.1001	788.88	1
313.15	.2	773.65	1
313.15	.3001	759.07	1
313.15	.4	745.15	1
313.15	.5	731.93	1
313.15	.6001	719.21	1
313.15	.7001	707.36	1
313.15	.7997	695.98	1
313.15	.8998	685.18	1
313.15	.9199	683.03	1
313.15	.9396	681.09	1
313.15	.9595	679.12	1
313.15	1	675.32	1
318.15	0	800.75	1
318.15	.1001	785.1	1
318.15	.2	769.8	1
318.15	.3001	755.15	1
318.15	.4	741.15	1
318.15	.5	727.88	1
318.15	.6001	715.1	1
318.15	.7001	703.19	1
318.15	.7997	691.77	1
318.15	.8998	680.92	1
318.15	.9199	678.78	1
318.15	.9396	676.83	1
318.15	.9595	674.86	1
318.15	1	671.1	1
323.15	0	797.02	1
323.15	.1001	781.29	1
323.15	.2	765.91	1
323.15	.3001	751.18	1
323.15	.4	737.12	1
323.15	.5	723.78	1
323.15	.6001	710.95	1
323.15	.7001	698.99	1
323.15	.7997	687.52	1
323.15	.8998	676.63	1
323.15	.9199	674.48	1
323.15	.9396	672.54	1
323.15	.9595	670.56	1
323.15	1	666.85	1

System: 1-hexanol + 2,2,4-trimethylpentane; phases: Liquid
Fixed: Pressure, kPa = 101
Property: Viscosity, Pa*s (Liquid); method: Capillary tube (Ostwald; Ubbelohde) method
Temperature, K	Mole fraction of 2,2,4-trimethylpentane	Viscosity, Pa*s	uncertainty
298.15	0	.004605	.00004605
298.15	.1001	.003428	.00003428
298.15	.2	.002565	.00002565
298.15	.3001	.001933	.00001933
298.15	.4	.001452	.00001452
298.15	.5	.001124	.00001124
298.15	.6001	.000899	.00000899
298.15	.7001	.000737	.00000737
298.15	.7997	.000621	.00000621
298.15	.8998	.000536	.00000536
298.15	1	.000478	.00000478
303.15	0	.003944	.00003944
303.15	.1001	.002958	.00002958
303.15	.2	.002236	.00002236
303.15	.3001	.001728	.00001728
303.15	.4	.001306	.00001306
303.15	.5	.001051	.00001051
303.15	.6001	.000829	.00000829
303.15	.7001	.000688	.00000688
303.15	.7997	.000582	.00000582
303.15	.8998	.000504	.00000504
303.15	1	.000453	.00000453
308.15	0	.003414	.00003414
308.15	.1001	.002592	.00002592
308.15	.2	.001965	.00001965
308.15	.3001	.001536	.00001536
308.15	.4	.00118	.0000118
308.15	.5	.000941	.00000941
308.15	.6001	.000775	.00000775
308.15	.7001	.000643	.00000643
308.15	.7997	.000546	.00000546
308.15	.8998	.000476	.00000476
308.15	1	.000429	.00000429
313.15	0	.00296	.0000296
313.15	.1001	.002275	.00002275
313.15	.2	.001745	.00001745
313.15	.3001	.001361	.00001361
313.15	.4	.001071	.00001071
313.15	.5	.000861	.00000861
313.15	.6001	.000721	.00000721
313.15	.7001	.000596	.00000596
313.15	.7997	.000512	.00000512
313.15	.8998	.000449	.00000449
313.15	1	.000408	.00000408
318.15	0	.002581	.00002581
318.15	.1001	.001997	.00001997
318.15	.2	.001577	.00001577
318.15	.3001	.00123	.0000123
318.15	.4	.000976	.00000976
318.15	.5	.000807	.00000807
318.15	.6001	.000658	.00000658
318.15	.7001	.000559	.00000559
318.15	.7997	.000483	.00000483
318.15	.8998	.000424	.00000424
318.15	1	.000388	.00000388
323.15	0	.002251	.00002251
323.15	.1001	.001778	.00001778
323.15	.2	.001391	.00001391
323.15	.3001	.001113	.00001113
323.15	.4	.000894	.00000894
323.15	.5	.000747	.00000747
323.15	.6001	.000623	.00000623
323.15	.7001	.000523	.00000523
323.15	.7997	.000455	.00000455
323.15	.8998	.000402	.00000402
323.15	1	.000369	.00000369

System: 1-heptanol + 2,2,4-trimethylpentane; phases: Liquid
Fixed: Pressure, kPa = 101
Property: Mass density, kg/m3 (Liquid); method: Vibrating tube method
Temperature, K	Mole fraction of 2,2,4-trimethylpentane	Mass density, kg/m3	uncertainty
298.15	0	818.82	1
298.15	.1003	804.69	1
298.15	.2002	790.62	1
298.15	.3002	776.7	1
298.15	.3999	763.07	1
298.15	.5	749.79	1
298.15	.6	736.64	1
298.15	.6999	723.94	1
298.15	.7999	711.51	1
298.15	.8999	699.33	1
298.15	.92	697.03	1
298.15	.94	694.61	1
298.15	.9599	692.3	1
298.15	1	687.82	1
303.15	0	815.3	1
303.15	.1003	801.1	1
303.15	.2002	786.96	1
303.15	.3002	772.96	1
303.15	.3999	759.26	1
303.15	.5	745.92	1
303.15	.6	732.7	1
303.15	.6999	719.94	1
303.15	.7999	707.45	1
303.15	.8999	695.21	1
303.15	.92	692.88	1
303.15	.94	690.48	1
303.15	.9599	688.17	1
303.15	1	683.68	1
308.15	0	811.75	1
308.15	.1003	797.48	1
308.15	.2002	783.26	1
308.15	.3002	769.2	1
308.15	.3999	755.43	1
308.15	.5	742.02	1
308.15	.6	728.74	1
308.15	.6999	715.91	1
308.15	.7999	703.35	1
308.15	.8999	691.05	1
308.15	.92	688.71	1
308.15	.94	686.3	1
308.15	.9599	683.98	1
308.15	1	679.52	1
313.15	0	808.17	1
313.15	.1003	793.83	1
313.15	.2002	779.54	1
313.15	.3002	765.4	1
313.15	.3999	751.57	1
313.15	.5	738.08	1
313.15	.6	724.74	1
313.15	.6999	711.84	1
313.15	.7999	699.22	1
313.15	.8999	686.85	1
313.15	.92	684.51	1
313.15	.94	682.09	1
313.15	.9599	679.77	1
313.15	1	675.32	1
318.15	0	804.57	1
318.15	.1003	790.15	1
318.15	.2002	775.79	1
318.15	.3002	761.58	1
318.15	.3999	747.67	1
318.15	.5	734.12	1
318.15	.6	720.71	1
318.15	.6999	707.74	1
318.15	.7999	695.05	1
318.15	.8999	682.63	1
318.15	.92	680.27	1
318.15	.94	677.84	1
318.15	.9599	675.52	1
318.15	1	671.1	1
323.15	0	800.93	1
323.15	.1003	786.43	1
323.15	.2002	772	1
323.15	.3002	757.71	1
323.15	.3999	743.74	1
323.15	.5	730.12	1
323.15	.6	716.64	1
323.15	.6999	703.6	1
323.15	.7999	690.85	1
323.15	.8999	678.37	1
323.15	.92	675.99	1
323.15	.94	673.57	1
323.15	.9599	671.24	1
323.15	1	666.85	1

System: 1-heptanol + 2,2,4-trimethylpentane; phases: Liquid
Fixed: Pressure, kPa = 101
Property: Viscosity, Pa*s (Liquid); method: Capillary tube (Ostwald; Ubbelohde) method
Temperature, K	Mole fraction of 2,2,4-trimethylpentane	Viscosity, Pa*s	uncertainty
298.15	0	.006004	.00006004
298.15	.1003	.004442	.00004442
298.15	.2002	.003258	.00003258
298.15	.3002	.002408	.00002408
298.15	.3999	.001793	.00001793
298.15	.5	.001349	.00001349
298.15	.6	.001059	.00001059
298.15	.6999	.000827	.00000827
298.15	.7999	.000672	.00000672
298.15	.8999	.000557	.00000557
298.15	1	.000478	.00000478
303.15	0	.005079	.00005079
303.15	.1003	.003807	.00003807
303.15	.2002	.002834	.00002834
303.15	.3002	.002126	.00002126
303.15	.3999	.001597	.00001597
303.15	.5	.001224	.00001224
303.15	.6	.000988	.00000988
303.15	.6999	.000782	.00000782
303.15	.7999	.000627	.00000627
303.15	.8999	.000524	.00000524
303.15	1	.000453	.00000453
308.15	0	.004374	.00004374
308.15	.1003	.003283	.00003283
308.15	.2002	.002518	.00002518
308.15	.3002	.001881	.00001881
308.15	.3999	.001437	.00001437
308.15	.5	.00113	.0000113
308.15	.6	.000913	.00000913
308.15	.6999	.000714	.00000714
308.15	.7999	.000587	.00000587
308.15	.8999	.000496	.00000496
308.15	1	.000429	.00000429
313.15	0	.0038	.000038
313.15	.1003	.002875	.00002875
313.15	.2002	.002217	.00002217
313.15	.3002	.001679	.00001679
313.15	.3999	.001298	.00001298
313.15	.5	.001018	.00001018
313.15	.6	.000825	.00000825
313.15	.6999	.00067	.0000067
313.15	.7999	.00055	.0000055
313.15	.8999	.000465	.00000465
313.15	1	.000408	.00000408
318.15	0	.003224	.00003224
318.15	.1003	.002503	.00002503
318.15	.2002	.001979	.00001979
318.15	.3002	.001501	.00001501
318.15	.3999	.001176	.00001176
318.15	.5	.000934	.00000934
318.15	.6	.000758	.00000758
318.15	.6999	.000623	.00000623
318.15	.7999	.000517	.00000517
318.15	.8999	.000439	.00000439
318.15	1	.000388	.00000388
323.15	0	.002851	.00002851
323.15	.1003	.002209	.00002209
323.15	.2002	.001754	.00001754
323.15	.3002	.001351	.00001351
323.15	.3999	.001071	.00001071
323.15	.5	.000859	.00000859
323.15	.6	.000699	.00000699
323.15	.6999	.000592	.00000592
323.15	.7999	.000487	.00000487
323.15	.8999	.000416	.00000416
323.15	1	.000369	.00000369
