Measured thermophysical data. Liquid Liquid Phase Equilibrium and Heat Capacity of Binary Mixture 1-Ethyl-3-methylimidazolium Bis(trifluoromethylsulfonyl)imide + 1-Propanol
Source: J. Chem. Eng. Data, 2014, 10.1021/je5003779
Compound 1: 1-ethyl-3-methylimidazolium bis(trifluoromethylsulfonyl)imide, C8H11F6N3O4S2, purity 99%
Compound 2: 1-propanol, C3H8O, purity 99.9%

System: 1-ethyl-3-methylimidazolium bis(trifluoromethylsulfonyl)imide; phases: Liquid
Fixed: Pressure, kPa = 101.3
Property: Refractive index (other wavelength) (Liquid); method: Standard Abbe refractometry
Wavelength, nm	Temperature, K	Refractive index (other wavelength)	uncertainty
632.8	285.034	1.4252	.0001
632.8	287.165	1.4246	.0001
632.8	288.969	1.4242	.0001
632.8	290.281	1.4238	.0001
632.8	291.114	1.4236	.0001
632.8	292.189	1.4233	.0001
632.8	293.157	1.423	.0001
632.8	294.213	1.4227	.0001
632.8	295.176	1.4225	.0001
632.8	297.256	1.4219	.0001

System: 1-propanol; phases: Liquid
Fixed: Pressure, kPa = 101.3
Property: Refractive index (other wavelength) (Liquid); method: Standard Abbe refractometry
Wavelength, nm	Temperature, K	Refractive index (other wavelength)	uncertainty
632.8	284.726	1.387	.0001
632.8	286.914	1.3861	.0001
632.8	288.21	1.3856	.0001
632.8	289.238	1.3851	.0001
632.8	290.257	1.3847	.0001
632.8	291.26	1.3843	.0001
632.8	292.59	1.3837	.0001
632.8	293.688	1.3833	.0001
632.8	296.267	1.3823	.0001

System: 1-propanol + 1-ethyl-3-methylimidazolium bis(trifluoromethylsulfonyl)imide; phases: Liquid mixture 1, Liquid mixture 2
Property: Mole fraction of 1-ethyl-3-methylimidazolium bis(trifluoromethylsulfonyl)imide (Liquid mixture 1); method: Index of refraction calibration data
Temperature, K	Pressure, kPa	Mole fraction of 1-ethyl-3-methylimidazolium bis(trifluoromethylsulfonyl)imide	uncertainty
295.2	101.325	.121	.003
295.197	101.325	.117	.003
295.191	101.325	.115	.003
295.183	101.325	.112	.003
295.167	101.325	.109	.003
295.149	101.325	.105	.003
295.123	101.325	.102	.003
295.092	101.325	.099	.003
295.051	101.325	.096	.003
294.994	101.325	.092	.003
294.945	101.325	.09	.003
294.869	101.325	.087	.003
294.783	101.325	.083	.003
294.695	101.325	.081	.003
294.565	101.325	.077	.003
294.393	101.325	.074	.003
294.202	101.325	.071	.003
294	101.325	.068	.003
293.753	101.325	.064	.003
293.444	101.325	.06	.003
293.061	101.325	.057	.003
292.557	101.325	.053	.003
291.964	101.325	.049	.003
291.25	101.325	.045	.003
290.396	101.325	.041	.003
289.352	101.325	.037	.003
288.349	101.325	.034	.003
287.148	101.325	.031	.003
285.597	101.325	.027	.003
283.646	101.325	.023	.003

System: 1-propanol + 1-ethyl-3-methylimidazolium bis(trifluoromethylsulfonyl)imide; phases: Liquid mixture 2, Liquid mixture 1
Property: Mole fraction of 1-ethyl-3-methylimidazolium bis(trifluoromethylsulfonyl)imide (Liquid mixture 2); method: Index of refraction calibration data
Temperature, K	Pressure, kPa	Mole fraction of 1-ethyl-3-methylimidazolium bis(trifluoromethylsulfonyl)imide	uncertainty
295.2	101.325	.143	.003
295.197	101.325	.145	.003
295.191	101.325	.148	.003
295.183	101.325	.151	.003
295.167	101.325	.156	.003
295.149	101.325	.16	.003
295.123	101.325	.164	.003
295.092	101.325	.169	.003
295.051	101.325	.173	.003
294.994	101.325	.177	.003
294.945	101.325	.181	.003
294.869	101.325	.187	.003
294.783	101.325	.192	.003
294.695	101.325	.196	.003
294.565	101.325	.202	.003
294.393	101.325	.207	.003
294.202	101.325	.215	.003
294	101.325	.223	.003
293.753	101.325	.23	.003
293.444	101.325	.237	.003
293.061	101.325	.246	.003
292.557	101.325	.257	.003
291.964	101.325	.269	.003
291.25	101.325	.283	.003
290.396	101.325	.294	.003
289.352	101.325	.311	.003
288.349	101.325	.324	.003
287.148	101.325	.339	.003
285.597	101.325	.357	.003
283.646	101.325	.377	.003

System: 1-propanol + 1-ethyl-3-methylimidazolium bis(trifluoromethylsulfonyl)imide; phases: Liquid
Fixed: Pressure, kPa = 101
Fixed: Temperature, K = 296.267
Fixed: Wavelength, nm = 6328
Property: Refractive index (other wavelength) (Liquid); method: Standard Abbe refractometry
Mole fraction of 1-ethyl-3-methylimidazolium bis(trifluoromethylsulfonyl)imide	Refractive index (other wavelength)	uncertainty
0	1.3823	.0001
.021	1.3854	.0001
.056	1.3896	.0001
.097	1.3935	.0001
.142	1.3971	.0001
.149	1.3977	.0001
.192	1.4006	.0001
.243	1.4036	.0001
.306	1.4064	.0001
.397	1.4099	.0001
.502	1.4131	.0001
.699	1.4174	.0001
.855	1.4199	.0001
1	1.4222	.0001

System: 1-propanol + 1-ethyl-3-methylimidazolium bis(trifluoromethylsulfonyl)imide; phases: Liquid mixture 1, Liquid mixture 2
Fixed: Pressure, kPa = 101
Property: Heat capacity at constant pressure per volume, J/K/m3 (Liquid mixture 1); method: Differential Scanning Calorimeter
Temperature, K	Heat capacity at constant pressure per volume, J/K/m3	uncertainty
294	2407000	
293	2329000	
292.4	2328000	

System: 1-propanol + 1-ethyl-3-methylimidazolium bis(trifluoromethylsulfonyl)imide; phases: Liquid
Fixed: Pressure, kPa = 101
Fixed: Mole fraction of 1-ethyl-3-methylimidazolium bis(trifluoromethylsulfonyl)imide = .133
Property: Heat capacity at constant pressure per volume, J/K/m3 (Liquid); method: Differential Scanning Calorimeter
Temperature, K	Heat capacity at constant pressure per volume, J/K/m3	uncertainty
331.001	2139000	
330	2134000	
329.006	2135000	
328.005	2133000	
327.005	2131000	
326.004	2129000	
325.003	2124000	
324.002	2125000	
323.002	2124000	
322.001	2121000	
321.001	2117000	
320	2117000	
319	2114000	
318	2113000	
317.005	2111000	
316.005	2108000	
315.004	2108000	
314.003	2103000	
313.002	2103000	
312.002	2102000	
311.001	2098000	
310.001	2097000	
309	2098000	
308	2095000	
307.005	2094000	
306.005	2090000	
305.004	2090000	
304.01	2092000	
303.001	2087000	
302.001	2082000	
301.001	2101000	
300	2103000	
299	2105000	
298.002	2122000	
297.002	2118000	
296.001	2164000	
295.001	2448000	
