Measured thermophysical data. Ternary Liquid Liquid Equilibrium Data for the Water + Acetonitrile + {Butan-1-ol or 2-Methylpropan-1-ol} Systems at (303.2, 323.2, 343.2) K and 1 atm
Source: J. Chem. Eng. Data, 2014, 10.1021/je5007218
Compound 1: water, H2O, purity 99.9%
Compound 2: acetonitrile, C2H3N, purity 99.9%
Compound 3: 1-butanol, C4H10O, purity 99%
Compound 4: 2-methyl-1-propanol, C4H10O, purity 99%

System: water; phases: Liquid
Fixed: Pressure, kPa = 101.325
Property: Refractive index (Na D-line) (Liquid); method: Standard Abbe refractometry
Temperature, K	Refractive index (Na D-line)	uncertainty
293.15	1.33299	.0001

System: acetonitrile; phases: Liquid
Fixed: Pressure, kPa = 101.325
Property: Refractive index (Na D-line) (Liquid); method: Standard Abbe refractometry
Temperature, K	Refractive index (Na D-line)	uncertainty
293.15	1.34386	.0001

System: 1-butanol; phases: Liquid
Fixed: Pressure, kPa = 101.325
Property: Refractive index (Na D-line) (Liquid); method: Standard Abbe refractometry
Temperature, K	Refractive index (Na D-line)	uncertainty
293.15	1.39928	.0001

System: 2-methyl-1-propanol; phases: Liquid
Fixed: Pressure, kPa = 101.325
Property: Refractive index (Na D-line) (Liquid); method: Standard Abbe refractometry
Temperature, K	Refractive index (Na D-line)	uncertainty
293.15	1.39563	.0001

System: 1-butanol + acetonitrile + water; phases: Liquid mixture 1, Liquid mixture 2
Property: Mole fraction of acetonitrile (Liquid mixture 1); method: Chromatography
Property: Mole fraction of water (Liquid mixture 2); method: Chromatography
Property: Mole fraction of acetonitrile (Liquid mixture 2); method: Chromatography
Temperature, K	Pressure, kPa	Mole fraction of water	Mole fraction of acetonitrile	uncertainty	Mole fraction of water	uncertainty	Mole fraction of acetonitrile	uncertainty
303.2	101.325	.511	0	.003	.978	.003	0	.003
343.2	101.325	.69	.05	.003	.948	.003	.022	.003
343.2	101.325	.695	.051	.003	.94	.003	.027	.003
303.2	101.325	.542	.025	.003	.969	.003	.009	.003
343.2	101.325	.786	.06	.003	.912	.003	.037	.003
303.2	101.325	.577	.049	.003	.957	.003	.019	.003
303.2	101.325	.616	.069	.003	.946	.003	.028	.003
303.2	101.325	.659	.084	.003	.935	.003	.036	.003
303.2	101.325	.697	.091	.003	.921	.003	.044	.003
303.2	101.325	.791	.082	.003	.873	.003	.06	.003
323.2	101.325	.543	0	.003	.982	.003	0	.003
323.2	101.325	.589	.034	.003	.965	.003	.012	.003
323.2	101.325	.568	.019	.003	.975	.003	.007	.003
323.2	101.325	.619	.049	.003	.96	.003	.019	.003
323.2	101.325	.662	.066	.003	.947	.003	.027	.003
323.2	101.325	.714	.076	.003	.929	.003	.037	.003
323.2	101.325	.798	.072	.003	.887	.003	.051	.003
343.2	101.325	.581	0	.003	.984	.003	0	.003
343.2	101.325	.612	.017	.003	.972	.003	.006	.003
343.2	101.325	.634	.03	.003	.965	.003	.011	.003

System: acetonitrile + 2-methyl-1-propanol + water; phases: Liquid mixture 1, Liquid mixture 2
Property: Mole fraction of acetonitrile (Liquid mixture 1); method: Chromatography
Property: Mole fraction of water (Liquid mixture 2); method: Chromatography
Property: Mole fraction of acetonitrile (Liquid mixture 2); method: Chromatography
Temperature, K	Pressure, kPa	Mole fraction of water	Mole fraction of acetonitrile	uncertainty	Mole fraction of water	uncertainty	Mole fraction of acetonitrile	uncertainty
303.2	101.325	.45	0	.003	.976	.003	0	.003
343.2	101.325	.585	.034	.003	.968	.003	.011	.003
343.2	101.325	.616	.051	.003	.957	.003	.018	.003
303.2	101.325	.481	.029	.003	.964	.003	.01	.003
343.2	101.325	.644	.061	.003	.95	.003	.023	.003
343.2	101.325	.688	.07	.003	.935	.003	.031	.003
343.2	101.325	.733	.073	.003	.924	.003	.037	.003
303.2	101.325	.547	.077	.003	.943	.003	.028	.003
303.2	101.325	.587	.097	.003	.929	.003	.038	.003
303.2	101.325	.646	.11	.003	.909	.003	.05	.003
303.2	101.325	.686	.111	.003	.893	.003	.058	.003
323.2	101.325	.553	.049	.003	.962	.003	.016	.003
323.2	101.325	.488	0	.003	.976	.003	0	.003
323.2	101.325	.509	.016	.003	.973	.003	.005	.003
323.2	101.325	.52	.032	.003	.965	.003	.011	.003
323.2	101.325	.577	.062	.003	.955	.003	.022	.003
323.2	101.325	.603	.076	.003	.947	.003	.028	.003
323.2	101.325	.645	.088	.003	.932	.003	.036	.003
323.2	101.325	.679	.093	.003	.923	.003	.042	.003
323.2	101.325	.77	.088	.003	.882	.003	.058	.003
343.2	101.325	.542	0	.003	.981	.003	0	.003
343.2	101.325	.554	.012	.003	.977	.003	.004	.003

System: 1-butanol + water; phases: Liquid mixture 1, Liquid mixture 2
Property: Mole fraction of water (Liquid mixture 1); method: Chromatography
Pressure, kPa	Temperature, K	Mole fraction of water	uncertainty
101.325	303.2	.511	.003
101.325	323.2	.543	.003
101.325	343.2	.581	.003

System: 1-butanol + water; phases: Liquid mixture 2, Liquid mixture 1
Property: Mole fraction of water (Liquid mixture 2); method: Chromatography
Pressure, kPa	Temperature, K	Mole fraction of water	uncertainty
101.325	303.2	.978	.003
101.325	323.2	.982	.003
101.325	343.2	.984	.003

System: 2-methyl-1-propanol + water; phases: Liquid mixture 1, Liquid mixture 2
Property: Mole fraction of water (Liquid mixture 1); method: Chromatography
Pressure, kPa	Temperature, K	Mole fraction of water	uncertainty
101.325	303.2	.45	.003
101.325	323.2	.488	.003
101.325	343.2	.542	.003

System: 2-methyl-1-propanol + water; phases: Liquid mixture 2, Liquid mixture 1
Property: Mole fraction of water (Liquid mixture 2); method: Chromatography
Pressure, kPa	Temperature, K	Mole fraction of water	uncertainty
101.325	303.2	.976	.003
101.325	323.2	.976	.003
101.325	343.2	.981	.003
