Measured thermophysical data. Cloud Point Phenomena in the (Aniline or N,N-Dimethylaniline + Water) Solutions, and Cosolvent Effects of Liquid Poly(ethylene glycol) Addition: Experimental Measurements and Modeling
Source: J. Chem. Eng. Data, 2015, 10.1021/je500448j
Compound 1: aniline, C6H7N, purity 99.5%
Compound 2: N,N-dimethylaniline, C8H11N, purity 99%
Compound 3: water, H2O, purity 99.99%

System: aniline; phases: Liquid
Fixed: Pressure, kPa = 101.325
Property: Mass density, kg/m3 (Liquid); method: Vibrating tube method
Temperature, K	Mass density, kg/m3	uncertainty
298.15	1017.39	.01

System: N,N-dimethylaniline; phases: Liquid
Fixed: Pressure, kPa = 101.325
Property: Mass density, kg/m3 (Liquid); method: Vibrating tube method
Temperature, K	Mass density, kg/m3	uncertainty
298.15	952.05	.01

System: aniline + water; phases: Liquid mixture 1, Liquid mixture 2
Fixed: Pressure, kPa = 100
Property: Liquid-liquid equilibrium temperature, K (Liquid mixture 1); method: Visual observation
Mole fraction of water	Liquid-liquid equilibrium temperature, K	uncertainty
.2304	313.15	1
.2376	321.15	1
.2577	329.15	1
.2693	334.15	1
.2868	339.15	1
.2919	343.15	1
.978	341.15	1
.986	333.15	1
.99	326.15	1
.998	312.15	1

System: N,N-dimethylaniline + water; phases: Liquid mixture 1, Liquid mixture 2
Fixed: Pressure, kPa = 100
Property: Liquid-liquid equilibrium temperature, K (Liquid mixture 1); method: Visual observation
Mole fraction of water	Liquid-liquid equilibrium temperature, K	uncertainty
.1313	321.15	.03
.1568	331.15	.03
.1747	340.15	.03
.2015	349.15	.03
.998	351.15	.03
.9991	340.15	.03
.9993	328.15	.03
.9995	312.15	.03
