Measured thermophysical data. Liquid Liquid Equilibrium in Mixtures Containing Propane-1,2,3-triol and Mixtures Containing Vegetable Oils at Atmospheric Pressure
Source: J. Chem. Eng. Data, 2014, 10.1021/je500545s
Compound 1: n-pentane, C5H12, purity 98%
Compound 2: hexane, C6H14, purity 96%
Compound 3: heptane, C7H16, purity 95%
Compound 4: ethyl acetate, C4H8O2, purity 99.5%
Compound 5: 1,2,3-propanetriol, C3H8O3, purity 99.5%
Compound 6: methanol, CH4O, purity 99.8%
Compound 7: ethanol, C2H6O, purity 99.5%

System: 1,2,3-propanetriol + n-pentane; phases: Liquid mixture 1, Liquid mixture 2
Fixed: Pressure, kPa = 100
Property: Mole fraction of n-pentane (Liquid mixture 1); method: Gravimetric
Temperature, K	Mole fraction of n-pentane	uncertainty
298.2	.994	.002
303.2	.993	.002

System: 1,2,3-propanetriol + n-pentane; phases: Liquid mixture 2, Liquid mixture 1
Fixed: Pressure, kPa = 100
Property: Mole fraction of n-pentane (Liquid mixture 2); method: Gravimetric
Temperature, K	Mole fraction of n-pentane	uncertainty
298.2	.013	.002
303.2	.014	.002

System: 1,2,3-propanetriol + hexane; phases: Liquid mixture 1, Liquid mixture 2
Fixed: Pressure, kPa = 100
Property: Mole fraction of hexane (Liquid mixture 1); method: Gravimetric
Temperature, K	Mole fraction of hexane	uncertainty
303.2	.996	.002
313.2	.996	.002
317.2	.995	.002
322.2	.995	.002
327.2	.995	.002
331.2	.995	.002
335.2	.994	.002
338.2	.994	.002

System: 1,2,3-propanetriol + hexane; phases: Liquid mixture 2, Liquid mixture 1
Fixed: Pressure, kPa = 100
Property: Mole fraction of hexane (Liquid mixture 2); method: Gravimetric
Temperature, K	Mole fraction of hexane	uncertainty
303.2	.012	.002
313.2	.013	.002
317.2	.014	.002
322.2	.013	.002
327.2	.014	.002
331.2	.015	.002
335.2	.016	.002
338.2	.016	.002

System: 1,2,3-propanetriol + heptane; phases: Liquid mixture 1, Liquid mixture 2
Fixed: Pressure, kPa = 100
Property: Mole fraction of heptane (Liquid mixture 1); method: Gravimetric
Temperature, K	Mole fraction of heptane	uncertainty
308.2	.996	.002
313.2	.997	.002
323.2	.997	.002
328.2	.996	.002
333.2	.996	.002

System: 1,2,3-propanetriol + heptane; phases: Liquid mixture 2, Liquid mixture 1
Fixed: Pressure, kPa = 100
Property: Mole fraction of heptane (Liquid mixture 2); method: Gravimetric
Temperature, K	Mole fraction of heptane	uncertainty
308.2	.01	.002
313.2	.01	.002
323.2	.01	.002
328.2	.011	.002
333.2	.011	.002

System: 1,2,3-propanetriol + ethyl acetate; phases: Liquid mixture 1, Liquid mixture 2
Fixed: Pressure, kPa = 100
Property: Mole fraction of ethyl acetate (Liquid mixture 1); method: Gravimetric
Temperature, K	Mole fraction of ethyl acetate	uncertainty
303.2	.988	.002
308.2	.987	.002
313.2	.985	.002
319.2	.983	.002
323.2	.978	.002
325.2	.979	.002
334.2	.97	.002
343.2	.966	.002
348.2	.962	.002

System: 1,2,3-propanetriol + ethyl acetate; phases: Liquid mixture 2, Liquid mixture 1
Fixed: Pressure, kPa = 100
Property: Mole fraction of ethyl acetate (Liquid mixture 2); method: Gravimetric
Temperature, K	Mole fraction of ethyl acetate	uncertainty
303.2	.045	.002
308.2	.046	.002
313.2	.048	.002
319.2	.049	.002
323.2	.049	.002
325.2	.05	.002
334.2	.052	.002
343.2	.053	.002
348.2	.054	.002

System: 1,2,3-propanetriol + methanol + ethyl acetate; phases: Liquid mixture 1, Liquid mixture 2
Fixed: Pressure, kPa = 100
Property: Mole fraction of methanol (Liquid mixture 1); method: Titration method
Temperature, K	Mole fraction of ethyl acetate	Mole fraction of methanol	uncertainty
303.2	.943	.045	.002
303.2	.898	.088	.002
303.2	.8	.179	.002
303.2	.717	.251	.002
303.2	.637	.309	.002
303.2	.521	.378	.002
303.2	.415	.423	.002
303.2	.336	.447	.002
303.2	.27	.458	.002
303.2	.203	.46	.002
303.2	.144	.449	.002
303.2	.108	.424	.002
303.2	.091	.386	.002
303.2	.07	.354	.002
303.2	.054	.312	.002
303.2	.047	.228	.002
313.2	.888	.092	.002
313.2	.811	.163	.002
313.2	.701	.256	.002
313.2	.598	.325	.002
313.2	.482	.389	.002
313.2	.383	.426	.002
313.2	.3	.441	.002
313.2	.236	.448	.002
313.2	.196	.448	.002
313.2	.153	.44	.002
313.2	.114	.413	.002
313.2	.095	.384	.002
313.2	.073	.348	.002
313.2	.065	.313	.002
313.2	.058	.267	.002
313.2	.054	.22	.002
323.2	.826	.137	.002
323.2	.714	.233	.002
323.2	.608	.313	.002
323.2	.479	.383	.002
323.2	.392	.418	.002
323.2	.341	.43	.002
323.2	.295	.434	.002
323.2	.217	.439	.002
323.2	.21	.438	.002
323.2	.184	.434	.002
323.2	.153	.422	.002
323.2	.124	.404	.002
323.2	.104	.373	.002
323.2	.075	.322	.002
323.2	.069	.282	.002
323.2	.058	.24	.002

System: 1,2,3-propanetriol + ethanol + ethyl acetate; phases: Liquid mixture 1, Liquid mixture 2
Fixed: Pressure, kPa = 100
Property: Mole fraction of ethanol (Liquid mixture 1); method: Titration method
Temperature, K	Mole fraction of ethyl acetate	Mole fraction of ethanol	uncertainty
303.2	.966	.028	.002
303.2	.849	.134	.002
303.2	.778	.189	.002
303.2	.688	.262	.002
303.2	.559	.346	.002
303.2	.475	.378	.002
303.2	.431	.39	.002
303.2	.365	.392	.002
303.2	.319	.383	.002
303.2	.272	.38	.002
303.2	.225	.372	.002
303.2	.184	.36	.002
303.2	.157	.343	.002
303.2	.124	.317	.002
303.2	.082	.285	.002
303.2	.053	.233	.002
313.2	.958	.022	.002
313.2	.84	.128	.002
313.2	.74	.21	.002
313.2	.541	.338	.002
313.2	.46	.367	.002
313.2	.423	.373	.002
313.2	.348	.374	.002
313.2	.303	.37	.002
313.2	.257	.362	.002
313.2	.2	.348	.002
313.2	.163	.332	.002
313.2	.133	.314	.002
313.2	.115	.292	.002
313.2	.096	.264	.002
313.2	.074	.219	.002
313.2	.057	.1	.002
323.2	.664	.254	.002
323.2	.541	.325	.002
323.2	.404	.351	.002
323.2	.379	.351	.002
323.2	.316	.347	.002
323.2	.258	.336	.002
323.2	.21	.329	.002
323.2	.183	.318	.002
323.2	.163	.308	.002
323.2	.145	.293	.002
323.2	.128	.276	.002
323.2	.115	.256	.002
323.2	.107	.247	.002
323.2	.093	.224	.002
323.2	.066	.156	.002
323.2	.058	.099	.002
