Measured thermophysical data. Measurement and Thermodynamic Modeling Study on Solid and Liquid Equilibrium of Ternary System NaBr CaBr2 H2O at 288.15 K
Source: J. Chem. Eng. Data, 2014, 10.1021/je500881x
Compound 1: sodium bromide, BrNa, purity 99%
Compound 2: calcium bromide, Br2Ca, purity 98%
Compound 3: water, H2O, purity 99.9%

System: sodium bromide + water + calcium bromide; phases: Liquid, Crystal of intercomponent compound 1
Fixed: Pressure, kPa = 101
Fixed: Temperature, K = 288.15
Property: Mass fraction of sodium bromide (Liquid); method: Titration method
Mass fraction of calcium bromide	Mass fraction of sodium bromide	uncertainty
0	.4704	.006
.0391	.4302	.006
.0849	.3853	.006
.1127	.3527	.006
.1437	.3256	.006
.1671	.3079	.006
.1825	.2876	.006
.2111	.2605	.006
.2353	.2362	.006
.2694	.2059	.006
.309	.1675	.006
.3527	.1327	.006
.3924	.1122	.006
.3959	.105	.006
.4332	.0893	.006
.4634	.0681	.006

System: sodium bromide + water + calcium bromide; phases: Liquid, Crystal
Fixed: Pressure, kPa = 101
Fixed: Temperature, K = 288.15
Property: Mass fraction of sodium bromide (Liquid); method: Titration method
Mass fraction of calcium bromide	Mass fraction of sodium bromide	uncertainty
.5205	.0335	.006
.5309	.0284	.006
.5355	.0262	.006
.5449	.0182	.006
.5511	.0195	.006
.5614	.0183	.006
.5656	.016	.006

System: sodium bromide + water + calcium bromide; phases: Liquid, Crystal of intercomponent compound 2
Fixed: Pressure, kPa = 101
Fixed: Temperature, K = 288.15
Property: Mass fraction of sodium bromide (Liquid); method: Titration method
Mass fraction of calcium bromide	Mass fraction of sodium bromide	uncertainty
.5755	.0048	.006
.5794	0	.006

System: sodium bromide + water + calcium bromide; phases: Liquid, Crystal, Crystal of intercomponent compound 2
Fixed: Pressure, kPa = 101
Property: Mass fraction of sodium bromide (Liquid); method: Titration method
Temperature, K	Mass fraction of sodium bromide	uncertainty
288.15	.0092	.006

System: sodium bromide + water + calcium bromide; phases: Liquid, Crystal, Crystal of intercomponent compound 2
Fixed: Pressure, kPa = 101
Property: Mass fraction of calcium bromide (Liquid); method: Titration method
Temperature, K	Mass fraction of calcium bromide	uncertainty
288.15	.5728	.003

System: sodium bromide + water + calcium bromide; phases: Liquid, Crystal, Crystal of intercomponent compound 1
Fixed: Pressure, kPa = 101
Property: Mass fraction of calcium bromide (Liquid); method: Titration method
Temperature, K	Mass fraction of calcium bromide	uncertainty
288.15	.4952	.003

System: sodium bromide + water + calcium bromide; phases: Liquid, Crystal, Crystal of intercomponent compound 1
Fixed: Pressure, kPa = 101
Property: Mass fraction of sodium bromide (Liquid); method: Titration method
Temperature, K	Mass fraction of sodium bromide	uncertainty
288.15	.049	.006

System: sodium bromide + water + calcium bromide; phases: Liquid
Fixed: Pressure, kPa = 101
Fixed: Temperature, K = 288.15
Property: Refractive index (Na D-line) (Liquid); method: Standard Abbe refractometry
Mass fraction of calcium bromide	Mass fraction of sodium bromide	Refractive index (Na D-line)	uncertainty
0	.4704	1.4196	.0001
.0391	.4302	1.4199	.0001
.0849	.3853	1.4262	.0001
.1127	.3527	1.4253	.0001
.1437	.3256	1.4332	.0001
.1671	.3079	1.4312	.0001
.1825	.2876	1.432	.0001
.2111	.2605	1.4348	.0001
.2353	.2362	1.437	.0001
.2694	.2059	1.4371	.0001
.309	.1675	1.4428	.0001
.3527	.1327	1.4523	.0001
.3924	.1122	1.462	.0001
.3959	.105	1.4611	.0001
.4332	.0893	1.4667	.0001
.4634	.0681	1.4723	.0001
.4952	.049	1.4772	.0001
.5205	.0335	1.4843	.0001
.5309	.0284	1.4792	.0001
.5355	.0262	1.4798	.0001
.5449	.0182	1.4864	.0001
.5511	.0195	1.4882	.0001
.5614	.0183	1.489	.0001
.5656	.016	1.4895	.0001
.5728	.0092	1.4907	.0001
.5755	.0048	1.4899	.0001
.5794	0	1.4892	.0001

System: sodium bromide + water; phases: Liquid, Crystal of intercomponent compound 1
Property: Mass fraction of sodium bromide (Liquid); method: Titration method
Pressure, kPa	Temperature, K	Mass fraction of sodium bromide	uncertainty
101	288.15	.4704	.006

System: sodium bromide + water; phases: Liquid
Property: Refractive index (Na D-line) (Liquid); method: Standard Abbe refractometry
Mass fraction of sodium bromide	Pressure, kPa	Temperature, K	Refractive index (Na D-line)	uncertainty
.4704	101	288.15	1.4196	.0001

System: water + calcium bromide; phases: Liquid, Crystal of intercomponent compound 2
Property: Mass fraction of calcium bromide (Liquid); method: Titration method
Pressure, kPa	Temperature, K	Mass fraction of calcium bromide	uncertainty
101	288.15	.5794	.003

System: water + calcium bromide; phases: Liquid
Property: Refractive index (Na D-line) (Liquid); method: Standard Abbe refractometry
Mass fraction of calcium bromide	Pressure, kPa	Temperature, K	Refractive index (Na D-line)	uncertainty
.5794	101	288.15	1.4892	.0001
