Measured thermophysical data. Liquid Liquid Equilibria at Three Temperatures (between 280.15 K and 333.15 K) of Binary, Ternary, and Quaternary Systems Involving Monoethylene Glycol, Water, Cyclohexane, para-Xylene, trans- and cis-Dimethylcyclohexane, and trans- and cis-Decahydronaphthalene
Source: J. Chem. Eng. Data, 2014, 10.1021/je500625r
Compound 1: water, H2O, purity 99.9%
Compound 2: ethylene glycol, C2H6O2, purity 99.5%
Compound 3: cis-1,2-dimethylcyclohexane, C8H16, purity 98%
Compound 4: trans-1,2-dimethylcyclohexane, C8H16, purity 98%
Compound 5: trans-decalin, C10H18, purity 99%
Compound 6: cis-decalin, C10H18, purity 99%
Compound 7: cyclohexane, C6H12, purity 99%
Compound 8: p-xylene, C8H10, purity 99%

System: ethylene glycol + cyclohexane + water; phases: Liquid mixture 1, Liquid mixture 2
Fixed: Pressure, kPa = 101
Property: Mole fraction of cyclohexane (Liquid mixture 1); method: Chromatography
Property: Mole fraction of cyclohexane (Liquid mixture 2); method: Chromatography
Property: Mole fraction of ethylene glycol (Liquid mixture 2); method: Chromatography
Temperature, K	Mole fraction of ethylene glycol	Mole fraction of cyclohexane	uncertainty	Mole fraction of cyclohexane	uncertainty	Mole fraction of ethylene glycol	uncertainty
333.15	.0677	.0000335	.00003	.9983937	.00003	.0000263	.00003
333.15	.99238	.00762	.00003	.999477	.00003	.000523	.00003
303.15	.99526	.00474	.00003	.999866	.00003	.000134	.00003
280.15	.99628	.00372	.00003	.9999739	.00003	.0000261	.00003
280.15	.0678	.0000206	.00003	.99988083	.00003	.00000317	.00003
303.15	.0678	.0000275	.00003	.99955163	.00003	.00000637	.00003
303.15	.3033	.000145	.00003	.9996195	.00003	.0000335	.00003
333.15	.3033	.000303	.00003	.998966	.00003	.000161	.00003
280.15	.3034	.0000992	.00003	.99992313	.00003	.00000777	.00003
333.15	.5371	.00115	.00003	.998935	.00003	.000352	.00003
303.15	.5373	.000681	.00003	.9997157	.00003	.0000873	.00003
280.15	.5375	.000448	.00003	.999942	.00003	.000018	.00003

System: p-xylene + ethylene glycol + water; phases: Liquid mixture 1, Liquid mixture 2
Fixed: Pressure, kPa = 101
Property: Mole fraction of p-xylene (Liquid mixture 1); method: Chromatography
Property: Mole fraction of ethylene glycol (Liquid mixture 2); method: Chromatography
Property: Mole fraction of p-xylene (Liquid mixture 2); method: Chromatography
Temperature, K	Mole fraction of ethylene glycol	Mole fraction of p-xylene	uncertainty	Mole fraction of ethylene glycol	uncertainty	Mole fraction of p-xylene	uncertainty
288.15	.0679	.000051	.00003	.000057	.00003	.00116	.00003
333.15	.9875	.0125	.00003	.0048	.00003	0	.00003
303.15	.9899	.0101	.00003	.00186	.00003	0	.00003
288.15	.99081	.00919	.00003	.00108	.00003	0	.00003
303.15	.0679	.000059	.00003	.000081	.00003	.00255	.00003
333.15	.0679	.000103	.00003	.00023	.00003	.00569	.00003
303.15	.3025	.000366	.00003	.000487	.00003	.00181	.00003
333.15	.3025	.000645	.00003	.00114	.00003	.00393	.00003
288.15	.3026	.000281	.00003	.000283	.00003	.000918	.00003
333.15	.5361	.00247	.00003	.00234	.00003	.00214	.00003
303.15	.5366	.00163	.00003	.000862	.00003	.00125	.00003
288.15	.537	.00137	.00003	.000544	.00003	.000734	.00003

System: cis-1,2-dimethylcyclohexane + trans-1,2-dimethylcyclohexane + water; phases: Liquid mixture 1, Liquid mixture 2
Fixed: Pressure, kPa = 101
Property: Mole fraction of trans-1,2-dimethylcyclohexane (Liquid mixture 1); method: Chromatography
Property: Mole fraction of cis-1,2-dimethylcyclohexane (Liquid mixture 2); method: Chromatography
Property: Mole fraction of trans-1,2-dimethylcyclohexane (Liquid mixture 2); method: Chromatography
Temperature, K	Mole fraction of cis-1,2-dimethylcyclohexane	Mole fraction of trans-1,2-dimethylcyclohexane	uncertainty	Mole fraction of cis-1,2-dimethylcyclohexane	uncertainty	Mole fraction of trans-1,2-dimethylcyclohexane	uncertainty
283.15	.000000781	.000000136	.00000000136	.826	.00826	.174	.00174
303.15	.000000823	.00000014	.0000000014	.825	.00825	.174	.00174
333.15	.00000127	.000000212	.00000000212	.826	.00826	.174	.00174

System: ethylene glycol + cis-1,2-dimethylcyclohexane + trans-1,2-dimethylcyclohexane; phases: Liquid mixture 1, Liquid mixture 2
Fixed: Pressure, kPa = 101
Property: Mole fraction of trans-1,2-dimethylcyclohexane (Liquid mixture 1); method: Chromatography
Property: Mole fraction of cis-1,2-dimethylcyclohexane (Liquid mixture 2); method: Chromatography
Property: Mole fraction of trans-1,2-dimethylcyclohexane (Liquid mixture 2); method: Chromatography
Temperature, K	Mole fraction of cis-1,2-dimethylcyclohexane	Mole fraction of trans-1,2-dimethylcyclohexane	uncertainty	Mole fraction of cis-1,2-dimethylcyclohexane	uncertainty	Mole fraction of trans-1,2-dimethylcyclohexane	uncertainty
283.15	.000782	.000137	.00000137	.826	.00826	.174	.00174
303.15	.00122	.000217	.00000217	.826	.00826	.174	.00174
333.15	.00181	.000318	.00000318	.825	.00825	.174	.00174

System: cis-decalin + trans-decalin + water; phases: Liquid mixture 1, Liquid mixture 2
Fixed: Pressure, kPa = 101
Property: Mole fraction of cis-decalin (Liquid mixture 1); method: Chromatography
Property: Mole fraction of trans-decalin (Liquid mixture 2); method: Chromatography
Property: Mole fraction of cis-decalin (Liquid mixture 2); method: Chromatography
Temperature, K	Mole fraction of trans-decalin	Mole fraction of cis-decalin	uncertainty	Mole fraction of trans-decalin	uncertainty	Mole fraction of cis-decalin	uncertainty
283.15	.0000000643	.0000000484	.000000000484	.5982	.005982	.4013	.004013
303.15	.0000000686	.0000000539	.000000000539	.598	.00598	.4012	.004012
333.15	.000000102	.0000000888	.000000000888	.5975	.005975	.4008	.004008

System: ethylene glycol + cis-decalin + trans-decalin; phases: Liquid mixture 1, Liquid mixture 2
Fixed: Pressure, kPa = 101
Property: Mole fraction of trans-decalin (Liquid mixture 1); method: Chromatography
Property: Mole fraction of cis-decalin (Liquid mixture 2); method: Chromatography
Property: Mole fraction of trans-decalin (Liquid mixture 2); method: Chromatography
Temperature, K	Mole fraction of cis-decalin	Mole fraction of trans-decalin	uncertainty	Mole fraction of cis-decalin	uncertainty	Mole fraction of trans-decalin	uncertainty
283.15	.000129	.000173	.00000173	.4015		.5985	
303.15	.000251	.000346	.00000346	.4014		.5984	
333.15	.000443	.000606	.00000606	.4012		.5981	
