Measured thermophysical data. Liquid Viscosity and Surface Tension of R1234yf and R1234ze Under Saturation Conditions by Surface Light Scattering
Source: J. Chem. Eng. Data, 2014, 10.1021/je5001457
Compound 1: 2,3,3,3-tetrafluoroprop-1-ene, C3H2F4, purity 99.9%
Compound 2: trans-1,3,3,3-tetrafluoropropene, C3H2F4, purity 99.9%
Compound 3: 1,1,1,2-tetrafluoroethane, C2H2F4, purity 99.9%

System: 2,3,3,3-tetrafluoroprop-1-ene; phases: Liquid, Gas
Property: Kinematic viscosity, m2/s (Liquid); method: light scattering
Temperature, K	Kinematic viscosity, m2/s	uncertainty
293.15	.0000001442	.000000002884
303.09	.0000001319	.000000002638
313.2	.0000001223	.000000002446
323.19	.0000001126	.000000002252
333.14	.0000001016	.000000002032
343.11	.0000000899	.000000001798
353.08	.000000082	.00000000164
358.05	.000000077	.00000000154
363.05	.00000007	.0000000014
365.05	.0000000624	.000000001248

System: 2,3,3,3-tetrafluoroprop-1-ene; phases: Liquid, Gas
Property: Surface tension liquid-gas, N/m (Liquid); method: light scattering
Temperature, K	Surface tension liquid-gas, N/m	uncertainty
293.15	.00682	.0001023
303.09	.00571	.00008565
313.2	.0046	.000069
323.19	.00355	.00005325
333.14	.00255	.00003825
343.11	.00164	.0000246
353.08	.00081	.00001215
358.05	.00046	.0000069
363.05	.00015	.00000225
365.05	.00005	.00000075

System: trans-1,3,3,3-tetrafluoropropene; phases: Liquid, Gas
Property: Kinematic viscosity, m2/s (Liquid); method: surface light scattering
Temperature, K	Kinematic viscosity, m2/s	uncertainty
295.23	.0000001776	.000000003552
303.19	.0000001607	.000000003214
313.21	.0000001429	.000000002858
323.19	.0000001319	.000000002638
333	.0000001193	.000000002386
343.05	.0000001132	.000000002264
353	.0000001051	.000000002102
363.12	.0000000924	.000000001848
373.14	.0000000817	.000000001634

System: trans-1,3,3,3-tetrafluoropropene; phases: Liquid, Gas
Property: Surface tension liquid-gas, N/m (Liquid); method: surface light scattering
Temperature, K	Surface tension liquid-gas, N/m	uncertainty
295.23	.00888	.0001332
303.19	.00791	.00011865
313.21	.00666	.0000999
323.19	.00548	.0000822
333	.00436	.0000654
343.05	.0033	.0000495
353	.00226	.0000339
363.12	.00135	.00002025
373.14	.00054	.0000081

System: 1,1,1,2-tetrafluoroethane; phases: Liquid, Gas
Property: Kinematic viscosity, m2/s (Liquid); method: surface light scattering
Temperature, K	Kinematic viscosity, m2/s	uncertainty
302.99	.0000001549	.000000003098
312.86	.0000001409	.000000002818
322.92	.0000001277	.000000002554
332.92	.0000001167	.000000002334
342.9	.0000001069	.000000002138
352.89	.0000000979	.000000001958
363.27	.0000000856	.000000001712
368.26	.000000079	.00000000158

System: 1,1,1,2-tetrafluoroethane; phases: Liquid, Gas
Property: Surface tension liquid-gas, N/m (Liquid); method: surface light scattering
Temperature, K	Surface tension liquid-gas, N/m	uncertainty
302.99	.00745	.00011175
312.86	.00619	.00009285
322.92	.00495	.00007425
332.92	.00379	.00005685
342.9	.00268	.0000402
352.89	.00165	.00002475
363.27	.00073	.00001095
368.26	.00034	.0000051
