Measured thermophysical data. Isothermal Vapor-liquid Equilibrium of the ternary mixture of 1,1,1,2-tetrafluoroethane + 2,3,3,3-tetrafluoroprop-1- ene + dimethylether at temperatures from 253.15 to 323.15 K
Source: J. Chem. Eng. Data, 2015, 10.1021/je501167d
Compound 1: 1,1,1,2-tetrafluoroethane, C2H2F4, purity 99.96%
Compound 2: 2,3,3,3-tetrafluoroprop-1-ene, C3H2F4, purity 99.99%
Compound 3: dimethyl ether, C2H6O, purity 99.5%

System: dimethyl ether + 2,3,3,3-tetrafluoroprop-1-ene + 1,1,1,2-tetrafluoroethane; phases: Liquid mixture 1, Gas
Property: Mole fraction of 1,1,1,2-tetrafluoroethane (Liquid mixture 1); method: Chromatography
Property: Mole fraction of 2,3,3,3-tetrafluoroprop-1-ene (Gas); method: Chromatography
Property: Mole fraction of 1,1,1,2-tetrafluoroethane (Gas); method: Chromatography
Temperature, K	Pressure, kPa	Mole fraction of 2,3,3,3-tetrafluoroprop-1-ene	Mole fraction of 1,1,1,2-tetrafluoroethane	uncertainty	Mole fraction of 2,3,3,3-tetrafluoroprop-1-ene	uncertainty	Mole fraction of 1,1,1,2-tetrafluoroethane	uncertainty
253.15	167.3	.8217	.0655	.003	.8496	.003	.0694	.003
263.15	220	.5629	.0996	.003	.6227	.003	.0973	.003
273.15	328.1	.8288	.0641	.003	.8488	.003	.0706	.003
273.15	305.4	.2814	.3559	.003	.3474	.003	.3601	.003
273.15	297.7	.196	.335	.003	.2545	.003	.3409	.003
273.15	330.2	.7522	.0773	.003	.7758	.003	.0899	.003
273.15	309.9	.5699	.0927	.003	.6356	.003	.0905	.003
283.15	447.5	.8295	.0641	.003	.8548	.003	.0696	.003
283.15	420.6	.2892	.3559	.003	.3401	.003	.3617	.003
283.15	409.8	.1982	.3369	.003	.2514	.003	.3447	.003
283.15	449.8	.7562	.0715	.003	.7888	.003	.0756	.003
253.15	151.9	.2795	.3503	.003	.3608	.003	.353	.003
283.15	426.8	.5795	.0918	.003	.6368	.003	.0917	.003
293.15	598.7	.8336	.0648	.003	.8577	.003	.0678	.003
293.15	568.4	.2953	.3589	.003	.3391	.003	.3625	.003
293.15	551.6	.2032	.3403	.003	.2509	.003	.3509	.003
293.15	582	.7635	.07	.003	.7993	.003	.0733	.003
293.15	575.8	.5851	.0923	.003	.6376	.003	.0931	.003
303.15	772.5	.8326	.0621	.003	.846	.003	.0697	.003
303.15	742	.2969	.3635	.003	.3515	.003	.3517	.003
303.15	730.4	.2057	.3514	.003	.2425	.003	.3564	.003
303.15	761.9	.7762	.0713	.003	.7973	.003	.0838	.003
253.15	149.1	.1932	.3322	.003	.264	.003	.3273	.003
303.15	747.9	.6	.1016	.003	.637	.003	.1043	.003
313.15	966.3	.3138	.3039	.003	.3707	.003	.2995	.003
313.15	1015.6	.8426	.061	.003	.8537	.003	.0726	.003
313.15	1042.7	.6036	.2036	.003	.6493	.003	.2207	.003
313.15	954.7	.2885	.3636	.003	.3625	.003	.3567	.003
313.15	928.6	.2178	.3696	.003	.2729	.003	.3672	.003
313.15	992.7	.7832	.0709	.003	.801	.003	.0814	.003
313.15	967.6	.6166	.0995	.003	.667	.003	.1045	.003
323.15	1301.9	.6006	.2082	.003	.6298	.003	.2216	.003
323.15	1230.3	.2975	.3668	.003	.3568	.003	.3678	.003
253.15	166.5	.7374	.0811	.003	.7881	.003	.0846	.003
323.15	1276.2	.7907	.0797	.003	.8057	.003	.089	.003
253.15	152.5	.5616	.0997	.003	.624	.003	.0961	.003
263.15	237.6	.8277	.0647	.003	.8474	.003	.0694	.003
263.15	217.5	.285	.3539	.003	.352	.003	.3582	.003
263.15	212.3	.1927	.3352	.003	.2582	.003	.3345	.003
263.15	236.5	.7447	.0816	.003	.7852	.003	.0845	.003
