Measured thermophysical data. Liquid Liquid Equilibrium for the Ternary System of Water + Acetone + Dihydromyrcenol at 358 K to 368 K under 0.8 MPa
Source: J. Chem. Eng. Data, 2015, 10.1021/je501089z
Compound 1: acetone, C3H6O, purity 99.5%
Compound 2: dihydromyrcenol, C10H20O, purity 99.5%
Compound 3: ethanol, C2H6O, purity 99.7%
Compound 4: cyclohexanone, C6H10O, purity 99.5%
Compound 5: n-propanol, C3H8O, purity 99.8%
Compound 6: water, H2O, purity 99.9%

System: acetone + water + dihydromyrcenol; phases: Liquid mixture 1, Liquid mixture 2
Fixed: Pressure, kPa = 800
Property: Mole fraction of acetone (Liquid mixture 1); method: Chromatography
Property: Mole fraction of acetone (Liquid mixture 2); method: Chromatography
Property: Mole fraction of dihydromyrcenol (Liquid mixture 2); method: Chromatography
Temperature, K	Mole fraction of dihydromyrcenol	Mole fraction of acetone	uncertainty	Mole fraction of acetone	uncertainty	Mole fraction of dihydromyrcenol	uncertainty
358	.7306	.0619	.001238	.0066	.000132	.00015	.0000075
368	.3726	.3638	.007276	.0572	.001144	.00056	.000028
368	.2638	.4133	.008266	.0793	.001586	.00082	.000041
358	.5898	.1889	.003778	.0226	.000452	.00017	.0000085
368	.1689	.4021	.008042	.0957	.001914	.0012	.00006
368	.0957	.3423	.006846	.153	.00306	.00259	.0001295
358	.4699	.3078	.006156	.0424	.000848	.00032	.000016
358	.3704	.3656	.007312	.0577	.001154	.00053	.0000265
358	.2764	.4169	.008338	.0854	.001708	.00089	.0000445
358	.1941	.4376	.008752	.107	.00214	.00135	.0000675
358	.1231	.4088	.008176	.1346	.002692	.00276	.000138
363	.4702	.294	.00588	.0385	.00077	.00027	.0000135
363	.7553	.0497	.000994	.005	.0001	.00011	.0000055
363	.5982	.1959	.003918	.0226	.000452	.00019	.0000095
363	.3764	.3668	.007336	.0583	.001166	.00055	.0000275
363	.2764	.4241	.008482	.081	.00162	.00081	.0000405
363	.1905	.435	.0087	.1035	.00207	.00145	.0000725
363	.1091	.38	.0076	.1344	.002688	.00287	.0001435
368	.7465	.0577	.001154	.0053	.000106	.00011	.0000055
368	.574	.2134	.004268	.0244	.000488	.0002	.00001
368	.4667	.3053	.006106	.0396	.000792	.00036	.000018
