Measured thermophysical data. Density, Refractive Index, and Speed of Sound of the Binary Mixture of 1-Butyl-3-methylimidazolium Tetrafluoroborate + N-Vinyl-2-pyrrolidinone from T = (298.15 to 323.15) K at Atmospheric Pressure
Source: J. Chem. Eng. Data, 2015, 10.1021/je500936y
Compound 1: 1-butyl-3-methylimidazolium tetrafluoroborate, C8H15BF4N2, purity 99%
Compound 2: N-vinylpyrrolidone, C6H9NO, purity 97%

System: 1-butyl-3-methylimidazolium tetrafluoroborate; phases: Liquid
Property: Mass density, kg/m3 (Liquid); method: Vibrating tube method
Temperature, K	Pressure, kPa	Mass density, kg/m3	uncertainty
298.15	100	1198.78	.007
303.15	100	1195.18	.007
308.15	100	1191.6	.007
313.15	100	1188.04	.007
318.15	100	1184.5	.007
323.15	100	1180.98	.007

System: 1-butyl-3-methylimidazolium tetrafluoroborate; phases: Liquid
Property: Refractive index (Na D-line) (Liquid); method: Standard Abbe refractometry
Temperature, K	Pressure, kPa	Refractive index (Na D-line)	uncertainty
298.15	100	1.42058	.0004
303.15	100	1.41913	.0004
308.15	100	1.41764	.0004
313.15	100	1.41621	.0004
318.15	100	1.41472	.0004
323.15	100	1.4133	.0004

System: 1-butyl-3-methylimidazolium tetrafluoroborate; phases: Liquid
Fixed: Frequency, MHz = 3
Property: Speed of sound, m/s (Liquid); method: Sing-around technique in a fixed-path interferometer
Temperature, K	Pressure, kPa	Speed of sound, m/s	uncertainty
298.15	100	1565.09	.05
303.15	100	1553.15	.05
308.15	100	1541.35	.05
313.15	100	1529.69	.05
318.15	100	1518.19	.05
323.15	100	1506.8	.05

System: N-vinylpyrrolidone; phases: Liquid
Property: Mass density, kg/m3 (Liquid); method: Vibrating tube method
Temperature, K	Pressure, kPa	Mass density, kg/m3	uncertainty
298.15	100	1039.36	.007
303.15	100	1034.95	.007
308.15	100	1030.55	.007
313.15	100	1026.14	.007
318.15	100	1021.73	.007
323.15	100	1017.33	.007

System: N-vinylpyrrolidone; phases: Liquid
Property: Refractive index (Na D-line) (Liquid); method: Standard Abbe refractometry
Temperature, K	Pressure, kPa	Refractive index (Na D-line)	uncertainty
298.15	100	1.51119	.0004
303.15	100	1.50886	.0004
308.15	100	1.5065	.0004
313.15	100	1.50415	.0004
318.15	100	1.50181	.0004
323.15	100	1.49948	.0004

System: N-vinylpyrrolidone; phases: Liquid
Fixed: Frequency, MHz = 3
Property: Speed of sound, m/s (Liquid); method: Sing-around technique in a fixed-path interferometer
Temperature, K	Pressure, kPa	Speed of sound, m/s	uncertainty
298.15	100	1521.47	.05
303.15	100	1502.52	.05
308.15	100	1483.68	.05
313.15	100	1464.98	.05
318.15	100	1446.48	.05
323.15	100	1428.1	.05

System: N-vinylpyrrolidone + 1-butyl-3-methylimidazolium tetrafluoroborate; phases: Liquid
Fixed: Pressure, kPa = 100
Property: Mass density, kg/m3 (Liquid); method: Vibrating tube method
Temperature, K	Mole fraction of 1-butyl-3-methylimidazolium tetrafluoroborate	Mass density, kg/m3	uncertainty
298.15	0	1039.36	.007
298.15	.1046	1069.96	.007
298.15	.2035	1093.11	.007
298.15	.3042	1113.53	.007
298.15	.406	1131.03	.007
298.15	.4945	1144.21	.007
298.15	.607	1159.22	.007
298.15	.697	1170.1	.007
298.15	.7828	1179.78	.007
298.15	.9104	1191.59	.007
298.15	1	1198.78	.007
303.15	0	1034.95	.007
303.15	.1046	1065.76	.007
303.15	.2035	1089.01	.007
303.15	.3042	1109.53	.007
303.15	.406	1127.12	.007
303.15	.4945	1140.37	.007
303.15	.607	1155.45	.007
303.15	.697	1166.39	.007
303.15	.7828	1176.14	.007
303.15	.9104	1187.99	.007
303.15	1	1195.18	.007
308.15	0	1030.55	.007
308.15	.1046	1061.54	.007
308.15	.2035	1084.92	.007
308.15	.3042	1105.54	.007
308.15	.406	1123.22	.007
308.15	.4945	1136.54	.007
308.15	.607	1151.7	.007
308.15	.697	1162.69	.007
308.15	.7828	1172.5	.007
308.15	.9104	1184.4	.007
308.15	1	1191.6	.007
313.15	0	1026.14	.007
313.15	.1046	1057.33	.007
313.15	.2035	1080.83	.007
313.15	.3042	1101.56	.007
313.15	.406	1119.32	.007
313.15	.4945	1132.74	.007
313.15	.607	1147.96	.007
313.15	.697	1159.01	.007
313.15	.7828	1168.89	.007
313.15	.9104	1180.83	.007
313.15	1	1188.04	.007
318.15	0	1021.73	.007
318.15	.1046	1053.13	.007
318.15	.2035	1076.75	.007
318.15	.3042	1097.59	.007
318.15	.406	1115.44	.007
318.15	.4945	1128.96	.007
318.15	.607	1144.25	.007
318.15	.697	1155.36	.007
318.15	.7828	1165.3	.007
318.15	.9104	1177.29	.007
318.15	1	1184.5	.007
323.15	0	1017.33	.007
323.15	.1046	1048.93	.007
323.15	.2035	1072.68	.007
323.15	.3042	1093.63	.007
323.15	.406	1111.58	.007
323.15	.4945	1125.2	.007
323.15	.607	1140.57	.007
323.15	.697	1151.73	.007
323.15	.7828	1161.76	.007
323.15	.9104	1173.77	.007
323.15	1	1180.98	.007

System: N-vinylpyrrolidone + 1-butyl-3-methylimidazolium tetrafluoroborate; phases: Liquid
Fixed: Pressure, kPa = 100
Property: Refractive index (Na D-line) (Liquid); method: Standard Abbe refractometry
Temperature, K	Mole fraction of 1-butyl-3-methylimidazolium tetrafluoroborate	Refractive index (Na D-line)	uncertainty
298.15	0	1.51119	.0004
298.15	.1046	1.4987	.0004
298.15	.2035	1.48698	.0004
298.15	.3042	1.47636	.0004
298.15	.406	1.46672	.0004
298.15	.4945	1.45868	.0004
298.15	.607	1.44913	.0004
298.15	.697	1.44241	.0004
298.15	.7828	1.43341	.0004
298.15	.9104	1.42725	.0004
298.15	1	1.42058	.0004
303.15	0	1.50886	.0004
303.15	.1046	1.49659	.0004
303.15	.2035	1.48494	.0004
303.15	.3042	1.4745	.0004
303.15	.406	1.4648	.0004
303.15	.4945	1.45699	.0004
303.15	.607	1.44651	.0004
303.15	.697	1.44097	.0004
303.15	.7828	1.43197	.0004
303.15	.9104	1.42592	.0004
303.15	1	1.41913	.0004
308.15	0	1.5065	.0004
308.15	.1046	1.49444	.0004
308.15	.2035	1.48295	.0004
308.15	.3042	1.47251	.0004
308.15	.406	1.46308	.0004
308.15	.4945	1.45534	.0004
308.15	.607	1.44502	.0004
308.15	.697	1.43944	.0004
308.15	.7828	1.43065	.0004
308.15	.9104	1.42459	.0004
308.15	1	1.41764	.0004
313.15	0	1.50415	.0004
313.15	.1046	1.49224	.0004
313.15	.2035	1.48108	.0004
313.15	.3042	1.47065	.0004
313.15	.406	1.46137	.0004
313.15	.4945	1.45369	.0004
313.15	.607	1.44349	.0004
313.15	.697	1.43784	.0004
313.15	.7828	1.42937	.0004
313.15	.9104	1.42327	.0004
313.15	1	1.41621	.0004
318.15	0	1.50181	.0004
318.15	.1046	1.49001	.0004
318.15	.2035	1.47899	.0004
318.15	.3042	1.46886	.0004
318.15	.406	1.45957	.0004
318.15	.4945	1.45198	.0004
318.15	.607	1.44199	.0004
318.15	.697	1.43632	.0004
318.15	.7828	1.42834	.0004
318.15	.9104	1.42194	.0004
318.15	1	1.41472	.0004
323.15	0	1.49948	.0004
323.15	.1046	1.4878	.0004
323.15	.2035	1.47691	.0004
323.15	.3042	1.46692	.0004
323.15	.406	1.45773	.0004
323.15	.4945	1.45015	.0004
323.15	.607	1.44042	.0004
323.15	.697	1.43462	.0004
323.15	.7828	1.42708	.0004
323.15	.9104	1.42061	.0004
323.15	1	1.4133	.0004

System: N-vinylpyrrolidone + 1-butyl-3-methylimidazolium tetrafluoroborate; phases: Liquid
Fixed: Pressure, kPa = 100
Fixed: Frequency, MHz = 3
Property: Speed of sound, m/s (Liquid); method: Sing-around technique in a fixed-path interferometer
Temperature, K	Mole fraction of 1-butyl-3-methylimidazolium tetrafluoroborate	Speed of sound, m/s	uncertainty
298.15	0	1521.47	.05
298.15	.1046	1537.31	.05
298.15	.2035	1546.02	.05
298.15	.3042	1552.73	.05
298.15	.406	1557.75	.05
298.15	.4945	1560.64	.05
298.15	.607	1563.23	.05
298.15	.697	1564.44	.05
298.15	.7828	1565.82	.05
298.15	.9104	1566.13	.05
298.15	1	1565.09	.05
303.15	0	1502.52	.05
303.15	.1046	1519.9	.05
303.15	.2035	1529.61	.05
303.15	.3042	1537.18	.05
303.15	.406	1542.95	.05
303.15	.4945	1546.18	.05
303.15	.607	1549.5	.05
303.15	.697	1551.43	.05
303.15	.7828	1553	.05
303.15	.9104	1553.92	.05
303.15	1	1553.15	.05
308.15	0	1483.68	.05
308.15	.1046	1502.36	.05
308.15	.2035	1513.02	.05
308.15	.3042	1521.45	.05
308.15	.406	1527.98	.05
308.15	.4945	1532.09	.05
308.15	.607	1535.85	.05
308.15	.697	1538.31	.05
308.15	.7828	1540.61	.05
308.15	.9104	1542.09	.05
308.15	1	1541.35	.05
313.15	0	1464.98	.05
313.15	.1046	1484.96	.05
313.15	.2035	1496.55	.05
313.15	.3042	1505.86	.05
313.15	.406	1513.17	.05
313.15	.4945	1517.91	.05
313.15	.607	1522.34	.05
313.15	.697	1525.31	.05
313.15	.7828	1528.09	.05
313.15	.9104	1530.14	.05
313.15	1	1529.69	.05
318.15	0	1446.48	.05
318.15	.1046	1467.73	.05
318.15	.2035	1480.26	.05
318.15	.3042	1490.41	.05
318.15	.406	1498.47	.05
318.15	.4945	1503.86	.05
318.15	.607	1508.97	.05
318.15	.697	1512.48	.05
318.15	.7828	1515.74	.05
318.15	.9104	1518.35	.05
318.15	1	1518.19	.05
323.15	0	1428.1	.05
323.15	.1046	1450.64	.05
323.15	.2035	1464.07	.05
323.15	.3042	1475.09	.05
323.15	.406	1483.94	.05
323.15	.4945	1489.88	.05
323.15	.607	1495.72	.05
323.15	.697	1499.77	.05
323.15	.7828	1503.51	.05
323.15	.9104	1506.69	.05
323.15	1	1506.8	.05
