Measured thermophysical data. Equilibrium Solubility of Sodium 1-Naphthalenesulfonate in Binary NaCl + Water, Na2SO4 + Water, and C2H5OH + Water Solvent Mixtures from (278.15 to 323.15) K
Source: J. Chem. Eng. Data, 2015, 10.1021/je500517d
Compound 1: sodium 1-naphthalene sulfonate, C10H7NaO3S, purity 99.5%
Compound 2: sodium sulfate, Na2O4S, purity 99.8%
Compound 3: sodium chloride, ClNa, purity 99.6%
Compound 4: water, H2O, purity 99.9%
Compound 5: ethanol, C2H6O, purity 99.5%

System: sodium 1-naphthalene sulfonate + water + sodium sulfate; phases: Liquid, Crystal
Fixed: Pressure, kPa = 100
Property: Mole fraction of sodium 1-naphthalene sulfonate (Liquid); method: Chromatography
Solvent: Mass fraction of sodium sulfate	Temperature, K	Mole fraction of sodium 1-naphthalene sulfonate	uncertainty
0	278.15	.010707	.00021414
0	283.15	.010876	.00021752
0	288.15	.011296	.00022592
0	293.15	.011852	.00023704
0	298.15	.012558	.00025116
0	303.15	.013358	.00026716
0	308.15	.01413	.0002826
0	313.15	.015162	.00030324
0	318.15	.016876	.00033752
0	323.15	.019223	.00038446
.05	278.15	.008628	.00017256
.05	283.15	.008852	.00017704
.05	288.15	.009376	.00018752
.05	293.15	.009919	.00019838
.05	298.15	.01048	.0002096
.05	303.15	.011416	.00022832
.05	308.15	.012258	.00024516
.05	313.15	.013344	.00026688
.05	318.15	.014691	.00029382
.05	323.15	.016544	.00033088
.1	278.15	.006101	.00012202
.1	283.15	.006344	.00012688
.1	288.15	.006812	.00013624
.1	293.15	.007318	.00014636
.1	298.15	.007842	.00015684
.1	303.15	.008665	.0001733
.1	308.15	.009526	.00019052
.1	313.15	.010799	.00021598
.1	318.15	.01209	.0002418
.1	323.15	.013531	.00027062
.15	278.15	.003462	.00006924
.15	283.15	.003706	.00007412
.15	288.15	.003968	.00007936
.15	293.15	.004286	.00008572
.15	298.15	.004735	.0000947
.15	303.15	.00539	.0001078
.15	308.15	.005951	.00011902
.15	313.15	.006943	.00013886
.15	318.15	.00801	.0001602
.15	323.15	.009694	.00019388
.2	278.15	.000457	.00000914
.2	283.15	.000465	.0000093
.2	288.15	.000534	.00001068
.2	293.15	.00062	.0000124
.2	298.15	.000736	.00001472
.2	303.15	.000932	.00001864
.2	308.15	.001233	.00002466
.2	313.15	.001629	.00003258
.2	318.15	.002392	.00004784
.2	323.15	.00367	.0000734

System: sodium 1-naphthalene sulfonate + sodium chloride + water; phases: Liquid, Crystal
Fixed: Pressure, kPa = 100
Property: Mole fraction of sodium 1-naphthalene sulfonate (Liquid); method: Chromatography
Solvent: Mass fraction of sodium chloride	Temperature, K	Mole fraction of sodium 1-naphthalene sulfonate	uncertainty
.05	278.15	.008921	.00017842
.05	283.15	.009145	.0001829
.05	288.15	.009644	.00019288
.05	293.15	.010094	.00020188
.05	298.15	.010742	.00021484
.05	303.15	.011429	.00022858
.05	308.15	.01204	.0002408
.05	313.15	.013063	.00026126
.05	318.15	.014411	.00028822
.05	323.15	.016182	.00032364
.1	278.15	.007064	.00014128
.1	283.15	.007269	.00014538
.1	288.15	.007632	.00015264
.1	293.15	.008031	.00016062
.1	298.15	.00854	.0001708
.1	303.15	.009162	.00018324
.1	308.15	.009917	.00019834
.1	313.15	.011205	.0002241
.1	318.15	.012544	.00025088
.1	323.15	.014237	.00028474
.15	278.15	.003418	.00006836
.15	283.15	.003656	.00007312
.15	288.15	.003998	.00007996
.15	293.15	.004411	.00008822
.15	298.15	.004845	.0000969
.15	303.15	.005777	.00011554
.15	308.15	.006745	.0001349
.15	313.15	.007713	.00015426
.15	318.15	.008832	.00017664
.15	323.15	.010967	.00021934
.2	278.15	.00039	.0000078
.2	283.15	.000445	.0000089
.2	288.15	.000511	.00001022
.2	293.15	.000622	.00001244
.2	298.15	.000753	.00001506
.2	303.15	.000949	.00001898
.2	308.15	.00118	.0000236
.2	313.15	.00156	.0000312
.2	318.15	.002291	.00004582
.2	323.15	.003215	.0000643

System: ethanol + sodium 1-naphthalene sulfonate + water; phases: Liquid, Crystal
Fixed: Pressure, kPa = 100
Property: Mole fraction of sodium 1-naphthalene sulfonate (Liquid); method: Chromatography
Solvent: Mass fraction of ethanol	Temperature, K	Mole fraction of sodium 1-naphthalene sulfonate	uncertainty
.08	278.15	.001965	.0000393
.08	283.15	.002191	.00004382
.08	288.15	.002555	.0000511
.08	293.15	.003134	.00006268
.08	298.15	.003832	.00007664
.08	303.15	.004755	.0000951
.08	308.15	.006043	.00012086
.08	313.15	.007624	.00015248
.08	318.15	.009285	.0001857
.08	323.15	.01125	.000225
.17	278.15	.001444	.00002888
.17	283.15	.001601	.00003202
.17	288.15	.001916	.00003832
.17	293.15	.002348	.00004696
.17	298.15	.002898	.00005796
.17	303.15	.003665	.0000733
.17	308.15	.004706	.00009412
.17	313.15	.005856	.00011712
.17	318.15	.007153	.00014306
.17	323.15	.009108	.00018216
.35	278.15	.001051	.00002102
.35	283.15	.001199	.00002398
.35	288.15	.001395	.0000279
.35	293.15	.001769	.00003538
.35	298.15	.002191	.00004382
.35	303.15	.002623	.00005246
.35	308.15	.003567	.00007134
.35	313.15	.004559	.00009118
.35	318.15	.00563	.0001126
.35	323.15	.007212	.00014424
.54	278.15	.000776	.00001552
.54	283.15	.000894	.00001788
.54	288.15	.001091	.00002182
.54	293.15	.001346	.00002692
.54	298.15	.001601	.00003202
.54	303.15	.002063	.00004126
.54	308.15	.002692	.00005384
.54	313.15	.003547	.00007094
.54	318.15	.004559	.00009118
.54	323.15	.005905	.0001181
.7	278.15	.000442	.00000884
.7	283.15	.000511	.00001022
.7	288.15	.000629	.00001258
.7	293.15	.000835	.0000167
.7	298.15	.001002	.00002004
.7	303.15	.001356	.00002712
.7	308.15	.0017	.000034
.7	313.15	.002181	.00004362
.7	318.15	.003036	.00006072
.7	323.15	.003989	.00007978

System: sodium 1-naphthalene sulfonate + water; phases: Liquid, Crystal
Property: Mole fraction of sodium 1-naphthalene sulfonate (Liquid); method: Chromatography
Temperature, K	Pressure, kPa	Mole fraction of sodium 1-naphthalene sulfonate	uncertainty
278.15	100	.010707	.00021414
283.15	100	.010876	.00021752
288.15	100	.011296	.00022592
293.15	100	.011852	.00023704
298.15	100	.012558	.00025116
303.15	100	.013358	.00026716
308.15	100	.01413	.0002826
313.15	100	.015162	.00030324
318.15	100	.016876	.00033752
323.15	100	.019223	.00038446
