Measured thermophysical data. Diffusion Coefficients of Fluorinated Surfactants in Water: Experimental Results and Prediction by Computer Simulation
Source: J. Chem. Eng. Data, 2014, 10.1021/je500211w
Compound 1: 2,2,2-trifluoroethanol, C2H3F3O, purity 99%
Compound 2: water, H2O, purity 99.9%

System: 2,2,2-trifluoroethanol + water; phases: Liquid
Fixed: Pressure, kPa = 101
Property: Binary diffusion coefficient, m2/s (Liquid); method: NMR spin-echo technique
Mole fraction of 2,2,2-trifluoroethanol	Temperature, K	Binary diffusion coefficient, m2/s	uncertainty
.000511	283.2	0.000000000732	.000000000005
.000511	288.2	0.000000000843	.000000000008
.000511	293.2	0.000000001017	.000000000005
.000511	298.2	0.00000000113	.00000000001
.000511	303.2	0.00000000128	.00000000002
.000511	308.2	0.00000000144	.00000000001
.000511	313.2	0.00000000171	.00000000001
.001034	283.2	0.000000000718	.000000000003
.001034	288.2	0.000000000844	.000000000004
.001034	293.2	0.000000000998	.000000000002
.001034	298.2	0.000000001115	.000000000008
.001034	303.2	0.00000000127	.000000000009
.001034	308.2	0.000000001462	.000000000009
.001034	313.2	0.000000001711	.000000000008
.004989	283.2	0.000000000691	.000000000003
.004989	288.2	0.000000000801	.000000000005
.004989	293.2	0.000000000967	.000000000003
.004989	298.2	0.0000000011	.000000000003
.004989	303.2	0.000000001231	.000000000009
.004989	308.2	0.000000001406	.000000000008
.004989	313.2	0.000000001662	.000000000008
.009331	283.2	0.000000000669	.000000000003
.009331	288.2	0.000000000762	.000000000008
.009331	293.2	0.000000000935	.000000000005
.009331	298.2	0.000000001095	.000000000004
.009331	303.2	0.0000000012	.00000000001
.009331	308.2	0.00000000136	.00000000001
.009331	313.2	0.00000000157	.00000000001
.01008	283.2	0.000000000668	.000000000002
.01008	288.2	0.000000000787	.000000000003
.01008	293.2	0.000000000896	.000000000006
.01008	298.2	0.000000001057	.000000000003
.01008	303.2	0.000000001232	.000000000003
.01008	308.2	0.000000001366	.000000000004
.01008	313.2	0.00000000157	.00000000001
.049646	283.2	0.000000000457	.000000000002
.049646	288.2	0.000000000552	.000000000002
.049646	293.2	0.000000000724	.000000000002
.049646	298.2	0.000000000851	.000000000003
.049646	303.2	0.000000000971	.000000000004
.049646	308.2	0.000000001102	.000000000006
.049646	313.2	0.000000001275	.000000000006
