Measured thermophysical data. Solid - Liquid Equilibrium for the Ternary Systems (Na2SO4 + NaH2PO4 + H2O), (Na2SO4 + NaCl + H2O) at 313.15 K and atmospheric pressure
Source: J. Chem. Eng. Data, 2014, 10.1021/je500854m
Compound 1: sodium dihydrogen phosphate anhydrous, H2NaO4P, purity 99%
Compound 2: sodium sulfate, Na2O4S, purity 99%
Compound 3: water, H2O, purity 99.9%
Compound 4: sodium chloride, ClNa, purity 99.5%

System: sodium dihydrogen phosphate anhydrous + water; phases: Liquid, Crystal
Fixed: Pressure, kPa = 101.32
Property: Mass fraction of sodium dihydrogen phosphate anhydrous (Liquid); method: gravemetric method
Temperature, K	Mass fraction of sodium dihydrogen phosphate anhydrous	uncertainty
313.15	.5879	.01

System: water + sodium sulfate; phases: Liquid, Crystal
Fixed: Pressure, kPa = 101.32
Property: Mass fraction of sodium sulfate (Liquid); method: gravemetric method
Temperature, K	Mass fraction of sodium sulfate	uncertainty
313.15	.3323	.02

System: sodium chloride + water; phases: Liquid, Crystal
Fixed: Pressure, kPa = 101.32
Property: Mass fraction of sodium chloride (Liquid); method: gravemetric method
Temperature, K	Mass fraction of sodium chloride	uncertainty
313.15	.2626	.05

System: sodium dihydrogen phosphate anhydrous + water + sodium sulfate; phases: Liquid
Fixed: Pressure, kPa = 101.32
Fixed: Temperature, K = 313.15
Property: Mass density, kg/m3 (Liquid); method: specific weighing bottle method
Mass fraction of sodium dihydrogen phosphate anhydrous	Mass fraction of sodium sulfate	Mass density, kg/m3	uncertainty
0	.3323	1319.3	1
.0269	.31	1337.1	1
.0743	.223	1350.5	1
.1212	.2001	1365.4	1
.1957	.1869	1386.7	1
.2682	.1323	1421.5	1
.3852	.1244	1471.9	1
.4441	.1157	1545.5	1
.4492	.1067	1543.2	1
.4952	.0709	1544.4	1
.5367	.0494	1551	1
.5641	.0261	1551.5	1
.5879	0	1553	1

System: sodium dihydrogen phosphate anhydrous + water + sodium sulfate; phases: Liquid
Fixed: Temperature, K = 313.15
Fixed: Pressure, kPa = 101.32
Property: Viscosity, Pa*s (Liquid); method: Capillary tube (Ostwald; Ubbelohde) method
Mass fraction of sodium dihydrogen phosphate anhydrous	Mass fraction of sodium sulfate	Viscosity, Pa*s	uncertainty
0	.3323	.0027348	.00005
.0269	.31	.0030642	.00005
.0743	.223	.0037637	.00005
.1212	.2001	.0044277	.00005
.1957	.1869	.0055253	.00005
.2682	.1323	.0061097	.00005
.3852	.1244	.012866	.00005
.4441	.1157	.0160116	.00005
.4492	.1067	.0166726	.00005
.4952	.0709	.0181846	.00005
.5367	.0494	.0246453	.00005
.5641	.0261	.0261809	.00005
.5879	0	.0285933	.00005

System: sodium dihydrogen phosphate anhydrous + water + sodium sulfate; phases: Liquid, Crystal
Fixed: Pressure, kPa = 101.32
Fixed: Temperature, K = 313.15
Property: Mass fraction of sodium sulfate (Liquid); method: gravimetric method
Mass fraction of sodium dihydrogen phosphate anhydrous	Mass fraction of sodium sulfate	uncertainty
0	.3323	.02
.0269	.31	.02
.0743	.223	.02
.1212	.2001	.02
.1957	.1869	.02
.2682	.1323	.02
.3852	.1244	.02

System: sodium dihydrogen phosphate anhydrous + water + sodium sulfate; phases: Liquid, Crystal of intercomponent compound 1
Fixed: Pressure, kPa = 101.32
Fixed: Temperature, K = 313.15
Property: Mass fraction of sodium sulfate (Liquid); method: gravimetric method
Mass fraction of sodium dihydrogen phosphate anhydrous	Mass fraction of sodium sulfate	uncertainty
.4952	.0709	.02
.5367	.0494	.02
.5641	.0261	.02
.5879	0	.02

System: sodium dihydrogen phosphate anhydrous + water + sodium sulfate; phases: Liquid, Crystal, Crystal of intercomponent compound 1
Fixed: Pressure, kPa = 101.32
Property: Mass fraction of sodium sulfate (Liquid); method: gravimetric method
Temperature, K	Mass fraction of sodium sulfate	uncertainty
313.15	.1157	.02
313.15	.1067	.02

System: sodium dihydrogen phosphate anhydrous + water + sodium sulfate; phases: Liquid, Crystal, Crystal of intercomponent compound 1
Fixed: Temperature, K = 313.15
Property: Mass fraction of sodium dihydrogen phosphate anhydrous (Liquid); method: gravimetric method
Pressure, kPa	Mass fraction of sodium dihydrogen phosphate anhydrous	uncertainty
101.32	.4441	.01
101.32	.4492	.01

System: sodium chloride + water + sodium sulfate; phases: Liquid
Fixed: Pressure, kPa = 101.32
Fixed: Temperature, K = 313.15
Property: Mass density, kg/m3 (Liquid); method: specific weighing bottle method
Mass fraction of sodium sulfate	Mass fraction of sodium chloride	Mass density, kg/m3	uncertainty
0	.268	1192.7	1
.0049	.2473	1197.8	1
.016	.2334	1206.4	1
.035	.2294	1215.4	1
.05	.2256	1231.2	1
.0505	.2258	1229.3	1
.0524	.2302	1235.7	1
.0907	.1793	1238	1
.1286	.1094	1243.4	1
.1806	.0686	1272.1	1
.2133	.0349	1295.3	1
.2603	.0228	1314.9	1
.3126	.0134	1316.4	1
.3323	0	1319.3	1

System: sodium chloride + water + sodium sulfate; phases: Liquid
Fixed: Temperature, K = 313.15
Fixed: Pressure, kPa = 101.32
Property: Viscosity, Pa*s (Liquid); method: Capillary tube (Ostwald; Ubbelohde) method
Mass fraction of sodium sulfate	Mass fraction of sodium chloride	Viscosity, Pa*s	uncertainty
0	.268	.0013262	.00005
.0049	.2473	.0013578	.00005
.016	.2334	.0014052	.00005
.035	.2294	.0014747	.00005
.05	.2256	.0016281	.00005
.0505	.2258	.0016189	.00005
.0524	.2302	.0016203	.00005
.0907	.1793	.0016863	.00005
.1286	.1094	.0017161	.00005
.1806	.0686	.0020281	.00005
.2133	.0349	.002247	.00005
.2603	.0228	.0025446	.00005
.3126	.0134	.0025787	.00005
.3323	0	.0027348	.00005

System: sodium chloride + water + sodium sulfate; phases: Liquid, Crystal
Fixed: Pressure, kPa = 101.32
Fixed: Temperature, K = 313.15
Property: Mass fraction of sodium chloride (Liquid); method: gravimetric method
Mass fraction of sodium sulfate	Mass fraction of sodium chloride	uncertainty
0	.268	.04
.0049	.2473	.04
.016	.2334	.04
.035	.2294	.04

System: sodium chloride + water + sodium sulfate; phases: Liquid, Crystal
Fixed: Pressure, kPa = 101.32
Fixed: Temperature, K = 313.15
Property: Mass fraction of sodium chloride (Liquid); method: gravimetric method
Mass fraction of sodium sulfate	Mass fraction of sodium chloride	uncertainty
.0524	.2302	.04
.0907	.1793	.04
.1286	.1094	.04
.1806	.0686	.04
.2133	.0349	.04
.2603	.0228	.04
.3126	.0134	.04
.3323	0	.04

System: sodium chloride + water + sodium sulfate; phases: Liquid, Crystal, Crystal
Fixed: Pressure, kPa = 101.32
Property: Mass fraction of sodium chloride (Liquid); method: gravimetric method
Temperature, K	Mass fraction of sodium chloride	uncertainty
313.15	.2256	.04
313.15	.2258	.04

System: sodium chloride + water + sodium sulfate; phases: Liquid, Crystal, Crystal
Fixed: Pressure, kPa = 101.32
Property: Mass fraction of sodium sulfate (Liquid); method: gravimetric method
Temperature, K	Mass fraction of sodium sulfate	uncertainty
313.15	.05	.04
313.15	.0505	.04
