Measured thermophysical data. Conductivity of Some Molten Chlorides at Elevated Temperatures I. Experimental and Calculation Techniques for BeCl2, ZnCl2, and PbCl2
Source: J. Chem. Eng. Data, 2015, 10.1021/je500433d
Compound 1: beryllium chloride, BeCl2
Compound 2: zinc chloride, Cl2Zn, purity 99%
Compound 3: lead chloride, Cl2Pb, purity 99.5%

System: beryllium chloride; phases: Liquid, Gas
Property: Electrical conductivity, S/m (Liquid); method: Alternating current cell with electrodes
Temperature, K	Electrical conductivity, S/m	uncertainty
693.15	74.68	.7468
695.15	80.45	.8045
698.65	87.66	.8766
701.65	96.11	.9611
705.65	107.3	1.073
711.65	132.1	1.321
714.65	143	1.43
719.65	164.6	1.646
721.65	174.3	1.743
724.65	186.4	1.864
726.15	193.2	1.932
728.15	201.6	2.016
735.65	252.6	2.526
738.15	270.3	2.703
739.65	287.6	2.876
741.65	297.4	2.974
744.65	326.6	3.266
746.15	335.2	3.352
747.15	348.4	3.484
750.15	375.5	3.755
752.15	398.1	3.981
755.15	436.7	4.367
759.65	454.5	4.545
761.15	487.5	4.875
763.15	505	5.05
765.15	531.1	5.311
766.35	544.6	5.446
767.35	572	5.72
770.15	609.5	6.095
772.85	635.5	6.355
775.15	670	6.7
777.65	706.9	7.069
781.65	730.5	7.305
783.65	762.6	7.626
786.15	824.3	8.243
787.15	836	8.36
788.15	851.2	8.512
790.15	886.6	8.866
793.15	934.8	9.348
795.15	954.2	9.542
795.65	966	9.66
797.15	1006	10.06
801.65	1086	10.86
807.65	1164	11.64
809.65	1185	11.85
822.65	1392	13.92

System: zinc chloride; phases: Liquid, Gas
Property: Electrical conductivity, S/m (Liquid); method: Alternating current cell with electrodes
Temperature, K	Electrical conductivity, S/m	uncertainty
558.15	.0363	.000363
568.15	.0568	.000568
578.15	.0874	.000874
588.15	.1312	.001312
598.15	.179	.00179
618.15	.36	.0036
638.15	.646	.00646
681.15	1.863	.01863
756.65	7.134	.07134
814.95	14.38	.1438
858.65	21.9	.219
893.15	28.75	.2875
936.15	38.81	.3881
974.65	48.1	.481
981.15	49.77	.4977
1005.15	55.4	.554
1030.15	61.42	.6142
1062.15	69.22	.6922
1078.15	73.48	.7348
1110.15	81.23	.8123
1128.15	85.69	.8569
1143.15	89.01	.8901
1163.15	93.55	.9355
1078.15	74.24	.7424
970.15	46.96	.4696
879.15	26.28	.2628
814.65	14.45	.1445
756.65	7.13	.0713
717.15	3.93	.0393
1092.15	76.84	.7684
1100.15	79.17	.7917
1114.15	82.77	.8277
1131.15	87.08	.8708
1144.65	90.33	.9033
1167.15	95.93	.9593
1183.65	100	1
1195.65	103.02	1.0302
1214.15	107.39	1.0739
1225.15	110	1.1
1236.15	112.59	1.1259
1245.65	114.76	1.1476
1259.65	117.83	1.1783
1279.65	122.13	1.2213
1297.15	125.71	1.2571
1306.15	127.44	1.2744
1316.65	129.41	1.2941
1324.15	130.83	1.3083
1341.65	133.87	1.3387
1350.15	135.22	1.3522
1359.65	136.71	1.3671
1376.65	139.33	1.3933
1386.65	140.86	1.4086
1399.15	142.3	1.423
1406.15	143.4	1.434
1414.15	144.39	1.4439
1421.15	145.26	1.4526
739.15	5.573	.05573

System: lead chloride; phases: Liquid, Gas
Property: Electrical conductivity, S/m (Liquid); method: Alternating current cell with electrodes
Temperature, K	Electrical conductivity, S/m	uncertainty
913.15	209.6	2.096
883.15	197.4	1.974
854.15	184.7	1.847
824.15	170.2	1.702
800.15	158.8	1.588
783.15	150.5	1.505
943.15	221.2	2.212
972.15	232.6	2.326
1001.15	243.7	2.437
1030.15	253.8	2.538
1058.15	262.8	2.628
1090.15	272.2	2.722
1118.15	279	2.79
1149.15	285.7	2.857
1177.15	291.7	2.917
1210.15	298.2	2.982
1230.15	302.3	3.023
1254.15	308.6	3.086
1279.15	314.7	3.147
1297.15	318.4	3.184
1320.15	321.1	3.211
