Measured thermophysical data. Speed of Sound Measurements and a Fundamental Equation of State for Cyclopentane
Source: J. Chem. Eng. Data, 2015, 10.1021/je5010164
Compound 1: cyclopentane, C5H10, purity 98.8%

System: cyclopentane; phases: Liquid
Fixed: Frequency, MHz = 8
Property: Speed of sound, m/s (Liquid); method: Pulse-echo method
Temperature, K	Pressure, kPa	Speed of sound, m/s	uncertainty
258.151	100	1419.058	2.838116
258.151	5072	1446.07	2.89214
258.151	10244	1473.008	2.946016
258.151	15262	1498.119	2.996238
258.151	20158	1521.653	3.043306
258.151	25083	1544.511	3.089022
258.151	30141	1567.131	3.134262
273.149	100	1336.626	2.673252
273.149	5169	1366.736	2.733472
273.149	10059	1394.32	2.78864
273.149	15219	1422.015	2.84403
273.15	20251	1447.913	2.895826
273.15	25184	1472.273	2.944546
273.15	30227	1496.252	2.992504
293.149	105	1230.093	2.460186
293.149	5059	1262.962	2.525924
293.149	10088	1294.375	2.58875
293.148	15198	1324.591	2.649182
293.149	20121	1352.283	2.704566
293.148	25192	1379.573	2.759146
293.148	30134	1404.98	2.80996
313.15	107	1126.831	2.253662
313.15	5113	1164.014	2.328028
313.149	10058	1198.273	2.396546
313.149	15132	1231.306	2.462612
313.149	20097	1261.807	2.523614
313.149	25098	1290.997	2.581994
313.149	30162	1319.175	2.63835
333.151	149	1026.636	2.053272
333.151	5035	1067.634	2.135268
333.151	10139	1106.967	2.213934
333.151	15108	1142.542	2.285084
333.151	20130	1176.238	2.352476
333.151	25152	1207.969	2.415938
333.151	30170	1238.041	2.476082
353.149	261	929.399	1.858798
353.149	5019	974.633	1.949266
353.149	10069	1018.218	2.036436
353.149	15107	1058.051	2.116102
353.149	20063	1094.384	2.188768
353.149	25009	1128.301	2.256602
353.149	30157	1161.49	2.32298
