Measured thermophysical data. Investigation on Isobaric Vapor Liquid Equilibrium for Water + Acetic Acid + sec-Butyl Acetate
Source: J. Chem. Eng. Data, 2014, 10.1021/je500160t
Compound 1: water, H2O, purity 99.9%
Compound 2: acetic acid, C2H4O2, purity 99.5%
Compound 3: sec-butyl acetate, C6H12O2, purity 99%

System: acetic acid; phases: Liquid, Gas
Property: Normal boiling temperature, K (Liquid); method: Ebulliometric method (Recirculating still)
Normal boiling temperature, K	uncertainty
390.96	.1

System: acetic acid; phases: Liquid
Fixed: Pressure, kPa = 101.325
Property: Mass density, kg/m3 (Liquid); method: Vibrating tube method
Temperature, K	Mass density, kg/m3	uncertainty
298.15	1044.11	.5

System: sec-butyl acetate; phases: Liquid, Gas
Property: Normal boiling temperature, K (Liquid); method: Ebulliometric method (Recirculating still)
Normal boiling temperature, K	uncertainty
385.2	.1

System: sec-butyl acetate; phases: Liquid
Fixed: Pressure, kPa = 101.325
Property: Mass density, kg/m3 (Liquid); method: Vibrating tube method
Temperature, K	Mass density, kg/m3	uncertainty
298.15	871.74	.5

System: acetic acid + sec-butyl acetate; phases: Liquid, Gas
Property: Boiling temperature at pressure P, K (Liquid); method: Ebulliometric method (Recirculating still)
Mole fraction of acetic acid	Pressure, kPa	Boiling temperature at pressure P, K	uncertainty
.0309	101.33	385.3	.1
.0928	101.33	385.85	.1
.1356	101.33	385.97	.1
.1943	101.33	386.25	.1
.2539	101.33	386.55	.1
.3624	101.33	386.85	.1
.4399	101.33	387.14	.1
.4512	101.33	387.33	.1
.5142	101.33	387.66	.1
.5692	101.33	387.96	.1
.6329	101.33	388.26	.1
.7108	101.33	388.57	.1
.7404	101.33	388.72	.1
.792	101.33	388.98	.1
.8286	101.33	389.29	.1
.8719	101.33	389.54	.1
.8969	101.33	389.69	.1
.9128	101.33	389.74	.1
.9505	101.33	390.14	.1
.9598	101.33	390.31	.1
.9771	101.33	390.45	.1

System: acetic acid + sec-butyl acetate; phases: Gas, Liquid
Property: Mole fraction of acetic acid (Gas); method: Chromatography
Mole fraction of acetic acid	Pressure, kPa	Mole fraction of acetic acid	uncertainty
.0309	101.33	.0261	.005
.0928	101.33	.0772	.005
.1356	101.33	.1094	.005
.1943	101.33	.1705	.005
.2539	101.33	.227	.005
.3624	101.33	.3315	.005
.4399	101.33	.4112	.005
.4512	101.33	.4142	.005
.5142	101.33	.4733	.005
.5692	101.33	.5307	.005
.6329	101.33	.5943	.005
.7108	101.33	.6759	.005
.7404	101.33	.7084	.005
.792	101.33	.7664	.005
.8286	101.33	.8067	.005
.8719	101.33	.8571	.005
.8969	101.33	.8796	.005
.9128	101.33	.8979	.005
.9505	101.33	.939	.005
.9598	101.33	.951	.005
.9771	101.33	.9716	.005

System: acetic acid + sec-butyl acetate + water; phases: Liquid, Gas
Property: Mole fraction of water (Liquid); method: Chromatography
Property: Mole fraction of acetic acid (Gas); method: Chromatography
Property: Mole fraction of water (Gas); method: Chromatography
Temperature, K	Pressure, kPa	Mole fraction of acetic acid	Mole fraction of water	uncertainty	Mole fraction of acetic acid	uncertainty	Mole fraction of water	uncertainty
377.05	101.33	.6636	.2438	.005	.4329	.005	.4274	.005
379.05	101.33	.7146	.2056	.005	.4681	.005	.3945	.005
374.75	101.33	.5146	.4352	.005	.3155	.005	.5819	.005
375.05	101.33	.5217	.43	.005	.3325	.005	.5706	.005
375.55	101.33	.5821	.3493	.005	.364	.005	.5163	.005
376.45	101.33	.6121	.3177	.005	.3962	.005	.4863	.005
377.05	101.33	.6445	.2817	.005	.4301	.005	.4534	.005
377.75	101.33	.6687	.2562	.005	.4608	.005	.4246	.005
379.05	101.33	.7068	.2184	.005	.4979	.005	.3888	.005
379.65	101.33	.735	.1927	.005	.5327	.005	.3559	.005
380.25	101.33	.7582	.1729	.005	.5565	.005	.3337	.005
381.35	101.33	.7831	.1533	.005	.5861	.005	.3004	.005
383.27	101.33	.8214	.1278	.005	.6706	.005	.2916	.005
377.25	101.33	.6611	.2397	.005	.4195	.005	.4278	.005
377.65	101.33	.6742	.2322	.005	.4066	.005	.4273	.005
