Measured thermophysical data. Solubility and Solution Thermodynamics of Diphenoxylate in Different Pure Solvents
Source: J. Chem. Eng. Data, 2015, 10.1021/je5010033
Compound 1: Diphenoxylate, C30H32N2O2, purity 99.5%
Compound 2: methanol, CH4O, purity 99.5%
Compound 3: ethanol, C2H6O, purity 99.5%
Compound 4: 2-propanol, C3H8O, purity 99.5%
Compound 5: acetone, C3H6O, purity 99.5%
Compound 6: acetonitrile, C2H3N, purity 99.5%
Compound 7: water, H2O, purity 99.99%

System: methanol + Diphenoxylate; phases: Liquid, Crystal
Fixed: Pressure, kPa = 101
Property: Mole fraction of Diphenoxylate (Liquid); method: Chromatography
Temperature, K	Mole fraction of Diphenoxylate	uncertainty
293.15	.0059834	.000359004
298.15	.007909	.00047454
303.15	.0104685	.00062811
308.15	.0122881	.000737286
313.15	.0143506	.000861036
318.15	.0184451	.001106706

System: acetone + Diphenoxylate; phases: Liquid, Crystal
Fixed: Pressure, kPa = 101
Property: Mole fraction of Diphenoxylate (Liquid); method: Chromatography
Temperature, K	Mole fraction of Diphenoxylate	uncertainty
293.15	.0042571	.000255426
298.15	.0047895	.00028737
303.15	.0055891	.000335346
308.15	.0060804	.000364824
313.15	.0066359	.000398154
318.15	.0077593	.000465558

System: 2-propanol + Diphenoxylate; phases: Liquid, Crystal
Fixed: Pressure, kPa = 101
Property: Mole fraction of Diphenoxylate (Liquid); method: Chromatography
Temperature, K	Mole fraction of Diphenoxylate	uncertainty
293.15	.0002585	.00001551
298.15	.0004419	.000026514
303.15	.0006267	.000037602
308.15	.0008591	.000051546
313.15	.0010787	.000064722
318.15	.0015625	.00009375

System: ethanol + Diphenoxylate; phases: Liquid, Crystal
Fixed: Pressure, kPa = 101
Property: Mole fraction of Diphenoxylate (Liquid); method: Chromatography
Temperature, K	Mole fraction of Diphenoxylate	uncertainty
293.15	.0016893	.000101358
298.15	.0019849	.000119094
303.15	.0023008	.000138048
308.15	.0026996	.000161976
313.15	.0032494	.000194964
318.15	.0043192	.000259152

System: acetonitrile + Diphenoxylate; phases: Liquid, Crystal
Fixed: Pressure, kPa = 101
Property: Mole fraction of Diphenoxylate (Liquid); method: Chromatography
Temperature, K	Mole fraction of Diphenoxylate	uncertainty
293.15	.0042723	.000256338
298.15	.0049962	.000299772
303.15	.0060148	.000360888
308.15	.0072717	.000436302
313.15	.0091926	.000551556
318.15	.0123634	.000741804

System: Diphenoxylate + water; phases: Liquid, Crystal
Fixed: Pressure, kPa = 101
Property: Mole fraction of Diphenoxylate (Liquid); method: Chromatography
Temperature, K	Mole fraction of Diphenoxylate	uncertainty
293.15	.0086	.000516
298.15	.0119	.000714
303.15	.0145	.00087
308.15	.0196	.001176
313.15	.027	.00162
318.15	.0328	.001968
