Measured thermophysical data. Thermodynamic Properties of Polymorphs of 2,2'-Thiodiethylene Bis[3-(3,5-di-tert-butyl-4-hydroxyphenyl)propionate]
Source: J. Chem. Eng. Data, 2015, 10.1021/je500869p
Compound 1: thiobis(ethane-2,1-diyl) bis(3-(3,5-di-tert-butyl-4-hydroxyphenyl)propanoate), C38H58O6S, purity 99.5%
Compound 2: methanol, CH4O, purity 99.5%
Compound 3: ethanol, C2H6O, purity 99.5%
Compound 4: isopropyl alcohol, C3H8O, purity 99.5%
Compound 5: propan-1-ol, C3H8O, purity 99.5%
Compound 6: 2-methyl-1-propanol, C4H10O, purity 99.5%
Compound 7: 1-butanol, C4H10O, purity 99.5%

System: methanol + thiobis(ethane-2,1-diyl) bis(3-(3,5-di-tert-butyl-4-hydroxyphenyl)propanoate); phases: Liquid, Metastable crystal
Fixed: Pressure, kPa = 100
Property: Mole fraction of thiobis(ethane-2,1-diyl) bis(3-(3,5-di-tert-butyl-4-hydroxyphenyl)propanoate) (Liquid); method: Laser monitoring
Temperature, K	Mole fraction of thiobis(ethane-2,1-diyl) bis(3-(3,5-di-tert-butyl-4-hydroxyphenyl)propanoate)	uncertainty
283.15	.0009592	.00004796
288.15	.001416	.0000708
293.15	.002089	.00010445
298.15	.002653	.00013265
303.15	.003987	.00019935
308.15	.006884	.0003442
313.15	.01307	.0006535
318.15	.0258	.00129

System: methanol + thiobis(ethane-2,1-diyl) bis(3-(3,5-di-tert-butyl-4-hydroxyphenyl)propanoate); phases: Liquid, Crystal
Fixed: Pressure, kPa = 100
Property: Mole fraction of thiobis(ethane-2,1-diyl) bis(3-(3,5-di-tert-butyl-4-hydroxyphenyl)propanoate) (Liquid); method: Laser monitoring
Temperature, K	Mole fraction of thiobis(ethane-2,1-diyl) bis(3-(3,5-di-tert-butyl-4-hydroxyphenyl)propanoate)	uncertainty
283.15	.0008765	.000043825
288.15	.001201	.00006005
293.15	.001932	.0000966
298.15	.002629	.00013145
303.15	.003876	.0001938
308.15	.006543	.00032715
313.15	.01245	.0006225
318.15	.02312	.001156

System: ethanol + thiobis(ethane-2,1-diyl) bis(3-(3,5-di-tert-butyl-4-hydroxyphenyl)propanoate); phases: Liquid, Metastable crystal
Fixed: Pressure, kPa = 100
Property: Mole fraction of thiobis(ethane-2,1-diyl) bis(3-(3,5-di-tert-butyl-4-hydroxyphenyl)propanoate) (Liquid); method: Laser monitoring
Temperature, K	Mole fraction of thiobis(ethane-2,1-diyl) bis(3-(3,5-di-tert-butyl-4-hydroxyphenyl)propanoate)	uncertainty
283.15	.001531	.00007655
288.15	.002175	.00010875
293.15	.003315	.00016575
298.15	.004176	.0002088
303.15	.00602	.000301
308.15	.01133	.0005665
313.15	.01789	.0008945
318.15	.03062	.001531

System: ethanol + thiobis(ethane-2,1-diyl) bis(3-(3,5-di-tert-butyl-4-hydroxyphenyl)propanoate); phases: Liquid, Crystal
Fixed: Pressure, kPa = 100
Property: Mole fraction of thiobis(ethane-2,1-diyl) bis(3-(3,5-di-tert-butyl-4-hydroxyphenyl)propanoate) (Liquid); method: Laser monitoring
Temperature, K	Mole fraction of thiobis(ethane-2,1-diyl) bis(3-(3,5-di-tert-butyl-4-hydroxyphenyl)propanoate)	uncertainty
283.15	.001492	.0000746
288.15	.00203	.0001015
293.15	.002846	.0001423
298.15	.00391	.0001955
303.15	.005611	.00028055
308.15	.009796	.0004898
313.15	.01576	.000788
318.15	.02676	.001338

System: isopropyl alcohol + thiobis(ethane-2,1-diyl) bis(3-(3,5-di-tert-butyl-4-hydroxyphenyl)propanoate); phases: Liquid, Metastable crystal
Fixed: Pressure, kPa = 100
Property: Mole fraction of thiobis(ethane-2,1-diyl) bis(3-(3,5-di-tert-butyl-4-hydroxyphenyl)propanoate) (Liquid); method: Laser monitoring
Temperature, K	Mole fraction of thiobis(ethane-2,1-diyl) bis(3-(3,5-di-tert-butyl-4-hydroxyphenyl)propanoate)	uncertainty
283.15	.0007211	.000036055
288.15	.001075	.00005375
293.15	.001519	.00007595
298.15	.002418	.0001209
303.15	.00397	.0001985
308.15	.006004	.0003002
313.15	.01092	.000546
318.15	.0194	.00097

System: isopropyl alcohol + thiobis(ethane-2,1-diyl) bis(3-(3,5-di-tert-butyl-4-hydroxyphenyl)propanoate); phases: Liquid, Crystal
Fixed: Pressure, kPa = 100
Property: Mole fraction of thiobis(ethane-2,1-diyl) bis(3-(3,5-di-tert-butyl-4-hydroxyphenyl)propanoate) (Liquid); method: Laser monitoring
Temperature, K	Mole fraction of thiobis(ethane-2,1-diyl) bis(3-(3,5-di-tert-butyl-4-hydroxyphenyl)propanoate)	uncertainty
283.15	.0006666	.00003333
288.15	.0009982	.00004991
293.15	.001481	.00007405
298.15	.002265	.00011325
303.15	.003524	.0001762
308.15	.005952	.0002976
313.15	.009549	.00047745
318.15	.01858	.000929

System: propan-1-ol + thiobis(ethane-2,1-diyl) bis(3-(3,5-di-tert-butyl-4-hydroxyphenyl)propanoate); phases: Liquid, Metastable crystal
Fixed: Pressure, kPa = 100
Property: Mole fraction of thiobis(ethane-2,1-diyl) bis(3-(3,5-di-tert-butyl-4-hydroxyphenyl)propanoate) (Liquid); method: Laser monitoring
Temperature, K	Mole fraction of thiobis(ethane-2,1-diyl) bis(3-(3,5-di-tert-butyl-4-hydroxyphenyl)propanoate)	uncertainty
283.15	.002074	.0001037
288.15	.002428	.0001214
293.15	.003559	.00017795
298.15	.004846	.0002423
303.15	.007337	.00036685
308.15	.01251	.0006255
313.15	.02212	.001106
318.15	.03639	.0018195

System: propan-1-ol + thiobis(ethane-2,1-diyl) bis(3-(3,5-di-tert-butyl-4-hydroxyphenyl)propanoate); phases: Liquid, Crystal
Fixed: Pressure, kPa = 100
Property: Mole fraction of thiobis(ethane-2,1-diyl) bis(3-(3,5-di-tert-butyl-4-hydroxyphenyl)propanoate) (Liquid); method: Laser monitoring
Temperature, K	Mole fraction of thiobis(ethane-2,1-diyl) bis(3-(3,5-di-tert-butyl-4-hydroxyphenyl)propanoate)	uncertainty
283.15	.001926	.0000963
288.15	.002175	.00010875
293.15	.003331	.00016655
298.15	.004522	.0002261
303.15	.006776	.0003388
308.15	.01184	.000592
313.15	.02043	.0010215
318.15	.03485	.0017425

System: 2-methyl-1-propanol + thiobis(ethane-2,1-diyl) bis(3-(3,5-di-tert-butyl-4-hydroxyphenyl)propanoate); phases: Liquid, Metastable crystal
Fixed: Pressure, kPa = 100
Property: Mole fraction of thiobis(ethane-2,1-diyl) bis(3-(3,5-di-tert-butyl-4-hydroxyphenyl)propanoate) (Liquid); method: Laser monitoring
Temperature, K	Mole fraction of thiobis(ethane-2,1-diyl) bis(3-(3,5-di-tert-butyl-4-hydroxyphenyl)propanoate)	uncertainty
283.15	.001054	.0000527
288.15	.001503	.00007515
293.15	.002333	.00011665
298.15	.003499	.00017495
303.15	.005331	.00026655
308.15	.009819	.00049095
313.15	.01601	.0008005
318.15	.03282	.001641

System: 2-methyl-1-propanol + thiobis(ethane-2,1-diyl) bis(3-(3,5-di-tert-butyl-4-hydroxyphenyl)propanoate); phases: Liquid, Crystal
Fixed: Pressure, kPa = 100
Property: Mole fraction of thiobis(ethane-2,1-diyl) bis(3-(3,5-di-tert-butyl-4-hydroxyphenyl)propanoate) (Liquid); method: Laser monitoring
Temperature, K	Mole fraction of thiobis(ethane-2,1-diyl) bis(3-(3,5-di-tert-butyl-4-hydroxyphenyl)propanoate)	uncertainty
283.15	.0009494	.00004747
288.15	.001466	.0000733
293.15	.002195	.00010975
298.15	.003127	.00015635
303.15	.004787	.00023935
308.15	.007981	.00039905
313.15	.01542	.000771
318.15	.03131	.0015655

System: 1-butanol + thiobis(ethane-2,1-diyl) bis(3-(3,5-di-tert-butyl-4-hydroxyphenyl)propanoate); phases: Liquid, Metastable crystal
Fixed: Pressure, kPa = 100
Property: Mole fraction of thiobis(ethane-2,1-diyl) bis(3-(3,5-di-tert-butyl-4-hydroxyphenyl)propanoate) (Liquid); method: Laser monitoring
Temperature, K	Mole fraction of thiobis(ethane-2,1-diyl) bis(3-(3,5-di-tert-butyl-4-hydroxyphenyl)propanoate)	uncertainty
283.15	.001997	.00009985
288.15	.00258	.000129
293.15	.004066	.0002033
298.15	.005634	.0002817
303.15	.008675	.00043375
308.15	.01395	.0006975
313.15	.02495	.0012475
318.15	.04476	.002238

System: 1-butanol + thiobis(ethane-2,1-diyl) bis(3-(3,5-di-tert-butyl-4-hydroxyphenyl)propanoate); phases: Liquid, Crystal
Fixed: Pressure, kPa = 100
Property: Mole fraction of thiobis(ethane-2,1-diyl) bis(3-(3,5-di-tert-butyl-4-hydroxyphenyl)propanoate) (Liquid); method: Laser monitoring
Temperature, K	Mole fraction of thiobis(ethane-2,1-diyl) bis(3-(3,5-di-tert-butyl-4-hydroxyphenyl)propanoate)	uncertainty
283.15	.001468	.0000734
288.15	.00227	.0001135
293.15	.003276	.0001638
298.15	.005039	.00025195
303.15	.007841	.00039205
308.15	.01239	.0006195
313.15	.02063	.0010315
318.15	.03709	.0018545
