Measured thermophysical data. Comparison Study on Temperature Dependence of the Interfacial Tension of n-Alkane Water and n-Alcohol Water Two Binary Systems
Source: J. Chem. Eng. Data, 2014, 10.1021/je500450w
Compound 1: benzene, C6H6, purity 99.95%
Compound 2: n-hexane, C6H14, purity 99.95%
Compound 3: n-heptane, C7H16, purity 99.95%
Compound 4: n-octane, C8H18, purity 99.95%
Compound 5: n-nonane, C9H20, purity 99.95%
Compound 6: n-hexanol, C6H14O, purity 99.95%
Compound 7: 1-heptanol, C7H16O, purity 99.95%
Compound 8: 1-octanol, C8H18O, purity 99.95%
Compound 9: 1-nonanol, C9H20O, purity 99.95%
Compound 10: water, H2O, purity 99.9%

System: benzene + water; phases: Liquid mixture 1, Liquid mixture 2
Fixed: Pressure, kPa = 101
Property: Interfacial tension, N/m (Liquid mixture 1); method: Drop weight
Temperature, K	Interfacial tension, N/m	uncertainty
293.2	.03482	.000003
298.2	.03406	.000003
303.2	.03364	.000003
308.2	.03287	.000003
313.2	.0321	.000003
318.2	.03162	.000003
323.2	.03095	.000003
328.2	.03092	.000003
333.2	.03052	.000003

System: n-hexane + water; phases: Liquid mixture 1, Liquid mixture 2
Fixed: Pressure, kPa = 101
Property: Interfacial tension, N/m (Liquid mixture 1); method: Drop weight
Temperature, K	Interfacial tension, N/m	uncertainty
293.2	.05081	.00003
298.2	.05049	.00003
303.2	.05011	.00003
308.2	.04968	.00003
313.2	.04928	.00003
318.2	.04884	.00003
323.2	.04846	.00003
328.2	.04794	.00003
333.2	.04692	.00003

System: n-heptane + water; phases: Liquid mixture 1, Liquid mixture 2
Fixed: Pressure, kPa = 101
Property: Interfacial tension, N/m (Liquid mixture 1); method: Drop weight
Temperature, K	Interfacial tension, N/m	uncertainty
293.2	.0513	.00003
298.2	.05087	.00003
303.2	.05035	.00003
308.2	.04984	.00003
313.2	.0496	.00003
318.2	.049	.00003
323.2	.04854	.00003
328.2	.0481	.00003
333.2	.04773	.00003
338.2	.04728	.00003
343.2	.0467	.00003

System: n-octane + water; phases: Liquid mixture 1, Liquid mixture 2
Fixed: Pressure, kPa = 101
Property: Interfacial tension, N/m (Liquid mixture 1); method: Drop weight
Temperature, K	Interfacial tension, N/m	uncertainty
293.2	.05167	.00003
298.2	.0512	.00003
303.2	.05078	.00003
308.2	.05028	.00003
313.2	.0499	.00003
318.2	.04931	.00003
323.2	.04886	.00003
328.2	.04834	.00003
333.2	.04781	.00003
338.2	.04733	.00003
343.2	.04682	.00003

System: n-nonane + water; phases: Liquid mixture 1, Liquid mixture 2
Fixed: Pressure, kPa = 101
Property: Interfacial tension, N/m (Liquid mixture 1); method: Drop weight
Temperature, K	Interfacial tension, N/m	uncertainty
293.2	.05195	.00003
298.2	.05154	.00003
303.2	.05111	.00003
308.2	.05068	.00003
313.2	.05023	.00003
318.2	.04963	.00003
323.2	.04909	.00003
328.2	.04846	.00003
333.2	.04803	.00003
338.2	.04761	.00003
343.2	.04696	.00003

System: n-hexanol + water; phases: Liquid mixture 1, Liquid mixture 2
Fixed: Pressure, kPa = 101
Property: Interfacial tension, N/m (Liquid mixture 1); method: Drop weight
Temperature, K	Interfacial tension, N/m	uncertainty
293.2	.00737	.00003
298.2	.00749	.00003
303.2	.0076	.00003
313.2	.0077	.00003
323.2	.00786	.00003
333.2	.0079	.00003
343.2	.00787	.00003

System: 1-heptanol + water; phases: Liquid mixture 1, Liquid mixture 2
Fixed: Pressure, kPa = 101
Property: Interfacial tension, N/m (Liquid mixture 1); method: Drop weight
Temperature, K	Interfacial tension, N/m	uncertainty
293.2	.00637	.00003
298.2	.00644	.00003
303.2	.00652	.00003
313.2	.0066	.00003
323.2	.00662	.00003
333.2	.00658	.00003
343.2	.00646	.00003

System: 1-octanol + water; phases: Liquid mixture 1, Liquid mixture 2
Fixed: Pressure, kPa = 101
Property: Interfacial tension, N/m (Liquid mixture 1); method: Drop weight
Temperature, K	Interfacial tension, N/m	uncertainty
293.2	.00802	.00003
298.2	.00819	.00003
303.2	.00842	.00003
313.2	.00862	.00003
323.2	.00883	.00003
333.2	.00902	.00003
343.2	.00902	.00003

System: 1-nonanol + water; phases: Liquid mixture 1, Liquid mixture 2
Fixed: Pressure, kPa = 101
Property: Interfacial tension, N/m (Liquid mixture 1); method: Drop weight
Temperature, K	Interfacial tension, N/m	uncertainty
293.2	.00818	.00003
298.2	.00848	.00003
303.2	.009	.00003
313.2	.00915	.00003
323.2	.00986	.00003
333.2	.00967	.00003
343.2	.00972	.00003
