Measured thermophysical data. Vapor-Liquid Equilibria of Cyclohexanone + 2-Cyclohexen-1-one and Cyclohexanol + 2-Cyclohexen-1-one, Validated in a Packed Column Distillation.
Source: J. Chem. Eng. Data, 2015, 10.1021/je501135p
Compound 1: 2-cyclohexen-1-one, C6H8O, purity 98.0%
Compound 2: cyclohexanone, C6H10O, purity 99.5%
Compound 3: cyclohexanol, C6H12O, purity 99%

System: 2-cyclohexen-1-one; phases: Liquid, Gas
Property: Vapor or sublimation pressure, kPa (Liquid); method: Ebulliometric method (Recirculating still)
Temperature, K	Vapor or sublimation pressure, kPa	uncertainty
444.48	99	
444.51	99	

System: cyclohexanone; phases: Liquid, Gas
Property: Vapor or sublimation pressure, kPa (Liquid); method: Ebulliometric method (Recirculating still)
Temperature, K	Vapor or sublimation pressure, kPa	uncertainty
428.01	99	

System: cyclohexanol; phases: Liquid, Gas
Property: Vapor or sublimation pressure, kPa (Liquid); method: Ebulliometric method (Recirculating still)
Temperature, K	Vapor or sublimation pressure, kPa	uncertainty
433.38	99	

System: cyclohexanone + 2-cyclohexen-1-one; phases: Gas, Liquid
Property: Mole fraction of cyclohexanone (Gas); method: Chromatography
Temperature, K	Mole fraction of cyclohexanone	Mole fraction of cyclohexanone	uncertainty
428.01	1	1	.01
429.61	.88	.92	.01
431.39	.78	.83	.01
432.68	.65	.729	.01
435.52	.475	.571	.01
437.13	.414	.51	.01
438.54	.287	.375	.01
439.52	.19	.271	.01
440.99	.102	.158	.01
444.48	0	0	.01

System: cyclohexanone + 2-cyclohexen-1-one; phases: Liquid, Gas
Fixed: Pressure, kPa = 99
Property: Boiling temperature at pressure P, K (Liquid); method: Ebulliometric method (Recirculating still)
Mole fraction of cyclohexanone	Boiling temperature at pressure P, K	uncertainty
1	428.01	.3
.88	429.61	.3
.78	431.39	.3
.65	432.68	.3
.475	435.52	.3
.414	437.13	.3
.287	438.54	.3
.19	439.52	.3
.102	440.99	.3
0	444.48	.3

System: cyclohexanol + 2-cyclohexen-1-one; phases: Gas, Liquid
Property: Mole fraction of cyclohexanol (Gas); method: Chromatography
Temperature, K	Mole fraction of cyclohexanol	Mole fraction of cyclohexanol	uncertainty
433.38	1	1	.01
433.74	.95	.959	.01
433.89	.92	.934	.01
434.1	.89	.909	.01
434.92	.77	.811	.01
436.61	.58	.65	.01
437.9	.46	.541	.01
438.71	.39	.472	.01
441.39	.19	.254	.01
444.51	0	0	.01

System: cyclohexanol + 2-cyclohexen-1-one; phases: Liquid, Gas
Fixed: Pressure, kPa = 99
Property: Boiling temperature at pressure P, K (Liquid); method: Ebulliometric method (Recirculating still)
Mole fraction of cyclohexanol	Boiling temperature at pressure P, K	uncertainty
1	433.38	.3
.95	433.74	.3
.92	433.89	.3
.89	434.1	.3
.77	434.92	.3
.58	436.61	.3
.46	437.9	.3
.39	438.71	.3
.19	441.39	.3
0	444.51	.3

System: cyclohexanol + cyclohexanone; phases: Gas, Liquid
Property: Mole fraction of cyclohexanol (Gas); method: Chromatography
Pressure, kPa	Mole fraction of cyclohexanol	Mole fraction of cyclohexanol	uncertainty
99	.092	.082	.01
99	.1	.127	.01
99	.159	.144	.01
99	.227	.208	.01
99	.36	.328	.01
99	.545	.504	.01
99	.681	.642	.01
99	.799	.769	.01
99	.884	.861	.01
