Measured thermophysical data. Solid Liquid Equilibria in the Ternary Systems KBr CaBr2 H2O and NaBr CaBr2 H2O at 348 K
Source: J. Chem. Eng. Data, 2015, 10.1021/je500681m
Compound 1: water, H2O, purity 99.9%
Compound 2: sodium bromide, BrNa, purity 99%
Compound 3: calcium bromide, Br2Ca, purity 98%
Compound 4: potassium bromide, BrK, purity 99%

System: water + potassium bromide + calcium bromide; phases: Liquid
Fixed: Temperature, K = 348
Fixed: Pressure, kPa = 101
Property: Mass density, kg/m3 (Liquid); method: Pycnometric method
Mass fraction of potassium bromide	Mass fraction of calcium bromide	Mass density, kg/m3	uncertainty
0	.7426	2062.6	1
.0146	.7275	2057.4	1
.0181	.7213	2050.9	1
.0249	.7133	2046.5	1
.0286	.7097	2045.6	1
.0362	.7014	2042.1	1
.0381	.6966	2035.6	1
.047	.6834	2024.3	1
.0538	.6479	1964.7	1
.0666	.5759	1847.5	1
.092	.4768	1709.1	1
.1262	.4049	1637.6	1
.1792	.3252	1581	1
.2261	.2559	1537.3	1
.2935	.1843	1516.8	1
.3621	.1184	1506.7	1
.4382	.0428	1491.8	1
.4835	0	1486.4	1

System: water + potassium bromide + calcium bromide; phases: Liquid, Crystal of intercomponent compound 1
Fixed: Temperature, K = 348
Fixed: Pressure, kPa = 101
Property: Mass fraction of calcium bromide (Liquid); method: Titration method
Mass fraction of potassium bromide	Mass fraction of calcium bromide	uncertainty
0	.7426	.003
.0146	.7275	.003
.0181	.7213	.003
.0249	.7133	.003
.0286	.7097	.003
.0362	.7014	.003
.0381	.6966	.003
.047	.6834	.003

System: water + potassium bromide + calcium bromide; phases: Liquid, Crystal
Fixed: Temperature, K = 348
Fixed: Pressure, kPa = 101
Property: Mass fraction of calcium bromide (Liquid); method: Titration method
Mass fraction of potassium bromide	Mass fraction of calcium bromide	uncertainty
.047	.6834	.003
.0538	.6479	.003
.0666	.5759	.003
.092	.4768	.003
.1262	.4049	.003
.1792	.3252	.003
.2261	.2559	.003
.2935	.1843	.003
.3621	.1184	.003
.4382	.0428	.003
.4835	0	.003

System: water + potassium bromide + calcium bromide; phases: Liquid, Crystal, Crystal of intercomponent compound 1
Fixed: Pressure, kPa = 101
Property: Mass fraction of potassium bromide (Liquid); method: Titration method
Temperature, K	Mass fraction of potassium bromide	uncertainty
348	.047	.005

System: water + potassium bromide + calcium bromide; phases: Liquid, Crystal, Crystal of intercomponent compound 1
Fixed: Pressure, kPa = 101
Property: Mass fraction of calcium bromide (Liquid); method: Titration method
Temperature, K	Mass fraction of calcium bromide	uncertainty
348	.6834	.003

System: sodium bromide + water + calcium bromide; phases: Liquid
Fixed: Temperature, K = 348
Fixed: Pressure, kPa = 101
Property: Mass density, kg/m3 (Liquid); method: Pycnometric method
Mass fraction of sodium bromide	Mass fraction of calcium bromide	Mass density, kg/m3	uncertainty
.5435	0	1616.8	1
.4931	.048	1619.3	1
.4267	.1107	1621.7	1
.3585	.1832	1637.4	1
.2393	.3036	1654.8	1
.1281	.4286	1692.7	1
.047	.5788	1826.5	1
.0458	.6784	2017.4	1
.0431	.686	2027.8	1
.0416	.6901	2033.4	1
.0389	.6929	2034	1
.0341	.6951	2029.5	1
.0327	.6994	2035.6	1
.0303	.7112	2045.4	1
0	.7426	2062.6	1

System: sodium bromide + water + calcium bromide; phases: Liquid, Crystal
Fixed: Temperature, K = 348
Fixed: Pressure, kPa = 101
Property: Mass fraction of calcium bromide (Liquid); method: Titration method
Mass fraction of sodium bromide	Mass fraction of calcium bromide	uncertainty
.5435	0	.003
.4931	.048	.003
.4267	.1107	.003
.3585	.1832	.003
.2393	.3036	.003
.1281	.4286	.003
.047	.5788	.003
.0458	.6784	.003

System: sodium bromide + water + calcium bromide; phases: Liquid, Crystal of intercomponent compound 1
Fixed: Temperature, K = 348
Fixed: Pressure, kPa = 101
Property: Mass fraction of calcium bromide (Liquid); method: Titration method
Mass fraction of sodium bromide	Mass fraction of calcium bromide	uncertainty
.0458	.6784	.003
.0431	.686	.003
.0416	.6901	.003
.0389	.6929	.003
.0341	.6951	.003
.0327	.6994	.003
.0303	.7112	.003
0	.7426	.003

System: sodium bromide + water + calcium bromide; phases: Liquid, Crystal of intercomponent compound 1, Crystal
Fixed: Pressure, kPa = 101
Property: Mass fraction of sodium bromide (Liquid); method: Titration method
Temperature, K	Mass fraction of sodium bromide	uncertainty
348	.0458	.003

System: sodium bromide + water + calcium bromide; phases: Liquid, Crystal of intercomponent compound 1, Crystal
Fixed: Pressure, kPa = 101
Property: Mass fraction of calcium bromide (Liquid); method: Titration method
Temperature, K	Mass fraction of calcium bromide	uncertainty
348	.6784	.003
