Measured thermophysical data. Isobaric Vapor Liquid Liquid Equilibria for the Ternary Systems Ethanol + Water + Propyl Acetate and 1-Propanol + Water + Propyl acetate
Source: J. Chem. Eng. Data, 2014, 10.1021/je500191j
Compound 1: ethanol, C2H6O, purity 99.5%
Compound 2: 1-propanol, C3H8O, purity 99%
Compound 3: water, H2O, purity 99%
Compound 4: propyl acetate, C5H10O2, purity 99%

System: ethanol + propyl acetate + water; phases: Liquid mixture 2, Liquid mixture 1, Gas
Property: Mole fraction of ethanol (Liquid mixture 2); method: Chromatography
Property: Mole fraction of water (Liquid mixture 2); method: Chromatography
Property: Mole fraction of water (Liquid mixture 1); method: Chromatography
Property: Mole fraction of ethanol (Liquid mixture 1); method: Chromatography
Property: Mole fraction of ethanol (Gas); method: Chromatography
Property: Mole fraction of water (Gas); method: Chromatography
Temperature, K	Pressure, kPa	Mole fraction of ethanol	uncertainty	Mole fraction of water	uncertainty	Mole fraction of water	uncertainty	Mole fraction of ethanol	uncertainty	Mole fraction of ethanol	uncertainty	Mole fraction of water	uncertainty
351.74	101.3	.081	.002	.907	.002	.465	.002	.217	.002	.262	.002	.428	.002
354.7	101.3	.011	.002	.982	.002	.16	.002	.035	.002	.056	.002	.504	.002
351.78	101.3	.07	.002	.919	.002	.396	.002	.2	.002	.256	.002	.429	.002
351.62	101.3	.098	.002	.884	.002	.523	.002	.221	.002	.273	.002	.427	.002
351.9	101.3	.071	.002	.919	.002	.413	.002	.207	.002	.242	.002	.432	.002
352.63	101.3	.06	.002	.931	.002	.353	.002	.186	.002	.221	.002	.438	.002
352.77	101.3	.043	.002	.947	.002	.273	.002	.145	.002	.178	.002	.451	.002
352.8	101.3	.03	.002	.964	.002	.219	.002	.088	.002	.199	.002	.445	.002
352.93	101.3	.05	.002	.943	.002	.3	.002	.162	.002	.185	.002	.449	.002
353.84	101.3	.024	.002	.969	.002	.196	.002	.067	.002	.093	.002	.488	.002

System: 1-propanol + propyl acetate + water; phases: Liquid mixture 2, Liquid mixture 1, Gas
Property: Mole fraction of 1-propanol (Liquid mixture 2); method: Chromatography
Property: Mole fraction of water (Liquid mixture 2); method: Chromatography
Property: Mole fraction of water (Liquid mixture 1); method: Chromatography
Property: Mole fraction of 1-propanol (Liquid mixture 1); method: Chromatography
Property: Mole fraction of 1-propanol (Gas); method: Chromatography
Property: Mole fraction of water (Gas); method: Chromatography
Temperature, K	Pressure, kPa	Mole fraction of 1-propanol	uncertainty	Mole fraction of water	uncertainty	Mole fraction of water	uncertainty	Mole fraction of 1-propanol	uncertainty	Mole fraction of 1-propanol	uncertainty	Mole fraction of water	uncertainty
355.37	101.3	.013	.002	.984	.002	.2698	.002	.139	.002	.09	.002	.521	.002
356.14	101.3	.035	.002	.961	.002	.5091	.002	.262	.002	.183	.002	.533	.002
356.74	101.3	.042	.002	.952	.002	.5924	.002	.255	.002	.207	.002	.539	.002
355.39	101.3	.01	.002	.987	.002	.2526	.002	.122	.002	.081	.002	.525	.002
355.44	101.3	.007	.002	.99	.002	.2084	.002	.064	.002	.051	.002	.528	.002
355.5	101.3	.016	.002	.981	.002	.2994	.002	.17	.002	.108	.002	.524	.002
355.53	101.3	.021	.002	.975	.002	.3665	.002	.215	.002	.132	.002	.524	.002
355.63	101.3	.002	.002	.994	.002	.1906	.002	.032	.002	.024	.002	.534	.002
355.69	101.3	.027	.002	.97	.002	.4042	.002	.236	.002	.147	.002	.526	.002
355.83	101.3	.03	.002	.967	.002	.4305	.002	.243	.002	.161	.002	.525	.002
356.08	101.3	.032	.002	.964	.002	.4589	.002	.253	.002	.174	.002	.529	.002
