Measured thermophysical data. Comparing Composition- and Temperature-Dependent Excess Molar Volumes of Binary Systems Involving Ionic Liquids
Source: J. Chem. Eng. Data, 2014, 10.1021/je500053c
Compound 1: 1-hexyl-3-methylimidazolium bis(trifluoromethylsulfonyl)imide, C12H19F6N3O4S2, purity 99%
Compound 2: 1-butyl-3-methylimidazolium methanesulfonate, C9H18N2O3S, purity 99%
Compound 3: water, H2O, purity 99.9%

System: 1-hexyl-3-methylimidazolium bis(trifluoromethylsulfonyl)imide; phases: Liquid
Fixed: Pressure, kPa = 101.325
Property: Mass density, kg/m3 (Liquid); method: Vibrating tube method
Temperature, K	Mass density, kg/m3	uncertainty
288.15	1381.4	.1
298.15	1372	.1
308.15	1362.7	.1
318.15	1353.5	.1

System: water + 1-butyl-3-methylimidazolium methanesulfonate; phases: Liquid
Fixed: Pressure, kPa = 101
Property: Mass density, kg/m3 (Liquid); method: Vibrating tube method
Temperature, K	Mole fraction of 1-butyl-3-methylimidazolium methanesulfonate	Mass density, kg/m3	uncertainty
298.15	0	997.1	.1
298.15	.025	1038.1	.1
298.15	.05	1068.4	.1
298.15	.075	1089.3	.1
298.15	.1	1104.5	.1
298.15	.148	1123.9	.1
298.15	.199	1137.1	.1
298.15	.251	1145.7	.1
298.15	.298	1151.3	.1
298.15	.346	1154.9	.1
298.15	.441	1160.6	.1
313.15	0	992.2	.1
313.15	.025	1031.2	.1
313.15	.05	1059.7	.1
313.15	.075	1079.7	.1
313.15	.1	1093.5	.1
313.15	.148	1113.6	.1
313.15	.199	1126.8	.1
313.15	.251	1135.5	.1
313.15	.298	1141.2	.1
313.15	.346	1144.8	.1
313.15	.441	1150.6	.1
323.15	0	988.1	.1
323.15	.025	1025.9	.1
323.15	.05	1053.6	.1
323.15	.075	1073.1	.1
323.15	.1	1087.6	.1
323.15	.148	1106.6	.1
323.15	.199	1119.9	.1
323.15	.251	1128.6	.1
323.15	.298	1134.4	.1
323.15	.346	1138.1	.1
323.15	.441	1144	.1
333.15	0	983.2	.1
333.15	.025	1020.1	.1
333.15	.05	1047.1	.1
333.15	.075	1066.2	.1
333.15	.1	1080.5	.1
333.15	.148	1099.5	.1
333.15	.199	1112.9	.1
333.15	.251	1121.7	.1
333.15	.298	1127.6	.1
333.15	.346	1131.4	.1
333.15	.441	1137.3	.1
343.15	0	977.8	.1
343.15	.025	1013.9	.1
343.15	.05	1040.3	.1
343.15	.075	1059.2	.1
343.15	.1	1073.3	.1
343.15	.148	1092.3	.1
343.15	.199	1105.7	.1
343.15	.251	1114.7	.1
343.15	.298	1120.7	.1
343.15	.346	1124.6	.1
343.15	.441	1130.7	.1
358.15	0	968.3	.1
358.15	.025	1003.9	.1
358.15	.05	1029.7	.1
358.15	.075	1048.2	.1
358.15	.1	1062.3	.1
358.15	.148	1081.2	.1
358.15	.199	1094.9	.1
358.15	.251	1104.1	.1
358.15	.298	1110.3	.1
358.15	.346	1114.4	.1
358.15	.441	1120.7	.1
