Measured thermophysical data. Density of Methanolic Alkali Halide Salt Solutions by Experiment and Molecular Simulation
Source: J. Chem. Eng. Data, 2015, 10.1021/je5009944
Compound 1: lithium chloride, ClLi, purity 99%
Compound 2: lithium bromide, BrLi, purity 99.9%
Compound 3: lithium iodide, ILi, purity 99%
Compound 4: sodium chloride, ClNa, purity 99.5%
Compound 5: sodium bromide, BrNa, purity 99%
Compound 6: sodium iodide, INa, purity 99.5%
Compound 7: potassium fluoride, FK, purity 99%
Compound 8: potassium chloride, ClK, purity 99.5%
Compound 9: potassium bromide, BrK, purity 99.5%
Compound 10: potassium iodide, IK, purity 99%
Compound 11: rubidium chloride, ClRb, purity 99.8%
Compound 12: rubidium bromide, BrRb, purity 99.7%
Compound 13: rubidium iodide, IRb, purity 99.8%
Compound 14: cesium fluoride, CsF, purity 99.9%
Compound 15: cesium chloride, ClCs, purity 99.9%
Compound 16: cesium bromide, BrCs, purity 99.5%
Compound 17: cesium iodide, CsI, purity 99.9%
Compound 18: methanol, CH4O, purity 99.9%

System: methanol; phases: Liquid
Fixed: Pressure, kPa = 101.325
Property: Mass density, kg/m3 (Liquid); method: Vibrating tube method
Temperature, K	Mass density, kg/m3	uncertainty
298.15	786.5	.1
308.15	777.1	.1
318.15	767.5	.1

System: methanol + lithium chloride; phases: Liquid
Fixed: Pressure, kPa = 101
Property: Mass density, kg/m3 (Liquid); method: Vibrating tube method
Temperature, K	Mole fraction of lithium chloride	Mass density, kg/m3	uncertainty
298.15	.0101	797	.1
298.15	.0204	807.3	.1
298.15	.0309	817.9	.1
298.15	.0417	828	.1
298.15	.0526	838.8	.1
308.15	.0101	787.9	.1
308.15	.0204	798.4	.1
308.15	.0309	809.3	.1
308.15	.0417	819.7	.1
308.15	.0526	830.6	.1
318.15	.0101	778.7	.1
318.15	.0204	789.5	.1
318.15	.0309	800.6	.1
318.15	.0417	811.2	.1
318.15	.0526	822.4	.1

System: methanol + lithium bromide; phases: Liquid
Fixed: Pressure, kPa = 101
Property: Mass density, kg/m3 (Liquid); method: Vibrating tube method
Temperature, K	Mole fraction of lithium bromide	Mass density, kg/m3	uncertainty
298.15	.0101	807.2	.1
298.15	.0204	827.9	.1
298.15	.0309	849	.1
298.15	.0417	870.7	.1
298.15	.0526	892.5	.1
308.15	.0101	797.9	.1
308.15	.0204	818.8	.1
308.15	.0309	840	.1
308.15	.0417	861.9	.1
308.15	.0526	883.9	.1
318.15	.0101	788.6	.1
318.15	.0204	809.6	.1
318.15	.0309	831.1	.1
318.15	.0417	853.1	.1
318.15	.0526	875.1	.1

System: methanol + lithium iodide; phases: Liquid
Fixed: Pressure, kPa = 101
Property: Mass density, kg/m3 (Liquid); method: Vibrating tube method
Temperature, K	Mole fraction of lithium iodide	Mass density, kg/m3	uncertainty
298.15	.0101	816.8	.1
298.15	.0204	847.2	.1
298.15	.0309	878.5	.1
298.15	.0417	909.7	.1
298.15	.0526	942.5	.1
308.15	.0101	807.5	.1
308.15	.0204	837.9	.1
308.15	.0309	869.4	.1
308.15	.0417	900.5	.1
308.15	.0526	933.4	.1
318.15	.0101	798	.1
318.15	.0204	828.6	.1
318.15	.0309	860.1	.1
318.15	.0417	891.4	.1
318.15	.0526	924.3	.1

System: methanol + sodium chloride; phases: Liquid
Fixed: Pressure, kPa = 101
Property: Mass density, kg/m3 (Liquid); method: Vibrating tube method
Temperature, K	Mole fraction of sodium chloride	Mass density, kg/m3	uncertainty
298.15	.0017	789.1	.1
298.15	.0034	791.4	.1
298.15	.0051	794	.1
298.15	.0068	796.4	.1
308.15	.0017	779.7	.1
308.15	.0034	782.1	.1
308.15	.0051	784.6	.1
308.15	.0068	787.1	.1
318.15	.0017	770.1	.1
318.15	.0034	772.6	.1
318.15	.0051	775.2	.1
318.15	.0068	777.7	.1

System: methanol + sodium bromide; phases: Liquid
Fixed: Pressure, kPa = 101
Property: Mass density, kg/m3 (Liquid); method: Vibrating tube method
Temperature, K	Mole fraction of sodium bromide	Mass density, kg/m3	uncertainty
298.15	.0081	806	.1
298.15	.0163	825.5	.1
298.15	.0246	844.9	.1
298.15	.0331	864.9	.1
298.15	.0417	885	.1
308.15	.0081	796.6	.1
308.15	.0163	816.2	.1
308.15	.0246	835.6	.1
308.15	.0331	855.6	.1
308.15	.0417	875.7	.1
318.15	.0081	787.1	.1
318.15	.0163	806.7	.1
318.15	.0246	826.1	.1
318.15	.0331	846.1	.1
318.15	.0417	866.3	.1

System: methanol + sodium iodide; phases: Liquid
Fixed: Pressure, kPa = 101
Property: Mass density, kg/m3 (Liquid); method: Vibrating tube method
Temperature, K	Mole fraction of sodium iodide	Mass density, kg/m3	uncertainty
298.15	.0101	820.3	.1
298.15	.0204	854.6	.1
298.15	.0309	889.7	.1
298.15	.0417	924.6	.1
298.15	.0526	960.4	.1
308.15	.0101	810.8	.1
308.15	.0204	845.1	.1
308.15	.0309	880.1	.1
308.15	.0417	914.9	.1
308.15	.0526	950.6	.1
318.15	.0101	801.2	.1
318.15	.0204	835.5	.1
318.15	.0309	870.5	.1
318.15	.0417	905.1	.1
318.15	.0526	940.7	.1

System: methanol + potassium fluoride; phases: Liquid
Fixed: Pressure, kPa = 101
Property: Mass density, kg/m3 (Liquid); method: Vibrating tube method
Temperature, K	Mole fraction of potassium fluoride	Mass density, kg/m3	uncertainty
298.15	.0022	790	.1
298.15	.0044	793.3	.1
298.15	.0066	796.6	.1
298.15	.0089	799.8	.1
298.15	.0111	803	.1
308.15	.0022	780.6	.1
308.15	.0044	784	.1
308.15	.0066	787.3	.1
308.15	.0089	790.5	.1
308.15	.0111	793.8	.1
318.15	.0022	771.1	.1
318.15	.0044	774.5	.1
318.15	.0066	777.8	.1
318.15	.0089	781.1	.1
318.15	.0111	784.3	.1

System: methanol + potassium chloride; phases: Liquid
Fixed: Pressure, kPa = 101
Property: Mass density, kg/m3 (Liquid); method: Vibrating tube method
Temperature, K	Mole fraction of potassium chloride	Mass density, kg/m3	uncertainty
298.15	.0007	787.7	.1
298.15	.0014	788.9	.1
298.15	.0021	790	.1
308.15	.0007	778.3	.1
308.15	.0014	779.5	.1
308.15	.0021	780.6	.1
318.15	.0007	768.7	.1
318.15	.0014	769.9	.1
318.15	.0021	771.1	.1

System: methanol + potassium bromide; phases: Liquid
Fixed: Pressure, kPa = 101
Property: Mass density, kg/m3 (Liquid); method: Vibrating tube method
Temperature, K	Mole fraction of potassium bromide	Mass density, kg/m3	uncertainty
298.15	.0012	789.8	.1
298.15	.0024	792.9	.1
298.15	.0036	796	.1
298.15	.0048	799.1	.1
308.15	.0012	780.3	.1
308.15	.0024	783.5	.1
308.15	.0036	786.6	.1
308.15	.0048	789.7	.1
318.15	.0012	770.8	.1
318.15	.0024	774	.1
318.15	.0036	777.1	.1
318.15	.0048	780.2	.1

System: methanol + potassium iodide; phases: Liquid
Fixed: Pressure, kPa = 101
Property: Mass density, kg/m3 (Liquid); method: Vibrating tube method
Temperature, K	Mole fraction of potassium iodide	Mass density, kg/m3	uncertainty
298.15	.0054	806.2	.1
298.15	.0109	825.8	.1
298.15	.0165	845	.1
298.15	.0221	864.6	.1
298.15	.0277	883.9	.1
308.15	.0054	796.7	.1
308.15	.0109	816.3	.1
308.15	.0165	835.5	.1
308.15	.0221	855	.1
308.15	.0277	874.4	.1
318.15	.0054	787.1	.1
318.15	.0109	806.7	.1
318.15	.0165	825.8	.1
318.15	.0221	845.3	.1
318.15	.0277	864.5	.1

System: methanol + rubidium chloride; phases: Liquid
Fixed: Pressure, kPa = 101
Property: Mass density, kg/m3 (Liquid); method: Vibrating tube method
Temperature, K	Mole fraction of rubidium chloride	Mass density, kg/m3	uncertainty
298.15	.001	789.3	.1
298.15	.002	792.1	.1
298.15	.003	794.6	.1
308.15	.001	779.9	.1
308.15	.002	782.6	.1
308.15	.003	785.3	.1
318.15	.001	770.3	.1
318.15	.002	773.1	.1
318.15	.003	775.7	.1

System: methanol + rubidium bromide; phases: Liquid
Fixed: Pressure, kPa = 101
Property: Mass density, kg/m3 (Liquid); method: Vibrating tube method
Temperature, K	Mole fraction of rubidium bromide	Mass density, kg/m3	uncertainty
298.15	.0011	790.6	.1
298.15	.0022	794.7	.1
298.15	.0033	798.7	.1
298.15	.0044	802.7	.1
308.15	.0011	781.2	.1
308.15	.0022	785.3	.1
308.15	.0033	789.3	.1
308.15	.0044	793.3	.1
318.15	.0011	771.7	.1
318.15	.0022	775.7	.1
318.15	.0033	779.7	.1
318.15	.0044	783.7	.1

System: methanol + rubidium iodide; phases: Liquid
Fixed: Pressure, kPa = 101
Property: Mass density, kg/m3 (Liquid); method: Vibrating tube method
Temperature, K	Mole fraction of rubidium iodide	Mass density, kg/m3	uncertainty
298.15	.0026	798.7	.1
298.15	.0052	810.7	.1
298.15	.0079	822.7	.1
298.15	.0105	834.8	.1
298.15	.0132	846.7	.1
308.15	.0026	789.2	.1
308.15	.0052	801.2	.1
308.15	.0079	813.5	.1
308.15	.0105	825.1	.1
308.15	.0132	837.1	.1
318.15	.0026	779.6	.1
318.15	.0052	791.6	.1
318.15	.0079	803.8	.1
318.15	.0105	815.4	.1
318.15	.0132	827.3	.1

System: methanol + cesium fluoride; phases: Liquid
Fixed: Pressure, kPa = 101
Property: Mass density, kg/m3 (Liquid); method: Vibrating tube method
Temperature, K	Mole fraction of cesium fluoride	Mass density, kg/m3	uncertainty
298.15	.0011	790.6	.1
298.15	.0022	794.6	.1
298.15	.0033	798.6	.1
308.15	.0011	781.2	.1
308.15	.0022	785.2	.1
308.15	.0033	789.2	.1
318.15	.0011	771.6	.1
318.15	.0022	775.6	.1
318.15	.0033	779.6	.1

System: methanol + cesium chloride; phases: Liquid
Fixed: Pressure, kPa = 101
Property: Mass density, kg/m3 (Liquid); method: Vibrating tube method
Temperature, K	Mole fraction of cesium chloride	Mass density, kg/m3	uncertainty
298.15	.0012	791	.1
298.15	.0024	795.6	.1
298.15	.0036	800.1	.1
298.15	.0048	804.5	.1
308.15	.0012	781.6	.1
308.15	.0024	786.2	.1
308.15	.0036	790.6	.1
308.15	.0048	795	.1
318.15	.0012	772	.1
318.15	.0024	776.6	.1
318.15	.0036	781	.1
318.15	.0048	785.4	.1

System: methanol + cesium bromide; phases: Liquid
Fixed: Pressure, kPa = 101
Property: Mass density, kg/m3 (Liquid); method: Vibrating tube method
Temperature, K	Mole fraction of cesium bromide	Mass density, kg/m3	uncertainty
298.15	.001	791.3	.1
298.15	.002	796.1	.1
298.15	.003	800.8	.1
308.15	.001	781.8	.1
308.15	.002	786.6	.1
308.15	.003	791.3	.1
318.15	.001	772.2	.1
318.15	.002	777	.1
318.15	.003	781.7	.1

System: methanol + cesium iodide; phases: Liquid
Fixed: Pressure, kPa = 101
Property: Mass density, kg/m3 (Liquid); method: Vibrating tube method
Temperature, K	Mole fraction of cesium iodide	Mass density, kg/m3	uncertainty
298.15	.001	792.3	.1
298.15	.002	798	.1
298.15	.003	803.7	.1
298.15	.004	809.4	.1
308.15	.001	782.9	.1
308.15	.002	788.5	.1
308.15	.003	794.2	.1
308.15	.004	799.8	.1
318.15	.001	773.3	.1
318.15	.002	778.9	.1
318.15	.003	784.6	.1
318.15	.004	790.2	.1
