Measured thermophysical data. Determination of the Critical Properties of C6 C10 n-Alkanes and Their Binary Systems Using a Flow Apparatus
Source: J. Chem. Eng. Data, 2014, 10.1021/je500756d
Compound 1: hexane, C6H14, purity 99%
Compound 2: heptane, C7H16, purity 99%
Compound 3: octane, C8H18, purity 99%
Compound 4: nonane, C9H20, purity 99%
Compound 5: decane, C10H22, purity 99%

System: hexane; phases: Liquid, Gas
Property: Critical temperature, K (Liquid); method: Visual observation in an unstirred cell
Critical temperature, K	uncertainty
507.79	.4

System: hexane; phases: Liquid, Gas
Property: Critical pressure, kPa (Liquid); method: Direct measurement
Critical pressure, kPa	uncertainty
3033	10

System: heptane; phases: Liquid, Gas
Property: Critical temperature, K (Liquid); method: Visual observation in an unstirred cell
Critical temperature, K	uncertainty
540.14	.4

System: heptane; phases: Liquid, Gas
Property: Critical pressure, kPa (Liquid); method: Direct measurement
Critical pressure, kPa	uncertainty
2736	10

System: octane; phases: Liquid, Gas
Property: Critical temperature, K (Liquid); method: Visual observation in an unstirred cell
Critical temperature, K	uncertainty
568.92	.4

System: octane; phases: Liquid, Gas
Property: Critical pressure, kPa (Liquid); method: Direct measurement
Critical pressure, kPa	uncertainty
2496	10

System: nonane; phases: Liquid, Gas
Property: Critical temperature, K (Liquid); method: Visual observation in an unstirred cell
Critical temperature, K	uncertainty
594.52	.4

System: nonane; phases: Liquid, Gas
Property: Critical pressure, kPa (Liquid); method: Direct measurement
Critical pressure, kPa	uncertainty
2278	10

System: decane; phases: Liquid, Gas
Property: Critical temperature, K (Liquid); method: Visual observation in an unstirred cell
Critical temperature, K	uncertainty
617.73	.4

System: decane; phases: Liquid, Gas
Property: Critical pressure, kPa (Liquid); method: Direct measurement
Critical pressure, kPa	uncertainty
2106	10

System: hexane + heptane; phases: Liquid, Gas
Property: Critical temperature, K (Liquid); method: Visual observation in an unstirred cell
Mole fraction of hexane	Critical temperature, K	uncertainty
.1	537.41	.4
.2	534.58	.4
.3	531.71	.4
.4	528.64	.4
.5	525.61	.4
.6	522.15	.4
.7	518.62	.4
.8	515.02	.4
.9	511.43	.4

System: hexane + heptane; phases: Liquid, Gas
Property: Critical pressure, kPa (Liquid); method: Direct measurement
Mole fraction of hexane	Critical pressure, kPa	uncertainty
.1	2796	10
.2	2831	10
.3	2866	10
.4	2903	10
.5	2937	10
.6	2967	10
.7	2996	10
.8	3021	10
.9	3030	10

System: hexane + octane; phases: Liquid, Gas
Property: Critical temperature, K (Liquid); method: Visual observation in an unstirred cell
Mole fraction of hexane	Critical temperature, K	uncertainty
.1	564.53	.4
.2	559.83	.4
.3	554.93	.4
.4	549.44	.4
.5	543.43	.4
.6	537.15	.4
.7	530.62	.4
.8	523.54	.4
.9	515.83	.4

System: hexane + octane; phases: Liquid, Gas
Property: Critical pressure, kPa (Liquid); method: Direct measurement
Mole fraction of hexane	Critical pressure, kPa	uncertainty
.1	2595	10
.2	2674	10
.3	2751	10
.4	2826	10
.5	2899	10
.6	2956	10
.7	3001	10
.8	3032	10
.9	3055	10

System: octane + heptane; phases: Liquid, Gas
Property: Critical temperature, K (Liquid); method: Visual observation in an unstirred cell
Mole fraction of heptane	Critical temperature, K	uncertainty
.1	566.4	.4
.2	563.89	.4
.3	561.32	.4
.4	558.61	.4
.5	555.71	.4
.6	552.8	.4
.7	549.81	.4
.8	546.74	.4
.9	543.49	.4

System: octane + heptane; phases: Liquid, Gas
Property: Critical pressure, kPa (Liquid); method: Direct measurement
Mole fraction of heptane	Critical pressure, kPa	uncertainty
.1	2541	10
.2	2575	10
.3	2601	10
.4	2633	10
.5	2659	10
.6	2680	10
.7	2701	10
.8	2723	10
.9	2730	10

System: hexane + decane; phases: Liquid, Gas
Property: Critical temperature, K (Liquid); method: Visual observation in an unstirred cell
Mole fraction of hexane	Critical temperature, K	uncertainty
.1	609.6	.4
.2	602.16	.4
.3	594.63	.4
.4	585.6	.4
.5	576.74	.4
.6	565.61	.4
.7	553.57	.4
.8	539.52	.4
.9	524.75	.4

System: hexane + decane; phases: Liquid, Gas
Property: Critical pressure, kPa (Liquid); method: Direct measurement
Mole fraction of hexane	Critical pressure, kPa	uncertainty
.1	2306	10
.2	2470	10
.3	2636	10
.4	2801	10
.5	2945	10
.6	3052	10
.7	3157	10
.8	3185	10
.9	3170	10

System: decane + heptane; phases: Liquid, Gas
Property: Critical temperature, K (Liquid); method: Visual observation in an unstirred cell
Mole fraction of heptane	Critical temperature, K	uncertainty
.1	613.27	.4
.2	606.1	.4
.3	600.97	.4
.4	594.71	.4
.5	587.76	.4
.6	579.15	.4
.7	571.84	.4
.8	562.8	.4
.9	552.11	.4

System: decane + heptane; phases: Liquid, Gas
Property: Critical pressure, kPa (Liquid); method: Direct measurement
Mole fraction of heptane	Critical pressure, kPa	uncertainty
.1	2225	10
.2	2310	10
.3	2395	10
.4	2476	10
.5	2581	10
.6	2664	10
.7	2736	10
.8	2764	10
.9	2782	10

System: hexane + nonane; phases: Liquid, Gas
Property: Critical temperature, K (Liquid); method: Visual observation in an unstirred cell
Mole fraction of hexane	Critical temperature, K	uncertainty
.1	589.91	.4
.2	584.6	.4
.3	581.01	.4
.4	573.39	.4
.5	567.76	.4
.6	560.5	.4
.7	553.32	.4
.8	541.7	.4
.9	529.01	.4

System: hexane + nonane; phases: Liquid, Gas
Property: Critical pressure, kPa (Liquid); method: Direct measurement
Mole fraction of hexane	Critical pressure, kPa	uncertainty
.1	2456	10
.2	2583	10
.3	2715	10
.4	2812	10
.5	2895	10
.6	2974	10
.7	3054	10
.8	3119	10
.9	3121	10

System: nonane + heptane; phases: Liquid, Gas
Property: Critical temperature, K (Liquid); method: Visual observation in an unstirred cell
Mole fraction of heptane	Critical temperature, K	uncertainty
.1	589.58	.4
.2	585.47	.4
.3	581.66	.4
.4	576.8	.4
.5	572.12	.4
.6	567.3	.4
.7	562.53	.4
.8	556.49	.4
.9	550.58	.4

System: nonane + heptane; phases: Liquid, Gas
Property: Critical pressure, kPa (Liquid); method: Direct measurement
Mole fraction of heptane	Critical pressure, kPa	uncertainty
.1	2392	10
.2	2447	10
.3	2499	10
.4	2566	10
.5	2631	10
.6	2674	10
.7	2714	10
.8	2742	10
.9	2767	10

System: octane + nonane; phases: Liquid, Gas
Property: Critical temperature, K (Liquid); method: Visual observation in an unstirred cell
Mole fraction of octane	Critical temperature, K	uncertainty
.1	592.47	.4
.2	590.09	.4
.3	587.55	.4
.4	584.73	.4
.5	581.92	.4
.6	579.81	.4
.7	577.55	.4
.8	574.37	.4
.9	572.21	.4

System: octane + nonane; phases: Liquid, Gas
Property: Critical pressure, kPa (Liquid); method: Direct measurement
Mole fraction of octane	Critical pressure, kPa	uncertainty
.1	2339	10
.2	2371	10
.3	2398	10
.4	2420	10
.5	2441	10
.6	2463	10
.7	2486	10
.8	2506	10
.9	2504	10

System: octane + decane; phases: Liquid, Gas
Property: Critical temperature, K (Liquid); method: Visual observation in an unstirred cell
Mole fraction of octane	Critical temperature, K	uncertainty
.1	614.21	.4
.2	610.47	.4
.3	606.73	.4
.4	601.97	.4
.5	597.31	.4
.6	592.2	.4
.7	586.83	.4
.8	581.35	.4
.9	576.46	.4

System: octane + decane; phases: Liquid, Gas
Property: Critical pressure, kPa (Liquid); method: Direct measurement
Mole fraction of octane	Critical pressure, kPa	uncertainty
.1	2185	10
.2	2247	10
.3	2304	10
.4	2349	10
.5	2396	10
.6	2430	10
.7	2471	10
.8	2510	10
.9	2507	10

System: nonane + decane; phases: Liquid, Gas
Property: Critical temperature, K (Liquid); method: Visual observation in an unstirred cell
Mole fraction of nonane	Critical temperature, K	uncertainty
.1	615.7	.4
.2	613.66	.4
.3	611.84	.4
.4	609.39	.4
.5	607.11	.4
.6	605.32	.4
.7	603.48	.4
.8	600.81	.4
.9	597.91	.4

System: nonane + decane; phases: Liquid, Gas
Property: Critical pressure, kPa (Liquid); method: Direct measurement
Mole fraction of nonane	Critical pressure, kPa	uncertainty
.1	2147	10
.2	2176	10
.3	2198	10
.4	2223	10
.5	2243	10
.6	2261	10
.7	2274	10
.8	2283	10
.9	2286	10
