Measured thermophysical data. Isothermal Vapor Liquid Equilibrium for the Binary System of 2,3,3,3-Tetrafluoropropene and 2-Chloro-1,1,1,2-tetrafluoropropane
Source: J. Chem. Eng. Data, 2015, 10.1021/je501130r
Compound 1: HFO-1234yf, C3H2F4, purity 99.9%
Compound 2: 2-chloro-1,1,1,2-tetrafluoropropane, C3H3ClF4, purity 99.5%

System: HFO-1234yf; phases: Liquid, Gas
Property: Vapor or sublimation pressure, kPa (Liquid); method: Closed cell (Static) method
Temperature, K	Vapor or sublimation pressure, kPa	uncertainty
293.15	591.5	1.5
303.15	783.6	1.5
313.15	1018.9	1.5

System: 2-chloro-1,1,1,2-tetrafluoropropane; phases: Liquid, Gas
Property: Vapor or sublimation pressure, kPa (Liquid); method: Closed cell (Static) method
Temperature, K	Vapor or sublimation pressure, kPa	uncertainty
293.15	128.3	1.5
303.15	181.6	1.5
313.15	247.6	1.5

System: 2-chloro-1,1,1,2-tetrafluoropropane + HFO-1234yf; phases: Liquid, Gas
Property: Vapor or sublimation pressure, kPa (Liquid); method: Closed cell (Static) method
Mole fraction of HFO-1234yf	Temperature, K	Vapor or sublimation pressure, kPa	uncertainty
0	293.15	128.3	1.5
.134	293.15	180.7	1.5
.255	293.15	230.5	1.5
.401	293.15	294.6	1.5
.475	293.15	328.5	1.5
.573	293.15	373.1	1.5
.675	293.15	423.7	1.5
.775	293.15	474.3	1.5
.915	293.15	545.8	1.5
1	293.15	591.5	1.5
0	303.15	181.6	1.5
.134	303.15	245.6	1.5
.255	303.15	309.6	1.5
.394	303.15	388.9	1.5
.471	303.15	433.7	1.5
.575	303.15	496.2	1.5
.67	303.15	558.8	1.5
.749	303.15	609.3	1.5
.876	303.15	694.3	1.5
1	303.15	783.6	1.5
0	313.15	247.6	1.5
.139	313.15	330.4	1.5
.255	313.15	407.3	1.5
.386	313.15	499.7	1.5
.464	313.15	558.5	1.5
.577	313.15	648.7	1.5
.674	313.15	728.6	1.5
.748	313.15	791.8	1.5
.878	313.15	907.3	1.5
1	313.15	1018.9	1.5

System: 2-chloro-1,1,1,2-tetrafluoropropane + HFO-1234yf; phases: Gas, Liquid
Property: Mole fraction of HFO-1234yf (Gas); method: Chromatography
Mole fraction of HFO-1234yf	Temperature, K	Mole fraction of HFO-1234yf	uncertainty
0	293.15	0	.005
.134	293.15	.363	.005
.255	293.15	.568	.005
.401	293.15	.722	.005
.475	293.15	.778	.005
.573	293.15	.843	.005
.675	293.15	.895	.005
.775	293.15	.929	.005
.915	293.15	.977	.005
1	293.15	1	.005
0	303.15	0	.005
.134	303.15	.343	.005
.255	303.15	.543	.005
.394	303.15	.698	.005
.471	303.15	.769	.005
.575	303.15	.836	.005
.67	303.15	.885	.005
.749	303.15	.921	.005
.876	303.15	.964	.005
1	303.15	1	.005
0	313.15	0	.005
.139	313.15	.332	.005
.255	313.15	.522	.005
.386	313.15	.675	.005
.464	313.15	.744	.005
.577	313.15	.817	.005
.674	313.15	.873	.005
.748	313.15	.907	.005
.878	313.15	.958	.005
1	313.15	1	.005
