Measured thermophysical data. Thermodynamic Models for Determination of the Solubility of Sulfanilic Acid in Different Solvents at Temperatures from (278.15 to 328.15) K
Source: J. Chem. Eng. Data, 2014, 10.1021/je500867u
Compound 1: sulfanilic acid, C6H7NO3S, purity 99.8%
Compound 2: methanol, CH4O, purity 99.7%
Compound 3: ethanol, C2H6O, purity 99.9%
Compound 4: 2-propanol, C3H8O, purity 99.7%
Compound 5: acetone, C3H6O, purity 99.8%
Compound 6: acetonitrile, C2H3N, purity 99.5%
Compound 7: formic acid, CH2O2, purity 99.5%
Compound 8: acetic acid, C2H4O2, purity 99.8%

System: sulfanilic acid; phases: Crystal, Liquid, Air at 1 atmosphere
Property: Normal melting temperature, K (Crystal); method: Visual observation
Normal melting temperature, K	uncertainty
561.1	.2

System: 2-propanol + sulfanilic acid; phases: Liquid, Crystal
Fixed: Pressure, kPa = 100
Property: Mole fraction of sulfanilic acid (Liquid); method: gravimetric method
Temperature, K	Mole fraction of sulfanilic acid	uncertainty
278.15	.000253	.00000506
283.15	.00027	.0000054
288.15	.000303	.00000606
293.15	.000318	.00000636
298.15	.000348	.00000696
303.15	.000373	.00000746
308.15	.000403	.00000806
313.15	.000429	.00000858
318.15	.000461	.00000922
323.15	.000494	.00000988
328.15	.000525	.0000105

System: methanol + sulfanilic acid; phases: Liquid, Crystal
Fixed: Pressure, kPa = 100
Property: Mole fraction of sulfanilic acid (Liquid); method: gravimetric method
Temperature, K	Mole fraction of sulfanilic acid	uncertainty
278.15	.000247	.00000494
283.15	.000263	.00000526
288.15	.000284	.00000568
293.15	.000299	.00000598
298.15	.000318	.00000636
303.15	.000342	.00000684
308.15	.000362	.00000724
313.15	.000383	.00000766
318.15	.000403	.00000806
323.15	.000432	.00000864
328.15	.00045	.000009

System: ethanol + sulfanilic acid; phases: Liquid, Crystal
Fixed: Pressure, kPa = 100
Property: Mole fraction of sulfanilic acid (Liquid); method: gravimetric method
Temperature, K	Mole fraction of sulfanilic acid	uncertainty
278.15	.000213	.00000426
283.15	.000231	.00000462
288.15	.000251	.00000502
293.15	.000264	.00000528
298.15	.000284	.00000568
303.15	.0003	.000006
308.15	.000323	.00000646
313.15	.000338	.00000676
318.15	.000363	.00000726
323.15	.000385	.0000077
328.15	.000403	.00000806

System: acetone + sulfanilic acid; phases: Liquid, Crystal
Fixed: Pressure, kPa = 100
Property: Mole fraction of sulfanilic acid (Liquid); method: gravimetric method
Temperature, K	Mole fraction of sulfanilic acid	uncertainty
278.15	.000291	.00000582
283.15	.000296	.00000592
288.15	.000303	.00000606
293.15	.00031	.0000062
298.15	.000317	.00000634
303.15	.000324	.00000648
308.15	.000332	.00000664
313.15	.000338	.00000676
318.15	.000346	.00000692
323.15	.000353	.00000706
328.15	.00036	.0000072

System: acetonitrile + sulfanilic acid; phases: Liquid, Crystal
Fixed: Pressure, kPa = 100
Property: Mole fraction of sulfanilic acid (Liquid); method: gravimetric method
Temperature, K	Mole fraction of sulfanilic acid	uncertainty
278.15	.000132	.00000264
283.15	.000144	.00000288
288.15	.000165	.0000033
293.15	.000178	.00000356
298.15	.000195	.0000039
303.15	.000214	.00000428
308.15	.000235	.0000047
313.15	.000255	.0000051
318.15	.000274	.00000548
323.15	.000301	.00000602
328.15	.000324	.00000648

System: formic acid + sulfanilic acid; phases: Liquid, Crystal
Fixed: Pressure, kPa = 100
Property: Mole fraction of sulfanilic acid (Liquid); method: gravimetric method
Temperature, K	Mole fraction of sulfanilic acid	uncertainty
278.15	.00106	.0000212
283.15	.001158	.00002316
288.15	.00129	.0000258
293.15	.00139	.0000278
298.15	.00152	.0000304
303.15	.00166	.0000332
308.15	.00181	.0000362
313.15	.00196	.0000392
318.15	.00213	.0000426
323.15	.00231	.0000462
328.15	.002468	.00004936

System: acetic acid + sulfanilic acid; phases: Liquid, Crystal
Fixed: Pressure, kPa = 100
Property: Mole fraction of sulfanilic acid (Liquid); method: gravimetric method
Temperature, K	Mole fraction of sulfanilic acid	uncertainty
288.15	.002037	.00004074
293.15	.00217	.0000434
298.15	.00227	.0000454
303.15	.002398	.00004796
308.15	.002516	.00005032
313.15	.002636	.00005272
318.15	.002769	.00005538
323.15	.00291	.0000582
328.15	.003037	.00006074
