Measured thermophysical data. Vapor Liquid Equilibria of the FeSO4 Fe2(SO4)3 H2SO4 H2O System at (30, 60, 90, and 101.3) kPa
Source: J. Chem. Eng. Data, 2015, 10.1021/je5010142
Compound 1: sulfuric acid, H2O4S
Compound 2: water, H2O
Compound 3: ferric sulfate, Fe2O12S3

System: sulfuric acid + water + ferric sulfate; phases: Liquid, Gas
Property: Boiling temperature at pressure P, K (Liquid); method: Ebulliometric method (Recirculating still)
Molality, mol/kg of sulfuric acid	Molality, mol/kg of ferric sulfate	Pressure, kPa	Boiling temperature at pressure P, K	uncertainty
.2422	.1957	30	342.78	.15
.2375	.3839	30	343.24	.15
.233	.5648	30	343.54	.15
.2287	.7391	30	343.79	.15
.2245	.907	30	343.9	.15
.2204	1.0688	30	344.35	.15
.2165	1.2249	30	344.56	.15
.4844	.1957	30	343.03	.15
.475	.3839	30	343.44	.15
.466	.5648	30	343.85	.15
.4573	.7391	30	344.25	.15
.4489	.907	30	344.76	.15
.7266	.1957	30	343.29	.15
.7125	.3839	30	343.85	.15
.699	.5648	30	344.35	.15
.686	.7391	30	344.96	.15
.6734	.907	30	345.16	.15
1	.25	30	343.74	.15
1	.5	30	344.3	.15
1	.75	30	344.86	.15
1	1	30	345.87	.15
1	1.25	30	346.71	.15
1.5	.25	30	344.4	.15
1.5	.5	30	345.06	.15
1.5	.75	30	345.87	.15
1.5	1	30	346.79	.15
1.5	1.25	30	347.9	.15
2	.25	30	345.16	.15
2	.5	30	345.97	.15
2	.75	30	346.99	.15
2	1	30	347.5	.15
2	1.25	30	348.87	.15
2.5	.2	30	345.87	.15
2.5	.4	30	346.58	.15
2.5	.6	30	347.4	.15
2.5	.8	30	348.16	.15
2.5	1	30	349.17	.15
3	.25	30	346.89	.15
3	.5	30	348	.15
3	.75	30	349.22	.15
3	1	30	349.83	.15
.2422	.1957	60	359.44	.15
.2375	.3839	60	359.9	.15
.233	.5648	60	360.26	.15
.2287	.7391	60	360.41	.15
.2245	.907	60	360.61	.15
.2204	1.0688	60	361.02	.15
.2165	1.2249	60	361.22	.15
.4844	.1957	60	359.7	.15
.475	.3839	60	360.15	.15
.466	.5648	60	360.51	.15
.4573	.7391	60	360.87	.15
.4489	.907	60	361.38	.15
.7266	.1957	60	360	.15
.7125	.3839	60	360.46	.15
.699	.5648	60	361.02	.15
.686	.7391	60	361.63	.15
.6734	.907	60	361.89	.15
1	.25	60	360.41	.15
1	.5	60	361.02	.15
1	.75	60	361.58	.15
1	1	60	362.65	.15
1	1.25	60	363.37	.15
1.5	.25	60	361.12	.15
1.5	.5	60	361.84	.15
1.5	.75	60	362.55	.15
1.5	1	60	363.57	.15
1.5	1.25	60	364.49	.15
2	.25	60	361.84	.15
2	.5	60	362.75	.15
2	.75	60	363.67	.15
2	1	60	364.79	.15
2	1.25	60	365.35	.15
2.5	.2	60	362.65	.15
2.5	.4	60	363.37	.15
2.5	.6	60	364.08	.15
2.5	.8	60	364.89	.15
2.5	1	60	365.71	.15
3	.25	60	363.67	.15
3	.5	60	364.59	.15
3	.75	60	365.61	.15
3	1	60	366.22	.15
.2422	.1957	90	370.25	.15
.2375	.3839	90	370.71	.15
.233	.5648	90	371.02	.15
.2287	.7391	90	371.33	.15
.2245	.907	90	371.53	.15
.2204	1.0688	90	371.84	.15
.2165	1.2249	90	372.2	.15
.4844	.1957	90	370.61	.15
.475	.3839	90	370.92	.15
.466	.5648	90	371.53	.15
.4573	.7391	90	371.79	.15
.4489	.907	90	372.25	.15
.7266	.1957	90	370.82	.15
.7125	.3839	90	371.33	.15
.699	.5648	90	371.89	.15
.686	.7391	90	372.35	.15
.6734	.907	90	372.86	.15
1	.25	90	371.23	.15
1	.5	90	371.84	.15
1	.75	90	372.45	.15
1	1	90	373.17	.15
1	1.25	90	374.06	.15
1.5	.25	90	371.38	.15
1.5	.5	90	372.03	.15
1.5	.75	90	372.79	.15
1.5	1	90	374.06	.15
1.5	1.25	90	375.08	.15
2	.25	90	372.81	.15
2	.5	90	373.58	.15
2	.75	90	374.52	.15
2	1	90	375.18	.15
2	1.25	90	376.19	.15
2.5	.2	90	373.63	.15
2.5	.4	90	374.29	.15
2.5	.6	90	374.77	.15
2.5	.8	90	375.53	.15
2.5	1	90	376.44	.15
3	.25	90	374.47	.15
3	.5	90	374.72	.15
3	.75	90	376.34	.15
3	1	90	378.08	.15
.2422	.1957	101.3	373.58	.15
.2375	.3839	101.3	374.04	.15
.233	.5648	101.3	374.34	.15
.2287	.7391	101.3	374.37	.15
.2245	.907	101.3	374.57	.15
.2204	1.0688	101.3	374.92	.15
.2165	1.2249	101.3	375.28	.15
.4844	.1957	101.3	373.94	.15
.475	.3839	101.3	374.14	.15
.466	.5648	101.3	374.47	.15
.4573	.7391	101.3	374.87	.15
.4489	.907	101.3	375.28	.15
.7266	.1957	101.3	373.91	.15
.7125	.3839	101.3	374.37	.15
.699	.5648	101.3	374.97	.15
.686	.7391	101.3	375.84	.15
.6734	.907	101.3	376.24	.15
1	.25	101.3	374.31	.15
1	.5	101.3	374.92	.15
1	.75	101.3	375.63	.15
1	1	101.3	376.19	.15
1	1.25	101.3	377.21	.15
1.5	.25	101.3	375.13	.15
1.5	.5	101.3	375.68	.15
1.5	.75	101.3	376.44	.15
1.5	1	101.3	377.26	.15
1.5	1.25	101.3	378.32	.15
2	.25	101.3	375.94	.15
2	.5	101.3	376.65	.15
2	.75	101.3	377.76	.15
2	1	101.3	378.42	.15
2	1.25	101.3	379.49	.15
2.5	.2	101.3	376.7	.15
2.5	.4	101.3	377.36	.15
2.5	.6	101.3	378.12	.15
2.5	.8	101.3	378.78	.15
2.5	1	101.3	379.69	.15
3	.25	101.3	377.76	.15
3	.5	101.3	378.17	.15
3	.75	101.3	379.79	.15
3	1	101.3	380.76	.15
