Measured thermophysical data. Density Measurements of Unloaded and CO2-Loaded 1-Dimethylamino-2-propanol at Temperatures (298.15 to 353.15) K
Source: J. Chem. Eng. Data, 2015, 10.1021/je501126j
Compound 1: 1-(dimethylamino)-2-propanol, C5H13NO, purity 99%
Compound 2: carbon dioxide, CO2, purity 99.99%
Compound 3: water, H2O

System: 1-(dimethylamino)-2-propanol; phases: Liquid
Property: Mass density, kg/m3 (Liquid); method: Vibrating tube method
Temperature, K	Pressure, kPa	Mass density, kg/m3	uncertainty
298.15	101	845.2	5.96
303.15	101	840.4	5.96
308.15	101	835.6	5.96
313.15	101	830.7	5.96
318.15	101	825.9	5.96
323.15	101	820.9	5.96

System: 1-(dimethylamino)-2-propanol + water; phases: Liquid
Fixed: Pressure, kPa = 101
Property: Mass density, kg/m3 (Liquid); method: Vibrating tube method
Mass fraction of 1-(dimethylamino)-2-propanol	Temperature, K	Mass density, kg/m3	uncertainty
.1	298.15	992.5	5.96
.1	303.15	990.8	5.96
.1	308.15	988.9	5.96
.1	313.15	986.7	5.96
.1	318.15	984.2	5.96
.1	323.15	982.1	5.96
.2	298.15	989.5	5.96
.2	303.15	987.2	5.96
.2	308.15	984.6	5.96
.2	313.15	981.9	5.96
.2	318.15	979	5.96
.2	323.15	976	5.96
.3	298.15	984.6	5.96
.3	303.15	981.4	5.96
.3	308.15	978	5.96
.3	313.15	974.5	5.96
.3	318.15	970.9	5.96
.3	323.15	967.2	5.96
.4	298.15	976.7	5.96
.4	303.15	972.8	5.96
.4	308.15	968.7	5.96
.4	313.15	964.6	5.96
.4	318.15	960.5	5.96
.4	323.15	956.3	5.96
.5	298.15	967.2	5.96
.5	303.15	962.9	5.96
.5	308.15	958.5	5.96
.5	313.15	954.1	5.96
.5	318.15	949.4	5.96
.5	323.15	944.8	5.96
.55	298.15	958.7	5.96
.55	303.15	954.2	5.96
.55	308.15	949.7	5.96
.55	313.15	945	5.96
.55	318.15	940.4	5.96
.55	323.15	935.6	5.96
.6	298.15	948.9	5.96
.6	303.15	944.2	5.96
.6	308.15	939.6	5.96
.6	313.15	934.8	5.96
.6	318.15	930	5.96
.6	323.15	925.2	5.96
.71	298.15	929.1	5.96
.71	303.15	924.3	5.96
.71	308.15	919.5	5.96
.71	313.15	914.7	5.96
.71	318.15	909.8	5.96
.71	323.15	904.9	5.96
.81	298.15	905.6	5.96
.81	303.15	900.9	5.96
.81	308.15	896	5.96
.81	313.15	891.1	5.96
.81	318.15	886.2	5.96
.81	323.15	881.2	5.96
.91	298.15	876.5	5.96
.91	303.15	871.1	5.96
.91	308.15	866.9	5.96
.91	313.15	862	5.96
.91	318.15	857.1	5.96
.91	323.15	852.1	5.96
.96	298.15	860.5	5.96
.96	303.15	855.7	5.96
.96	308.15	850.8	5.96
.96	313.15	846	5.96
.96	318.15	841	5.96
.96	323.15	836.1	5.96
1	298.15	845.2	5.96
1	303.15	840.4	5.96
1	308.15	835.6	5.96
1	313.15	830.7	5.96
1	318.15	825.9	5.96
1	323.15	820.9	5.96

System: 1-(dimethylamino)-2-propanol + carbon dioxide + water; phases: Liquid
Fixed: Pressure, kPa = 101
Property: Mass density, kg/m3 (Liquid); method: Vibrating tube method
Solvent: Mass fraction of 1-(dimethylamino)-2-propanol	Mole fraction of carbon dioxide	Temperature, K	Mass density, kg/m3	uncertainty
.3	.007	298.15	1004.9	8.16
.3	.007	303.15	1001.6	8.16
.3	.007	308.15	998.2	8.16
.3	.007	313.15	994.6	8.16
.3	.007	318.15	990.9	8.16
.3	.007	323.15	987.1	8.16
.3	.007	328.15	983.2	8.16
.3	.007	333.15	979.1	8.16
.3	.007	338.15	975	8.16
.3	.007	343.15	970.8	8.16
.3	.014	298.15	1013.4	8.16
.3	.014	303.15	1010.1	8.16
.3	.014	308.15	1006.7	8.16
.3	.014	313.15	1002.8	8.16
.3	.014	318.15	998.7	8.16
.3	.014	323.15	994.6	8.16
.3	.014	328.15	990.2	8.16
.3	.014	333.15	985.7	8.16
.3	.014	338.15	980.6	8.16
.3	.014	343.15	975.8	8.16
.3	.02	298.15	1026	8.16
.3	.02	303.15	1022.6	8.16
.3	.02	308.15	1019.1	8.16
.3	.02	313.15	1015.5	8.16
.3	.02	318.15	1011.9	8.16
.3	.02	323.15	1008.1	8.16
.3	.02	328.15	1004.3	8.16
.3	.02	333.15	1000.3	8.16
.3	.02	338.15	996.4	8.16
.3	.027	298.15	1030.2	8.16
.3	.027	303.15	1026.8	8.16
.3	.027	308.15	1023.3	8.16
.3	.027	313.15	1019.7	8.16
.3	.027	318.15	1016	8.16
.3	.027	323.15	1012.2	8.16
.3	.027	328.15	1008.1	8.16
.3	.027	333.15	1004.3	8.16
.3	.034	298.15	1039.8	8.16
.3	.034	303.15	1036.5	8.16
.3	.034	308.15	1032.7	8.16
.3	.034	313.15	1029.5	8.16
.3	.034	318.15	1025.8	8.16
.3	.034	323.15	1021.9	8.16
.3	.034	328.15	1017.8	8.16
.3	.034	333.15	1011	8.16
.55	.017	298.15	980	8.16
.55	.017	303.15	975.7	8.16
.55	.017	308.15	971.3	8.16
.55	.017	313.15	966.9	8.16
.55	.017	318.15	962.4	8.16
.55	.017	323.15	957.8	8.16
.55	.017	328.15	953.1	8.16
.55	.017	333.15	948.2	8.16
.55	.017	338.15	943.3	8.16
.55	.017	343.15	936.7	8.16
.55	.017	348.15	931.3	8.16
.55	.034	298.15	1004.6	8.16
.55	.034	303.15	1000.2	8.16
.55	.034	308.15	995.7	8.16
.55	.034	313.15	991.1	8.16
.55	.034	318.15	986.5	8.16
.55	.034	323.15	981.9	8.16
.55	.034	328.15	977.3	8.16
.55	.034	333.15	972.5	8.16
.55	.034	338.15	967.7	8.16
.55	.034	343.15	962.8	8.16
.55	.034	348.15	957.7	8.16
.55	.05	298.15	1025.3	8.16
.55	.05	303.15	1021	8.16
.55	.05	308.15	1016.7	8.16
.55	.05	313.15	1012.3	8.16
.55	.05	318.15	1007.8	8.16
.55	.05	323.15	1003.3	8.16
.55	.05	328.15	998.7	8.16
.55	.05	333.15	994.1	8.16
.55	.05	338.15	989.3	8.16
.55	.05	343.15	983.7	8.16
.55	.065	298.15	1031.4	8.16
.55	.065	303.15	1027.1	8.16
.55	.065	308.15	1022.7	8.16
.55	.065	313.15	1018.3	8.16
.55	.065	318.15	1013.8	8.16
.55	.065	323.15	1009.3	8.16
.55	.065	328.15	1004.8	8.16
.55	.065	333.15	1000.1	8.16
.55	.065	338.15	995.4	8.16
.55	.08	298.15	1060.1	8.16
.55	.08	303.15	1055.9	8.16
.55	.08	308.15	1051.8	8.16
.55	.08	313.15	1047.6	8.16
.55	.08	318.15	1043.4	8.16
.55	.08	323.15	1039	8.16
