Measured thermophysical data. Liquid Liquid Equilibria in Ternary Systems of Hexafluoroisopropanol + Perfluorocarbon + Water or Methanol at 298.15 K
Source: J. Chem. Eng. Data, 2014, 10.1021/je500455u
Compound 1: perfluorohexane, C6F14, purity 99%
Compound 2: perfluoromethylcyclohexane, C7F14, purity 99%
Compound 3: water, H2O, purity 99.8%
Compound 4: 1,1,1,3,3,3-hexafluoroisopropanol, C3H2F6O, purity 99%
Compound 5: methanol, CH4O, purity 99.9%

System: perfluorohexane; phases: Liquid
Fixed: Pressure, kPa = 101.325
Property: Mass density, kg/m3 (Liquid); method: Vibrating tube method
Temperature, K	Mass density, kg/m3	uncertainty
278.15	1742.5	.1
283.15	1728.3	.1
288.15	1713.8	.1
293.15	1699.2	.1
298.15	1684.4	.1
303.15	1669.4	.1
308.15	1654.1	.1
313.15	1638.6	.1
318.15	1622.9	.1
323.15	1606.4	.1
328.15	1590.5	.1

System: perfluoromethylcyclohexane; phases: Liquid
Fixed: Pressure, kPa = 101.325
Property: Mass density, kg/m3 (Liquid); method: Vibrating tube method
Temperature, K	Mass density, kg/m3	uncertainty
278.15	1841	.1
283.15	1827.6	.1
288.15	1814	.1
293.15	1800.4	.1
298.15	1786.6	.1
303.15	1772.7	.1
308.15	1758.7	.1
313.15	1744.5	.1
318.15	1730.3	.1
323.15	1715.8	.1
328.15	1701.2	.1
333.15	1686.4	.1
338.15	1671.5	.1
343.15	1656.3	.1

System: 1,1,1,3,3,3-hexafluoroisopropanol; phases: Liquid
Fixed: Pressure, kPa = 101.325
Property: Mass density, kg/m3 (Liquid); method: Vibrating tube method
Temperature, K	Mass density, kg/m3	uncertainty
298.15	1604.84	.1

System: methanol; phases: Liquid
Fixed: Pressure, kPa = 101.325
Property: Mass density, kg/m3 (Liquid); method: Vibrating tube method
Temperature, K	Mass density, kg/m3	uncertainty
298.15	786.58	.1

System: perfluorohexane + 1,1,1,3,3,3-hexafluoroisopropanol + water; phases: Liquid mixture 1, Liquid mixture 2
Fixed: Pressure, kPa = 101
Fixed: Temperature, K = 298.15
Property: Mass fraction of 1,1,1,3,3,3-hexafluoroisopropanol (Liquid mixture 1); method: Titration method
Mass fraction of water	Mass fraction of 1,1,1,3,3,3-hexafluoroisopropanol	uncertainty
0	0	.0012
.0013	.195	.0012
.0031	.232	.0012
.016	.391	.0012
.038	.594	.0012
.045	.695	.0012
.086	.747	.0012
.122	.776	.0012
.286	.681	.0012
.426	.563	.0012
.467	.524	.0012
.674	.325	.0012
.756	.243	.0012
1	0	.0012

System: perfluorohexane + 1,1,1,3,3,3-hexafluoroisopropanol + water; phases: Liquid mixture 2, Liquid mixture 1
Property: Mass fraction of 1,1,1,3,3,3-hexafluoroisopropanol (Liquid mixture 2); method: Chromatography
Property: Mass fraction of 1,1,1,3,3,3-hexafluoroisopropanol (Liquid mixture 1); method: Chromatography
Property: Mass fraction of water (Liquid mixture 1); method: Chromatography
Temperature, K	Pressure, kPa	Mass fraction of water	Mass fraction of 1,1,1,3,3,3-hexafluoroisopropanol	uncertainty	Mass fraction of 1,1,1,3,3,3-hexafluoroisopropanol	uncertainty	Mass fraction of water	uncertainty
298.15	101.325	.849	.148	.00296	.0258	.000516	.00116	.0000232
298.15	101.325	.677	.317	.00634	.048	.00096	.00214	.0000428
298.15	101.325	.558	.431	.00862	.0592	.001184	.00264	.0000528
298.15	101.325	.455	.529	.01058	.0744	.001488	.00331	.0000662
298.15	101.325	.293	.675	.0135	.091	.00182	.00404	.0000808

System: perfluoromethylcyclohexane + 1,1,1,3,3,3-hexafluoroisopropanol + water; phases: Liquid mixture 1, Liquid mixture 2
Fixed: Pressure, kPa = 101
Fixed: Temperature, K = 298.15
Property: Mass fraction of 1,1,1,3,3,3-hexafluoroisopropanol (Liquid mixture 1); method: Titration method
Mass fraction of water	Mass fraction of 1,1,1,3,3,3-hexafluoroisopropanol	uncertainty
0	0	.0012
.021	.317	.0012
.029	.44	.0012
.043	.513	.0012
.059	.629	.0012
.088	.734	.0012
.131	.764	.0012
.204	.745	.0012
.283	.68	.0012
.371	.604	.0012
.458	.523	.0012
.498	.486	.0012
1	0	.0012

System: perfluoromethylcyclohexane + 1,1,1,3,3,3-hexafluoroisopropanol + water; phases: Liquid mixture 2, Liquid mixture 1
Property: Mass fraction of 1,1,1,3,3,3-hexafluoroisopropanol (Liquid mixture 2); method: Chromatography
Property: Mass fraction of 1,1,1,3,3,3-hexafluoroisopropanol (Liquid mixture 1); method: Chromatography
Property: Mass fraction of water (Liquid mixture 1); method: Chromatography
Temperature, K	Pressure, kPa	Mass fraction of water	Mass fraction of 1,1,1,3,3,3-hexafluoroisopropanol	uncertainty	Mass fraction of 1,1,1,3,3,3-hexafluoroisopropanol	uncertainty	Mass fraction of water	uncertainty
298.15	101.325	.788	.208	.00416	.0263	.000526	.0017	.000034
298.15	101.325	.713	.281	.00562	.0334	.000668	.00215	.000043
298.15	101.325	.511	.475	.0095	.0616	.001232	.00396	.0000792
298.15	101.325	.347	.625	.0125	.0717	.001434	.00461	.0000922
298.15	101.325	.215	.73	.0146	.0898	.001796	.00577	.0001154
298.15	101.325	.127	.769	.01538	.105	.0021	.00675	.000135

System: methanol + perfluorohexane + 1,1,1,3,3,3-hexafluoroisopropanol; phases: Liquid mixture 1, Liquid mixture 2
Fixed: Pressure, kPa = 101
Fixed: Temperature, K = 298.15
Property: Mass fraction of 1,1,1,3,3,3-hexafluoroisopropanol (Liquid mixture 1); method: Titration method
Mass fraction of methanol	Mass fraction of 1,1,1,3,3,3-hexafluoroisopropanol	uncertainty
.001	0	.0012
.016	.055	.0012
.045	.196	.0012
.072	.296	.0012
.083	.34	.0012
.092	.379	.0012
.122	.452	.0012
.14	.478	.0012
.25	.526	.0012
.293	.52	.0012
.376	.481	.0012
.442	.443	.0012
.547	.366	.0012
.58	.348	.0012
.616	.319	.0012
.73	.223	.0012
.788	.172	.0012
.981	0	.0012
.982	0	.0012

System: methanol + perfluorohexane + 1,1,1,3,3,3-hexafluoroisopropanol; phases: Liquid mixture 1, Liquid mixture 2
Property: Mass fraction of methanol (Liquid mixture 1); method: Chromatography
Property: Mass fraction of methanol (Liquid mixture 2); method: Chromatography
Property: Mass fraction of 1,1,1,3,3,3-hexafluoroisopropanol (Liquid mixture 2); method: Chromatography
Temperature, K	Pressure, kPa	Mass fraction of 1,1,1,3,3,3-hexafluoroisopropanol	Mass fraction of methanol	uncertainty	Mass fraction of methanol	uncertainty	Mass fraction of 1,1,1,3,3,3-hexafluoroisopropanol	uncertainty
298.15	101.325	.000111	.00104	.0000208	.802	.01604	.161	.00322
298.15	101.325	.0087	.00288	.0000576	.673	.01346	.271	.00542
298.15	101.325	.0491	.0115	.00023	.465	.0093	.429	.00858
298.15	101.325	.093	.021	.00042	.11	.0022	.43	.0086

System: methanol + perfluoromethylcyclohexane + 1,1,1,3,3,3-hexafluoroisopropanol; phases: Liquid mixture 1, Liquid mixture 2
Fixed: Pressure, kPa = 101
Fixed: Temperature, K = 298.15
Property: Mass fraction of 1,1,1,3,3,3-hexafluoroisopropanol (Liquid mixture 1); method: Titration method
Mass fraction of methanol	Mass fraction of 1,1,1,3,3,3-hexafluoroisopropanol	uncertainty
.001	0	.0012
.02	.072	.0012
.044	.171	.0012
.072	.271	.0012
.111	.382	.0012
.137	.429	.0012
.145	.435	.0012
.184	.476	.0012
.237	.486	.0012
.325	.473	.0012
.389	.449	.0012
.434	.421	.0012
.491	.387	.0012
.622	.294	.0012
.723	.215	.0012
.97	0	.0012
.976	0	.0012

System: methanol + perfluoromethylcyclohexane + 1,1,1,3,3,3-hexafluoroisopropanol; phases: Liquid mixture 1, Liquid mixture 2
Property: Mass fraction of methanol (Liquid mixture 1); method: Chromatography
Property: Mass fraction of methanol (Liquid mixture 2); method: Chromatography
Property: Mass fraction of 1,1,1,3,3,3-hexafluoroisopropanol (Liquid mixture 2); method: Chromatography
Temperature, K	Pressure, kPa	Mass fraction of 1,1,1,3,3,3-hexafluoroisopropanol	Mass fraction of methanol	uncertainty	Mass fraction of methanol	uncertainty	Mass fraction of 1,1,1,3,3,3-hexafluoroisopropanol	uncertainty
298.15	101.325	.00216	.00148	.0000296	.919	.01838	.0493	.000986
298.15	101.325	.00684	.00252	.0000504	.832	.01664	.124	.00248
298.15	101.325	.0149	.0043	.000086	.702	.01404	.232	.00464
298.15	101.325	.0272	.00704	.0001408	.526	.01052	.364	.00728
298.15	101.325	.0438	.0107	.000214	.411	.00822	.434	.00868
298.15	101.325	.104	.0241	.000482	.22	.0044	.479	.00958
