Measured thermophysical data. Vapor Liquid Equilibria Measurements for the Nine n-Alkane/Ketone Pairs Comprising 2-, 3-, and 4-Heptanone with n-Octane, n-Nonane, and n-Decane
Source: J. Chem. Eng. Data, 2015, 10.1021/je500731x
Compound 1: ethanol, C2H6O, purity 99.8%
Compound 2: 1-butanol, C4H10O, purity 99.9%
Compound 3: n-octane, C8H18, purity 99%
Compound 4: n-nonane, C9H20, purity 99%
Compound 5: n-decane, C10H22, purity 99%
Compound 6: 2-heptanone, C7H14O, purity 99%
Compound 7: 3-heptanone, C7H14O, purity 98%
Compound 8: 4-heptanone, C7H14O, purity 98%

System: ethanol; phases: Liquid, Gas
Property: Vapor or sublimation pressure, kPa (Liquid); method: Ebulliometric method (Recirculating still)
Temperature, K	Vapor or sublimation pressure, kPa	uncertainty
351.14	101.3	.36

System: 1-butanol; phases: Liquid, Gas
Property: Vapor or sublimation pressure, kPa (Liquid); method: Ebulliometric method (Recirculating still)
Temperature, K	Vapor or sublimation pressure, kPa	uncertainty
390.49	101.3	.36

System: n-octane; phases: Liquid, Gas
Property: Vapor or sublimation pressure, kPa (Liquid); method: Ebulliometric method (Recirculating still)
Temperature, K	Vapor or sublimation pressure, kPa	uncertainty
368.32	40	.36
367.97	40	.36
368.3	40	.36

System: n-nonane; phases: Liquid, Gas
Property: Vapor or sublimation pressure, kPa (Liquid); method: Ebulliometric method (Recirculating still)
Temperature, K	Vapor or sublimation pressure, kPa	uncertainty
391.78	40	.36
391.87	40	.36
391.9	40	.36

System: n-decane; phases: Liquid, Gas
Property: Vapor or sublimation pressure, kPa (Liquid); method: Ebulliometric method (Recirculating still)
Temperature, K	Vapor or sublimation pressure, kPa	uncertainty
413.88	40	.36

System: 2-heptanone; phases: Liquid, Gas
Property: Vapor or sublimation pressure, kPa (Liquid); method: Ebulliometric method (Recirculating still)
Temperature, K	Vapor or sublimation pressure, kPa	uncertainty
354.77	9.87	.36
358.59	11.52	.36
365.38	15.05	.36
367.88	16.52	.36
368.9	17.34	.36
373.79	20.76	.36
373.84	20.76	.36
379.3	25.32	.36
379.25	25.32	.36
383.78	29.69	.36
383.83	29.69	.36
388.51	34.81	.36
393.11	40.52	.36
398.45	48.09	.36
403.15	55.74	.36
405.81	60.35	.36
409.67	67.5	.36
413.3	75.05	.36
416.77	83.2	.36
420.2	91.5	.36
392.54	40	.36

System: 3-heptanone; phases: Liquid, Gas
Property: Vapor or sublimation pressure, kPa (Liquid); method: Ebulliometric method (Recirculating still)
Temperature, K	Vapor or sublimation pressure, kPa	uncertainty
354.82	11.05	.36
358.58	12.93	.36
363.03	15.51	.36
367.95	18.75	.36
373.6	23.27	.36
377.99	27.11	.36
383.09	32.58	.36
388.62	39.13	.36
393.02	45.12	.36
398.84	54.02	.36
404.44	64.03	.36
409.63	74.5	.36
412.95	82	.36
416.5	90.5	.36
388.11	40	.36
388.36	40	.36
388.67	40	.36

System: 4-heptanone; phases: Liquid, Gas
Property: Vapor or sublimation pressure, kPa (Liquid); method: Ebulliometric method (Recirculating still)
Temperature, K	Vapor or sublimation pressure, kPa	uncertainty
358.74	14.54	.36
363.42	17.72	.36
370.01	22.69	.36
377.77	29.93	.36
383.7	36.63	.36
388.63	43.17	.36
393.78	50.95	.36
398.38	59.15	.36
403.74	69.39	.36
407.98	78.55	.36
411.2	86.2	.36
413.43	91.55	.36
385.5	40	.36
385.47	40	.36
385.87	40	.36

System: ethanol + 1-butanol; phases: Liquid, Gas
Fixed: Pressure, kPa = 101.3
Property: Boiling temperature at pressure P, K (Liquid); method: Ebulliometric method (Recirculating still)
Mole fraction of ethanol	Boiling temperature at pressure P, K	uncertainty
1	351.14	.12
.85	354.31	.12
.836	354.58	.12
.835	354.08	.12
.729	357.28	.12
.717	357.48	.12
.688	358.01	.12
.666	358.73	.12
.651	359	.12
.637	359.55	.12
.631	359.9	.12
.619	359.89	.12
.607	360.89	.12
.6	360.56	.12
.592	361.31	.12
.515	363.7	.12
.5	363.59	.12
.499	364.11	.12
.477	364.78	.12
.468	364.95	.12
.439	366	.12
.382	367.99	.12
.331	370.27	.12
.331	370.52	.12
.251	373.93	.12
.248	374.59	.12
.133	381.54	.12
.112	382.25	.12
0	390.49	.12

System: ethanol + 1-butanol; phases: Gas, Liquid
Fixed: Pressure, kPa = 101.3
Property: Mole fraction of ethanol (Gas); method: Chromatography
Mole fraction of ethanol	Mole fraction of ethanol	uncertainty
1	1	.022
.85	.974	.022
.836	.969	.022
.835	.972	.022
.729	.94	.022
.717	.93	.022
.688	.935	.022
.666	.924	.022
.651	.925	.022
.637	.914	.022
.631	.89	.022
.619	.905	.022
.607	.893	.022
.6	.906	.022
.592	.879	.022
.515	.852	.022
.5	.87	.022
.499	.834	.022
.477	.837	.022
.468	.823	.022
.439	.797	.022
.382	.766	.022
.331	.719	.022
.331	.714	.022
.251	.631	.022
.248	.616	.022
.133	.378	.022
.112	.351	.022
0	0	.022

System: 2-heptanone + n-octane; phases: Liquid, Gas
Fixed: Pressure, kPa = 40
Property: Boiling temperature at pressure P, K (Liquid); method: Ebulliometric method (Recirculating still)
Mole fraction of n-octane	Boiling temperature at pressure P, K	uncertainty
1	368.32	.12
.983	368.47	.12
.982	368.31	.12
.98	368.27	.12
.978	368.31	.12
.975	368.5	.12
.96	368.29	.12
.925	368.42	.12
.923	368.73	.12
.795	368.97	.12
.769	369.7	.12
.68	369.97	.12
.663	370.52	.12
.571	371.42	.12
.52	372.27	.12
.406	374.02	.12
.369	374.89	.12
.365	374.75	.12
.301	376.17	.12
.284	376.79	.12
.258	377.4	.12
.201	379.79	.12
.192	379.92	.12
.166	381.05	.12
.146	382.05	.12
.131	382.61	.12
.128	382.32	.12
.112	383.43	.12
.071	385.83	.12
.063	386.66	.12
.056	386.79	.12
.038	388.75	.12
.037	388.62	.12
0	392.54	.12

System: 2-heptanone + n-octane; phases: Gas, Liquid
Fixed: Pressure, kPa = 40
Property: Mole fraction of n-octane (Gas); method: Chromatography
Mole fraction of n-octane	Mole fraction of n-octane	uncertainty
1	1	.022
.983	.984	.022
.982	.983	.022
.98	.982	.022
.978	.979	.022
.975	.974	.022
.96	.967	.022
.925	.925	.022
.923	.934	.022
.795	.887	.022
.769	.852	.022
.68	.83	.022
.663	.791	.022
.571	.781	.022
.52	.727	.022
.406	.681	.022
.369	.679	.022
.365	.665	.022
.301	.63	.022
.284	.632	.022
.258	.613	.022
.201	.514	.022
.192	.532	.022
.166	.483	.022
.146	.447	.022
.131	.412	.022
.128	.413	.022
.112	.378	.022
.071	.281	.022
.063	.262	.022
.056	.247	.022
.038	.178	.022
.037	.171	.022
0	0	.022

System: 2-heptanone + n-octane; phases: Liquid, Gas
Property: Azeotropic temperature, K (Liquid); method: By X=Y
Pressure, kPa	Azeotropic temperature, K	uncertainty
40	368.3	

System: 2-heptanone + n-octane; phases: Liquid, Gas
Property: Azeotropic composition: mole fraction of n-octane (Liquid); method: By X=Y
Pressure, kPa	Azeotropic composition: mole fraction of n-octane	uncertainty
40	.98	

System: 3-heptanone + n-octane; phases: Liquid, Gas
Fixed: Pressure, kPa = 40
Property: Boiling temperature at pressure P, K (Liquid); method: Ebulliometric method (Recirculating still)
Mole fraction of n-octane	Boiling temperature at pressure P, K	uncertainty
1	367.97	.12
.921	368.37	.12
.84	368.88	.12
.836	368.78	.12
.763	369.47	.12
.699	369.9	.12
.665	370.35	.12
.625	370.77	.12
.611	371.01	.12
.569	371.58	.12
.513	372.28	.12
.469	372.98	.12
.353	375.72	.12
.32	375.65	.12
.317	375.95	.12
.285	376.81	.12
.253	377.75	.12
.251	377.66	.12
.243	377.93	.12
.196	379.45	.12
.179	380.03	.12
.14	381.52	.12
.114	382.3	.12
.102	383	.12
.086	383.79	.12
.083	383.37	.12
.071	384.44	.12
.059	385.05	.12
.022	386.89	.12
0	388.11	.12

System: 3-heptanone + n-octane; phases: Gas, Liquid
Fixed: Pressure, kPa = 40
Property: Mole fraction of n-octane (Gas); method: Chromatography
Mole fraction of n-octane	Mole fraction of n-octane	uncertainty
1	1	.022
.921	.933	.022
.84	.884	.022
.836	.873	.022
.763	.841	.022
.699	.786	.022
.665	.792	.022
.625	.747	.022
.611	.76	.022
.569	.721	.022
.513	.714	.022
.469	.677	.022
.353	.594	.022
.32	.589	.022
.317	.564	.022
.285	.546	.022
.253	.509	.022
.251	.505	.022
.243	.504	.022
.196	.439	.022
.179	.398	.022
.14	.357	.022
.114	.319	.022
.102	.277	.022
.086	.257	.022
.083	.256	.022
.071	.222	.022
.059	.191	.022
.022	.08	.022
0	0	.022

System: 3-heptanone + n-octane; phases: Liquid, Gas
Property: Azeotropic temperature, K (Liquid); method: By X=Y
Pressure, kPa	Azeotropic temperature, K	uncertainty
40	368.3	

System: 3-heptanone + n-octane; phases: Liquid, Gas
Property: Azeotropic composition: mole fraction of n-octane (Liquid); method: By X=Y
Pressure, kPa	Azeotropic composition: mole fraction of n-octane	uncertainty
40	.98	

System: n-octane + 4-heptanone; phases: Liquid, Gas
Fixed: Pressure, kPa = 40
Property: Boiling temperature at pressure P, K (Liquid); method: Ebulliometric method (Recirculating still)
Mole fraction of n-octane	Boiling temperature at pressure P, K	uncertainty
1	368.3	.12
.987	368.31	.12
.98	368.34	.12
.973	368.26	.12
.946	368.3	.12
.908	368.37	.12
.881	368.48	.12
.822	368.77	.12
.809	368.81	.12
.731	369.23	.12
.697	369.49	.12
.662	369.87	.12
.642	370	.12
.566	370.72	.12
.505	371.25	.12
.47	371.92	.12
.423	372.56	.12
.418	372.55	.12
.383	373.06	.12
.38	373.19	.12
.347	373.75	.12
.317	374.48	.12
.317	374.3	.12
.312	374.77	.12
.288	374.95	.12
.284	375.15	.12
.266	375.74	.12
.224	376.75	.12
.222	376.43	.12
.205	376.94	.12
.197	377.5	.12
.195	377.45	.12
.164	378.22	.12
.156	378.81	.12
.13	379.57	.12
.112	380.05	.12
.102	380.61	.12
.078	381.51	.12
.067	382.13	.12
.047	382.96	.12
.042	382.88	.12
0	385.5	.12

System: n-octane + 4-heptanone; phases: Gas, Liquid
Fixed: Pressure, kPa = 40
Property: Mole fraction of n-octane (Gas); method: Chromatography
Mole fraction of n-octane	Mole fraction of n-octane	uncertainty
1	1	.022
.987	.987	.022
.98	.982	.022
.973	.972	.022
.946	.948	.022
.908	.921	.022
.881	.903	.022
.822	.854	.022
.809	.85	.022
.731	.809	.022
.697	.787	.022
.662	.76	.022
.642	.753	.022
.566	.707	.022
.505	.67	.022
.47	.649	.022
.423	.624	.022
.418	.609	.022
.383	.584	.022
.38	.588	.022
.347	.576	.022
.317	.519	.022
.317	.531	.022
.312	.526	.022
.288	.498	.022
.284	.519	.022
.266	.478	.022
.224	.441	.022
.222	.446	.022
.205	.414	.022
.197	.401	.022
.195	.396	.022
.164	.354	.022
.156	.343	.022
.13	.301	.022
.112	.277	.022
.102	.253	.022
.078	.206	.022
.067	.187	.022
.047	.139	.022
.042	.123	.022
0	0	.022

System: n-octane + 4-heptanone; phases: Liquid, Gas
Property: Azeotropic temperature, K (Liquid); method: By X=Y
Pressure, kPa	Azeotropic temperature, K	uncertainty
40	368.3	

System: n-octane + 4-heptanone; phases: Liquid, Gas
Property: Azeotropic composition: mole fraction of n-octane (Liquid); method: By X=Y
Pressure, kPa	Azeotropic composition: mole fraction of n-octane	uncertainty
40	.98	

System: 2-heptanone + n-nonane; phases: Liquid, Gas
Property: Azeotropic temperature, K (Liquid); method: By X=Y
Pressure, kPa	Azeotropic temperature, K	uncertainty
40	386.7	

System: 2-heptanone + n-nonane; phases: Liquid, Gas
Property: Azeotropic composition: mole fraction of n-nonane (Liquid); method: By X=Y
Pressure, kPa	Azeotropic composition: mole fraction of n-nonane	uncertainty
40	.53	

System: 2-heptanone + n-nonane; phases: Liquid, Gas
Fixed: Pressure, kPa = 40
Property: Boiling temperature at pressure P, K (Liquid); method: Ebulliometric method (Recirculating still)
Mole fraction of n-nonane	Boiling temperature at pressure P, K	uncertainty
1	391.78	.12
.967	390.96	.12
.956	390.46	.12
.926	389.79	.12
.907	389.65	.12
.859	388.73	.12
.835	388.33	.12
.828	388.45	.12
.755	387.7	.12
.751	387.61	.12
.685	387.2	.12
.595	386.82	.12
.439	386.77	.12
.405	386.8	.12
.376	386.89	.12
.321	387.1	.12
.283	387.29	.12
.275	387.4	.12
.256	387.79	.12
.239	387.72	.12
.186	388.15	.12
.176	388.33	.12
.14	388.78	.12
.121	389.1	.12
.106	389.4	.12
.09	389.72	.12
.079	389.76	.12
.059	390.56	.12
.055	390.62	.12
0	392.54	.12

System: 2-heptanone + n-nonane; phases: Gas, Liquid
Fixed: Pressure, kPa = 40
Property: Mole fraction of n-nonane (Gas); method: Chromatography
Mole fraction of n-nonane	Mole fraction of n-nonane	uncertainty
1	1	.022
.967	.934	.022
.956	.878	.022
.926	.859	.022
.907	.838	.022
.859	.764	.022
.835	.732	.022
.828	.756	.022
.755	.669	.022
.751	.676	.022
.685	.619	.022
.595	.578	.022
.439	.473	.022
.405	.454	.022
.376	.434	.022
.321	.403	.022
.283	.372	.022
.275	.37	.022
.256	.361	.022
.239	.366	.022
.186	.294	.022
.176	.273	.022
.14	.229	.022
.121	.211	.022
.106	.188	.022
.09	.169	.022
.079	.147	.022
.059	.117	.022
.055	.11	.022
0	0	.022

System: 3-heptanone + n-nonane; phases: Liquid, Gas
Property: Azeotropic temperature, K (Liquid); method: By X=Y
Pressure, kPa	Azeotropic temperature, K	uncertainty
40	385.7	

System: 3-heptanone + n-nonane; phases: Liquid, Gas
Property: Azeotropic composition: mole fraction of n-nonane (Liquid); method: By X=Y
Pressure, kPa	Azeotropic composition: mole fraction of n-nonane	uncertainty
40	.44	

System: 3-heptanone + n-nonane; phases: Liquid, Gas
Fixed: Pressure, kPa = 40
Property: Boiling temperature at pressure P, K (Liquid); method: Ebulliometric method (Recirculating still)
Mole fraction of n-nonane	Boiling temperature at pressure P, K	uncertainty
1	391.87	.12
.957	390.66	.12
.941	390.37	.12
.92	389.71	.12
.889	389.11	.12
.883	389.09	.12
.856	388.55	.12
.851	388.49	.12
.812	387.93	.12
.804	387.76	.12
.776	387.54	.12
.745	387.13	.12
.643	386.29	.12
.6	386.25	.12
.576	386.15	.12
.533	386.02	.12
.511	385.88	.12
.484	385.87	.12
.459	385.85	.12
.427	385.72	.12
.347	385.79	.12
.286	386.07	.12
.248	386.1	.12
.224	386.33	.12
.22	386.2	.12
.189	386.43	.12
.173	386.59	.12
.165	386.57	.12
.139	386.82	.12
.114	387.25	.12
.101	387.29	.12
.075	387.48	.12
.049	387.72	.12
0	388.36	.12

System: 3-heptanone + n-nonane; phases: Gas, Liquid
Fixed: Pressure, kPa = 40
Property: Mole fraction of n-nonane (Gas); method: Chromatography
Mole fraction of n-nonane	Mole fraction of n-nonane	uncertainty
1	1	.022
.957	.924	.022
.941	.889	.022
.92	.856	.022
.889	.812	.022
.883	.805	.022
.856	.769	.022
.851	.768	.022
.812	.726	.022
.804	.71	.022
.776	.684	.022
.745	.655	.022
.643	.57	.022
.6	.544	.022
.576	.529	.022
.533	.505	.022
.511	.49	.022
.484	.47	.022
.459	.455	.022
.427	.432	.022
.347	.375	.022
.286	.329	.022
.248	.306	.022
.224	.279	.022
.22	.278	.022
.189	.25	.022
.173	.235	.022
.165	.224	.022
.139	.197	.022
.114	.168	.022
.101	.151	.022
.075	.116	.022
.049	.09	.022
0	0	.022

System: n-nonane + 4-heptanone; phases: Liquid, Gas
Property: Azeotropic temperature, K (Liquid); method: By X=Y
Pressure, kPa	Azeotropic temperature, K	uncertainty
40	383.8	

System: n-nonane + 4-heptanone; phases: Liquid, Gas
Property: Azeotropic composition: mole fraction of n-nonane (Liquid); method: By X=Y
Pressure, kPa	Azeotropic composition: mole fraction of n-nonane	uncertainty
40	.34	

System: n-nonane + 4-heptanone; phases: Liquid, Gas
Fixed: Pressure, kPa = 40
Property: Boiling temperature at pressure P, K (Liquid); method: Ebulliometric method (Recirculating still)
Mole fraction of n-nonane	Boiling temperature at pressure P, K	uncertainty
1	391.9	.12
.959	390.84	.12
.951	390.31	.12
.927	389.71	.12
.904	389.03	.12
.882	388.63	.12
.836	387.61	.12
.833	387.6	.12
.8	387.14	.12
.764	386.59	.12
.762	386.37	.12
.71	385.92	.12
.696	385.63	.12
.648	385.26	.12
.629	385.01	.12
.604	384.91	.12
.57	384.6	.12
.554	384.52	.12
.537	384.45	.12
.501	384.26	.12
.441	383.97	.12
.404	383.93	.12
.355	383.82	.12
.319	383.83	.12
.31	383.77	.12
.264	383.85	.12
.234	383.79	.12
.227	383.88	.12
.206	384	.12
.176	384.05	.12
.165	384.15	.12
.141	384.42	.12
.129	384.35	.12
.113	384.54	.12
.094	384.77	.12
.079	384.91	.12
.057	385.08	.12
.038	385.28	.12
0	385.47	.12

System: n-nonane + 4-heptanone; phases: Gas, Liquid
Fixed: Pressure, kPa = 40
Property: Mole fraction of n-nonane (Gas); method: Chromatography
Mole fraction of n-nonane	Mole fraction of n-nonane	uncertainty
1	1	.022
.959	.897	.022
.951	.892	.022
.927	.864	.022
.904	.815	.022
.882	.781	.022
.836	.722	.022
.833	.722	.022
.8	.693	.022
.764	.647	.022
.762	.648	.022
.71	.594	.022
.696	.583	.022
.648	.543	.022
.629	.53	.022
.604	.519	.022
.57	.498	.022
.554	.486	.022
.537	.473	.022
.501	.441	.022
.441	.409	.022
.404	.381	.022
.355	.349	.022
.319	.325	.022
.31	.317	.022
.264	.285	.022
.234	.265	.022
.227	.252	.022
.206	.232	.022
.176	.208	.022
.165	.199	.022
.141	.174	.022
.129	.162	.022
.113	.146	.022
.094	.123	.022
.079	.103	.022
.057	.08	.022
.038	.053	.022
0	0	.022

System: 2-heptanone + n-decane; phases: Liquid, Gas
Property: Azeotropic temperature, K (Liquid); method: By X=Y
Pressure, kPa	Azeotropic temperature, K	uncertainty
40	391.7	

System: 2-heptanone + n-decane; phases: Liquid, Gas
Property: Azeotropic composition: mole fraction of n-decane (Liquid); method: By X=Y
Pressure, kPa	Azeotropic composition: mole fraction of n-decane	uncertainty
40	.03	

System: 2-heptanone + n-decane; phases: Liquid, Gas
Fixed: Pressure, kPa = 40
Property: Boiling temperature at pressure P, K (Liquid); method: Ebulliometric method (Recirculating still)
Mole fraction of n-decane	Boiling temperature at pressure P, K	uncertainty
1	413.88	.12
.972	411.91	.12
.936	409.34	.12
.889	406.98	.12
.833	404.19	.12
.799	402.79	.12
.781	401.78	.12
.755	401.37	.12
.729	400.55	.12
.715	400.23	.12
.692	399.68	.12
.672	399.32	.12
.668	399.15	.12
.664	398.85	.12
.654	398.72	.12
.626	398.32	.12
.575	397.08	.12
.553	396.73	.12
.546	396.72	.12
.49	396	.12
.483	395.9	.12
.423	395.2	.12
.345	394.32	.12
.277	393.67	.12
.222	393.23	.12
.176	392.92	.12
.131	392.81	.12
.061	392.3	.12
.048	391.82	.12
.038	391.68	.12
.031	391.79	.12
.031	391.87	.12
.027	391.96	.12
.023	392.05	.12
0	392.54	.12

System: 2-heptanone + n-decane; phases: Gas, Liquid
Fixed: Pressure, kPa = 40
Property: Mole fraction of n-decane (Gas); method: Chromatography
Mole fraction of n-decane	Mole fraction of n-decane	uncertainty
1	1	.022
.972	.877	.022
.936	.774	.022
.889	.677	.022
.833	.57	.022
.799	.524	.022
.781	.494	.022
.755	.454	.022
.729	.455	.022
.715	.444	.022
.692	.428	.022
.672	.419	.022
.668	.417	.022
.664	.402	.022
.654	.411	.022
.626	.395	.022
.575	.355	.022
.553	.342	.022
.546	.335	.022
.49	.312	.022
.483	.303	.022
.423	.277	.022
.345	.235	.022
.277	.198	.022
.222	.167	.022
.176	.144	.022
.131	.106	.022
.061	.057	.022
.048	.042	.022
.038	.03	.022
.031	.028	.022
.031	.03	.022
.027	.03	.022
.023	.024	.022
0	0	.022

System: 3-heptanone + n-decane; phases: Liquid, Gas
Property: Azeotropic temperature, K (Liquid); method: By X=Y
Pressure, kPa	Azeotropic temperature, K	uncertainty
40	388.6	

System: 3-heptanone + n-decane; phases: Liquid, Gas
Property: Azeotropic composition: mole fraction of n-decane (Liquid); method: By X=Y
Pressure, kPa	Azeotropic composition: mole fraction of n-decane	uncertainty
40	.02	

System: 3-heptanone + n-decane; phases: Liquid, Gas
Fixed: Pressure, kPa = 40
Property: Boiling temperature at pressure P, K (Liquid); method: Ebulliometric method (Recirculating still)
Mole fraction of n-decane	Boiling temperature at pressure P, K	uncertainty
1	413.88	.12
.989	413.4	.12
.942	410.11	.12
.911	408.41	.12
.897	407.06	.12
.885	406.83	.12
.844	404.85	.12
.84	404.4	.12
.809	403.22	.12
.802	402.87	.12
.792	402.59	.12
.785	402.2	.12
.762	401.36	.12
.753	400.88	.12
.719	399.83	.12
.678	398.57	.12
.678	398.14	.12
.652	397.83	.12
.631	397.29	.12
.606	396.53	.12
.605	396.68	.12
.594	396.26	.12
.59	396.15	.12
.526	394.9	.12
.447	393.48	.12
.385	392.69	.12
.318	391.6	.12
.27	391.15	.12
.253	390.93	.12
.224	390.57	.12
.208	390.38	.12
.167	389.8	.12
.136	389.54	.12
.121	389.4	.12
.069	389.05	.12
.058	388.77	.12
.025	388.93	.12
0	388.67	.12

System: 3-heptanone + n-decane; phases: Gas, Liquid
Fixed: Pressure, kPa = 40
Property: Mole fraction of n-decane (Gas); method: Chromatography
Mole fraction of n-decane	Mole fraction of n-decane	uncertainty
1	1	.022
.989	.959	.022
.942	.806	.022
.911	.739	.022
.897	.689	.022
.885	.659	.022
.844	.594	.022
.84	.573	.022
.809	.509	.022
.802	.522	.022
.792	.516	.022
.785	.494	.022
.762	.448	.022
.753	.455	.022
.719	.429	.022
.678	.406	.022
.678	.388	.022
.652	.385	.022
.631	.359	.022
.606	.33	.022
.605	.335	.022
.594	.335	.022
.59	.338	.022
.526	.274	.022
.447	.233	.022
.385	.206	.022
.318	.177	.022
.27	.171	.022
.253	.153	.022
.224	.14	.022
.208	.134	.022
.167	.109	.022
.136	.093	.022
.121	.078	.022
.069	.052	.022
.058	.043	.022
.025	.028	.022
0	0	.022

System: 4-heptanone + n-decane; phases: Liquid, Gas
Property: Azeotropic temperature, K (Liquid); method: By X=Y
Pressure, kPa	Azeotropic temperature, K	uncertainty
40	385.5	

System: 4-heptanone + n-decane; phases: Liquid, Gas
Property: Azeotropic composition: mole fraction of n-decane (Liquid); method: By X=Y
Pressure, kPa	Azeotropic composition: mole fraction of n-decane	uncertainty
40	.02	

System: 4-heptanone + n-decane; phases: Liquid, Gas
Fixed: Pressure, kPa = 40
Property: Boiling temperature at pressure P, K (Liquid); method: Ebulliometric method (Recirculating still)
Mole fraction of n-decane	Boiling temperature at pressure P, K	uncertainty
1	413.88	.12
.99	412.89	.12
.958	410.74	.12
.952	410.24	.12
.928	408.73	.12
.917	407.65	.12
.904	407.1	.12
.876	405.5	.12
.847	403.84	.12
.846	403.94	.12
.794	400.83	.12
.759	399.62	.12
.757	399.83	.12
.717	398.18	.12
.704	397.77	.12
.646	395.65	.12
.594	394.35	.12
.565	393.59	.12
.552	393.3	.12
.501	392.23	.12
.46	391.61	.12
.392	390.23	.12
.35	389.7	.12
.322	389.54	.12
.293	388.75	.12
.262	388.48	.12
.229	388	.12
.171	387.31	.12
.17	387.47	.12
.106	386.59	.12
.096	386.75	.12
.053	386.02	.12
.043	386	.12
.021	385.45	.12
0	385.87	.12

System: 4-heptanone + n-decane; phases: Gas, Liquid
Fixed: Pressure, kPa = 40
Property: Mole fraction of n-decane (Gas); method: Chromatography
Mole fraction of n-decane	Mole fraction of n-decane	uncertainty
1	1	.022
.99	.94	.022
.958	.826	.022
.952	.813	.022
.928	.759	.022
.917	.713	.022
.904	.693	.022
.876	.644	.022
.847	.577	.022
.846	.595	.022
.794	.449	.022
.759	.446	.022
.757	.466	.022
.717	.414	.022
.704	.405	.022
.646	.325	.022
.594	.291	.022
.565	.3	.022
.552	.284	.022
.501	.254	.022
.46	.234	.022
.392	.196	.022
.35	.182	.022
.322	.182	.022
.293	.166	.022
.262	.143	.022
.229	.123	.022
.171	.103	.022
.17	.103	.022
.106	.07	.022
.096	.064	.022
.053	.041	.022
.043	.033	.022
.021	.021	.022
0	0	.022
