Measured thermophysical data. Excess Molar Enthalpies and Heat Capacities of {2-Methylpiperidine Water} and {N-Methylpiperidine Water} Systems of Low to Moderate Amine Compositions
Source: J. Chem. Eng. Data, 2015, 10.1021/je5008444
Compound 1: 2-methylpiperidine, C6H13N, purity 98%
Compound 2: N-methylpiperidine, C6H13N, purity 99%
Compound 3: n-octane, C8H18, purity 99%
Compound 4: water, H2O, purity 99.99%

System: 2-methylpiperidine; phases: Liquid
Property: Molar heat capacity at constant pressure, J/K/mol (Liquid); method: Large sample (1 g) scanning calorimetry
Temperature, K	Pressure, kPa	Molar heat capacity at constant pressure, J/K/mol	uncertainty
283.15	100	215.38	.64614
288.15	100	216.85	.65055
293.15	100	217.34	.65202
298.15	100	218	.654
303.16	100	218.99	.65697
308.15	100	219.6	.6588
313.16	100	220.18	.66054
318.15	100	221.03	.66309
323.15	100	221.4	.6642
328.15	100	222.07	.66621
333.15	100	222.76	.66828

System: N-methylpiperidine; phases: Liquid
Property: Molar heat capacity at constant pressure, J/K/mol (Liquid); method: Large sample (1 g) scanning calorimetry
Temperature, K	Pressure, kPa	Molar heat capacity at constant pressure, J/K/mol	uncertainty
283.15	100	175.4	.5262
288.15	100	177.6	.5328
293.15	100	179.5	.5385
298.15	100	181.5	.5445
303.16	100	183.5	.5505
308.15	100	185.5	.5565
313.16	100	187.5	.5625
318.15	100	189.1	.5673
323.15	100	191.2	.5736
328.15	100	192.7	.5781
333.15	100	194.6	.5838

System: n-octane; phases: Liquid
Fixed: Pressure, kPa = 101.325
Property: Molar heat capacity at constant pressure, J/K/mol (Liquid); method: Flow calorimetry
Temperature, K	Molar heat capacity at constant pressure, J/K/mol	uncertainty
283.15	248.16	.05
288.15	250.1	.05
293.15	252.24	.05
298.15	253.98	.04
303.16	256.5	.05
308.15	258.05	.04
313.16	260.87	.05
318.15	262.7	.06
323.15	264.78	.05
328.15	267.24	.05
333.15	269.31	.06

System: 2-methylpiperidine + water; phases: Liquid
Fixed: Pressure, kPa = 500
Property: Excess molar enthalpy (molar enthalpy of mixing), kJ/mol (Liquid); method: Flow calorimetry
Temperature, K	Mole fraction of 2-methylpiperidine	Excess molar enthalpy (molar enthalpy of mixing), kJ/mol	uncertainty
303.15	.0295	-.56	.02
303.15	.0366	-.653	.022
303.15	.0921	-1.176	.035
303.15	.132	-1.3	.04
303.15	.2337	-2.231	.07
303.15	.3139	-2.478	.075
308.15	.0149	-.316	.022
308.15	.0212	-.41	.017
308.15	.0294	-.519	.024
308.15	.0365	-.603	.03
308.15	.0365	-.668	.03
308.15	.0481	-.735	.039
308.15	.0661	-.902	.039
308.15	.0704	-.915	.029
308.15	.0755	-.99	.044
318.15	.015	-.263	.018
318.15	.0214	-.344	.017
318.15	.0248	-.385	.02
318.15	.0368	-.514	.029
318.15	.0485	-.635	.038
318.15	.0666	-.782	.037
318.15	.0818	-.905	.046
318.15	.1089	-1.119	.054
318.15	.1439	-1.307	.052
318.15	.1549	-1.391	.052
318.15	.1865	-1.581	.051
328.15	.0101	-.174	.013
328.15	.0129	-.212	.017
328.15	.018	-.274	.023
328.15	.0236	-.331	.03
328.15	.0297	-.392	.038
328.15	.0354	-.434	.023
328.15	.0438	-.512	.056
328.15	.0576	-.609	.022
328.15	.084	-.786	.022
328.15	.1089	-.926	.022
328.15	.1325	-1.075	.051
328.15	.1865	-1.424	.06
333.15	.0361	-.31	.012
333.15	.0589	-.56	.027
333.15	.1234	-.999	.04
333.15	.1807	-1.328	.066
333.15	.238	-1.612	.081
333.15	.3601	-1.975	.097
338.15	.0101	-.141	.013
338.15	.0129	-.172	.017
338.15	.018	-.228	.023
338.15	.0236	-.282	.03
338.15	.0354	-.369	.023
338.15	.0466	-.448	.022
338.15	.0576	-.522	.022
338.15	.084	-.684	.022
338.15	.1089	-.829	.027
338.15	.1325	-.97	.038
338.15	.1451	-1.035	.056
303.15	.3879	-2.621	.075
303.15	.4778	-2.628	.131
303.15	.5489	-2.493	.125
303.15	.6697	-2.044	.143
303.15	.7526	-1.616	.113
308.15	.1081	-1.209	.055
308.15	.1539	-1.53	.053
308.15	.1852	-1.779	.051
308.15	.2326	-1.99	.095
308.15	.3266	-2.385	.044
308.15	.3964	-2.547	.077
308.15	.4311	-2.5	.088
308.15	.6388	-2.095	.147
308.15	.7519	-1.552	.109
318.15	.2341	-1.842	.074
318.15	.2764	-2.019	.081
318.15	.3143	-2.13	.085
318.15	.3419	-2.233	.089
318.15	.3984	-2.284	.091
318.15	.4331	-2.287	.114
318.15	.4783	-2.271	.114
318.15	.534	-2.192	.11
318.15	.6407	-1.892	.132
318.15	.737	-1.505	.105
318.15	.7535	-1.441	.1
328.15	.1865	-1.408	.056
328.15	.2341	-1.667	.066
328.15	.3143	-1.975	.079
328.15	.3591	-2.133	.106
328.15	.4331	-2.175	.109
328.15	.4783	-2.148	.107
328.15	.5284	-2.066	.103
328.15	.5721	-1.941	.097
328.15	.6197	-1.775	.124
328.15	.6814	-1.582	.111
328.15	.7534	-1.248	.087
333.15	.484	-1.99	.098
333.15	.5293	-1.926	.094
333.15	.5999	-1.802	.126
333.15	.6521	-1.631	.114
333.15	.7894	-1.06	.074
338.15	.1865	-1.256	.05
338.15	.2341	-1.502	.06
338.15	.3143	-1.792	.071
338.15	.3957	-1.9	.076
338.15	.4331	-1.937	.077
338.15	.4783	-1.941	.078
338.15	.5284	-1.826	.093
338.15	.5284	-1.822	.091
338.15	.579	-1.72	.086
338.15	.6197	-1.619	.113
338.15	.6814	-1.374	.096

System: 2-methylpiperidine + water; phases: Liquid
Fixed: Pressure, kPa = 100
Property: Molar heat capacity at constant pressure, J/K/mol (Liquid); method: Large sample (1 g) scanning calorimetry
Temperature, K	Mole fraction of 2-methylpiperidine	Molar heat capacity at constant pressure, J/K/mol	uncertainty
283.15	1	215.38	.64614
288.15	1	216.85	.65055
293.15	1	217.34	.65202
298.15	1	218	.654
303.16	1	218.99	.65697
308.15	1	219.6	.6588
313.16	1	220.18	.66054
318.15	1	221.03	.66309
323.15	1	221.4	.6642
328.15	1	222.07	.66621
333.15	1	222.76	.66828
283.15	.8503	211.33	.63399
288.15	.8503	212.82	.63846
293.15	.8503	213.59	.64077
298.15	.8503	214.56	.64368
303.16	.8503	215.66	.64698
308.15	.8503	216.5	.6495
313.16	.8503	217.36	.65208
318.15	.8503	218.4	.6552
323.15	.8503	219.15	.65745
328.15	.8503	219.94	.65982
333.15	.8503	220.89	.66267
283.15	.7262	186.76	.56028
288.15	.7262	188.95	.56685
293.15	.7262	190.95	.57285
298.15	.7262	192.44	.57732
303.16	.7262	194.17	.58251
308.15	.7262	195.97	.58791
313.16	.7262	197.81	.59343
318.15	.7262	198.26	.59478
323.15	.7262	200.09	.60027
328.15	.7262	201.13	.60339
333.15	.7262	202.26	.60678
283.15	.3726	139.21	.41763
288.15	.3726	141.02	.42306
293.15	.3726	142.81	.42843
298.15	.3726	144.6	.4338
303.16	.3726	146.44	.43932
308.15	.3726	147.98	.44394
313.16	.3726	149.55	.44865
318.15	.3726	150.82	.45246
323.15	.3726	152.15	.45645
328.15	.3726	153.44	.46032
333.15	.3726	154.6	.4638
283.15	.183	108.96	.32688
288.15	.183	110.08	.33024
293.15	.183	110.85	.33255
298.15	.183	111.88	.33564
303.16	.183	112.59	.33777
308.15	.183	113.52	.34056
313.16	.183	114.35	.34305
318.15	.183	114.79	.34437
323.15	.183	115.72	.34716
328.15	.183	116.25	.34875
333.15	.183	116.69	.35007

System: N-methylpiperidine + water; phases: Liquid
Fixed: Pressure, kPa = 500
Property: Excess molar enthalpy (molar enthalpy of mixing), kJ/mol (Liquid); method: Flow calorimetry
Temperature, K	Mole fraction of N-methylpiperidine	Excess molar enthalpy (molar enthalpy of mixing), kJ/mol	uncertainty
308.15	.0121	-.279	.02
308.15	.0145	-.342	.024
308.15	.0206	-.433	.03
308.15	.0324	-.586	.027
308.15	.0423	-.678	.03
308.15	.0728	-1.023	.038
308.15	.0935	-1.255	.056
308.15	.1054	-1.345	.055
308.15	.1093	-1.326	.046
308.15	.1284	-1.512	.054
308.15	.1407	-1.629	.059
308.15	.1739	-1.868	.073
308.15	.1971	-1.978	.077
308.15	.2419	-2.214	.082
308.15	.3293	-2.393	.087
308.15	.3933	-2.411	.089
308.15	.4692	-2.298	.091
308.15	.5956	-1.926	.135
308.15	.6884	-1.577	.11
318.15	.0122	-.223	.01
318.15	.0146	-.262	.012
318.15	.0208	-.331	.017
318.15	.0327	-.471	.026
318.15	.0427	-.559	.029
318.15	.0653	-.751	.033
318.15	.0901	-.957	.037
318.15	.1101	-1.127	.045
318.15	.1513	-1.46	.051
318.15	.1984	-1.744	.054
318.15	.2414	-1.948	.065
318.15	.2708	-2.071	.088
318.15	.3082	-2.143	.083
318.15	.3577	-2.158	.085
318.15	.4261	-2.136	.085
318.15	.4712	-2.062	.082
318.15	.5302	-1.914	.077
318.15	.5976	-1.697	.118
318.15	.5976	-1.714	.12
318.15	.6499	-1.545	.108
318.15	.6902	-1.355	.095
328.15	.0088	-.157	.012
328.15	.011	-.163	.015
328.15	.0146	-.191	.019
328.15	.0175	-.214	.023
328.15	.0218	-.244	.029
328.15	.0242	-.26	.019
328.15	.0358	-.307	.028
328.15	.0561	-.403	.028
328.15	.1062	-.681	.053
328.15	.175	-1.043	.07
328.15	.229	-1.333	.046
328.15	.2708	-1.574	.044
328.15	.2937	-1.704	.084
328.15	.3355	-1.882	.079
328.15	.3577	-1.928	.048
328.15	.3841	-1.947	.073
328.15	.4261	-1.921	.068
328.15	.4975	-1.795	.099
328.15	.5531	-1.673	.088
328.15	.5976	-1.53	.107
328.15	.6645	-1.305	.091
328.15	.7481	-1.028	.072

System: N-methylpiperidine + water; phases: Liquid
Fixed: Pressure, kPa = 100
Property: Molar heat capacity at constant pressure, J/K/mol (Liquid); method: Large sample (1 g) scanning calorimetry
Temperature, K	Mole fraction of N-methylpiperidine	Molar heat capacity at constant pressure, J/K/mol	uncertainty
283.15	1	175.4	.5262
288.15	1	177.6	.5328
293.15	1	179.5	.5385
298.15	1	181.5	.5445
303.16	1	183.5	.5505
308.15	1	185.5	.5565
313.16	1	187.5	.5625
318.15	1	189.1	.5673
323.15	1	191.2	.5736
328.15	1	192.7	.5781
333.15	1	194.6	.5838
283.15	.7952	161.3	.4839
288.15	.7952	163.8	.4914
293.15	.7952	166.1	.4983
298.15	.7952	168.4	.5052
303.16	.7952	170.7	.5121
308.15	.7952	174	.522
313.16	.7952	175.9	.5277
318.15	.7952	178	.534
323.15	.7952	180.3	.5409
328.15	.7952	182.7	.5481
333.15	.7952	184.1	.5523
283.15	.6178	147.8	.4434
288.15	.6178	150.3	.4509
293.15	.6178	153.1	.4593
298.15	.6178	155.7	.4671
303.16	.6178	158.1	.4743
308.15	.6178	160.3	.4809
313.16	.6178	162.4	.4872
318.15	.6178	164.4	.4932
323.15	.6178	166.9	.5007
328.15	.6178	169.2	.5076
333.15	.6178	171	.513
283.15	.4036	129.4	.3882
288.15	.4036	132.2	.3966
293.15	.4036	134.3	.4029
298.15	.4036	136.8	.4104
303.16	.4036	138.7	.4161
308.15	.4036	140.3	.4209
313.16	.4036	142.2	.4266
318.15	.4036	143.8	.4314
323.15	.4036	145.2	.4356
328.15	.4036	146.3	.4389
333.15	.4036	147.3	.4419
283.15	.1983	109.6	.3288
288.15	.1983	111	.333
293.15	.1983	112.5	.3375
298.15	.1983	113.8	.3414
303.16	.1983	114.8	.3444
308.15	.1983	116.2	.3486
313.16	.1983	117.5	.3525
318.15	.1983	118.7	.3561
283.15	.0966	101.3	.3039
288.15	.0966	101.3	.3039
293.15	.0966	101.1	.3033
298.15	.0966	101.1	.3033
303.16	.0966	101.2	.3036
308.15	.0966	101.5	.3045
313.16	.0966	102.4	.3072
283.15	.0378	93.4	.2802
288.15	.0378	92	.276
293.15	.0378	90.6	.2718
298.15	.0378	89.5	.2685
303.16	.0378	88.6	.2658
308.15	.0378	88.1	.2643
