Measured thermophysical data. Solubility Properties and Spectral Characterization of Dilute SO2 in Binary Mixtures of Urea + Ethylene Glycol
Source: J. Chem. Eng. Data, 2015, 10.1021/je5009119
Compound 1: sulfur dioxide, O2S
Compound 2: urea, CH4N2O
Compound 3: ethylene glycol, C2H6O2, purity 98%
Compound 4: water, H2O, purity 99.8%
Compound 5: ethanol, C2H6O, purity 98%

System: ethylene glycol; phases: Liquid
Fixed: Pressure, kPa = 101.325
Property: Mass density, kg/m3 (Liquid); method: Pycnometric method
Temperature, K	Mass density, kg/m3	uncertainty
298.15	1110.2	.1
303.15	1106.6	.1
308.15	1103	.1
313.15	1099.3	.1
318.15	1095.8	.1

System: ethylene glycol; phases: Liquid
Fixed: Pressure, kPa = 101.325
Property: Viscosity, Pa*s (Liquid); method: Capillary tube (Ostwald; Ubbelohde) method
Temperature, K	Viscosity, Pa*s	uncertainty
298.15	.0162	.00002
303.15	.0141	.00002
308.15	.0116	.00002
313.15	.00975	.00002
318.15	.00791	.00002

System: urea + ethylene glycol + sulfur dioxide; phases: Liquid, Gas
Fixed: Temperature, K = 308.15
Property: Molality, mol/kg of sulfur dioxide (Liquid); method: titration
Solvent: Molality, mol/kg of urea	Pressure, kPa	Molality, mol/kg of sulfur dioxide	uncertainty
0	.0468	.00126	.00001
0	.0633	.00185	.00001
0	.0806	.00237	.00001
0	.0878	.00299	.00001
0	.0988	.00354	.00001
0	.109	.00437	.00001
.834	.0315	.0028	.00001
.834	.0434	.00414	.00001
.834	.0616	.00535	.00001
.834	.0775	.00584	.00001
.834	.0866	.00655	.00001
.834	.101	.0077	.00001
.834	.11	.00936	.00001
1.644	.0253	.00348	.00001
1.644	.0564	.00601	.00001
1.644	.0838	.00833	.00001
1.644	.0936	.0093	.00001
1.644	.105	.01064	.00001
1.644	.113	.01145	.00001
2.799	.0358	.00558	.00001
2.799	.0503	.00657	.00001
2.799	.0619	.00785	.00001
2.799	.0707	.00895	.00001
2.799	.0847	.00992	.00001
2.799	.101	.01143	.00001
4.096	.0297	.00627	.00001
4.096	.0551	.0101	.00001
4.096	.0846	.01405	.00001
4.096	.0942	.01528	.00001
4.096	.107	.01651	.00001
4.096	.119	.018	.00001
5.833	.0205	.00642	.00001
5.833	.041	.00939	.00001
5.833	.0586	.01183	.00001
5.833	.079	.01504	.00001
5.833	.0963	.01696	.00001
5.833	.105	.01861	.00001
5.833	.114	.01948	.00001
6.648	.0272	.00826	.00001
6.648	.0486	.01169	.00001
6.648	.0655	.01455	.00001
6.648	.0805	.01645	.00001
6.648	.104	.0187	.00001
6.648	.111	.02095	.00001

System: urea + ethylene glycol + sulfur dioxide; phases: Liquid, Gas
Fixed: Solvent: Molality, mol/kg of urea = 6.648
Property: Molality, mol/kg of sulfur dioxide (Liquid); method: titration
Temperature, K	Pressure, kPa	Molality, mol/kg of sulfur dioxide	uncertainty
298.15	.0189	.00955	.00001
298.15	.0455	.01678	.00001
298.15	.059	.01988	.00001
298.15	.0728	.02263	.00001
298.15	.0915	.02702	.00001
298.15	.104	.03098	.00001
303.15	.0233	.0088	.00001
303.15	.0413	.0126	.00001
303.15	.0601	.01605	.00001
303.15	.0764	.01829	.00001
303.15	.0928	.02183	.00001
303.15	.108	.02381	.00001
313.15	.0243	.00698	.00001
313.15	.0526	.01094	.00001
313.15	.0596	.01181	.00001
313.15	.0796	.01467	.00001
313.15	.0892	.01536	.00001
313.15	.112	.01901	.00001
318.15	.0256	.00777	.00001
318.15	.0499	.00897	.00001
318.15	.0704	.0115	.00001
318.15	.0841	.01307	.00001
318.15	.102	.01437	.00001
318.15	.112	.01559	.00001

System: urea + ethylene glycol + sulfur dioxide; phases: Liquid, Gas
Fixed: Solvent: Molality, mol/kg of urea = 6.648
Fixed: Temperature, K = 308.15
Property: Molality, mol/kg of sulfur dioxide (Liquid); method: titration
Partial pressure, kPa of sulfur dioxide	Molality, mol/kg of sulfur dioxide	uncertainty
.0114	.00649	.00001
.0218	.00757	.00001
.0372	.01143	.00001
.0528	.01316	.00001
.071	.01584	.00001
.0871	.01792	.00001
.11	.02121	.00001
.0295	.0084	.00001
.0364	.01013	.00001
.0511	.01247	.00001
.0695	.01541	.00001
.0889	.0181	.00001
.102	.02009	.00001
.113	.02173	.00001
.0246	.00813	.00001
.0292	.00883	.00001
.0519	.01177	.00001
.0889	.01653	.00001
.0984	.01792	.00001
.117	.02009	.00001

System: urea + ethylene glycol; phases: Liquid
Fixed: Pressure, kPa = 101
Property: Mass density, kg/m3 (Liquid); method: Pycnometric method
Molality, mol/kg of urea	Temperature, K	Mass density, kg/m3	uncertainty
0	298.15	1110.2	.1
.877	298.15	1118.4	.1
1.852	298.15	1127.9	.1
2.939	298.15	1137.2	.1
4.162	298.15	1146.3	.1
5.549	298.15	1155.3	.1
7.137	298.15	1164.4	.1
0	303.15	1106.6	.1
.877	303.15	1114.8	.1
1.852	303.15	1124.4	.1
2.939	303.15	1133.7	.1
4.162	303.15	1142.9	.1
5.549	303.15	1151.9	.1
7.137	303.15	1161.1	.1
0	308.15	1103	.1
.877	308.15	1111.1	.1
1.852	308.15	1120.7	.1
2.939	308.15	1130	.1
4.162	308.15	1139.1	.1
5.549	308.15	1148.1	.1
7.137	308.15	1157.4	.1
0	313.15	1099.3	.1
.877	313.15	1107.8	.1
1.852	313.15	1117.4	.1
2.939	313.15	1126.8	.1
4.162	313.15	1135.9	.1
5.549	313.15	1144.9	.1
7.137	313.15	1154.1	.1
0	318.15	1095.8	.1
.877	318.15	1103.9	.1
1.852	318.15	1113.6	.1
2.939	318.15	1122.9	.1
4.162	318.15	1132.1	.1
5.549	318.15	1141	.1
7.137	318.15	1150.3	.1

System: urea + ethylene glycol; phases: Liquid
Fixed: Pressure, kPa = 101
Property: Viscosity, Pa*s (Liquid); method: Capillary tube (Ostwald; Ubbelohde) method
Molality, mol/kg of urea	Temperature, K	Viscosity, Pa*s	uncertainty
0	298.15	.0162	.00002
.877	298.15	.017	.00002
1.852	298.15	.0185	.00002
2.939	298.15	.0204	.00002
4.162	298.15	.0221	.00002
5.549	298.15	.024	.00002
7.137	298.15	.0257	.00002
0	303.15	.0141	.00002
.877	303.15	.0149	.00002
1.852	303.15	.016	.00002
2.939	303.15	.0175	.00002
4.162	303.15	.0188	.00002
5.549	303.15	.0202	.00002
7.137	303.15	.0215	.00002
0	308.15	.0116	.00002
.877	308.15	.0121	.00002
1.852	308.15	.013	.00002
2.939	308.15	.0141	.00002
4.162	308.15	.0151	.00002
5.549	308.15	.0161	.00002
7.137	308.15	.0171	.00002
0	313.15	.00975	.00002
.877	313.15	.0101	.00002
1.852	313.15	.0108	.00002
2.939	313.15	.0116	.00002
4.162	313.15	.0124	.00002
5.549	313.15	.0132	.00002
7.137	313.15	.0139	.00002
0	318.15	.00791	.00002
.877	318.15	.00813	.00002
1.852	318.15	.00868	.00002
2.939	318.15	.00931	.00002
4.162	318.15	.00986	.00002
5.549	318.15	.0104	.00002
7.137	318.15	.011	.00002
