Measured thermophysical data. Experimental Study of Solubility of Water in Liquid Organic Hydrogen Carriers
Source: J. Chem. Eng. Data, 2015, 10.1021/je501092m
Compound 1: toluene, C7H8, purity 99.9%
Compound 2: methylcyclohexane, C7H14, purity 99.9%
Compound 3: water, H2O, purity 99.9%

System: toluene + water; phases: Liquid mixture 1, Liquid mixture 2
Fixed: Pressure, kPa = 101
Property: Mole fraction of water (Liquid mixture 1); method: Titration method
Temperature, K	Mole fraction of water	uncertainty
293.7	.00228	.0000456
303.3	.00299	.0000598
308.2	.00325	.000065
313.5	.00376	.0000752
317.6	.00443	.0000886
324.2	.00493	.0000986
327.6	.00552	.0001104
334.1	.00667	.0001334

System: methylcyclohexane + water; phases: Liquid mixture 1, Liquid mixture 2
Fixed: Pressure, kPa = 101
Property: Mole fraction of water (Liquid mixture 1); method: Titration method
Temperature, K	Mole fraction of water	uncertainty
293.7	.00057	.0000114
303.3	.00091	.0000182
308.4	.00111	.0000222
313.6	.00128	.0000256
317.7	.00142	.0000284
323.5	.00165	.000033
328.8	.0019	.000038
333.3	.00208	.0000416
343.3	.00286	.0000572
