Measured thermophysical data. Viscosity and Density of Aqueous Solutions of Carbon Dioxide at Temperatures From (274 to 449) K and at Pressures up to 100 MPa
Source: J. Chem. Eng. Data, 2015, 10.1021/je5009125
Compound 1: carbon dioxide, CO2, purity 99.995%
Compound 2: water, H2O, purity 99.99%

System: carbon dioxide + water; phases: Liquid
Property: Mass density, kg/m3 (Liquid); method: Vibrating tube method
Mole fraction of carbon dioxide	Temperature, K	Pressure, kPa	Mass density, kg/m3	uncertainty
.0086	274.73	15010	1012	.33396
.0086	274.73	30110	1019	.33627
.0086	274.73	50240	1028.1	.339273
.0086	274.73	70360	1036.8	.342144
.0086	274.73	100670	1049.3	.346269
.0086	296.17	15100	1008.6	.332838
.0086	296.17	30200	1015	.33495
.0086	296.17	50260	1023.4	.337722
.0086	296.17	70330	1031.4	.340362
.0086	296.17	100650	1042.9	.344157
.0086	323.45	15020	998.4	.329472
.0086	323.45	30130	1004.7	.331551
.0086	323.45	50250	1012.8	.334224
.0086	323.45	70360	1020.6	.336798
.0086	323.45	100720	1031.6	.340428
.0086	348.32	15050	984.8	.324984
.0086	348.32	30150	991.3	.327129
.0086	348.32	50270	999.5	.329835
.0086	348.32	70370	1007.3	.332409
.0086	348.32	100710	1018.6	.336138
.0086	373.42	15090	967.8	.319374
.0086	373.42	30180	974.6	.321618
.0086	373.42	50280	983.2	.324456
.0086	373.42	70390	991.5	.327195
.0086	373.42	100710	1003.2	.331056
.0086	398.55	15060	948.3	.312939
.0086	398.55	30170	955.6	.315348
.0086	398.55	50290	964.9	.318417
.0086	398.55	70390	973.7	.321321
.0086	398.55	100710	986	.32538
.0086	423.92	15070	925.9	.305547
.0086	423.92	30180	934	.30822
.0086	423.92	50300	944.2	.311586
.0086	423.92	70420	953.8	.314754
.0086	423.92	100710	967.1	.319143
.0086	449.2	15080	900.7	.297231
.0086	449.2	30190	909.9	.300267
.0086	449.2	50310	921.3	.304029
.0086	449.2	70420	931.8	.307494
.0086	449.2	100710	946.4	.312312
.0168	274.77	15080	1017.3	.335709
.0168	274.77	30190	1024.1	.337953
.0168	274.77	50310	1033	.34089
.0168	274.77	70430	1041.6	.343728
.0168	274.77	100710	1053.9	.347787
.0168	296.19	15070	1013.3	.334389
.0168	296.19	30170	1019.7	.336501
.0168	296.19	50300	1027.9	.339207
.0168	296.19	70410	1035.9	.341847
.0168	296.19	100730	1047.3	.345609
.0168	323.43	15060	1002.5	.330825
.0168	323.43	30180	1008.8	.332904
.0168	323.43	50300	1016.9	.335577
.0168	323.43	70420	1024.6	.338118
.0168	323.43	100720	1035.7	.341781
.0168	348.38	30200	994.9	.328317
.0168	348.38	50320	1003.2	.331056
.0168	348.38	70450	1011.1	.333663
.0168	348.38	100740	1022.4	.337392
.0168	373.46	30190	977.8	.322674
.0168	373.46	50320	986.5	.325545
.0168	373.46	70450	994.9	.328317
.0168	373.46	100740	1006.7	.332211
.0168	398.55	30190	958.2	.316206
.0168	398.55	50330	967.8	.319374
.0168	398.55	70460	976.7	.322311
.0168	398.55	100730	989.4	.326502
.0168	423.93	30200	935.7	.308781
.0168	423.93	50340	946.2	.312246
.0168	423.93	70460	956	.31548
.0168	423.93	100730	969.7	.320001
.0168	449.2	30210	910.8	.300564
.0168	449.2	50360	922.6	.304458
.0168	449.2	70470	933.5	.308055
.0168	449.2	100740	948.4	.312972
.0271	274.72	30290	1030.1	.339933
.0271	274.72	50410	1038.8	.342804
.0271	274.72	70530	1047.2	.345576
.0271	274.72	100770	1059.2	.349536
.0271	296.18	30250	1025.3	.338349
.0271	296.18	50360	1033.4	.341022
.0271	296.18	70440	1041.2	.343596
.0271	296.18	100760	1052.6	.347358
.0271	323.43	70460	1029.6	.339768
.0271	323.43	100780	1040.7	.343431
.0271	348.33	70580	1015.3	.335049
.0271	348.33	100780	1026.8	.338844
.0271	373.38	70590	998.2	.329406
.0271	373.38	100800	1010.3	.333399
.0271	398.48	50470	970	.3201
.0271	398.48	70600	979.3	.323169
.0271	398.48	100800	992.1	.327393
.0271	423.84	50460	948	.31284
.0271	423.84	70580	958.1	.316173
.0271	423.84	100810	972.1	.320793
.0271	449.17	50450	923.6	.304788
.0271	449.17	70570	934.9	.308517
.0271	449.17	100800	950.3	.313599

System: carbon dioxide + water; phases: Liquid
Property: Viscosity, Pa*s (Liquid); method: Vibrating wire viscometry
Mole fraction of carbon dioxide	Temperature, K	Pressure, kPa	Viscosity, Pa*s	uncertainty
.0086	294.3	15100	.001013	.000007091
.0086	294.3	30200	.001014	.000007098
.0086	294.3	50300	.001012	.000007084
.0086	294.3	70300	.001008	.000007056
.0086	294.3	96400	.001008	.000007056
.0086	322.93	15000	.00056	.00000392
.0086	322.93	30100	.000564	.000003948
.0086	322.93	50200	.000568	.000003976
.0086	322.93	70200	.000573	.000004011
.0086	322.93	96300	.000582	.000004074
.0086	373.13	15000	.000286	.000002002
.0086	373.13	30100	.000291	.000002037
.0086	373.13	50200	.000297	.000002079
.0086	373.13	70300	.000302	.000002114
.0086	373.13	96400	.000308	.000002156
.0086	397.98	30100	.000231	.000001617
.0086	397.98	50200	.000236	.000001652
.0086	397.98	70300	.000242	.000001694
.0086	397.98	96400	.000248	.000001736
.0086	424.03	30100	.00019	.00000133
.0086	424.03	50200	.000194	.000001358
.0086	424.03	70200	.000199	.000001393
.0086	424.03	96400	.000205	.000001435
.0086	448.93	30000	.000162	.000001134
.0086	448.93	50100	.000167	.000001169
.0086	448.93	70200	.000172	.000001204
.0086	448.93	96300	.000178	.000001246
.0168	294.27	15100	.001049	.000007343
.0168	294.27	30200	.001044	.000007308
.0168	294.27	50200	.001044	.000007308
.0168	294.27	70200	.001041	.000007287
.0168	294.27	96300	.001046	.000007322
.0168	322.91	15000	.000568	.000003976
.0168	322.91	30100	.000573	.000004011
.0168	322.91	50200	.000578	.000004046
.0168	322.91	70200	.000584	.000004088
.0168	322.91	96200	.000592	.000004144
.0168	373.03	30100	.0002932	.0000020524
.0168	373.03	50200	.0002989	.0000020923
.0168	373.03	70200	.000304	.000002128
.0168	373.03	96200	.0003111	.0000021777
.0168	397.88	30100	.000233	.000001631
.0168	397.88	50200	.000238	.000001666
.0168	397.88	70200	.000244	.000001708
.0168	397.88	96300	.00025	.00000175
.0168	422.91	30000	.000192	.000001344
.0168	422.91	50100	.000196	.000001372
.0168	422.91	70200	.000202	.000001414
.0168	422.91	96200	.000208	.000001456
.0168	448.29	30000	.000163	.000001141
.0168	448.29	50100	.000168	.000001176
.0168	448.29	70100	.000173	.000001211
.0168	448.29	96200	.000179	.000001253
.0271	294.31	30300	.001096	.000007672
.0271	294.31	50300	.001095	.000007665
.0271	294.31	70400	.001097	.000007679
.0271	294.31	96500	.0011	.0000077
.0271	323.12	70400	.000606	.000004242
.0271	323.12	96500	.000615	.000004305
.0271	374.09	70300	.000309	.000002163
.0271	374.09	96400	.000318	.000002226
.0271	398.98	50200	.000241	.000001687
.0271	398.98	70200	.000245	.000001715
.0271	398.98	96300	.000254	.000001778
.0271	423.82	50200	.000198	.000001386
.0271	423.82	70300	.000204	.000001428
.0271	423.82	96500	.00021	.00000147
.0271	448.71	50200	.000169	.000001183
.0271	448.71	70200	.000173	.000001211
.0271	448.71	96400	.000179	.000001253
