Measured thermophysical data. Viscosities of Fatty Acid Methyl and Ethyl Esters under High Pressure: Methyl Caprate and Ethyl Caprate
Source: J. Chem. Eng. Data, 2015, 10.1021/je500980a
Compound 1: methyl caprate, C11H22O2, purity 99%
Compound 2: ethyl caprate, C12H24O2, purity 99%

System: methyl caprate; phases: Liquid
Property: Viscosity, Pa*s (Liquid); method: Falling or rolling sphere viscometry
Pressure, kPa	Temperature, K	Viscosity, Pa*s	uncertainty
101.3	293.15	.00215	.00007525
20000	293.15	.00266	.0000931
40000	293.15	.00324	.0001134
60000	293.15	.00391	.00013685
80000	293.15	.00467	.00016345
100000	293.15	.00553	.00019355
120000	293.15	.00652	.0002282
140000	293.15	.00766	.0002681
160000	293.15	.00896	.0003136
101.3	313.15	.00146	.0000511
20000	313.15	.00183	.00006405
40000	313.15	.00221	.00007735
60000	313.15	.00265	.00009275
80000	313.15	.00312	.0001092
100000	313.15	.00363	.00012705
120000	313.15	.00421	.00014735
140000	313.15	.00485	.00016975
160000	313.15	.00556	.0001946
180000	313.15	.00635	.00022225
200000	313.15	.00724	.0002534
101.3	333.15	.00107	.00003745
20000	333.15	.00132	.0000462
40000	333.15	.00158	.0000553
60000	333.15	.00186	.0000651
80000	333.15	.00217	.00007595
100000	333.15	.0025	.0000875
120000	333.15	.00286	.0001001
140000	333.15	.00326	.0001141
160000	333.15	.0037	.0001295
180000	333.15	.00418	.0001463
200000	333.15	.0047	.0001645
101.3	353.15	.000825	.000028875
20000	353.15	.00101	.00003535
40000	353.15	.00121	.00004235
60000	353.15	.00142	.0000497
80000	353.15	.00164	.0000574
100000	353.15	.00188	.0000658
120000	353.15	.00213	.00007455
140000	353.15	.00241	.00008435
160000	353.15	.00271	.00009485
180000	353.15	.00303	.00010605
200000	353.15	.00338	.0001183

System: methyl caprate; phases: Liquid
Property: Viscosity, Pa*s (Liquid); method: Quartz crystal resonator
Pressure, kPa	Temperature, K	Viscosity, Pa*s	uncertainty
101.3	293.15	.00213	.0000426
10000	293.15	.00236	.0000472
20000	293.15	.00262	.0000524
30000	293.15	.00292	.0000584
40000	293.15	.00321	.0000642
50000	293.15	.00353	.0000706
60000	293.15	.00387	.0000774
70000	293.15	.00422	.0000844
80000	293.15	.00461	.0000922
90000	293.15	.00502	.0001004
100000	293.15	.00547	.0001094
101.3	313.15	.0015	.00003
10000	313.15	.00166	.0000332
20000	313.15	.00184	.0000368
30000	313.15	.002	.00004
40000	313.15	.0022	.000044
50000	313.15	.00239	.0000478
60000	313.15	.00259	.0000518
70000	313.15	.00282	.0000564
80000	313.15	.00306	.0000612
90000	313.15	.00329	.0000658
100000	313.15	.00356	.0000712
101.3	333.15	.00108	.0000216
10000	333.15	.00119	.0000238
20000	333.15	.0013	.000026
30000	333.15	.00143	.0000286
40000	333.15	.00155	.000031
50000	333.15	.00168	.0000336
60000	333.15	.00181	.0000362
70000	333.15	.00197	.0000394
80000	333.15	.00211	.0000422
90000	333.15	.00226	.0000452
100000	333.15	.00243	.0000486
101.3	353.15	.000837	.00001674
10000	353.15	.000927	.00001854
20000	353.15	.00102	.0000204
30000	353.15	.00112	.0000224
40000	353.15	.00122	.0000244
50000	353.15	.00131	.0000262
60000	353.15	.00142	.0000284
70000	353.15	.00153	.0000306
80000	353.15	.00163	.0000326
90000	353.15	.00175	.000035
100000	353.15	.00187	.0000374

System: methyl caprate; phases: Liquid
Property: Viscosity, Pa*s (Liquid); method: Quartz crystal resonator
Pressure, kPa	Temperature, K	Viscosity, Pa*s	uncertainty
120000	293.15	.00647	.0002588
140000	293.15	.00782	.0003128
160000	293.15	.00917	.0003668
120000	313.15	.0041	.000164
140000	313.15	.00475	.00019
160000	313.15	.00543	.0002172
180000	313.15	.00629	.0002516
200000	313.15	.00713	.0002852
120000	333.15	.00276	.0001104
140000	333.15	.00319	.0001276
160000	333.15	.00362	.0001448
180000	333.15	.00407	.0001628
200000	333.15	.00454	.0001816
120000	353.15	.00213	.0000852
140000	353.15	.00241	.0000964
160000	353.15	.00272	.0001088
180000	353.15	.00305	.000122
200000	353.15	.00341	.0001364

System: ethyl caprate; phases: Liquid
Property: Viscosity, Pa*s (Liquid); method: Falling or rolling sphere viscometry
Pressure, kPa	Temperature, K	Viscosity, Pa*s	uncertainty
101.3	293.15	.00234	.0000819
20000	293.15	.00294	.0001029
40000	293.15	.00362	.0001267
60000	293.15	.0044	.000154
80000	293.15	.00529	.00018515
100000	293.15	.0063	.0002205
120000	293.15	.00745	.00026075
140000	293.15	.00878	.0003073
160000	293.15	.0103	.0003605
180000	293.15	.01206	.0004221
200000	293.15	.0141	.0004935
101.3	313.15	.00159	.00005565
20000	313.15	.00196	.0000686
40000	313.15	.00238	.0000833
60000	313.15	.00285	.00009975
80000	313.15	.00337	.00011795
100000	313.15	.00396	.0001386
120000	313.15	.00462	.0001617
140000	313.15	.00535	.00018725
160000	313.15	.00618	.0002163
180000	313.15	.00711	.00024885
200000	313.15	.00816	.0002856
101.3	333.15	.00116	.0000406
20000	333.15	.00144	.0000504
40000	333.15	.00174	.0000609
60000	333.15	.00206	.0000721
80000	333.15	.00242	.0000847
100000	333.15	.00281	.00009835
120000	333.15	.00323	.00011305
140000	333.15	.0037	.0001295
160000	333.15	.00422	.0001477
180000	333.15	.00478	.0001673
200000	333.15	.00541	.00018935
101.3	353.15	.000888	.00003108
20000	353.15	.0011	.0000385
40000	353.15	.00132	.0000462
60000	353.15	.00156	.0000546
80000	353.15	.00182	.0000637
100000	353.15	.0021	.0000735
120000	353.15	.0024	.000084
140000	353.15	.00273	.00009555
160000	353.15	.00308	.0001078
180000	353.15	.00346	.0001211
200000	353.15	.00388	.0001358

System: ethyl caprate; phases: Liquid
Property: Viscosity, Pa*s (Liquid); method: Quartz crystal resonator
Pressure, kPa	Temperature, K	Viscosity, Pa*s	uncertainty
101.3	293.15	.00233	.0000466
10000	293.15	.00259	.0000518
20000	293.15	.00291	.0000582
30000	293.15	.00322	.0000644
40000	293.15	.00357	.0000714
50000	293.15	.00395	.000079
60000	293.15	.00435	.000087
70000	293.15	.0048	.000096
80000	293.15	.00523	.0001046
90000	293.15	.00574	.0001148
100000	293.15	.00625	.000125
101.3	313.15	.00159	.0000318
10000	313.15	.00177	.0000354
20000	313.15	.00197	.0000394
30000	313.15	.00218	.0000436
40000	313.15	.00239	.0000478
50000	313.15	.00262	.0000524
60000	313.15	.00286	.0000572
70000	313.15	.00314	.0000628
80000	313.15	.00344	.0000688
90000	313.15	.00372	.0000744
100000	313.15	.00404	.0000808
101.3	333.15	.00116	.0000232
10000	333.15	.00128	.0000256
20000	333.15	.00143	.0000286
30000	333.15	.00159	.0000318
40000	333.15	.00174	.0000348
50000	333.15	.00187	.0000374
60000	333.15	.00207	.0000414
70000	333.15	.0022	.000044
80000	333.15	.00237	.0000474
90000	333.15	.00259	.0000518
100000	333.15	.00282	.0000564
101.3	353.15	.000893	.00001786
10000	353.15	.001	.00002
20000	353.15	.0011	.000022
30000	353.15	.00121	.0000242
40000	353.15	.00132	.0000264
50000	353.15	.00145	.000029
60000	353.15	.00158	.0000316
70000	353.15	.00172	.0000344
80000	353.15	.00184	.0000368
90000	353.15	.00198	.0000396
100000	353.15	.00213	.0000426

System: ethyl caprate; phases: Liquid
Property: Viscosity, Pa*s (Liquid); method: Quartz crystal resonator
Pressure, kPa	Temperature, K	Viscosity, Pa*s	uncertainty
120000	293.15	.00746	.0002984
140000	293.15	.00883	.0003532
160000	293.15	.0107	.000428
180000	293.15	.0124	.000496
200000	293.15	.0145	.00058
120000	313.15	.00469	.0001876
140000	313.15	.00552	.0002208
160000	313.15	.00627	.0002508
180000	313.15	.00731	.0002924
200000	313.15	.00836	.0003344
120000	333.15	.00327	.0001308
140000	333.15	.00372	.0001488
160000	333.15	.00425	.00017
180000	333.15	.0047	.000188
200000	333.15	.00536	.0002144
120000	353.15	.00242	.0000968
140000	353.15	.00274	.0001096
160000	353.15	.00314	.0001256
180000	353.15	.00353	.0001412
200000	353.15	.00398	.0001592
