Measured thermophysical data. Solubility and Thermodynamic Functions of Isatin in Pure Solvents
Source: J. Chem. Eng. Data, 2014, 10.1021/je500396b
Compound 1: isatin, C8H5NO2
Compound 2: dichloromethane, CH2Cl2, purity 99.5%
Compound 3: toluene, C7H8, purity 99.5%
Compound 4: acetone, C3H6O, purity 99.5%
Compound 5: ethyl acetate, C4H8O2, purity 99.5%
Compound 6: 1,4-dioxane, C4H8O2, purity 99.5%
Compound 7: N,N-dimethylformamide, C3H7NO, purity 99.5%
Compound 8: tetrahydrofuran, C4H8O, purity 99.5%
Compound 9: acetonitrile, C2H3N, purity 99.5%

System: dichloromethane + isatin; phases: Liquid, Crystal
Fixed: Pressure, kPa = .0000001
Property: Mole fraction of isatin (Liquid); method: laser monitoring
Temperature, K	Mole fraction of isatin	uncertainty
278.15	.00078767	.0000078767
282.35	.00087582	.0000087582
286.25	.00098231	.0000098231
290.55	.001099	.00001099
293.15	.001198	.00001198
296.95	.0013171	.000013171
299.85	.0014135	.000014135
303.25	.0015331	.000015331
307.65	.0016983	.000016983

System: isatin + toluene; phases: Liquid, Crystal
Fixed: Pressure, kPa = .0000001
Property: Mole fraction of isatin (Liquid); method: laser monitoring
Temperature, K	Mole fraction of isatin	uncertainty
288.15	.0005881	.000005881
293.15	.0006371	.000006371
298.15	.0006849	.000006849
303.15	.0007136	.000007136
308.15	.0007707	.000007707
313.15	.0008186	.000008186
318.15	.0008844	.000008844
323.15	.0009261	.000009261

System: acetone + isatin; phases: Liquid, Crystal
Fixed: Pressure, kPa = .0000001
Property: Mole fraction of isatin (Liquid); method: laser monitoring
Temperature, K	Mole fraction of isatin	uncertainty
287.25	.010887	.00010887
292.75	.012513	.00012513
298.45	.014044	.00014044
302.65	.015808	.00015808
308.35	.017432	.00017432
312.65	.019259	.00019259
318.15	.021676	.00021676
323.35	.024077	.00024077

System: isatin + ethyl acetate; phases: Liquid, Crystal
Fixed: Pressure, kPa = .0000001
Property: Mole fraction of isatin (Liquid); method: laser monitoring
Temperature, K	Mole fraction of isatin	uncertainty
288.15	.0042066	.000042066
293.35	.0047991	.000047991
298.25	.0056544	.000056544
303.65	.0063674	.000063674
308.65	.0073259	.000073259
313.35	.0082201	.000082201
318.15	.0092017	.000092017
323.35	.010316	.00010316

System: isatin + 1,4-dioxane; phases: Liquid, Crystal
Fixed: Pressure, kPa = .0000001
Property: Mole fraction of isatin (Liquid); method: laser monitoring
Temperature, K	Mole fraction of isatin	uncertainty
293.15	.016176	.00016176
298.15	.018827	.00018827
303.15	.021824	.00021824
308.15	.025213	.00025213
313.15	.028999	.00028999
318.15	.033091	.00033091
323.15	.037755	.00037755
328.15	.042821	.00042821
333.15	.048382	.00048382

System: N,N-dimethylformamide + isatin; phases: Liquid, Crystal
Fixed: Pressure, kPa = .0000001
Property: Mole fraction of isatin (Liquid); method: laser monitoring
Temperature, K	Mole fraction of isatin	uncertainty
283.15	.1265	.001265
288.25	.13495	.0013495
293.25	.14289	.0014289
298.15	.15142	.0015142
303.15	.16049	.0016049
308.25	.17032	.0017032
313.25	.1788	.001788
318.45	.18984	.0018984
323.15	.19803	.0019803
328.15	.20876	.0020876
333.15	.21757	.0021757

System: isatin + tetrahydrofuran; phases: Liquid, Crystal
Fixed: Pressure, kPa = .0000001
Property: Mole fraction of isatin (Liquid); method: laser monitoring
Temperature, K	Mole fraction of isatin	uncertainty
289.85	.019694	.00019694
297.15	.023443	.00023443
301.15	.025413	.00025413
305.15	.027975	.00027975
308.95	.03011	.0003011
314.05	.033459	.00033459
318.35	.036657	.00036657
323.15	.039894	.00039894

System: acetonitrile + isatin; phases: Liquid, Crystal
Fixed: Pressure, kPa = .0000001
Property: Mole fraction of isatin (Liquid); method: laser monitoring
Temperature, K	Mole fraction of isatin	uncertainty
283.15	.0042029	.000042029
288.35	.0049805	.000049805
294.65	.0060799	.000060799
298.15	.0067486	.000067486
303.15	.007888	.00007888
308.15	.0089335	.000089335
313.15	.010281	.00010281
318.15	.01181	.0001181
323.15	.013597	.00013597
