Measured thermophysical data. Aqueous Biphasic Systems Composed of Ionic Liquids and Acetate-Based Salts: Phase Diagrams, Densities, and Viscosities
Source: J. Chem. Eng. Data, 2015, 10.1021/je501044u
Compound 1: potassium acetate, C2H3KO2, purity 99%
Compound 2: sodium acetate, C2H3NaO2, purity 99%
Compound 3: 1-butyl-3-methylimidazolium trifluoromethanesulfonate, C9H15F3N2O3S, purity 98%
Compound 4: 1-butyl-3-methylimidazolium thiocyanate, C9H15N3S, purity 98%
Compound 5: 1-butyl-3-methylimidazolium dicyanamide, C10H15N5, purity 98%
Compound 6: water, H2O, purity 99.99%

System: potassium acetate + water + 1-butyl-3-methylimidazolium trifluoromethanesulfonate; phases: Liquid mixture 1, Liquid mixture 2
Fixed: Pressure, kPa = 101
Fixed: Temperature, K = 298
Property: Mass fraction of potassium acetate (Liquid mixture 1); method: Titration method
Mass fraction of 1-butyl-3-methylimidazolium trifluoromethanesulfonate	Mass fraction of potassium acetate	uncertainty
.70878	.02545	
.63038	.03283	
.56868	.03717	
.53303	.04334	
.5007	.04937	
.46251	.05175	
.4475	.05591	
.42688	.05837	
.40443	.06188	
.38666	.06503	
.3698	.06717	
.35856	.06802	
.35057	.07203	
.3347	.07288	
.32767	.07623	
.31486	.07803	
.3049	.08021	
.29411	.08168	
.28478	.08316	
.27676	.08546	
.27055	.08812	
.26297	.08951	
.25541	.09467	
.24335	.09768	
.2341	.10123	
.23027	.10399	
.22571	.1056	
.2212	.10846	
.21031	.1131	
.20746	.11464	
.2052	.11589	
.2022	.11716	
.19997	.1186	
.19725	.1196	
.19223	.12375	
.18692	.12753	
.18437	.1299	
.18118	.1324	
.1762	.13639	
.16945	.14172	
.16119	.14859	
.1528	.15738	
.14417	.16863	
.12451	.20422	
.11755	.21615	

System: potassium acetate + water + 1-butyl-3-methylimidazolium trifluoromethanesulfonate; phases: Liquid
Fixed: Pressure, kPa = 101
Property: Viscosity, Pa*s (Liquid); method: Concentric cylinders viscometry
Mass fraction of 1-butyl-3-methylimidazolium trifluoromethanesulfonate	Mass fraction of potassium acetate	Temperature, K	Viscosity, Pa*s	uncertainty
.5741	.0374	298.15	.0019625	
.5741	.0374	303.15	.0017417	
.5741	.0374	308.15	.0015147	
.5741	.0374	313.15	.0013147	
.5741	.0374	318.15	.0012531	
.5741	.0374	323.15	.0011515	
.5741	.0374	328.15	.0010595	
.1831	.1323	298.15	.0059913	
.1831	.1323	303.15	.0050248	
.1831	.1323	308.15	.0043524	
.1831	.1323	313.15	.0037894	
.1831	.1323	318.15	.0033777	
.1831	.1323	323.15	.0030251	
.1831	.1323	328.15	.002735	

System: potassium acetate + water + 1-butyl-3-methylimidazolium trifluoromethanesulfonate; phases: Liquid
Fixed: Pressure, kPa = 101
Property: Mass density, kg/m3 (Liquid); method: Vibrating tube method
Mass fraction of 1-butyl-3-methylimidazolium trifluoromethanesulfonate	Mass fraction of potassium acetate	Temperature, K	Mass density, kg/m3	uncertainty
.5741	.0374	298.15	1107.9	
.5741	.0374	303.15	1105.3	
.5741	.0374	308.15	1102.6	
.5741	.0374	313.15	1099.8	
.5741	.0374	318.15	1096.9	
.5741	.0374	323.15	1093.9	
.5741	.0374	328.15	1090.9	
.1831	.1323	298.15	1205.8	
.1831	.1323	303.15	1202	
.1831	.1323	308.15	1198.2	
.1831	.1323	313.15	1194.3	
.1831	.1323	318.15	1190.3	
.1831	.1323	323.15	1186.2	
.1831	.1323	328.15	1182	

System: potassium acetate + water + 1-butyl-3-methylimidazolium trifluoromethanesulfonate; phases: Liquid mixture 1, Liquid mixture 2
Fixed: Temperature, K = 298
Fixed: Pressure, kPa = 101
Property: Mass fraction of potassium acetate (Liquid mixture 1); method: UV Spectra
Property: Mass fraction of 1-butyl-3-methylimidazolium trifluoromethanesulfonate (Liquid mixture 2); method: UV Spectra
Property: Mass fraction of potassium acetate (Liquid mixture 2); method: UV Spectra
Mass fraction of 1-butyl-3-methylimidazolium trifluoromethanesulfonate	Mass fraction of potassium acetate	uncertainty	Mass fraction of 1-butyl-3-methylimidazolium trifluoromethanesulfonate	uncertainty	Mass fraction of potassium acetate	uncertainty
.5741	.0374		.1831		.1323	
.8016	.0206		.1183		.1847	
.8415	.0185		.1067		.198	

System: potassium acetate + water + 1-butyl-3-methylimidazolium thiocyanate; phases: Liquid mixture 2, Liquid mixture 1
Fixed: Temperature, K = 298
Fixed: Pressure, kPa = 101
Property: Mass fraction of 1-butyl-3-methylimidazolium thiocyanate (Liquid mixture 2); method: Other
Property: Mass fraction of 1-butyl-3-methylimidazolium thiocyanate (Liquid mixture 1); method: Other
Property: Mass fraction of potassium acetate (Liquid mixture 1); method: Other
Mass fraction of potassium acetate	Mass fraction of 1-butyl-3-methylimidazolium thiocyanate	uncertainty	Mass fraction of 1-butyl-3-methylimidazolium thiocyanate	uncertainty	Mass fraction of potassium acetate	uncertainty
.3107	.0283		.6476		.0246	
.3899	.0023		.8131		.0006	
.4293	.0004		.8276		.0002	

System: potassium acetate + water + 1-butyl-3-methylimidazolium thiocyanate; phases: Liquid mixture 1, Liquid mixture 2
Fixed: Pressure, kPa = 101
Fixed: Temperature, K = 298
Property: Mass fraction of potassium acetate (Liquid mixture 1); method: Titration method
Mass fraction of 1-butyl-3-methylimidazolium thiocyanate	Mass fraction of potassium acetate	uncertainty
.67159	.01459	
.61809	.03713	
.57136	.05669	
.54268	.06544	
.50111	.08266	
.46813	.09698	
.39284	.1212	
.33619	.13944	
.26945	.16658	
.17781	.21247	
.13106	.2478	

System: potassium acetate + water + 1-butyl-3-methylimidazolium thiocyanate; phases: Liquid
Fixed: Pressure, kPa = 101
Property: Viscosity, Pa*s (Liquid); method: Concentric cylinders viscometry
Mass fraction of 1-butyl-3-methylimidazolium thiocyanate	Mass fraction of potassium acetate	Temperature, K	Viscosity, Pa*s	uncertainty
.6476	.0246	298.15	.0073317	
.6476	.0246	303.15	.006216	
.6476	.0246	308.15	.00535	
.6476	.0246	313.15	.0046254	
.6476	.0246	318.15	.004093	
.6476	.0246	323.15	.0036235	
.6476	.0246	328.15	.0032269	
.0283	.3107	298.15	.002952	
.0283	.3107	303.15	.0026013	
.0283	.3107	308.15	.0023145	
.0283	.3107	313.15	.0020572	
.0283	.3107	318.15	.0018838	
.0283	.3107	323.15	.0017157	
.0283	.3107	328.15	.0015745	
.8131	.0006	298.15	.0085128	
.8131	.0006	303.15	.0070631	
.8131	.0006	308.15	.0059957	
.8131	.0006	313.15	.0051567	
.8131	.0006	318.15	.0045476	
.8131	.0006	323.15	.0040163	
.8131	.0006	328.15	.0035793	
.0023	.3899	298.15	.0031953	
.0023	.3899	303.15	.0028009	
.0023	.3899	308.15	.0024852	
.0023	.3899	313.15	.0022086	
.0023	.3899	318.15	.0020114	
.0023	.3899	323.15	.0018288	
.0023	.3899	328.15	.0016735	

System: potassium acetate + water + 1-butyl-3-methylimidazolium thiocyanate; phases: Liquid
Fixed: Pressure, kPa = 101
Property: Mass density, kg/m3 (Liquid); method: Vibrating tube method
Mass fraction of 1-butyl-3-methylimidazolium thiocyanate	Mass fraction of potassium acetate	Temperature, K	Mass density, kg/m3	uncertainty
.6476	.0246	298.15	1070.7	
.6476	.0246	303.15	1067.3	
.6476	.0246	308.15	1064	
.6476	.0246	313.15	1060.7	
.6476	.0246	318.15	1057.3	
.6476	.0246	323.15	1054	
.6476	.0246	328.15	1050.7	
.0283	.3107	298.15	1174.6	
.0283	.3107	303.15	1171.6	
.0283	.3107	308.15	1168.8	
.0283	.3107	313.15	1165.9	
.0283	.3107	318.15	1162.9	
.0283	.3107	323.15	1159.9	
.0283	.3107	328.15	1156.9	
.8131	.0006	298.15	1070.6	
.8131	.0006	303.15	1067.3	
.8131	.0006	308.15	1064	
.8131	.0006	313.15	1060.7	
.8131	.0006	318.15	1057.4	
.8131	.0006	323.15	1054.1	
.8131	.0006	328.15	1050.7	
.0023	.3899	298.15	1191.8	
.0023	.3899	303.15	1188.9	
.0023	.3899	308.15	1186	
.0023	.3899	313.15	1183.1	
.0023	.3899	318.15	1180.1	
.0023	.3899	323.15	1177.1	
.0023	.3899	328.15	1174.1	

System: potassium acetate + water + 1-butyl-3-methylimidazolium dicyanamide; phases: Liquid mixture 2, Liquid mixture 1
Fixed: Temperature, K = 298
Fixed: Pressure, kPa = 101
Property: Mass fraction of potassium acetate (Liquid mixture 2); method: Other
Property: Mass fraction of 1-butyl-3-methylimidazolium dicyanamide (Liquid mixture 1); method: Other
Property: Mass fraction of potassium acetate (Liquid mixture 1); method: Other
Mass fraction of 1-butyl-3-methylimidazolium dicyanamide	Mass fraction of potassium acetate	uncertainty	Mass fraction of 1-butyl-3-methylimidazolium dicyanamide	uncertainty	Mass fraction of potassium acetate	uncertainty
.1851	.4011		.6357		.1223	
.1255	.4594		.717		.0925	
.1178	.4681		.751		.0818	
.0871	.5065		.7641		.078	
.0706	.5306		.8427		.0577	

System: potassium acetate + water + 1-butyl-3-methylimidazolium dicyanamide; phases: Liquid mixture 1, Liquid mixture 2
Fixed: Pressure, kPa = 101
Fixed: Temperature, K = 298
Property: Mass fraction of potassium acetate (Liquid mixture 1); method: Titration method
Mass fraction of 1-butyl-3-methylimidazolium dicyanamide	Mass fraction of potassium acetate	uncertainty
.7295	.09046	
.69763	.09632	
.65648	.11522	
.61655	.13085	
.56452	.15201	
.54095	.16351	
.51822	.17757	
.46676	.2037	
.46235	.20923	
.42778	.2282	
.39518	.24695	
.3818	.25427	
.35986	.2705	
.33509	.2885	
.3044	.30665	
.2813	.32329	

System: potassium acetate + water + 1-butyl-3-methylimidazolium dicyanamide; phases: Liquid
Fixed: Pressure, kPa = 101
Property: Viscosity, Pa*s (Liquid); method: Concentric cylinders viscometry
Mass fraction of 1-butyl-3-methylimidazolium dicyanamide	Mass fraction of potassium acetate	Temperature, K	Viscosity, Pa*s	uncertainty
.7641	.078	298.15	.01208	
.7641	.078	308.15	.0086297	
.7641	.078	318.15	.0064882	
.7641	.078	328.15	.005057	
.0871	.5065	298.15	.0082306	
.0871	.5065	308.15	.0060234	
.0871	.5065	318.15	.0046146	
.0871	.5065	328.15	.0036635	
.8427	.0577	298.15	.013405	
.8427	.0577	303.15	.011222	
.8427	.0577	308.15	.0095467	
.8427	.0577	313.15	.0081801	
.8427	.0577	318.15	.0071684	
.8427	.0577	323.15	.0062998	
.0706	.5306	298.15	.0099793	
.0706	.5306	303.15	.0083976	
.0706	.5306	308.15	.007184	
.0706	.5306	313.15	.0061818	
.0706	.5306	318.15	.0054495	
.0706	.5306	323.15	.0048152	

System: potassium acetate + water + 1-butyl-3-methylimidazolium dicyanamide; phases: Liquid
Fixed: Pressure, kPa = 101
Property: Mass density, kg/m3 (Liquid); method: Vibrating tube method
Mass fraction of 1-butyl-3-methylimidazolium dicyanamide	Mass fraction of potassium acetate	Temperature, K	Mass density, kg/m3	uncertainty
.7641	.078	298.15	1082.2	
.7641	.078	308.15	1075.5	
.7641	.078	318.15	1069.1	
.7641	.078	328.15	1063.8	
.0871	.5065	298.15	1272	
.0871	.5065	308.15	1265.4	
.0871	.5065	318.15	1258.9	
.0871	.5065	328.15	1252.2	
.8427	.0577	298.15	1081.7	
.8427	.0577	303.15	1078.3	
.8427	.0577	308.15	1074.9	
.8427	.0577	313.15	1071.5	
.8427	.0577	318.15	1068.2	
.8427	.0577	323.15	1064.8	
.0706	.5306	298.15	1287.8	
.0706	.5306	303.15	1284.3	
.0706	.5306	308.15	1280.9	
.0706	.5306	313.15	1277.5	
.0706	.5306	318.15	1274.1	
.0706	.5306	323.15	1270.7	

System: sodium acetate + water + 1-butyl-3-methylimidazolium trifluoromethanesulfonate; phases: Liquid mixture 2, Liquid mixture 1
Fixed: Temperature, K = 298
Fixed: Pressure, kPa = 101
Property: Mass fraction of 1-butyl-3-methylimidazolium trifluoromethanesulfonate (Liquid mixture 2); method: Other
Property: Mass fraction of 1-butyl-3-methylimidazolium trifluoromethanesulfonate (Liquid mixture 1); method: Other
Property: Mass fraction of sodium acetate (Liquid mixture 1); method: Other
Mass fraction of sodium acetate	Mass fraction of 1-butyl-3-methylimidazolium trifluoromethanesulfonate	uncertainty	Mass fraction of 1-butyl-3-methylimidazolium trifluoromethanesulfonate	uncertainty	Mass fraction of sodium acetate	uncertainty
.1769	.0661		.7356		.022	
.1994	.054		.7956		.0204	
.212	.0532		.8222		.0224	

System: sodium acetate + water + 1-butyl-3-methylimidazolium trifluoromethanesulfonate; phases: Liquid mixture 1, Liquid mixture 2
Fixed: Pressure, kPa = 101
Fixed: Temperature, K = 298
Property: Mass fraction of sodium acetate (Liquid mixture 1); method: Titration method
Mass fraction of 1-butyl-3-methylimidazolium trifluoromethanesulfonate	Mass fraction of sodium acetate	uncertainty
.697	.02275	
.61234	.02613	
.56594	.03007	
.46577	.03832	
.45252	.03915	
.44231	.04081	
.42654	.04437	
.40907	.04531	
.39422	.04549	
.38288	.04828	
.37203	.04968	
.35766	.05103	
.34789	.0529	
.33423	.05536	
.31773	.0557	
.3069	.0589	
.29284	.06044	
.2774	.06312	
.26436	.06434	
.25419	.06738	
.2384	.07052	
.22645	.07267	
.22095	.07441	
.21327	.07583	
.20789	.0783	
.20026	.08177	
.19292	.08456	
.18649	.08762	
.17905	.09137	
.1732	.09411	
.16556	.09884	
.15776	.10332	
.14641	.11159	
.14025	.11594	
.13016	.12393	
.11807	.13562	

System: sodium acetate + water + 1-butyl-3-methylimidazolium trifluoromethanesulfonate; phases: Liquid
Fixed: Pressure, kPa = 101
Property: Viscosity, Pa*s (Liquid); method: Concentric cylinders viscometry
Mass fraction of 1-butyl-3-methylimidazolium trifluoromethanesulfonate	Mass fraction of sodium acetate	Temperature, K	Viscosity, Pa*s	uncertainty
.8222	.0224	298.15	.0030276	
.8222	.0224	303.15	.0026053	
.8222	.0224	308.15	.0022787	
.8222	.0224	313.15	.0019896	
.8222	.0224	318.15	.0017982	
.8222	.0224	323.15	.0016172	
.8222	.0224	328.15	.001465	
.0532	.212	298.15	.011122	
.0532	.212	303.15	.0094382	
.0532	.212	308.15	.0081056	
.0532	.212	313.15	.0069824	
.0532	.212	318.15	.0061502	
.0532	.212	323.15	.0054253	
.0532	.212	328.15	.0047748	

System: sodium acetate + water + 1-butyl-3-methylimidazolium trifluoromethanesulfonate; phases: Liquid
Fixed: Pressure, kPa = 101
Property: Mass density, kg/m3 (Liquid); method: Vibrating tube method
Mass fraction of 1-butyl-3-methylimidazolium trifluoromethanesulfonate	Mass fraction of sodium acetate	Temperature, K	Mass density, kg/m3	uncertainty
.8222	.0224	298.15	1131.8	
.8222	.0224	303.15	1129	
.8222	.0224	308.15	1126.2	
.8222	.0224	313.15	1123.3	
.8222	.0224	318.15	1120.4	
.8222	.0224	323.15	1117.3	
.8222	.0224	328.15	1114.2	
.0532	.212	298.15	1250.9	
.0532	.212	303.15	1246.6	
.0532	.212	308.15	1242.4	
.0532	.212	313.15	1238.2	
.0532	.212	318.15	1234.1	
.0532	.212	323.15	1229.8	
.0532	.212	328.15	1225.1	

System: sodium acetate + water + 1-butyl-3-methylimidazolium thiocyanate; phases: Liquid mixture 2, Liquid mixture 1
Fixed: Temperature, K = 298
Fixed: Pressure, kPa = 101
Property: Mass fraction of 1-butyl-3-methylimidazolium thiocyanate (Liquid mixture 2); method: Other
Property: Mass fraction of 1-butyl-3-methylimidazolium thiocyanate (Liquid mixture 1); method: Other
Property: Mass fraction of sodium acetate (Liquid mixture 1); method: Other
Mass fraction of sodium acetate	Mass fraction of 1-butyl-3-methylimidazolium thiocyanate	uncertainty	Mass fraction of 1-butyl-3-methylimidazolium thiocyanate	uncertainty	Mass fraction of sodium acetate	uncertainty
.2711	.0386		.6068		.0397	
.3041	.0159		.8293		.0053	
.3258	.008		.8865		.002	

System: sodium acetate + water + 1-butyl-3-methylimidazolium thiocyanate; phases: Liquid mixture 1, Liquid mixture 2
Fixed: Pressure, kPa = 101
Fixed: Temperature, K = 298
Property: Mass fraction of sodium acetate (Liquid mixture 1); method: Titration method
Mass fraction of 1-butyl-3-methylimidazolium thiocyanate	Mass fraction of sodium acetate	uncertainty
.77843	.00973	
.61367	.03762	
.40956	.10819	
.3514	.12278	
.30589	.13736	
.2691	.15083	
.25229	.15694	
.23516	.16352	
.22214	.1693	
.19606	.18097	
.12489	.21944	

System: sodium acetate + water + 1-butyl-3-methylimidazolium thiocyanate; phases: Liquid
Fixed: Pressure, kPa = 101
Property: Viscosity, Pa*s (Liquid); method: Concentric cylinders viscometry
Mass fraction of 1-butyl-3-methylimidazolium thiocyanate	Mass fraction of sodium acetate	Temperature, K	Viscosity, Pa*s	uncertainty
.6068	.0397	298.15	.0079117	
.6068	.0397	303.15	.0066993	
.6068	.0397	308.15	.0057411	
.6068	.0397	313.15	.0049388	
.6068	.0397	318.15	.0043491	
.6068	.0397	323.15	.003838	
.6068	.0397	328.15	.0034133	
.0386	.2711	298.15	.0052143	
.0386	.2711	303.15	.0043763	
.0386	.2711	308.15	.0037323	
.0386	.2711	313.15	.0032064	
.0386	.2711	318.15	.0028205	
.0386	.2711	323.15	.0024918	
.0386	.2711	328.15	.0022201	
.8293	.0053	298.15	.0085454	
.8293	.0053	303.15	.0070941	
.8293	.0053	308.15	.0059692	
.8293	.0053	313.15	.005076	
.8293	.0053	318.15	.0044573	
.8293	.0053	323.15	.003924	
.8293	.0053	328.15	.0034833	
.0159	.3041	298.15	.0052345	
.0159	.3041	303.15	.0043985	
.0159	.3041	308.15	.0037587	
.0159	.3041	313.15	.0032325	
.0159	.3041	318.15	.0028461	
.0159	.3041	323.15	.0025155	
.0159	.3041	328.15	.0022437	

System: sodium acetate + water + 1-butyl-3-methylimidazolium thiocyanate; phases: Liquid
Fixed: Pressure, kPa = 101
Property: Mass density, kg/m3 (Liquid); method: Vibrating tube method
Mass fraction of 1-butyl-3-methylimidazolium thiocyanate	Mass fraction of sodium acetate	Temperature, K	Mass density, kg/m3	uncertainty
.6068	.0397	298.15	1066.7	
.6068	.0397	303.15	1063.3	
.6068	.0397	308.15	1059.9	
.6068	.0397	313.15	1056.6	
.6068	.0397	318.15	1053.2	
.6068	.0397	323.15	1049.8	
.6068	.0397	328.15	1046.5	
.0386	.2711	298.15	1159.4	
.0386	.2711	303.15	1156.3	
.0386	.2711	308.15	1153.2	
.0386	.2711	313.15	1150.1	
.0386	.2711	318.15	1146.9	
.0386	.2711	323.15	1143.7	
.0386	.2711	328.15	1140.4	
.8293	.0053	303.15	1046	
.8293	.0053	308.15	1042.6	
.8293	.0053	313.15	1039.1	
.8293	.0053	318.15	1035.6	
.8293	.0053	323.15	1032.1	
.8293	.0053	328.15	1028.5	
.0159	.3041	298.15	1159	
.0159	.3041	303.15	1155.9	
.0159	.3041	308.15	1152.8	
.0159	.3041	313.15	1149.7	
.0159	.3041	318.15	1146.6	
.0159	.3041	323.15	1143.4	
.0159	.3041	328.15	1140.1	
