Measured thermophysical data. Liquid Liquid Equilibria for the Systems: Heptane + Benzene + Solvent (Propylene carbonate, N,N-Dimethylformamide, or Mixtures) at Temperatures from (303.2 to 323.2) K
Source: J. Chem. Eng. Data, 2014, 10.1021/je500442m
Compound 1: benzene, C6H6, purity 99.8%
Compound 2: heptane, C7H16, purity 99.8%
Compound 3: N,N-dimethylformamide, C3H7NO, purity 99.5%
Compound 4: propylene carbonate, C4H6O3, purity 99.8%
Compound 5: chlorobenzene, C6H5Cl, purity 99.8%

System: N,N-dimethylformamide + benzene + heptane; phases: Liquid mixture 1, Liquid mixture 2
Fixed: Temperature, K = 313.2
Fixed: Pressure, kPa = 101
Property: Mole fraction of benzene (Liquid mixture 1); method: Chromatography
Property: Mole fraction of heptane (Liquid mixture 2); method: Chromatography
Property: Mole fraction of benzene (Liquid mixture 2); method: Chromatography
Mole fraction of heptane	Mole fraction of benzene	uncertainty	Mole fraction of heptane	uncertainty	Mole fraction of benzene	uncertainty
.028	0	.004	.982	.006	0	.005
.085	.051	.004	.874	.006	.069	.005
.111	.073	.004	.828	.006	.095	.005
.143	.097	.004	.757	.006	.126	.005
.19	.126	.004	.678	.006	.155	.005
.243	.144	.004	.602	.006	.173	.005

System: benzene + propylene carbonate + heptane; phases: Liquid mixture 1, Liquid mixture 2
Fixed: Temperature, K = 313.2
Fixed: Pressure, kPa = 101
Property: Mole fraction of heptane (Liquid mixture 1); method: Chromatography
Property: Mole fraction of heptane (Liquid mixture 2); method: Chromatography
Property: Mole fraction of benzene (Liquid mixture 2); method: Chromatography
Mole fraction of benzene	Mole fraction of heptane	uncertainty	Mole fraction of heptane	uncertainty	Mole fraction of benzene	uncertainty
0	.015	.004	.999	.004	0	.006
.032	.019	.004	.913	.004	.085	.006
.065	.022	.004	.816	.004	.175	.006
.094	.025	.004	.727	.004	.259	.006
.117	.028	.004	.655	.004	.32	.006
.17	.033	.004	.506	.004	.439	.006
.204	.038	.004	.401	.004	.511	.006

System: N,N-dimethylformamide + heptane; phases: Liquid mixture 1, Liquid mixture 2
Property: Mole fraction of heptane (Liquid mixture 1); method: Chromatography
Temperature, K	Pressure, kPa	Mole fraction of heptane	uncertainty
313.2	101	.028	.004

System: N,N-dimethylformamide + heptane; phases: Liquid mixture 2, Liquid mixture 1
Property: Mole fraction of heptane (Liquid mixture 2); method: Chromatography
Temperature, K	Pressure, kPa	Mole fraction of heptane	uncertainty
313.2	101	.982	.006

System: propylene carbonate + heptane; phases: Liquid mixture 1, Liquid mixture 2
Property: Mole fraction of heptane (Liquid mixture 1); method: Chromatography
Temperature, K	Pressure, kPa	Mole fraction of heptane	uncertainty
313.2	101	.015	.004

System: propylene carbonate + heptane; phases: Liquid mixture 2, Liquid mixture 1
Property: Mole fraction of heptane (Liquid mixture 2); method: Chromatography
Temperature, K	Pressure, kPa	Mole fraction of heptane	uncertainty
313.2	101	.999	.004
