Measured thermophysical data. Volumetric Properties at High Pressures of the Nucleosides Inosine, 2'-Deoxyinosine, and 2'-Deoxyguanosine and the Volumetric Properties of Guanosine Derived Using Group Additivity Methods
Source: J. Chem. Eng. Data, 2014, 10.1021/je500458e
Compound 1: inosine, C10H12N4O5, purity 99%
Compound 2: 2'-deoxyinosine, C10H12N4O4, purity 98%
Compound 3: 2'-deoxyguanosine, C10H13N5O4, purity 99%
Compound 4: water, H2O, purity 99.9%

System: inosine + water; phases: Liquid
Fixed: Temperature, K = 298.15
Fixed: Pressure, kPa = 100
Property: Speed of sound, m/s (Liquid); method: Pulse-echo method
Molality, mol/kg of inosine	Speed of sound, m/s	uncertainty
.08494	1502.191	.03
.07502	1501.578	.03
.06847	1501.143	.03
.065	1500.933	.03
.06089	1500.669	.03
.05297	1500.162	.03
.04489	1499.643	.03
.03696	1499.122	.03
.03395	1498.93	.03
.02885	1498.594	.03
.02048	1498.046	.03
.01854	1497.921	.03

System: inosine + water; phases: Liquid
Fixed: Temperature, K = 298.15
Property: Speed of sound, m/s (Liquid); method: Pulse-echo method
Pressure, kPa	Molality, mol/kg of inosine	Speed of sound, m/s	uncertainty
10000	.08535	1518.73	.03
10000	.07798	1518.28	.03
10000	.07008	1517.79	.03
10000	.06399	1517.43	.03
10000	.05598	1516.92	.03
10000	.04902	1516.44	.03
10000	.04096	1515.97	.03
10000	.03399	1515.55	.03
10000	.02602	1514.96	.03
20000	.08535	1535.6	.03
20000	.07798	1535.12	.03
20000	.07008	1534.66	.03
20000	.06399	1534.22	.03
20000	.05598	1533.79	.03
20000	.04902	1533.28	.03
20000	.04096	1532.81	.03
20000	.03399	1532.39	.03
20000	.02602	1531.78	.03
40000	.08535	1569.26	.03
40000	.07798	1568.81	.03
40000	.07008	1568.28	.03
40000	.06399	1567.92	.03
40000	.05598	1567.36	.03
40000	.04902	1566.89	.03
40000	.04096	1566.37	.03
40000	.03399	1565.96	.03
40000	.02602	1565.39	.03
60000	.08535	1602.78	.03
60000	.07798	1602.26	.03
60000	.07008	1601.83	.03
60000	.06399	1601.42	.03
60000	.05598	1600.83	.03
60000	.04902	1600.42	.03
60000	.04096	1599.91	.03
60000	.03399	1599.47	.03
60000	.02602	1598.87	.03
80000	.08535	1636.13	.03
80000	.07798	1635.66	.03
80000	.07008	1635.19	.03
80000	.06399	1634.77	.03
80000	.05598	1634.2	.03
80000	.04902	1633.81	.03
80000	.04096	1633.28	.03
80000	.03399	1632.85	.03
80000	.02602	1632.27	.03
100000	.08535	1669.19	.03
100000	.07798	1668.72	.03
100000	.07008	1668.28	.03
100000	.06399	1667.88	.03
100000	.05598	1667.3	.03
100000	.04902	1666.92	.03
100000	.04096	1666.38	.03
100000	.03399	1665.92	.03
100000	.02602	1665.37	.03

System: 2'-deoxyinosine + water; phases: Liquid
Fixed: Temperature, K = 298.15
Fixed: Pressure, kPa = 100
Property: Speed of sound, m/s (Liquid); method: Pulse-echo method
Molality, mol/kg of 2'-deoxyinosine	Speed of sound, m/s	uncertainty
.02994	1498.669	.03
.02896	1498.604	.03
.02813	1498.555	.03
.02701	1498.473	.03
.02599	1498.407	.03
.02493	1498.343	.03
.024	1498.274	.03
.02301	1498.213	.03
.02199	1498.146	.03

System: 2'-deoxyinosine + water; phases: Liquid
Fixed: Temperature, K = 298.15
Property: Speed of sound, m/s (Liquid); method: Pulse-echo method
Pressure, kPa	Molality, mol/kg of 2'-deoxyinosine	Speed of sound, m/s	uncertainty
10000	.029436	1515.21	.03
10000	.02877	1515.18	.03
10000	.027547	1515.11	.03
10000	.02749	1515.13	.03
10000	.026613	1515.05	.03
10000	.024809	1514.94	.03
10000	.023898	1514.87	.03
10000	.022827	1514.8	.03
20000	.029436	1532.02	.03
20000	.02877	1531.99	.03
20000	.027547	1531.92	.03
20000	.02749	1531.92	.03
20000	.026613	1531.86	.03
20000	.024809	1531.72	.03
20000	.023898	1531.68	.03
20000	.022827	1531.58	.03
40000	.029436	1565.64	.03
40000	.02877	1565.6	.03
40000	.027547	1565.52	.03
40000	.02749	1565.51	.03
40000	.026613	1565.47	.03
40000	.024809	1565.32	.03
40000	.023898	1565.27	.03
40000	.022827	1565.19	.03
60000	.029436	1599.15	.03
60000	.02877	1599.12	.03
60000	.027547	1599.01	.03
60000	.02749	1599.03	.03
60000	.026613	1598.96	.03
60000	.024809	1598.86	.03
60000	.023898	1598.77	.03
60000	.022827	1598.72	.03
80000	.029436	1632.53	.03
80000	.02877	1632.47	.03
80000	.027547	1632.39	.03
80000	.02749	1632.39	.03
80000	.026613	1632.33	.03
80000	.024809	1632.19	.03
80000	.023898	1632.14	.03
80000	.022827	1632.09	.03
100000	.029436	1665.62	.03
100000	.02877	1665.59	.03
100000	.027547	1665.5	.03
100000	.02749	1665.51	.03
100000	.026613	1665.45	.03
100000	.024809	1665.33	.03
100000	.023898	1665.27	.03
100000	.022827	1665.18	.03

System: 2'-deoxyguanosine + water; phases: Liquid
Fixed: Temperature, K = 298.15
Fixed: Pressure, kPa = 100
Property: Speed of sound, m/s (Liquid); method: Pulse-echo method
Molality, mol/kg of 2'-deoxyguanosine	Speed of sound, m/s	uncertainty
.0107	1497.459	.03
.01057	1497.444	.03
.01051	1497.443	.03
.01048	1497.442	.03
.0103	1497.434	.03
.01028	1497.426	.03
.01011	1497.415	.03
.009827	1497.396	.03

System: 2'-deoxyguanosine + water; phases: Liquid
Fixed: Temperature, K = 298.15
Property: Speed of sound, m/s (Liquid); method: Pulse-echo method
Pressure, kPa	Molality, mol/kg of 2'-deoxyguanosine	Speed of sound, m/s	uncertainty
10000	.01075	1514.08	.03
10000	.01068	1514.09	.03
10000	.01062	1514.07	.03
10000	.01059	1514.06	.03
10000	.01048	1514.05	.03
10000	.01043	1514.04	.03
10000	.0103	1514.02	.03
20000	.01075	1530.86	.03
20000	.01068	1530.86	.03
20000	.01062	1530.86	.03
20000	.01059	1530.86	.03
20000	.01048	1530.85	.03
20000	.01043	1530.84	.03
20000	.01036	1530.83	.03
20000	.0103	1530.81	.03
40000	.01075	1564.44	.03
40000	.01062	1564.44	.03
40000	.01048	1564.43	.03
40000	.01043	1564.44	.03
40000	.01036	1564.41	.03
40000	.0103	1564.41	.03
60000	.01075	1597.94	.03
60000	.01068	1597.94	.03
60000	.01062	1597.93	.03
60000	.01059	1597.94	.03
60000	.01048	1597.94	.03
60000	.01043	1597.94	.03
60000	.01036	1597.92	.03
60000	.0103	1597.92	.03
80000	.01075	1631.31	.03
80000	.01068	1631.31	.03
80000	.01062	1631.32	.03
80000	.01059	1631.3	.03
80000	.01048	1631.3	.03
80000	.01043	1631.3	.03
80000	.01036	1631.3	.03
80000	.0103	1631.28	.03
100000	.01075	1664.47	.03
100000	.01068	1664.46	.03
100000	.01062	1664.46	.03
100000	.01059	1664.46	.03
100000	.01048	1664.44	.03
100000	.01043	1664.44	.03
100000	.01036	1664.43	.03
100000	.0103	1664.43	.03
