Measured thermophysical data. Use of Equations of State and Coarse Grained Simulations to Complement Experiments: Describing the Interfacial Properties of Carbon Dioxide + Decane and Carbon Dioxide + Eicosane Mixtures
Source: J. Chem. Eng. Data, 2014, 10.1021/je5000764
Compound 1: carbon dioxide, CO2
Compound 2: decane, C10H22
Compound 3: eicosane, C20H42

System: decane + carbon dioxide; phases: Gas, Liquid
Fixed: Temperature, K = 344.15
Property: Mass density, kg/m3 (Gas); method: Vibrating tube method
Pressure, kPa	Mass density, kg/m3	uncertainty
100	1.646	.005
970	15.349	.005
1990	32.358	.005
3000	51.011	.005
3587	62.555	.005
4010	71.234	.005
5040	93.831	.005
6070	118.854	.005
7080	146.307	.005
8090	177.831	.005
9080	215.248	.005
10346	281.265	.005

System: decane + carbon dioxide; phases: Liquid, Gas
Fixed: Temperature, K = 344.15
Property: Mass density, kg/m3 (Liquid); method: Vibrating tube method
Pressure, kPa	Mass density, kg/m3	uncertainty
100	686.734	.005
970	690.205	.005
1990	693.808	.005
3000	697.114	.005
3587	698.983	.005
4010	700.32	.005
5040	703.565	.005
6070	706.773	.005
7080	709.785	.005
8090	712.481	.005
9080	714.56	.005
10346	715.864	.005

System: decane + carbon dioxide; phases: Liquid, Gas
Fixed: Temperature, K = 344.15
Property: Surface tension liquid-gas, N/m (Liquid); method: Pendant drop shape
Pressure, kPa	Surface tension liquid-gas, N/m	uncertainty
100	.0191	.0001
970	.01764	.0001
1990	.01584	.0001
3000	.01423	.0001
3587	.01346	.0001
4010	.01254	.0001
5040	.01094	.0001
6070	.00917	.0001
7080	.00754	.0001
8090	.00578	.0001
9080	.00434	.0001
10346	.00248	.0001

System: eicosane + carbon dioxide; phases: Gas, Liquid
Fixed: Temperature, K = 323.15
Property: Mass density, kg/m3 (Gas); method: Vibrating tube method
Pressure, kPa	Mass density, kg/m3	uncertainty
101	.086	.005
446	7.07	.005
1598	27.942	.005
3198	59.672	.005
4799	99.423	.005
6399	149.059	.005
7999	213.969	.005
9599	311.014	.005
10344	378.996	.005

System: eicosane + carbon dioxide; phases: Liquid, Gas
Fixed: Temperature, K = 323.15
Property: Mass density, kg/m3 (Liquid); method: Vibrating tube method
Pressure, kPa	Mass density, kg/m3	uncertainty
101	766.986	.005
446	769.026	.005
1598	773.973	.005
3198	781.033	.005
4799	787.964	.005
6399	794.027	.005
7999	799.985	.005
9599	805.006	.005
10344	806.998	.005

System: eicosane + carbon dioxide; phases: Liquid, Gas
Fixed: Temperature, K = 344.15
Property: Surface tension liquid-gas, N/m (Liquid); method: Pendant drop shape
Pressure, kPa	Surface tension liquid-gas, N/m	uncertainty
101	.02639	.0001
446	.02565	.0001
1598	.02315	.0001
3198	.01958	.0001
4799	.01549	.0001
6399	.0123	.0001
7999	.00848	.0001
9599	.00509	.0001
10344	.00405	.0001
