Measured thermophysical data. Solubility of D-Glucose in Water and Ethanol/Water Mixtures
Source: J. Chem. Eng. Data, 2007, 10.1021/je700177n
Compound 1: D(+)-glucose, C6H12O6
Compound 2: water, H2O
Compound 3: ethanol, C2H6O

System: D(+)-glucose + water; phases: Liquid
Fixed: Pressure, kPa = 101
Fixed: Temperature, K = 333.15
Property: Refractive index (Na D-line) (Liquid); method: Standard Abbe refractometry
Mass fraction of D(+)-glucose	Refractive index (Na D-line)	uncertainty
0	1.326	
.1	1.341	
.2	1.359	
.3	1.375	
.4	1.395	
.5	1.416	
.6	1.432	
.7	1.455	
.8	1.477	
.9	1.506	

System: D(+)-glucose + water; phases: Liquid
Fixed: Pressure, kPa = 101
Fixed: Temperature, K = 333.15
Property: Mass density, kg/m3 (Liquid); method: Vibrating tube method
Mass fraction of D(+)-glucose	Mass density, kg/m3	uncertainty
.1	1022	
.2	1063	
.3	1109	
.4	1157	
.5	1207	
.6	1268	
.7	1334	
.8	1376	

System: D(+)-glucose + water; phases: Liquid
Fixed: Temperature, K = 333.15
Fixed: Pressure, kPa = 101
Property: Viscosity, Pa*s (Liquid); method: Capillary tube (Ostwald; Ubbelohde) method
Mass fraction of D(+)-glucose	Viscosity, Pa*s	uncertainty
.1	.0294	
.2	.0348	
.3	.0438	
.4	.063	
.5	.1071	
.6	.2646	
.7	.4092	
.8	.4308	

System: D(+)-glucose + water; phases: Liquid, Crystal
Fixed: Pressure, kPa = 101
Property: Refractive index (Na D-line) (Liquid); method: Standard Abbe refractometry
Temperature, K	Refractive index (Na D-line)	uncertainty
283.15	1.395	
293.15	1.409	
303.15	1.42	
313.15	1.434	
323.15	1.449	
333.15	1.465	

System: D(+)-glucose + water; phases: Liquid, Crystal
Fixed: Pressure, kPa = 101
Property: Mass fraction of D(+)-glucose (Liquid); method: Index of refraction calibration data
Temperature, K	Mass fraction of D(+)-glucose	uncertainty
283.15	.404	
293.15	.478	
303.15	.534	
313.15	.603	
323.15	.672	
333.15	.741	

System: D(+)-glucose + ethanol + water; phases: Liquid
Fixed: Temperature, K = 333.15
Fixed: Pressure, kPa = 101
Property: Refractive index (Na D-line) (Liquid); method: Standard Abbe refractometry
Mass fraction of D(+)-glucose	Solvent: Mass fraction of ethanol	Refractive index (Na D-line)	uncertainty
0	.5	1.346	
.1	.5	1.365	
.2	.5	1.379	
.3	.5	1.394	
.4	.5	1.405	
.5	.5	1.42	
.6	.5	1.442	
0	.6	1.349	
.1	.6	1.367	
.2	.6	1.38	
.3	.6	1.396	
.4	.6	1.409	
.5	.6	1.425	
.6	.6	1.448	
0	.7	1.355	
.1	.7	1.369	
.2	.7	1.381	
.3	.7	1.397	
.4	.7	1.412	
.5	.7	1.433	
.6	.7	1.45	
0	.8	1.36	
.1	.8	1.372	
.2	.8	1.384	
.3	.8	1.399	
.4	.8	1.415	
.5	.8	1.437	
.6	.8	1.456	

System: D(+)-glucose + ethanol + water; phases: Liquid, Crystal
Fixed: Pressure, kPa = 101
Property: Refractive index (Na D-line) (Liquid); method: Standard Abbe refractometry
Temperature, K	Solvent: Mass fraction of ethanol	Refractive index (Na D-line)	uncertainty
283.15	.5	1.361	
293.15	.5	1.37	
303.15	.5	1.383	
313.15	.5	1.398	
323.15	.5	1.417	
333.15	.5	1.45	
283.15	.6	1.36	
293.15	.6	1.369	
303.15	.6	1.38	
313.15	.6	1.395	
323.15	.6	1.412	
333.15	.6	1.435	
283.15	.7	1.361	
293.15	.7	1.367	
303.15	.7	1.374	
313.15	.7	1.387	
323.15	.7	1.4	
333.15	.7	1.42	
293.15	.8	1.365	
303.15	.8	1.373	
313.15	.8	1.381	
323.15	.8	1.394	
333.15	.8	1.41	

System: D(+)-glucose + ethanol + water; phases: Liquid, Crystal
Fixed: Pressure, kPa = 101
Property: Mass fraction of D(+)-glucose (Liquid); method: Index of refraction calibration data
Temperature, K	Solvent: Mass fraction of ethanol	Mass fraction of D(+)-glucose	uncertainty
283.15	.5	.082	
293.15	.5	.137	
303.15	.5	.234	
313.15	.5	.351	
323.15	.5	.485	
333.15	.5	.626	
283.15	.6	.052	
293.15	.6	.108	
303.15	.6	.186	
313.15	.6	.295	
323.15	.6	.413	
333.15	.6	.54	
283.15	.7	.033	
293.15	.7	.078	
303.15	.7	.136	
313.15	.7	.222	
323.15	.7	.306	
333.15	.7	.426	
293.15	.8	.042	
303.15	.8	.107	
313.15	.8	.174	
323.15	.8	.262	
333.15	.8	.362	
