Measured thermophysical data. Liquid-Liquid Equilibrium of Ternary Mixtures Formed by Some  Oligooxaethylenes with Ethanol and Hexadecane
Source: J. Chem. Eng. Data, 2009, 10.1021/je800503d
Compound 1: triglyme, C8H18O4, purity 99%
Compound 2: dimethoxytetraglycol, C10H22O5, purity 99%
Compound 3: hexadecane, C16H34
Compound 4: ethanol, C2H6O, purity 99.8%

System: triglyme; phases: Liquid
Fixed: Pressure, kPa = 101.325
Property: Mass density, kg/m3 (Liquid); method: Vibrating tube method
Temperature, K	Mass density, kg/m3	uncertainty
298.15	980.42	.02

System: dimethoxytetraglycol; phases: Liquid
Fixed: Pressure, kPa = 101.325
Property: Mass density, kg/m3 (Liquid); method: Vibrating tube method
Temperature, K	Mass density, kg/m3	uncertainty
298.15	1006.2	.02

System: hexadecane; phases: Liquid
Fixed: Pressure, kPa = 101.325
Property: Mass density, kg/m3 (Liquid); method: Vibrating tube method
Temperature, K	Mass density, kg/m3	uncertainty
298.15	770.01	.02

System: ethanol; phases: Liquid
Fixed: Pressure, kPa = 101.325
Property: Mass density, kg/m3 (Liquid); method: Vibrating tube method
Temperature, K	Mass density, kg/m3	uncertainty
298.15	785.04	.02

System: ethanol + triglyme + hexadecane; phases: Liquid mixture 1, Liquid mixture 2
Fixed: Pressure, kPa = 101
Property: Mole fraction of hexadecane (Liquid mixture 1); method: Titration method
Temperature, K	Mole fraction of triglyme	Mole fraction of hexadecane	uncertainty
293.15	0	.036	.005
293.15	.096	.045	.005
293.15	.158	.044	.005
293.15	.211	.059	.005
293.15	.225	.055	.005
293.15	.281	.067	.005
293.15	.292	.072	.005
293.15	.319	.085	.005
293.15	.381	.093	.005
293.15	.519	.105	.005
293.15	.547	.109	.005
293.15	.636	.114	.005
293.15	.691	.131	.005
293.15	.695	.127	.005
293.15	.754	.12	.005
293.15	.851	.149	.005
298.15	0	.044	.005
298.15	.025	.038	.005
298.15	.052	.044	.005
298.15	.069	.048	.005
298.15	.141	.066	.005
298.15	.215	.081	.005
298.15	.308	.107	.005
298.15	.327	.109	.005
298.15	.424	.132	.005
298.15	.461	.142	.005
298.15	.538	.167	.005
298.15	.588	.174	.005
298.15	.66	.221	.005
298.15	.682	.224	.005
298.15	.745	.255	.005

System: ethanol + triglyme + hexadecane; phases: Liquid mixture 2, Liquid mixture 1
Fixed: Pressure, kPa = 101
Property: Mole fraction of hexadecane (Liquid mixture 2); method: Titration method
Temperature, K	Mole fraction of triglyme	Mole fraction of hexadecane	uncertainty
293.15	0	.776	.005
293.15	.04	.743	.005
293.15	.041	.741	.005
293.15	.051	.735	.005
293.15	.079	.71	.005
293.15	.101	.698	.005
293.15	.108	.704	.005
293.15	.129	.676	.005
293.15	.202	.652	.005
293.15	.204	.649	.005
293.15	.221	.644	.005
293.15	.247	.658	.005
293.15	.248	.662	.005
293.15	.251	.658	.005
293.15	.253	.651	.005
293.15	.335	.665	.005
298.15	0	.697	.005
298.15	.037	.631	.005
298.15	.079	.581	.005
298.15	.08	.57	.005
298.15	.136	.54	.005
298.15	.151	.534	.005
298.15	.165	.532	.005
298.15	.192	.527	.005
298.15	.278	.53	.005
298.15	.289	.521	.005
298.15	.297	.534	.005
298.15	.31	.539	.005
298.15	.322	.53	.005
298.15	.429	.501	.005
298.15	.513	.487	.005

System: ethanol + triglyme + hexadecane; phases: Liquid mixture 2, Liquid mixture 1
Fixed: Pressure, kPa = 101.3
Property: Mole fraction of hexadecane (Liquid mixture 2); method: Titration method
Property: Mole fraction of triglyme (Liquid mixture 1); method: Titration method
Property: Mole fraction of hexadecane (Liquid mixture 1); method: Titration method
Temperature, K	Mole fraction of triglyme	Mole fraction of hexadecane	uncertainty	Mole fraction of triglyme	uncertainty	Mole fraction of hexadecane	uncertainty
293.15	.098	.695	.005	.203	.005	.062	.005
293.15	.171	.654	.005	.364	.005	.093	.005
293.15	.243	.645	.005	.544	.005	.112	.005
298.15	.152	.533	.005	.272	.005	.096	.005
298.15	.179	.523	.005	.318	.005	.104	.005
298.15	.198	.524	.005	.339	.005	.115	.005
298.15	.248	.525	.005	.441	.005	.138	.005

System: ethanol + dimethoxytetraglycol + hexadecane; phases: Liquid mixture 1, Liquid mixture 2
Fixed: Pressure, kPa = 101
Property: Mole fraction of hexadecane (Liquid mixture 1); method: Titration method
Temperature, K	Mole fraction of dimethoxytetraglycol	Mole fraction of hexadecane	uncertainty
298.15	0	.044	
298.15	.027	.047	
298.15	.107	.05	
298.15	.136	.043	
298.15	.147	.06	
298.15	.163	.058	
298.15	.23	.056	
298.15	.269	.053	
298.15	.452	.058	
298.15	.456	.057	
298.15	.482	.06	
298.15	.598	.065	
298.15	.663	.055	
298.15	.721	.062	
298.15	.727	.071	
298.15	.821	.081	
298.15	.843	.075	
298.15	.929	.071	
308.15	0	.054	
308.15	.061	.072	
308.15	.087	.068	
308.15	.092	.079	
308.15	.155	.09	
308.15	.189	.096	
308.15	.213	.098	
308.15	.249	.1	
308.15	.364	.096	
308.15	.384	.102	
308.15	.457	.113	
308.15	.464	.106	
308.15	.48	.117	
308.15	.568	.132	
308.15	.642	.128	
308.15	.644	.117	
308.15	.718	.121	
308.15	.787	.136	
308.15	.833	.126	
308.15	.873	.127	

System: ethanol + dimethoxytetraglycol + hexadecane; phases: Liquid mixture 2, Liquid mixture 1
Fixed: Pressure, kPa = 101
Property: Mole fraction of hexadecane (Liquid mixture 2); method: Titration method
Temperature, K	Mole fraction of dimethoxytetraglycol	Mole fraction of hexadecane	uncertainty
298.15	0	.697	
298.15	.008	.707	
298.15	.036	.697	
298.15	.044	.718	
298.15	.048	.702	
298.15	.077	.729	
298.15	.116	.799	
298.15	.129	.817	
298.15	.133	.803	
298.15	.133	.812	
298.15	.134	.82	
298.15	.137	.828	
298.15	.148	.836	
298.15	.152	.848	
308.15	0	.636	
308.15	.025	.623	
308.15	.027	.61	
308.15	.04	.605	
308.15	.048	.616	
308.15	.07	.603	
308.15	.091	.616	
308.15	.106	.618	
308.15	.124	.643	
308.15	.145	.661	
308.15	.154	.705	
308.15	.187	.746	
308.15	.19	.74	
308.15	.216	.784	

System: ethanol + dimethoxytetraglycol + hexadecane; phases: Liquid mixture 1, Liquid mixture 2
Fixed: Pressure, kPa = 101.3
Property: Mole fraction of hexadecane (Liquid mixture 1); method: Titration method
Property: Mole fraction of dimethoxytetraglycol (Liquid mixture 2); method: Titration method
Property: Mole fraction of hexadecane (Liquid mixture 2); method: Titration method
Temperature, K	Mole fraction of dimethoxytetraglycol	Mole fraction of hexadecane	uncertainty	Mole fraction of dimethoxytetraglycol	uncertainty	Mole fraction of hexadecane	uncertainty
298.15	.368	.057	.005	.052	.005	.706	.005
298.15	.533	.065	.005	.079	.005	.734	.005
298.15	.689	.071	.005	.114	.005	.783	.005
308.15	.324	.102	.005	.076	.005	.598	.005
308.15	.469	.118	.005	.127	.005	.634	.005
308.15	.638	.125	.005	.176	.005	.703	.005
