Measured thermophysical data. Measurement and Correlation for Solubility of 2-Bromopropane and Thiourea in  Water
Source: J. Chem. Eng. Data, 2009, 10.1021/je800796h
Compound 1: 2-bromopropane, C3H7Br, purity 99.5%
Compound 2: thiourea, CH4N2S, purity 99.5%
Compound 3: water, H2O

System: 2-bromopropane + water; phases: Liquid mixture 1, Liquid mixture 2
Fixed: Pressure, kPa = 101
Property: Mole fraction of 2-bromopropane (Liquid mixture 1); method: Laser beam penetration
Temperature, K	Mole fraction of 2-bromopropane	uncertainty
295.25	.0005867	
300.15	.0008204	
303.55	.001038	
306.25	.001214	
310.35	.001569	
313.25	.001888	
316.15	.002272	
321.25	.003072	
323.25	.003429	
325.55	.003935	
329.35	.004835	
331.25	.005364	
334.15	.006295	
337.35	.007434	
340.55	.008705	
343.15	.01013	
345.45	.01116	
348.55	.01269	
350.15	.01387	
352.35	.01543	
354.75	.01713	

System: thiourea + water; phases: Liquid, Crystal
Fixed: Pressure, kPa = 101
Property: Mole fraction of thiourea (Liquid); method: Laser beam penetration
Temperature, K	Mole fraction of thiourea	uncertainty
290.75	.02558	
293.05	.02893	
296.65	.03467	
300.25	.04132	
303.15	.04742	
307.1	.05825	
310.15	.06415	
313.15	.07103	
315.85	.08064	
318.35	.08864	
320.75	.09688	
323.25	.1031	
326.05	.1162	
328.45	.1256	
330.55	.1354	
333.25	.1498	
336.45	.1614	
340.75	.1827	
343.55	.1977	
347.35	.2176	
351.15	.2386	
353.45	.2509	
355.75	.2653	
