Measured thermophysical data. Viscosity of Gaseous Mixtures of Methoxymethane + Nitrogen
Source: J. Chem. Eng. Data, 2009, 10.1021/je8009545
Compound 1: nitrogen, N2, purity 99.99%
Compound 2: methoxymethane, C2H6O, purity 99%

System: nitrogen; phases: Gas
Property: Mass density, kg/m3 (Gas); method: Gas pipette
Temperature, K	Pressure, kPa	Mass density, kg/m3	uncertainty
298.15	101	1.178	.03534
323.15	101	.858	.02574
348.15	101	.761	.02283
373.15	101	.633	.01899
398.15	101	.727	.02181
423.15	101	.568	.01704
298.15	240	2.833	.08499
323.15	290	3.114	.09342
323.15	466	4.925	.14775
373.15	495	4.527	.13581
348.15	518	5.043	.15129
398.15	520	4.329	.12987
423.15	550	4.226	.12678
298.15	672	7.705	.23115
323.15	856	9.024	.27072
373.15	1000	8.832	.26496
398.15	1003	8.657	.25971
348.15	1010	9.8	.294
423.15	1032	8.294	.24882
398.15	2000	16.49	.4947
373.15	2006	18.01	.5403
423.15	2012	15.86	.4758
348.15	2028	19.63	.5889
373.15	2930	26.15	.7845
423.15	3435	26.9	.807
398.15	3473	28.94	.8682
373.15	3985	35.64	1.0692
423.15	4832	37.69	1.1307
398.15	4849	40.28	1.2084
373.15	4966	44.7	1.341

System: nitrogen; phases: Gas
Property: Viscosity, Pa*s (Gas); method: Oscillating disk viscometry
Temperature, K	Pressure, kPa	Viscosity, Pa*s	uncertainty
298.15	101	.00001786	.0000000893
323.15	101	.00001901	.00000009505
348.15	101	.0000201	.0000001005
373.15	101	.00002116	.0000001058
398.15	101	.00002219	.00000011095
423.15	101	.00002318	.0000001159
298.15	240	.00001788	.0000000894
323.15	290	.00001904	.0000000952
323.15	466	.00001906	.0000000953
373.15	495	.00002121	.00000010605
348.15	518	.00002016	.0000001008
398.15	520	.00002222	.0000001111
423.15	550	.00002322	.0000001161
298.15	672	.00001794	.0000000897
323.15	856	.00001911	.00000009555
373.15	1000	.00002126	.0000001063
398.15	1003	.00002228	.0000001114
348.15	1010	.00002022	.0000001011
423.15	1032	.00002328	.0000001164
398.15	2000	.0000224	.000000112
373.15	2006	.0000214	.000000107
423.15	2012	.00002338	.0000001169
348.15	2028	.00002037	.00000010185
373.15	2930	.00002152	.0000001076
423.15	3435	.00002354	.0000001177
398.15	3473	.00002259	.00000011295
373.15	3985	.00002168	.0000001084
423.15	4832	.00002373	.00000011865
398.15	4849	.00002278	.0000001139
373.15	4966	.00002184	.0000001092

System: methoxymethane; phases: Gas
Property: Mass density, kg/m3 (Gas); method: Gas pipette
Temperature, K	Pressure, kPa	Mass density, kg/m3	uncertainty
423.15	985	13.75	.4125
373.15	2505	51.25	1.5375
373.15	2875	67.49	2.0247
298.15	101	1.91	.0573
348.15	1561	35.81	1.0743
298.15	296	6.081	.18243
323.15	976	22.53	.6759
348.15	551	9.705	.29115
398.15	2985	54.66	1.6398
398.15	300	4.392	.13176
398.15	531	7.678	.23034
423.15	3004	48.47	1.4541
323.15	101	1.652	.04956
348.15	1850	44.66	1.3398
373.15	3049	74.07	2.2221
423.15	505	6.812	.20436
398.15	101	.948	.02844
373.15	1028	16.71	.5013
423.15	2022	30.21	.9063
348.15	1006	19.03	.5709
323.15	736	14.71	.4413
398.15	3965	87.68	2.6304
323.15	295	5.561	.16683
398.15	992	15.1	.453
348.15	101	1.332	.03996
298.15	475	10.06	.3018
423.15	4015	71.3	2.139
398.15	4480	112.3	3.369
423.15	4495	86.57	2.5971
373.15	305	4.748	.14244
398.15	4620	122.4	3.672
373.15	101	1.235	.03705
373.15	500	7.787	.23361
373.15	1940	35.33	1.0599
348.15	305	5.17	.1551
423.15	310	4.289	.12867
398.15	2085	34.47	1.0341
323.15	490	9.31	.2793
423.15	4912	99.15	2.9745
423.15	101	1.009	.03027

System: methoxymethane; phases: Gas
Property: Viscosity, Pa*s (Gas); method: Oscillating disk viscometry
Temperature, K	Pressure, kPa	Viscosity, Pa*s	uncertainty
298.15	101	.00000922	.0000000461
323.15	101	.00000997	.00000004985
348.15	101	.00001081	.00000005405
373.15	101	.00001161	.00000005805
398.15	101	.00001234	.0000000617
423.15	101	.00001332	.0000000666
323.15	295	.00000996	.0000000498
298.15	296	.00000918	.0000000459
398.15	300	.00001237	.00000006185
348.15	305	.00001081	.00000005405
373.15	305	.0000116	.000000058
423.15	310	.00001333	.00000006665
298.15	475	.0000091	.0000000455
323.15	490	.00000993	.00000004965
373.15	500	.00001162	.0000000581
423.15	505	.00001335	.00000006675
398.15	531	.00001239	.00000006195
348.15	551	.00001082	.0000000541
323.15	736	.00000995	.00000004975
323.15	976	.00000994	.0000000497
423.15	985	.00001342	.0000000671
398.15	992	.00001244	.0000000622
348.15	1006	.00001085	.00000005425
373.15	1028	.00001168	.0000000584
348.15	1561	.00001094	.0000000547
348.15	1850	.00001106	.0000000553
373.15	1940	.00001191	.00000005955
423.15	2022	.0000137	.0000000685
398.15	2085	.00001274	.0000000637
373.15	2505	.00001219	.00000006095
373.15	2875	.00001247	.00000006235
398.15	2985	.00001317	.00000006585
423.15	3004	.00001413	.00000007065
373.15	3049	.00001261	.00000006305
398.15	3965	.0000141	.0000000705
423.15	4015	.00001477	.00000007385
398.15	4480	.00001504	.0000000752
423.15	4495	.00001521	.00000007605
398.15	4620	.00001543	.00000007715
423.15	4912	.00001568	.0000000784

System: methoxymethane + nitrogen; phases: Gas
Property: Mass density, kg/m3 (Gas); method: Gas pipette
Temperature, K	Mole fraction of methoxymethane	Pressure, kPa	Mass density, kg/m3	uncertainty
298.15	0	101	1.178	.03534
323.15	0	101	.858	.02574
348.15	0	101	.761	.02283
373.15	0	101	.633	.01899
398.15	0	101	.727	.02181
423.15	0	101	.568	.01704
298.15	0	240	2.833	.08499
323.15	0	290	3.114	.09342
323.15	0	466	4.925	.14775
373.15	0	495	4.527	.13581
348.15	0	518	5.043	.15129
398.15	0	520	4.329	.12987
423.15	0	550	4.226	.12678
298.15	0	672	7.705	.23115
323.15	0	856	9.024	.27072
373.15	0	1000	8.832	.26496
398.15	0	1003	8.657	.25971
348.15	0	1010	9.8	.294
423.15	0	1032	8.294	.24882
398.15	0	2000	16.49	.4947
373.15	0	2006	18.01	.5403
423.15	0	2012	15.86	.4758
348.15	0	2028	19.63	.5889
373.15	0	2930	26.15	.7845
423.15	0	3435	26.9	.807
398.15	0	3473	28.94	.8682
373.15	0	3985	35.64	1.0692
423.15	0	4832	37.69	1.1307
398.15	0	4849	40.28	1.2084
373.15	0	4966	44.7	1.341
323.15	.228	101	1.08	.0324
323.15	.228	354	4.544	.13632
323.15	.228	553	6.768	.20304
323.15	.228	910	11.15	.3345
398.15	.246	310	2.938	.08814
398.15	.246	519	5.15	.1545
398.15	.246	1048	10.02	.3006
398.15	.246	101	.853	.02559
398.15	.246	2030	19.75	.5925
398.15	.246	2973	29.35	.8805
398.15	.246	3839	37.95	1.1385
398.15	.246	4860	48.5	1.455
298.15	.256	683	9.296	.27888
298.15	.256	101	1.178	.03534
298.15	.256	305	4.298	.12894
423.15	.272	314	2.901	.08703
423.15	.272	529	4.699	.14097
423.15	.272	1040	9.555	.28665
423.15	.272	2030	18.92	.5676
423.15	.272	2955	27.91	.8373
423.15	.272	101	.662	.01986
423.15	.272	4000	37.87	1.1361
423.15	.272	4911	46.7	1.401
373.15	.281	325	3.419	.10257
373.15	.281	520	5.508	.16524
373.15	.281	101	.665	.01995
373.15	.281	1011	10.64	.3192
373.15	.281	1915	20.8	.624
373.15	.281	3005	33.02	.9906
348.15	.313	294	3.552	.10656
348.15	.313	101	1.11	.0333
348.15	.313	520	6.153	.18459
348.15	.313	998	11.96	.3588
348.15	.313	2095	25.47	.7641
298.15	.449	101	1.433	.04299
323.15	.449	486	6.864	.20592
298.15	.449	264	4.075	.12225
298.15	.449	640	9.965	.29895
323.15	.449	714	10.2	.306
323.15	.449	990	13.89	.4167
323.15	.449	101	1.144	.03432
323.15	.449	321	4.449	.13347
348.15	.491	525	6.977	.20931
348.15	.491	101	1.237	.03711
348.15	.491	1021	13.54	.4062
348.15	.491	1909	26.07	.7821
348.15	.491	325	4.155	.12465
373.15	.522	101	.95	.0285
373.15	.522	1029	12.76	.3828
373.15	.522	2036	25.83	.7749
373.15	.522	301	3.577	.10731
373.15	.522	3065	40.84	1.2252
373.15	.522	530	6.584	.19752
398.15	.525	1020	11.91	.3573
398.15	.525	2018	23.95	.7185
398.15	.525	101	.885	.02655
398.15	.525	3015	36.43	1.0929
398.15	.525	516	5.877	.17631
398.15	.525	3905	47.93	1.4379
398.15	.525	317	3.633	.10899
398.15	.525	4730	59.49	1.7847
423.15	.527	1047	11.35	.3405
423.15	.527	2013	22.17	.6651
423.15	.527	505	5.456	.16368
423.15	.527	316	3.343	.10029
423.15	.527	2995	33.84	1.0152
423.15	.527	3973	45.63	1.3689
423.15	.527	101	.694	.02082
423.15	.527	4873	56.58	1.6974
348.15	.661	101	1.332	.03996
348.15	.661	2053	33.49	1.0047
348.15	.661	519	7.453	.22359
348.15	.661	992	14.43	.4329
348.15	.661	306	4.345	.13035
323.15	.698	946	15.73	.4719
323.15	.698	485	7.499	.22497
323.15	.698	695	11.57	.3471
323.15	.698	101	1.303	.03909
323.15	.698	270	4.353	.13059
298.15	.752	262	4.839	.14517
298.15	.752	614	11.78	.3534
298.15	.752	101	1.783	.05349
423.15	.764	520	6.591	.19773
423.15	.764	2060	25.8	.774
423.15	.764	2926	38.25	1.1475
423.15	.764	1021	12.33	.3699
423.15	.764	3970	54.49	1.6347
423.15	.764	320	4.447	.13341
423.15	.764	101	1.072	.03216
423.15	.764	4894	69.38	2.0814
398.15	.78	2030	28.37	.8511
398.15	.78	315	4.107	.12321
398.15	.78	101	.727	.02181
398.15	.78	1009	13.52	.4056
398.15	.78	2986	44.58	1.3374
398.15	.78	3735	58.58	1.7574
398.15	.78	4569	77.25	2.3175
398.15	.78	533	7.077	.21231
373.15	.82	2895	51.12	1.5336
373.15	.82	101	1.171	.03513
373.15	.82	516	7.217	.21651
373.15	.82	1038	15.16	.4548
373.15	.82	312	4.4	.132
373.15	.82	1952	30.93	.9279
423.15	1	985	13.75	.4125
373.15	1	2505	51.25	1.5375
373.15	1	2875	67.49	2.0247
298.15	1	101	1.91	.0573
348.15	1	1561	35.81	1.0743
298.15	1	296	6.081	.18243
323.15	1	976	22.53	.6759
348.15	1	551	9.705	.29115
398.15	1	2985	54.66	1.6398
398.15	1	300	4.392	.13176
398.15	1	531	7.678	.23034
423.15	1	3004	48.47	1.4541
323.15	1	101	1.652	.04956
348.15	1	1850	44.66	1.3398
373.15	1	3049	74.07	2.2221
423.15	1	505	6.812	.20436
398.15	1	101	.948	.02844
373.15	1	1028	16.71	.5013
423.15	1	2022	30.21	.9063
348.15	1	1006	19.03	.5709
323.15	1	736	14.71	.4413
398.15	1	3965	87.68	2.6304
323.15	1	295	5.561	.16683
398.15	1	992	15.1	.453
348.15	1	101	1.332	.03996
298.15	1	475	10.06	.3018
423.15	1	4015	71.3	2.139
398.15	1	4480	112.3	3.369
423.15	1	4495	86.57	2.5971
373.15	1	305	4.748	.14244
398.15	1	4620	122.4	3.672
373.15	1	101	1.235	.03705
373.15	1	500	7.787	.23361
373.15	1	1940	35.33	1.0599
348.15	1	305	5.17	.1551
423.15	1	310	4.289	.12867
398.15	1	2085	34.47	1.0341
323.15	1	490	9.31	.2793
423.15	1	4912	99.15	2.9745
423.15	1	101	1.009	.03027

System: methoxymethane + nitrogen; phases: Gas
Property: Viscosity, Pa*s (Gas); method: Oscillating disk viscometry
Temperature, K	Mole fraction of methoxymethane	Pressure, kPa	Viscosity, Pa*s	uncertainty
298.15	0	101	.00001786	.0000000893
298.15	.256	101	.00001483	.00000007415
298.15	.449	101	.000013	.000000065
298.15	.752	101	.00001063	.00000005315
298.15	1	101	.00000922	.0000000461
323.15	0	101	.00001901	.00000009505
323.15	.228	101	.00001629	.00000008145
323.15	.449	101	.00001402	.0000000701
323.15	.698	101	.000012	.00000006
323.15	1	101	.00000997	.00000004985
348.15	0	101	.0000201	.0000001005
348.15	.313	101	.00001638	.0000000819
348.15	.491	101	.00001463	.00000007315
348.15	.661	101	.00001319	.00000006595
348.15	1	101	.00001081	.00000005405
373.15	0	101	.00002116	.0000001058
373.15	.281	101	.00001773	.00000008865
373.15	.522	101	.00001534	.0000000767
373.15	.82	101	.00001282	.0000000641
373.15	1	101	.00001161	.00000005805
398.15	0	101	.00002219	.00000011095
398.15	.246	101	.00001917	.00000009585
398.15	.525	101	.00001617	.00000008085
398.15	.78	101	.00001397	.00000006985
398.15	1	101	.00001234	.0000000617
423.15	0	101	.00002318	.0000001159
423.15	.272	101	.00001978	.0000000989
423.15	.527	101	.00001721	.00000008605
423.15	.764	101	.00001516	.0000000758
423.15	1	101	.00001332	.0000000666
298.15	0	240	.00001788	.0000000894
298.15	.752	262	.0000106	.000000053
298.15	.449	264	.000013	.000000065
323.15	.698	270	.00001201	.00000006005
323.15	0	290	.00001904	.0000000952
348.15	.313	294	.00001639	.00000008195
323.15	1	295	.00000996	.0000000498
298.15	1	296	.00000918	.0000000459
398.15	1	300	.00001237	.00000006185
373.15	.522	301	.00001535	.00000007675
298.15	.256	305	.00001488	.0000000744
348.15	1	305	.00001081	.00000005405
373.15	1	305	.0000116	.000000058
348.15	.661	306	.00001319	.00000006595
398.15	.246	310	.00001921	.00000009605
423.15	1	310	.00001333	.00000006665
373.15	.82	312	.00001285	.00000006425
423.15	.272	314	.00001984	.0000000992
398.15	.78	315	.00001399	.00000006995
423.15	.527	316	.00001723	.00000008615
398.15	.525	317	.00001622	.0000000811
423.15	.764	320	.00001522	.0000000761
323.15	.449	321	.00001406	.0000000703
373.15	.281	325	.00001777	.00000008885
348.15	.491	325	.00001468	.0000000734
323.15	.228	354	.00001632	.0000000816
323.15	0	466	.00001906	.0000000953
298.15	1	475	.0000091	.0000000455
323.15	.698	485	.00001201	.00000006005
323.15	.449	486	.00001408	.0000000704
323.15	1	490	.00000993	.00000004965
373.15	0	495	.00002121	.00000010605
373.15	1	500	.00001162	.0000000581
423.15	.527	505	.00001726	.0000000863
423.15	1	505	.00001335	.00000006675
373.15	.82	516	.00001285	.00000006425
398.15	.525	516	.00001623	.00000008115
348.15	0	518	.00002016	.0000001008
398.15	.246	519	.00001919	.00000009595
348.15	.661	519	.00001321	.00000006605
373.15	.281	520	.00001777	.00000008885
398.15	0	520	.00002222	.0000001111
348.15	.313	520	.00001644	.0000000822
423.15	.764	520	.00001524	.0000000762
348.15	.491	525	.00001471	.00000007355
423.15	.272	529	.00001986	.0000000993
373.15	.522	530	.00001539	.00000007695
398.15	1	531	.00001239	.00000006195
398.15	.78	533	.00001401	.00000007005
423.15	0	550	.00002322	.0000001161
348.15	1	551	.00001082	.0000000541
323.15	.228	553	.00001636	.0000000818
298.15	.752	614	.0000106	.000000053
298.15	.449	640	.00001303	.00000006515
298.15	0	672	.00001794	.0000000897
298.15	.256	683	.00001494	.0000000747
323.15	.698	695	.00001206	.0000000603
323.15	.449	714	.00001408	.0000000704
323.15	1	736	.00000995	.00000004975
323.15	0	856	.00001911	.00000009555
323.15	.228	910	.00001636	.0000000818
323.15	.698	946	.00001208	.0000000604
323.15	1	976	.00000994	.0000000497
423.15	1	985	.00001342	.0000000671
323.15	.449	990	.00001413	.00000007065
348.15	.661	992	.00001327	.00000006635
398.15	1	992	.00001244	.0000000622
348.15	.313	998	.0000165	.0000000825
373.15	0	1000	.00002126	.0000001063
398.15	0	1003	.00002228	.0000001114
348.15	1	1006	.00001085	.00000005425
398.15	.78	1009	.0000141	.0000000705
348.15	0	1010	.00002022	.0000001011
373.15	.281	1011	.00001784	.0000000892
398.15	.525	1020	.00001629	.00000008145
348.15	.491	1021	.00001476	.0000000738
423.15	.764	1021	.0000153	.0000000765
373.15	1	1028	.00001168	.0000000584
373.15	.522	1029	.0000155	.0000000775
423.15	0	1032	.00002328	.0000001164
373.15	.82	1038	.00001295	.00000006475
423.15	.272	1040	.00001994	.0000000997
423.15	.527	1047	.00001734	.0000000867
398.15	.246	1048	.00001926	.0000000963
348.15	1	1561	.00001094	.0000000547
348.15	1	1850	.00001106	.0000000553
348.15	.491	1909	.00001499	.00000007495
373.15	.281	1915	.00001801	.00000009005
373.15	1	1940	.00001191	.00000005955
373.15	.82	1952	.00001314	.0000000657
398.15	0	2000	.0000224	.000000112
373.15	0	2006	.0000214	.000000107
423.15	0	2012	.00002338	.0000001169
423.15	.527	2013	.00001753	.00000008765
398.15	.525	2018	.00001651	.00000008255
423.15	1	2022	.0000137	.0000000685
348.15	0	2028	.00002037	.00000010185
398.15	.78	2030	.00001433	.00000007165
423.15	.272	2030	.00002008	.0000001004
398.15	.246	2030	.00001943	.00000009715
373.15	.522	2036	.00001568	.0000000784
348.15	.661	2053	.00001353	.00000006765
423.15	.764	2060	.00001558	.0000000779
398.15	1	2085	.00001274	.0000000637
348.15	.313	2095	.00001672	.0000000836
373.15	1	2505	.00001219	.00000006095
373.15	1	2875	.00001247	.00000006235
373.15	.82	2895	.00001352	.0000000676
423.15	.764	2926	.00001581	.00000007905
373.15	0	2930	.00002152	.0000001076
423.15	.272	2955	.00002018	.0000001009
398.15	.246	2973	.0000196	.000000098
398.15	1	2985	.00001317	.00000006585
398.15	.78	2986	.00001465	.00000007325
423.15	.527	2995	.00001769	.00000008845
423.15	1	3004	.00001413	.00000007065
373.15	.281	3005	.00001823	.00000009115
398.15	.525	3015	.00001675	.00000008375
373.15	1	3049	.00001261	.00000006305
373.15	.522	3065	.00001599	.00000007995
423.15	0	3435	.00002354	.0000001177
398.15	0	3473	.00002259	.00000011295
398.15	.78	3735	.000015	.000000075
398.15	.246	3839	.00001974	.0000000987
398.15	.525	3905	.00001701	.00000008505
398.15	1	3965	.0000141	.0000000705
423.15	.764	3970	.00001621	.00000008105
423.15	.527	3973	.00001796	.0000000898
373.15	0	3985	.00002168	.0000001084
423.15	.272	4000	.00002038	.0000001019
423.15	1	4015	.00001477	.00000007385
398.15	1	4480	.00001504	.0000000752
423.15	1	4495	.00001521	.00000007605
398.15	.78	4569	.0000155	.0000000775
398.15	1	4620	.00001543	.00000007715
398.15	.525	4730	.00001731	.00000008655
423.15	0	4832	.00002373	.00000011865
398.15	0	4849	.00002278	.0000001139
398.15	.246	4860	.00001995	.00000009975
423.15	.527	4873	.00001822	.0000000911
423.15	.764	4894	.00001664	.0000000832
423.15	.272	4911	.00002057	.00000010285
423.15	1	4912	.00001568	.0000000784
373.15	0	4966	.00002184	.0000001092
