Measured thermophysical data. Solubility of Benzoic Acid in Aqueous Solutions Containing Ethanol or  N-Propanol
Source: J. Chem. Eng. Data, 2008, 10.1021/je800507m
Compound 1: water, H2O
Compound 2: ethanol, C2H6O
Compound 3: 1-propanol, C3H8O
Compound 4: benzoic acid, C7H6O2

System: ethanol + benzoic acid + water; phases: Liquid, Crystal
Fixed: Pressure, kPa = 101
Property: Molality, mol/kg of benzoic acid (Liquid); method: Titration
Solvent: Mass fraction of ethanol	Temperature, K	Molality, mol/kg of benzoic acid	uncertainty
.03	303	.0468	.001
.0542	303.5	.0451	.003
.05	302	.0453	.007
.0699	304.2	.0496	.003
.0992	304.3	.0565	.004
.13	303	.0542	.001
.13	304	.064	.004
.03	313	.0608	.003
.054	313.3	.0732	.005
.05	314	.085	.007
.071	314.1	.0766	.003
.0997	314.4	.0916	.007
.13	313	.076	.002
.13	313.2	.0913	.004
.03	324	.0854	.003
.0549	323.6	.1006	.01
.05	323.1	.111	.013
.071	323.6	.1182	.01
.0994	323.9	.1187	.01
.13	323.4	.1261	.012
.13	323.2	.154	.001
.03	333.2	.1078	.005
.0548	333.3	.1343	.012
.05	334	.128	.022
.0698	333.7	.1373	.015
.1	333.7	.2056	.02
.13	333.2	.2709	.012
.13	333.2	.2862	.015

System: benzoic acid + 1-propanol + water; phases: Liquid, Crystal
Fixed: Pressure, kPa = 101
Property: Molality, mol/kg of benzoic acid (Liquid); method: Titration
Solvent: Mass fraction of 1-propanol	Temperature, K	Molality, mol/kg of benzoic acid	uncertainty
.0298	303.8	.0434	.004
.0502	303.7	.0475	.005
.0705	304.1	.0546	.003
.0296	313.7	.0576	.004
.05	313.5	.0685	.005
.07	313.8	.0833	.007
.031	323.5	.0865	.007
.0504	322.8	.1062	.013
.071	323.3	.1288	.012
.03	333.3	.118	.012
.0502	332.5	.1737	.022
.0704	332.7	.1985	.022
