Measured thermophysical data. Liquid-Liquid Equilibria in Ternary Systems 2-Methylbutane +  2-Methyl-2-propanol + Water and Pentane + 2-Methyl-2-propanol + Water at  293.15 K
Source: J. Chem. Eng. Data, 2009, 10.1021/je8004529
Compound 1: 2-methylbutane, C5H12
Compound 2: pentane, C5H12
Compound 3: 2-methyl-2-propanol, C4H10O
Compound 4: water, H2O

System: 2-methyl-2-propanol + 2-methylbutane + water; phases: Liquid mixture 1, Liquid mixture 2
Fixed: Temperature, K = 293.15
Property: Mole fraction of water (Liquid mixture 1); method: Titration method
Mole fraction of 2-methylbutane	Mole fraction of 2-methyl-2-propanol	Mole fraction of water	uncertainty
.6115	.3018	.0867	.002
.5363	.3418	.1219	.002
.4186	.3936	.1878	.002
.3048	.4247	.2705	.002
.2975	.4252	.2773	.002
.242	.4267	.3313	.002
.1892	.4218	.389	.002
.1064	.3794	.5142	.002
.0747	.3441	.5812	.002

System: 2-methyl-2-propanol + 2-methylbutane + water; phases: Liquid mixture 1, Liquid mixture 2
Fixed: Temperature, K = 293.15
Fixed: Pressure, kPa = 101
Property: Mole fraction of 2-methyl-2-propanol (Liquid mixture 1); method: Titration method
Property: Mole fraction of 2-methyl-2-propanol (Liquid mixture 2); method: Titration method
Property: Mole fraction of 2-methylbutane (Liquid mixture 2); method: Titration method
Mole fraction of 2-methylbutane	Mole fraction of 2-methyl-2-propanol	uncertainty	Mole fraction of 2-methyl-2-propanol	uncertainty	Mole fraction of 2-methylbutane	uncertainty
.999595	0	.002	0	.002	.000011	.0005
.986072	.013	.002	.0165	.002	.000013	.0005
.96187	.0344	.002	.0287	.002	.0000118	.0005
.94545	.0483	.002	.0298	.002	.0000149	.0005
.9034	.0781	.002	.0346	.002	.0000174	.0005
.8668	.112	.002	.0383	.002	.0000168	.0005
.8062	.161	.002	.0419	.002	.0000254	.0005
.7432	.206	.002	.0434	.002	.0000276	.0005
.7112	.236	.002	.0486	.002	.0000301	.0005
.7068	.236	.002	.0455	.002	.0000291	.0005
.644	.289	.002	.049	.002	.0000312	.0005
.5934	.317	.002	.0501	.002	.0000451	.0005
.541	.348	.002	.0528	.002	.000057	.0005
.464	.381	.002	.0548	.002	.0000753	.0005
.416	.403	.002	.0577	.002	.0000797	.0005
.361	.415	.002	.0581	.002	.000119	.0005
.297	.433	.002	.0605	.002	.000159	.0005
.273	.432	.002	.0608	.002	.000164	.0005
.22	.431	.002	.0639	.002	.000222	.0005
.217	.432	.002	.0648	.002	.000237	.0005
.152	.415	.002	.0693	.002	.000376	.0005
.102	.384	.002	.0769	.002	.000591	.0005
.044	.3	.002	.0926	.002	.00183	.0005

System: 2-methyl-2-propanol + pentane + water; phases: Liquid mixture 1, Liquid mixture 2
Fixed: Temperature, K = 293.15
Property: Mole fraction of water (Liquid mixture 1); method: Titration method
Mole fraction of pentane	Mole fraction of 2-methyl-2-propanol	Mole fraction of water	uncertainty
.4805	.3704	.1491	.002
.3549	.4144	.2307	.002
.2501	.4277	.3222	.002
.152	.4103	.4377	.002
.0743	.3467	.579	.002

System: 2-methyl-2-propanol + pentane + water; phases: Liquid mixture 2, Liquid mixture 1
Fixed: Temperature, K = 293.15
Fixed: Pressure, kPa = 101
Property: Mole fraction of pentane (Liquid mixture 2); method: Titration method
Property: Mole fraction of pentane (Liquid mixture 1); method: Titration method
Property: Mole fraction of 2-methyl-2-propanol (Liquid mixture 1); method: Titration method
Mole fraction of 2-methyl-2-propanol	Mole fraction of pentane	uncertainty	Mole fraction of pentane	uncertainty	Mole fraction of 2-methyl-2-propanol	uncertainty
0	.00001	.0005	.999657	.002	0	.002
.0197	.0000125	.0005	.98226	.002	.0109	.002
.0288	.0000197	.0005	.9557	.002	.0318	.002
.0386	.00002	.0005	.8878	.002	.0914	.002
.04	.0000213	.0005	.8594	.002	.119	.002
.0448	.0000237	.0005	.7893	.002	.177	.002
.046	.0000289	.0005	.7301	.002	.228	.002
.0486	.0000301	.0005	.725	.002	.233	.002
.05	.000039	.0005	.6415	.002	.287	.002
.0538	.0000603	.0005	.531	.002	.351	.002
.0592	.0000897	.0005	.414	.002	.398	.002
.063	.000137	.0005	.326	.002	.42	.002
.0664	.000199	.0005	.251	.002	.43	.002
.0683	.00027	.0005	.207	.002	.432	.002
.0727	.000394	.0005	.153	.002	.417	.002
.0856	.00105	.0005	.074	.002	.349	.002
.0978	.00192	.0005	.047	.002	.299	.002
.131	.00562	.0005	.022	.002	.237	.002
