Measured thermophysical data. Volumetric and Viscometric Studies of Salicyl Amide, Salicylic Acid, and Acetyl Salicylic Acid in Alcohols at Different Temperatures
Source: J. Chem. Eng. Data, 2009, 10.1021/je800616p
Compound 1: salicylamide, C7H7NO2, purity 99%
Compound 2: methanol, CH4O, purity 99.8%

System: salicylamide + methanol; phases: Liquid
Fixed: Pressure, kPa = 101
Property: Mass density, kg/m3 (Liquid); method: Vibrating tube method
Temperature, K	Molality, mol/kg of salicylamide	Mass density, kg/m3	uncertainty
293.15	.0095	792.015	.01
293.15	.0126	792.215	.01
293.15	.0158	792.352	.01
293.15	.019	792.555	.01
293.15	.0221	792.688	.01
293.15	.0253	792.801	.01
293.15	.0317	792.965	.01
298.15	.0126	787.479	.01
298.15	.0158	787.615	.01
298.15	.019	787.819	.01
298.15	.0222	787.921	.01
298.15	.0253	788.019	.01
298.15	.0095	787.285	.01
298.15	.0317	788.218	.01
303.15	.0159	782.859	.01
303.15	.0191	783.029	.01
303.15	.0223	783.149	.01
303.15	.0255	783.261	.01
303.15	.0095	782.541	.01
303.15	.0127	782.725	.01
303.15	.0319	783.449	.01
308.15	.0192	778.255	.01
308.15	.0224	778.368	.01
308.15	.0256	778.495	.01
308.15	.0096	777.775	.01
308.15	.0128	777.951	.01
308.15	.016	778.085	.01
308.15	.0321	778.659	.01
310.15	.0193	776.355	.01
310.15	.0258	776.585	.01
310.15	.0218	776.449	.01
310.15	.0097	775.881	.01
310.15	.0129	776.055	.01
310.15	.0161	776.195	.01
310.15	.0323	776.765	.01
313.15	.0259	776.375	.01
313.15	.013	775.898	.01
313.15	.0097	775.744	.01
313.15	.0162	776.045	.01
313.15	.0194	776.165	.01
313.15	.0227	776.285	.01
313.15	.0325	776.558	.01

System: salicylamide + methanol; phases: Liquid
Fixed: Pressure, kPa = 101
Property: Viscosity, Pa*s (Liquid); method: Capillary tube (Ostwald; Ubbelohde) method
Temperature, K	Molality, mol/kg of salicylamide	Viscosity, Pa*s	uncertainty
313.15	.0097	.0004502	
313.15	.013	.0004503	
313.15	.0162	.0004504	
313.15	.0194	.0004506	
313.15	.0227	.0004508	
313.15	.0259	.0004509	
313.15	.0325	.0004511	
308.15	.0096	.0004852	
308.15	.0128	.0004853	
308.15	.016	.0004855	
308.15	.0192	.0004857	
308.15	.0224	.0004859	
308.15	.0256	.0004862	
308.15	.0321	.0004866	
298.15	.0095	.0005471	
298.15	.0126	.0005475	
298.15	.0158	.000548	
298.15	.019	.0005485	
298.15	.0222	.000549	
298.15	.0253	.0005495	
298.15	.0317	.0005503	
310.15	.0097	.0004602	
310.15	.0129	.0004603	
310.15	.0161	.0004604	
310.15	.0193	.0004607	
310.15	.0218	.0004608	
310.15	.0258	.0004609	
310.15	.0323	.0004612	
303.15	.0095	.0005003	
303.15	.0127	.0005005	
303.15	.0159	.0005007	
303.15	.0191	.0005009	
303.15	.0223	.0005012	
303.15	.0255	.0005015	
303.15	.0319	.0005019	
293.15	.0095	.000597	
293.15	.0126	.0005976	
293.15	.0158	.0005981	
293.15	.019	.0005987	
293.15	.0221	.0005993	
293.15	.0253	.0005997	
293.15	.0317	.0006008	
