Measured thermophysical data. Chemical Equilibrium and Critical Phenomena: Solubility of Indium Oxide in Isobutyric Acid + Water Near the Consolute Point
Source: J. Chem. Eng. Data, 2009, 10.1021/je8008599
Compound 1: indium oxide (In2O3), In2O3
Compound 2: 2-methylpropanoic acid, C4H8O2
Compound 3: water, H2O

System: 2-methylpropanoic acid + indium oxide (In2O3) + water; phases: Liquid, Crystal
Fixed: Solvent: Mass fraction of 2-methylpropanoic acid = .388
Fixed: Pressure, kPa = 101
Property: Mass ratio of solute to solvent of indium oxide (In2O3) (Liquid); method: spectrometer
Temperature, K	Mass ratio of solute to solvent of indium oxide (In2O3)	uncertainty
299.1	.00000000726	.00000000011
299.35	.00000000656	.0000000001
299.55	.00000000753	.00000000011
299.75	.00000001125	.00000000017
299.95	.0000000138	.00000000021
300.2	.00000001988	.0000000003
300.77	.00000002702	.00000000041
301.69	.00000003291	.00000000049
303.47	.00000004218	.00000000063
305.22	.00000005707	.00000000086
308.8	.0000000731	.0000000011
312.4	.0000000978	.0000000015
315.96	.0000001267	.0000000019
