Measured thermophysical data. Cosolvent Effect of Methanol and Acetic Acid on  Dibenzofuran Solubility in Supercritical Carbon Dioxide
Source: J. Chem. Eng. Data, 2008, 10.1021/je800574v
Compound 1: carbon dioxide, CO2, purity 99.98%
Compound 2: dibenzofuran, C12H8O, purity 99%
Compound 3: methanol, CH4O, purity 99.7%
Compound 4: acetic acid, C2H4O2, purity 99%

System: methanol + carbon dioxide + dibenzofuran; phases: Fluid (supercritical or subcritical phases), Crystal
Property: Phase boundary pressure, kPa (Fluid (supercritical or subcritical phases)); method: Static calorimetry
Temperature, K	Mole fraction of dibenzofuran	Solvent: Mole fraction of methanol	Phase boundary pressure, kPa	uncertainty
318.2	.00339	.046	9300	13.95
318.2	.00459	.0499	9600	14.4
318.2	.00465	.0401	10100	15.15
318.2	.00671	.0481	10800	16.2
318.2	.00873	.0439	12900	19.35
318.2	.0103	.0529	14200	21.3
318.2	.0106	.0432	15300	22.95
318.2	.012	.0473	16900	25.35
318.2	.0123	.0394	18500	27.75
318.2	.0141	.0529	20600	30.9
328.2	.00339	.046	10870	16.305
328.2	.00459	.0499	11080	16.62
328.2	.00465	.0401	11520	17.28
328.2	.00671	.0481	11880	17.82
328.2	.00873	.0439	13010	19.515
328.2	.0103	.0529	13450	20.175
328.2	.0106	.0432	13940	20.91
328.2	.012	.0473	14390	21.585
328.2	.0123	.0394	15230	22.845
328.2	.0141	.0529	15270	22.905
328.2	.0155	.0459	16390	24.585
338.2	.00339	.046	12470	18.705
338.2	.00459	.0499	12900	19.35
338.2	.00465	.0401	13390	20.085
338.2	.00671	.0481	13860	20.79
338.2	.00873	.0439	15110	22.665
338.2	.0103	.0529	15530	23.295
338.2	.0106	.0432	16080	24.12
338.2	.012	.0473	16490	24.735
338.2	.0123	.0394	17400	26.1
338.2	.0141	.0529	17400	26.1
338.2	.0155	.0459	18460	27.69

System: acetic acid + carbon dioxide + dibenzofuran; phases: Fluid (supercritical or subcritical phases), Crystal
Property: Phase boundary pressure, kPa (Fluid (supercritical or subcritical phases)); method: Static calorimetry
Temperature, K	Mole fraction of dibenzofuran	Solvent: Mole fraction of acetic acid	Phase boundary pressure, kPa	uncertainty
318.2	.00641	.0369	10300	15.45
318.2	.00796	.0482	10600	15.9
318.2	.00889	.0412	12000	18
318.2	.00999	.0534	11700	17.55
318.2	.0105	.0461	13000	19.5
318.2	.0118	.0431	15600	23.4
318.2	.0121	.0425	16500	24.75
318.2	.013	.0549	15000	22.5
318.2	.0133	.0498	15900	23.85
318.2	.0149	.048	20500	30.75
328.2	.00505	.0414	10750	16.125
328.2	.00641	.0369	11410	17.115
328.2	.00796	.0482	11400	17.1
328.2	.00803	.0515	11000	16.5
328.2	.00889	.0412	12310	18.465
328.2	.00999	.0534	11650	17.475
328.2	.0105	.0461	12330	18.495
328.2	.0118	.0431	13040	19.56
328.2	.0121	.0425	13470	20.205
328.2	.013	.0549	12470	18.705
328.2	.0133	.0498	12790	19.185
328.2	.0149	.048	13900	20.85
338.2	.00505	.0414	12630	18.945
338.2	.00641	.0369	13450	20.175
338.2	.00796	.0482	13500	20.25
338.2	.00803	.0515	13010	19.515
338.2	.00889	.0412	14460	21.69
338.2	.00999	.0534	13830	20.745
338.2	.0105	.0461	14470	21.705
338.2	.0118	.0431	15330	22.995
338.2	.0121	.0425	15620	23.43
338.2	.013	.0549	14670	22.005
338.2	.0133	.0498	15100	22.65
338.2	.0149	.048	16070	24.105
