Measured thermophysical data. Measurement and Correlation of Solubilities of trans-Resveratrol in Ethanol  + Water and Acetone + Water Mixed Solvents at Different Temperatures
Source: J. Chem. Eng. Data, 2008, 10.1021/je800410b
Compound 1: Resveratrol, C14H12O3, purity 98%
Compound 2: ethanol, C2H6O
Compound 3: propanone, C3H6O
Compound 4: water, H2O

System: ethanol + Resveratrol + water; phases: Liquid, Crystal
Fixed: Pressure, kPa = 101
Property: Mole fraction of Resveratrol (Liquid); method: Chromatography
Solvent: Mole fraction of ethanol	Temperature, K	Mole fraction of Resveratrol	uncertainty
0	293.2	.0000029	.00012
0	303.2	.00000457	.00004
0	313.2	.00000646	.00017
0	323.2	.0000093	.00016
.1999	273.2	.00022	.00001
.1999	283.2	.00038	.00001
.1999	293.2	.00068	.00002
.1999	303.2	.00098	.00001
.1999	313.2	.00143	.00002
.1999	323.2	.0019	.00001
.4003	273.2	.00236	.00004
.4003	283.2	.00336	.00003
.4003	293.2	.00462	.00003
.4003	303.2	.00522	.00006
.4003	313.2	.00607	.00003
.4003	323.2	.00706	.00003
.5998	273.2	.00572	.00007
.5998	283.2	.00721	.00013
.5998	293.2	.00963	.00008
.5998	303.2	.01059	.00006
.5998	313.2	.01222	.00004
.5998	323.2	.01374	.00004
.7998	273.2	.00869	.00005
.7998	283.2	.01093	.00009
.7998	293.2	.01352	.00014
.7998	303.2	.01541	.00009
.7998	313.2	.01797	.00007
.7998	323.2	.02031	.00012
1	273.2	.01006	.00009
1	283.2	.01274	.00008
1	293.2	.01562	.00009
1	303.2	.01823	.00008
1	313.2	.02081	.00011
1	323.2	.02363	.00007
.0999	283.2	.000038	.0015
.0999	293.2	.0000708	.0008
.0999	303.2	.0001046	.0018
.0999	313.2	.0001513	.0071
.0999	323.2	.0002212	.001
.2999	273.2	.00115	.00003
.2999	283.2	.00166	.00003
.2999	293.2	.00244	.00001
.2999	303.2	.00292	.00004
.2999	313.2	.00327	.00001
.2999	323.2	.00384	.00002
.4999	273.2	.00372	.00003
.4999	283.2	.00505	.00004
.4999	293.2	.00713	.00005
.4999	303.2	.00804	.0001
.4999	313.2	.00922	.00006
.4999	323.2	.01041	.00005
.6997	273.2	.00754	.00004
.6997	283.2	.00944	.00008
.6997	293.2	.01201	.00007
.6997	303.2	.01354	.00014
.6997	313.2	.01533	.00011
.6997	323.2	.01753	.00007
.8996	273.2	.0094	.0001
.8996	283.2	.01192	.00015
.8996	293.2	.01465	.00014
.8996	303.2	.017	.00004
.8996	313.2	.01961	.00008
.8996	323.2	.0222	.0001

System: propanone + Resveratrol + water; phases: Liquid, Crystal
Fixed: Pressure, kPa = 101
Property: Mole fraction of Resveratrol (Liquid); method: Chromatography
Temperature, K	Solvent: Mole fraction of propanone	Mole fraction of Resveratrol	uncertainty
273.2	.0998	.000507	.00001
283.2	.0998	.000811	.000018
293.2	.0998	.00128	.000033
303.2	.0998	.001827	.000015
313.2	.0998	.00227	.000042
273.2	.3	.034	.0004
283.2	.3	.0375	.0006
293.2	.3	.0421	.0004
303.2	.3	.0447	.0009
313.2	.3	.0465	.0003
273.2	.4991	.0794	.0012
283.2	.4991	.0848	.0013
293.2	.4991	.0882	.0019
303.2	.4991	.0905	.0009
313.2	.4991	.0927	.0009
273.2	.6902	.1036	.0029
283.2	.6902	.108	.002
293.2	.6902	.1118	.0027
303.2	.6902	.113	.0022
313.2	.6902	.116	.003
273.2	.8982	.1008	.0007
283.2	.8982	.1051	.003
293.2	.8982	.1069	.0021
303.2	.8982	.1104	.0022
313.2	.8982	.1119	.0013
273.2	.2	.0142	.0001
283.2	.2	.0158	.0001
293.2	.2	.018	.0005
303.2	.2	.0201	.0005
313.2	.2	.0211	.0007
273.2	.3959	.0595	.0006
283.2	.3959	.0634	.0011
293.2	.3959	.0677	.0011
303.2	.3959	.0706	.0004
313.2	.3959	.072	.0013
273.2	.5954	.0949	.0023
283.2	.5954	.0997	.0026
293.2	.5954	.1024	.0019
303.2	.5954	.1043	.0017
313.2	.5954	.1072	.0022
273.2	.7983	.1052	.0022
283.2	.7983	.1093	.0033
293.2	.7983	.1123	.0018
303.2	.7983	.1155	.0033
313.2	.7983	.1178	.0014
273.2	1	.0846	.0014
283.2	1	.0858	.0009
293.2	1	.0871	.0015
303.2	1	.0877	.0017
313.2	1	.0886	.0016
