Measured thermophysical data. Solubility of Podophyllotoxin in Six Organic Solvents from (283.2 to 323.2) K
Source: J. Chem. Eng. Data, 2009, 10.1021/je8007028
Compound 1: podophyllotoxin, C22H22O8, purity 99%
Compound 2: ethanol, C2H6O
Compound 3: methanol, CH4O
Compound 4: propanone, C3H6O
Compound 5: ethyl ethanoate, C4H8O2
Compound 6: 2-propanol, C3H8O
Compound 7: 1-butanol, C4H10O
Compound 8: water, H2O

System: ethanol + podophyllotoxin; phases: Liquid, Crystal
Fixed: Pressure, kPa = 101
Property: Amount concentration (molarity), mol/dm3 of podophyllotoxin (Liquid); method: HPLC
Temperature, K	Amount concentration (molarity), mol/dm3 of podophyllotoxin	uncertainty
283.2	.0583	.0006
293.2	.0814	.0002
303.2	.096	.0007
313.2	.106	.0007
323.2	.1295	.0004

System: methanol + podophyllotoxin; phases: Liquid, Crystal
Fixed: Pressure, kPa = 101
Property: Amount concentration (molarity), mol/dm3 of podophyllotoxin (Liquid); method: HPLC
Temperature, K	Amount concentration (molarity), mol/dm3 of podophyllotoxin	uncertainty
283.2	.0393	.0006
293.2	.0518	.0005
303.2	.0577	.0005
313.2	.0718	.0004
323.2	.0787	.0007

System: propanone + podophyllotoxin; phases: Liquid, Crystal
Fixed: Pressure, kPa = 101
Property: Amount concentration (molarity), mol/dm3 of podophyllotoxin (Liquid); method: HPLC
Temperature, K	Amount concentration (molarity), mol/dm3 of podophyllotoxin	uncertainty
283.2	.0971	.0006
293.2	.1039	.0004
303.2	.1536	.0003
313.2	.218	.0005
323.2	.3498	.0005

System: ethyl ethanoate + podophyllotoxin; phases: Liquid, Crystal
Fixed: Pressure, kPa = 101
Property: Amount concentration (molarity), mol/dm3 of podophyllotoxin (Liquid); method: HPLC
Temperature, K	Amount concentration (molarity), mol/dm3 of podophyllotoxin	uncertainty
283.2	.0904	.0004
293.2	.1046	.0003
303.2	.1068	.0004
313.2	.1258	.0008
323.2	.1615	.0008

System: 2-propanol + podophyllotoxin; phases: Liquid, Crystal
Fixed: Pressure, kPa = 101
Property: Amount concentration (molarity), mol/dm3 of podophyllotoxin (Liquid); method: HPLC
Temperature, K	Amount concentration (molarity), mol/dm3 of podophyllotoxin	uncertainty
283.2	.0509	.0006
293.2	.0582	.0004
303.2	.0735	.0006
313.2	.0787	.0009
323.2	.1158	.0002

System: 1-butanol + podophyllotoxin; phases: Liquid, Crystal
Fixed: Pressure, kPa = 101
Property: Amount concentration (molarity), mol/dm3 of podophyllotoxin (Liquid); method: HPLC
Temperature, K	Amount concentration (molarity), mol/dm3 of podophyllotoxin	uncertainty
283.2	.0401	.0004
293.2	.0538	.0003
303.2	.0641	.0009
313.2	.0781	.0003
323.2	.0915	.0006
