Measured thermophysical data. Torsion Vapor Pressures and Sublimation Enthalpies of Aluminum Trifluoride  and Aluminum Trichloride
Source: J. Chem. Eng. Data, 2009, 10.1021/je8007167
Compound 1: aluminum fluoride, AlF3
Compound 2: aluminum chloride, AlCl3

System: aluminum fluoride; phases: Liquid, Gas
Property: Vapor or sublimation pressure, kPa (Liquid); method: Torsion effusion method
Temperature, K	Vapor or sublimation pressure, kPa	uncertainty
960	.000132	
974	.000209	
982	.000316	
991	.000417	
1001	.000631	
1014	.000933	
1026	.001413	
1040	.002188	
1053	.003236	
1066	.005012	
1078	.006918	
1089	.009333	
1100	.012882	
1112	.018197	
960	.000132	
968	.000209	
977	.000263	
987	.000363	
998	.000575	
1010	.000813	
1023	.001259	
1036	.001862	
1048	.002754	
1059	.00389	
1070	.00537	
1083	.008128	
1097	.012303	
1109	.016982	
975	.000209	
985	.000363	
994	.000468	
1007	.000724	
1018	.001122	
1029	.001549	
1040	.002188	
1052	.003162	
1063	.004365	
1074	.00631	
1086	.008913	
1098	.012023	
1107	.015488	
956	.000105	
970	.000209	
982	.000316	
991	.000468	
1002	.000676	
1013	.000933	
1022	.001259	
1033	.00182	
1043	.002512	
1052	.003236	
1062	.004467	
1071	.005754	
1083	.008318	
1093	.010715	
1104	.014791	
1113	.018621	

System: aluminum chloride; phases: Liquid, Gas
Property: Vapor or sublimation pressure, kPa (Liquid); method: Torsion effusion method
Temperature, K	Vapor or sublimation pressure, kPa	uncertainty
323	.000234	
329	.000525	
334	.000891	
340	.002089	
344	.003388	
346	.003981	
347	.004898	
349	.00631	
350	.006761	
352	.008318	
354	.010715	
355	.012023	
338	.001622	
340	.001862	
343	.002951	
346	.003981	
348	.004786	
351	.006761	
353	.008318	
356	.011749	
358	.014454	
363	.026303	
368.5	.048978	
373	.085114	
376.5	.11749	
378	.128825	
321	.00017	
327	.00038	
329	.000513	
330	.00055	
333	.000676	
336	.001023	
339	.001622	
342	.002455	
345	.003631	
348	.00537	
353	.008913	
339	.001585	
340	.001862	
345	.003715	
347	.004266	
351	.006457	
354	.00912	
355	.011749	
358	.015849	
362	.023988	
366	.037154	
369	.051286	
372	.069183	
