Measured thermophysical data. Solubility of Rutin in Ethanol + Water at (273.15 to 323.15) K
Source: J. Chem. Eng. Data, 2009, 10.1021/je800816f
Compound 1: rutin, C27H30O16, purity 98%
Compound 2: ethanol, C2H6O, purity 99%
Compound 3: water, H2O

System: ethanol + rutin + water; phases: Liquid, Crystal
Fixed: Pressure, kPa = 101
Property: Mole fraction of rutin (Liquid); method: Chromatography
Temperature, K	Mole fraction of ethanol	Mole fraction of rutin	uncertainty
273.2	0	.00000297	
283.2	0	.00000529	
293.2	0	.00000587	
303.2	0	.00000822	
313.2	0	.0000102	
323.2	0	.0000142	
273.2	.2	.0000304	
283.2	.2	.0000469	
293.2	.2	.0000685	
303.2	.2	.0000762	
313.2	.2	.0001181	
323.2	.2	.0002057	
273.2	.4	.000135	
283.2	.4	.0001448	
293.2	.4	.0001984	
303.2	.4	.0002257	
313.2	.4	.0003224	
323.2	.4	.0003666	
273.2	.6	.0001294	
283.2	.6	.0001426	
293.2	.6	.0001813	
303.2	.6	.000199	
313.2	.6	.0002795	
323.2	.6	.0003106	
273.2	.8	.0001357	
283.2	.8	.0001432	
293.2	.8	.0001871	
303.2	.8	.0002032	
313.2	.8	.0002797	
323.2	.8	.0003183	
273.2	1	.0034768	
283.2	1	.0037244	
293.2	1	.004273	
303.2	1	.0051507	
313.2	1	.0059178	
323.2	1	.0065319	
273.2	.1	.00000339	
283.2	.1	.00000467	
293.2	.1	.00000899	
303.2	.1	.0000134	
313.2	.1	.0000263	
323.2	.1	.0000484	
273.2	.3	.0000863	
283.2	.3	.0001194	
293.2	.3	.0001601	
303.2	.3	.0001797	
313.2	.3	.0002629	
323.2	.3	.0003304	
273.2	.5	.0001356	
283.2	.5	.000157	
293.2	.5	.0001949	
303.2	.5	.000229	
313.2	.5	.0003104	
323.2	.5	.0003494	
273.2	.7	.0001135	
283.2	.7	.0001297	
293.2	.7	.0001693	
303.2	.7	.0001808	
313.2	.7	.0002244	
323.2	.7	.0002751	
273.2	.9	.000219	
283.2	.9	.0002297	
293.2	.9	.0003622	
303.2	.9	.0004179	
313.2	.9	.0005228	
323.2	.9	.0006335	
