Measured thermophysical data. Density and Viscosity of Decalin, Cyclohexane, and Toluene Binary Mixtures at  (283.15, 293.15, 303.15, 313.15, and 323.15) K
Source: J. Chem. Eng. Data, 2009, 10.1021/je800940j
Compound 1: cyclohexane, C6H12, purity 99%
Compound 2: toluene, C7H8, purity 99%
Compound 3: cis-decalin, C10H18
Compound 4: trans-decalin, C10H18

System: cyclohexane; phases: Liquid
Property: Mass density, kg/m3 (Liquid); method: Vibrating tube method
Temperature, K	Pressure, kPa	Mass density, kg/m3	uncertainty
283.15	101	787.95	.1
293.15	101	778.7	.1
303.15	101	769.2	.1
313.15	101	759.65	.1
323.15	101	749.9	.1

System: cyclohexane; phases: Liquid
Property: Viscosity, Pa*s (Liquid); method: Concentric cylinders viscometry
Temperature, K	Pressure, kPa	Viscosity, Pa*s	uncertainty
283.15	101	.00118023	
293.15	101	.00098467	
303.15	101	.00082948	
313.15	101	.00070609	
323.15	101	.00059778	

System: toluene; phases: Liquid
Property: Mass density, kg/m3 (Liquid); method: Vibrating tube method
Temperature, K	Pressure, kPa	Mass density, kg/m3	uncertainty
283.15	101	876.1	.1
293.15	101	866.75	.1
303.15	101	857.48	.1
313.15	101	848.08	.1
323.15	101	838.7	.1

System: toluene; phases: Liquid
Property: Viscosity, Pa*s (Liquid); method: Automatic viscometer
Temperature, K	Pressure, kPa	Viscosity, Pa*s	uncertainty
283.15	101	.00066568	
293.15	101	.0005958	
303.15	101	.00053676	
313.15	101	.00048594	
323.15	101	.0004408	

System: toluene + cyclohexane; phases: Liquid
Fixed: Pressure, kPa = 101
Property: Mass density, kg/m3 (Liquid); method: Vibrating tube method
Temperature, K	Mole fraction of cyclohexane	Mass density, kg/m3	uncertainty
283.15	0	876.1	.1
283.15	.0958	866.15	.1
283.15	.196	855.85	.1
283.15	.2986	846	.1
283.15	.3988	836.5	.1
283.15	.4974	827.65	.1
283.15	.5989	818.8	.1
283.15	.6977	810.1	.1
283.15	.7998	802.5	.1
283.15	.8994	794.8	.1
283.15	1	787.95	.1
293.15	0	866.75	.1
293.15	.0958	856.9	.1
293.15	.196	846.6	.1
293.15	.2986	836.7	.1
293.15	.3988	827.2	.1
293.15	.4974	818.35	.1
293.15	.5989	809.4	.1
293.15	.6977	800.7	.1
293.15	.7998	793.1	.1
293.15	.8994	785.5	.1
293.15	1	778.7	.1
303.15	0	857.48	.1
303.15	.0958	847.5	.1
303.15	.196	837.2	.1
303.15	.2986	827.3	.1
303.15	.3988	817.8	.1
303.15	.4974	808.9	.1
303.15	.5989	800	.1
303.15	.6977	791.3	.1
303.15	.7998	783.65	.1
303.15	.8994	776.1	.1
303.15	1	769.2	.1
313.15	0	848.08	.1
313.15	.0958	838.15	.1
313.15	.196	827.8	.1
313.15	.2986	817.9	.1
313.15	.3988	808.4	.1
313.15	.4974	799.45	.1
313.15	.5989	790.5	.1
313.15	.6977	781.8	.1
313.15	.7998	774.15	.1
313.15	.8994	766.5	.1
313.15	1	759.65	.1
323.15	0	838.7	.1
323.15	.0958	828.65	.1
323.15	.196	818.35	.1
323.15	.2986	808.45	.1
323.15	.3988	798.9	.1
323.15	.4974	789.95	.1
323.15	.5989	781	.1
323.15	.6977	772.25	.1
323.15	.7998	764.5	.1
323.15	.8994	756.9	.1
323.15	1	749.9	.1

System: toluene + cyclohexane; phases: Liquid
Fixed: Pressure, kPa = 101
Property: Viscosity, Pa*s (Liquid); method: Concentric cylinders viscometry
Temperature, K	Mole fraction of cyclohexane	Viscosity, Pa*s	uncertainty
283.15	0	.00066568	
283.15	.0958	.0006712	
283.15	.196	.00066229	
283.15	.2986	.00067917	
283.15	.3988	.00069481	
283.15	.4974	.00072175	
283.15	.5989	.00076347	
283.15	.6977	.00082031	
283.15	.7998	.00091032	
283.15	.8994	.00099942	
283.15	1	.00118023	
293.15	0	.0005958	
293.15	.0958	.00059946	
293.15	.196	.00059084	
293.15	.2986	.00060509	
293.15	.3988	.00061713	
293.15	.4974	.00063783	
293.15	.5989	.00066996	
293.15	.6977	.00071372	
293.15	.7998	.00078375	
293.15	.8994	.00084724	
293.15	1	.00098467	
303.15	0	.00053676	
303.15	.0958	.00053948	
303.15	.196	.00053063	
303.15	.2986	.00054295	
303.15	.3988	.00055242	
303.15	.4974	.00056832	
303.15	.5989	.00059348	
303.15	.6977	.00062735	
303.15	.7998	.00068237	
303.15	.8994	.00072712	
303.15	1	.00082948	
313.15	0	.00048594	
313.15	.0958	.00048788	
313.15	.196	.00047762	
313.15	.2986	.00048697	
313.15	.3988	.00049711	
313.15	.4974	.00050951	
313.15	.5989	.00052935	
313.15	.6977	.00055526	
313.15	.7998	.0005987	
313.15	.8994	.00063733	
313.15	1	.00070609	
323.15	0	.0004408	
323.15	.0958	.00044276	
323.15	.196	.00043096	
323.15	.2986	.00044258	
323.15	.3988	.00044913	
323.15	.4974	.00045885	
323.15	.5989	.00047349	
323.15	.6977	.00048861	
323.15	.7998	.00052922	
323.15	.8994	.00055831	
323.15	1	.00059778	

System: cyclohexane + cis-decalin + trans-decalin; phases: Liquid
Fixed: Pressure, kPa = 101
Fixed: Solvent: Mole fraction of cis-decalin = .4106
Property: Mass density, kg/m3 (Liquid); method: Vibrating tube method
Temperature, K	Mole fraction of cyclohexane	Mass density, kg/m3	uncertainty
283.15	0	887.8	.1
283.15	.0979	880.9	.1
283.15	.1958	873.55	.1
283.15	.2988	865.5	.1
283.15	.397	857.1	.1
283.15	.5057	847.25	.1
283.15	.5974	838.2	.1
283.15	.7062	826.75	.1
283.15	.7999	815.6	.1
283.15	.8978	802.75	.1
283.15	1	787.95	.1
293.15	0	880.25	.1
293.15	.0979	873.3	.1
293.15	.1958	865.7	.1
293.15	.2988	857.5	.1
293.15	.397	848.95	.1
293.15	.5057	838.85	.1
293.15	.5974	829.65	.1
293.15	.7062	817.9	.1
293.15	.7999	806.5	.1
293.15	.8978	793.6	.1
293.15	1	778.7	.1
303.15	0	872.7	.1
303.15	.0979	865.6	.1
303.15	.1958	857.9	.1
303.15	.2988	849.5	.1
303.15	.397	840.75	.1
303.15	.5057	830.45	.1
303.15	.5974	821.05	.1
303.15	.7062	809.05	.1
303.15	.7999	797.5	.1
303.15	.8978	784.3	.1
303.15	1	769.2	.1
313.15	0	865.15	.1
313.15	.0979	857.9	.1
313.15	.1958	850.1	.1
313.15	.2988	841.5	.1
313.15	.397	832.6	.1
313.15	.5057	822.05	.1
313.15	.5974	812.45	.1
313.15	.7062	800.2	.1
313.15	.7999	788.4	.1
313.15	.8978	775	.1
313.15	1	759.65	.1
323.15	0	857.65	.1
323.15	.0979	850.2	.1
323.15	.1958	842.3	.1
323.15	.2988	833.5	.1
323.15	.397	824.45	.1
323.15	.5057	813.7	.1
323.15	.5974	803.8	.1
323.15	.7062	791.3	.1
323.15	.7999	779.3	.1
323.15	.8978	765.6	.1
323.15	1	749.85	.1

System: cyclohexane + cis-decalin + trans-decalin; phases: Liquid
Fixed: Pressure, kPa = 101
Fixed: Solvent: Mole fraction of cis-decalin = .4106
Property: Viscosity, Pa*s (Liquid); method: Concentric cylinders viscometry
Temperature, K	Mole fraction of cyclohexane	Viscosity, Pa*s	uncertainty
283.15	0	.00309742	
283.15	.0979	.00286953	
283.15	.1958	.00265384	
283.15	.2988	.00244132	
283.15	.397	.00225829	
283.15	.5057	.00206876	
283.15	.5974	.00190992	
283.15	.7062	.00172208	
283.15	.7999	.00155521	
283.15	.8978	.00137443	
283.15	1	.00118023	
293.15	0	.00250378	
293.15	.0979	.00232612	
293.15	.1958	.00215668	
293.15	.2988	.0019849	
293.15	.397	.00183598	
293.15	.5057	.00168262	
293.15	.5974	.00155265	
293.15	.7062	.0014018	
293.15	.7999	.0012702	
293.15	.8978	.00113151	
293.15	1	.00098467	
303.15	0	.00206586	
303.15	.0979	.0019241	
303.15	.1958	.00178688	
303.15	.2988	.00164718	
303.15	.397	.00152373	
303.15	.5057	.00139372	
303.15	.5974	.00128946	
303.15	.7062	.00116463	
303.15	.7999	.00106083	
303.15	.8978	.00094806	
303.15	1	.00082948	
313.15	0	.00173385	
313.15	.0979	.00161864	
313.15	.1958	.00150544	
313.15	.2988	.00138991	
313.15	.397	.00128612	
313.15	.5057	.00117734	
313.15	.5974	.00108994	
313.15	.7062	.00098501	
313.15	.7999	.0008966	
313.15	.8978	.00080526	
313.15	1	.00070609	
323.15	0	.00147722	
323.15	.0979	.00138115	
323.15	.1958	.00128623	
323.15	.2988	.0011889	
323.15	.397	.00110147	
323.15	.5057	.00100557	
323.15	.5974	.00093426	
323.15	.7062	.00084467	
323.15	.7999	.00076251	
323.15	.8978	.00068994	
323.15	1	.00059774	

System: toluene + cis-decalin + trans-decalin; phases: Liquid
Fixed: Pressure, kPa = 101
Fixed: Solvent: Mole fraction of cis-decalin = .4106
Property: Mass density, kg/m3 (Liquid); method: Vibrating tube method
Temperature, K	Mole fraction of toluene	Mass density, kg/m3	uncertainty
283.15	0	887.8	.1
283.15	.0994	886.3	.1
283.15	.2007	884.7	.1
283.15	.2995	883.35	.1
283.15	.4029	881.9	.1
283.15	.4973	880.75	.1
283.15	.5986	879.6	.1
283.15	.6998	878.6	.1
283.15	.8059	877.45	.1
283.15	.9025	876.65	.1
283.15	1	876.1	.1
293.15	0	880.25	.1
293.15	.0994	878.6	.1
293.15	.2007	876.9	.1
293.15	.2995	875.4	.1
293.15	.4029	873.9	.1
293.15	.4973	872.55	.1
293.15	.5986	871.2	.1
293.15	.6998	870	.1
293.15	.8059	868.65	.1
293.15	.9025	867.6	.1
293.15	1	866.75	.1
303.15	0	872.7	.1
303.15	.0994	870.9	.1
303.15	.2007	869.1	.1
303.15	.2995	867.45	.1
303.15	.4029	865.8	.1
303.15	.4973	864.35	.1
303.15	.5986	862.7	.1
303.15	.6998	861.35	.1
303.15	.8059	859.75	.1
303.15	.9025	858.5	.1
303.15	1	857.48	.1
313.15	0	865.15	.1
313.15	.0994	863.2	.1
313.15	.2007	861.3	.1
313.15	.2995	859.55	.1
313.15	.4029	857.75	.1
313.15	.4973	856.05	.1
313.15	.5986	854.3	.1
313.15	.6998	852.65	.1
313.15	.8059	850.85	.1
313.15	.9025	849.4	.1
313.15	1	848.08	.1
323.15	0	857.65	.1
323.15	.0994	855.6	.1
323.15	.2007	853.5	.1
323.15	.2995	851.6	.1
323.15	.4029	849.55	.1
323.15	.4973	847.75	.1
323.15	.5986	845.8	.1
323.15	.6998	844	.1
323.15	.8059	841.95	.1
323.15	.9025	840.25	.1
323.15	1	838.7	.1

System: toluene + cis-decalin + trans-decalin; phases: Liquid
Fixed: Pressure, kPa = 101
Fixed: Solvent: Mole fraction of cis-decalin = .4106
Property: Viscosity, Pa*s (Liquid); method: Concentric cylinders viscometry
Temperature, K	Mole fraction of toluene	Viscosity, Pa*s	uncertainty
283.15	0	.00309742	
283.15	.0994	.00252494	
283.15	.2007	.00208553	
283.15	.2995	.00175436	
283.15	.4029	.00146241	
283.15	.4973	.00126392	
283.15	.5986	.00107879	
283.15	.6998	.00094322	
283.15	.8059	.00082588	
283.15	.9025	.00073838	
283.15	1	.00066568	
293.15	0	.00250378	
293.15	.0994	.00207415	
293.15	.2007	.0017374	
293.15	.2995	.00148585	
293.15	.4029	.00124863	
293.15	.4973	.00109147	
293.15	.5986	.00093837	
293.15	.6998	.0008283	
293.15	.8059	.00073108	
293.15	.9025	.00065738	
293.15	1	.0005958	
303.15	0	.00206586	
303.15	.0994	.00173575	
303.15	.2007	.00147171	
303.15	.2995	.00127287	
303.15	.4029	.0010806	
303.15	.4973	.00095187	
303.15	.5986	.00082547	
303.15	.6998	.00073366	
303.15	.8059	.00065215	
303.15	.9025	.00058971	
303.15	1	.00053676	
313.15	0	.00173385	
313.15	.0994	.00147495	
313.15	.2007	.00126415	
313.15	.2995	.00110272	
313.15	.4029	.00094576	
313.15	.4973	.00083857	
313.15	.5986	.00073215	
313.15	.6998	.00065565	
313.15	.8059	.00058582	
313.15	.9025	.00053224	
313.15	1	.00048594	
323.15	0	.00147722	
323.15	.0994	.00126997	
323.15	.2007	.00109848	
323.15	.2995	.00095802	
323.15	.4029	.00083406	
323.15	.4973	.00074561	
323.15	.5986	.00065876	
323.15	.6998	.00058891	
323.15	.8059	.00052897	
323.15	.9025	.00048247	
323.15	1	.0004408	

System: cis-decalin + trans-decalin; phases: Liquid
Property: Mass density, kg/m3 (Liquid); method: Vibrating tube method
Temperature, K	Pressure, kPa	Mole fraction of cis-decalin	Mass density, kg/m3	uncertainty
283.15	101.325	.4106	887.8	.1
293.15	101.325	.4106	880.25	.1
303.15	101.325	.4106	872.7	.1
313.15	101.325	.4106	865.15	.1
323.15	101.325	.4106	857.65	.1

System: cis-decalin + trans-decalin; phases: Liquid
Property: Viscosity, Pa*s (Liquid); method: Concentric cylinders viscometry
Temperature, K	Pressure, kPa	Mole fraction of cis-decalin	Viscosity, Pa*s	uncertainty
283.15	101.325	.4106	.00309742	
293.15	101.325	.4106	.00250378	
303.15	101.325	.4106	.00206586	
313.15	101.325	.4106	.00173385	
323.15	101.325	.4106	.00147722	
