Measured thermophysical data. Excess Molar Enthalpies of Ternary and Binary Mixtures Containing  2-Methoxy-2-methylpropane, 1-Propanol, and Nonane
Source: J. Chem. Eng. Data, 2009, 10.1021/je8007606
Compound 1: methyl tert-butyl ether, C5H12O, purity 99%
Compound 2: 1-propanol, C3H8O, purity 99%
Compound 3: nonane, C9H20, purity 99%

System: 1-propanol + nonane; phases: Liquid
Fixed: Temperature, K = 298.15
Fixed: Pressure, kPa = 101
Property: Excess molar enthalpy (molar enthalpy of mixing), kJ/mol (Liquid); method: Calvet calorimetry
Mole fraction of 1-propanol	Excess molar enthalpy (molar enthalpy of mixing), kJ/mol	uncertainty
.0794	.494	.00494
.1401	.604	.00604
.2595	.711	.00711
.3588	.727	.00727
.441	.723	.00723
.5192	.69	.0069
.5829	.646	.00646
.7046	.539	.00539
.7517	.488	.00488
.7992	.419	.00419
.8361	.36	.0036
.878	.282	.00282
.911	.218	.00218
.9469	.139	.00139
.9689	.086	.00086

System: 1-propanol + nonane + methyl tert-butyl ether; phases: Liquid
Fixed: Temperature, K = 298.15
Fixed: Pressure, kPa = 101
Property: Excess molar enthalpy (molar enthalpy of mixing), kJ/mol (Liquid); method: Calvet calorimetry
Mole fraction of methyl tert-butyl ether	Mole fraction of 1-propanol	Excess molar enthalpy (molar enthalpy of mixing), kJ/mol	uncertainty
.027	.0842	.495	.00495
.0547	.1704	.65	.0065
.0756	.2356	.722	.00722
.1007	.3139	.743	.00743
.1158	.361	.739	.00739
.1291	.4023	.711	.00711
.1506	.4695	.646	.00646
.1596	.4974	.618	.00618
.1772	.5521	.539	.00539
.1892	.5898	.488	.00488
.1999	.623	.419	.00419
.2089	.651	.358	.00358
.22	.6857	.258	.00258
.2283	.7115	.178	.00178
.2358	.7349	.091	.00091
.0551	.0547	.401	.00401
.1008	.1001	.575	.00575
.148	.1469	.68	.0068
.1871	.1856	.73	.0073
.2274	.2256	.74	.0074
.2975	.2952	.697	.00697
.3234	.3209	.653	.00653
.3511	.3484	.591	.00591
.378	.3751	.525	.00525
.4044	.4012	.446	.00446
.4289	.4255	.366	.00366
.4474	.4439	.285	.00285
.4678	.4641	.195	.00195
.4862	.4824	.097	.00097
.0648	.0211	.25	.0025
.1342	.0437	.42	.0042
.201	.0655	.548	.00548
.2689	.0877	.647	.00647
.3213	.1048	.671	.00671
.373	.1216	.68	.0068
.416	.1356	.659	.00659
.4664	.152	.616	.00616
.5149	.1679	.563	.00563
.5551	.181	.495	.00495
.5913	.1928	.438	.00438
.6369	.2076	.354	.00354
.6669	.2174	.279	.00279
.6977	.2275	.193	.00193
.7301	.238	.096	.00096
