Measured thermophysical data. Isothermal Vapor-Liquid Equilibrium of Binary Mixtures Containing  1-Chlorobutane, Ethanol, or Acetonitrile
Source: J. Chem. Eng. Data, 2009, 10.1021/je800535c
Compound 1: 1-chlorobutane, C4H9Cl
Compound 2: acetonitrile, C2H3N
Compound 3: ethanol, C2H6O

System: 1-chlorobutane; phases: Liquid
Fixed: Pressure, kPa = 101.325
Property: Mass density, kg/m3 (Liquid); method: Vibrating tube method
Temperature, K	Mass density, kg/m3	uncertainty
298.15	880.86	.02

System: 1-chlorobutane; phases: Liquid
Fixed: Pressure, kPa = 101.325
Property: Refractive index (Na D-line) (Liquid); method: Standard Abbe refractometry
Temperature, K	Refractive index (Na D-line)	uncertainty
298.15	1.39953	.0001

System: 1-chlorobutane; phases: Liquid, Gas
Property: Vapor or sublimation pressure, kPa (Liquid); method: Ebulliometric method (Recirculating still)
Temperature, K	Vapor or sublimation pressure, kPa	uncertainty
313.15	25.974	
318.15	31.699	
323.15	38.437	
328.15	46.192	
333.15	55.256	
338.15	65.66	
343.15	77.512	
348.15	90.966	

System: acetonitrile; phases: Liquid
Fixed: Pressure, kPa = 101.325
Property: Mass density, kg/m3 (Liquid); method: Vibrating tube method
Temperature, K	Mass density, kg/m3	uncertainty
298.15	776.65	.02

System: acetonitrile; phases: Liquid
Fixed: Pressure, kPa = 101.325
Property: Refractive index (Na D-line) (Liquid); method: Standard Abbe refractometry
Temperature, K	Refractive index (Na D-line)	uncertainty
298.15	1.34139	.0001

System: acetonitrile; phases: Liquid, Gas
Property: Vapor or sublimation pressure, kPa (Liquid); method: Ebulliometric method (Recirculating still)
Temperature, K	Vapor or sublimation pressure, kPa	uncertainty
313.15	22.758	
318.15	27.891	
323.15	33.092	
328.15	40.946	
333.15	49.079	
338.15	58.511	
343.15	69.522	
348.15	82.04	

System: ethanol; phases: Liquid
Fixed: Pressure, kPa = 101.325
Property: Mass density, kg/m3 (Liquid); method: Vibrating tube method
Temperature, K	Mass density, kg/m3	uncertainty
298.15	785.34	.02

System: ethanol; phases: Liquid
Fixed: Pressure, kPa = 101.325
Property: Refractive index (Na D-line) (Liquid); method: Standard Abbe refractometry
Temperature, K	Refractive index (Na D-line)	uncertainty
298.15	1.35917	.0001

System: ethanol; phases: Liquid, Gas
Property: Vapor or sublimation pressure, kPa (Liquid); method: Ebulliometric method (Recirculating still)
Temperature, K	Vapor or sublimation pressure, kPa	uncertainty
313.15	17.922	.0007
318.15	23.103	.0007
323.15	29.549	.0007
328.15	37.41	.0007
333.15	46.9	.0007
338.15	58.438	.0007
343.15	72.311	.0007
348.15	88.765	.0007

System: acetonitrile + 1-chlorobutane; phases: Gas, Liquid
Fixed: Temperature, K = 333.15
Property: Mole fraction of acetonitrile (Gas); method: Index of refraction calibration data
Mole fraction of acetonitrile	Mole fraction of acetonitrile	uncertainty
.1052	.2224	
.2058	.3181	
.3448	.407	
.4255	.4461	
.4434	.4548	
.4776	.4697	
.5027	.4811	
.5116	.4838	
.523	.4897	
.5397	.4966	
.5401	.4972	
.5743	.512	
.604	.5245	
.6132	.5293	
.6247	.5348	
.6408	.5428	
.673	.5586	
.6986	.5725	
.7447	.6006	
.8811	.7247	
.9446	.8339	

System: acetonitrile + 1-chlorobutane; phases: Liquid, Gas
Fixed: Temperature, K = 333.15
Property: Vapor or sublimation pressure, kPa (Liquid); method: Ebulliometric method (Recirculating still)
Mole fraction of acetonitrile	Vapor or sublimation pressure, kPa	uncertainty
.1052	64.468	
.2058	68.216	
.3448	70.554	
.4255	70.966	
.4434	71.019	
.4776	71.007	
.5027	70.937	
.5116	70.938	
.523	70.889	
.5397	70.797	
.5401	70.754	
.5743	70.555	
.604	70.247	
.6132	70.154	
.6247	70.066	
.6408	69.817	
.673	69.301	
.6986	68.816	
.7447	67.769	
.8811	61.671	
.9446	56.225	

System: ethanol + 1-chlorobutane; phases: Gas, Liquid
Fixed: Temperature, K = 333.15
Property: Mole fraction of ethanol (Gas); method: Index of refraction calibration data
Mole fraction of ethanol	Mole fraction of ethanol	uncertainty
.0567	.2292	
.0767	.2649	
.0941	.2822	
.1071	.2967	
.1877	.3462	
.2421	.368	
.2686	.3769	
.2924	.3829	
.3433	.3966	
.3702	.4022	
.4006	.4111	
.4223	.4175	
.4615	.4256	
.4754	.4283	
.4788	.4305	
.4822	.4314	
.5141	.4388	
.5248	.4439	
.55	.4495	
.5631	.4521	
.59	.4645	
.6171	.4711	
.6433	.4794	
.6771	.493	
.7038	.5053	
.7321	.5196	
.7579	.5362	
.7835	.5534	
.8073	.5717	
.8356	.6003	
.8564	.6224	
.8863	.6645	
.9033	.689	
.9161	.7139	
.9348	.7577	
.9511	.8015	
.9638	.8415	
.9724	.8721	

System: ethanol + 1-chlorobutane; phases: Liquid, Gas
Fixed: Temperature, K = 333.15
Property: Vapor or sublimation pressure, kPa (Liquid); method: Ebulliometric method (Recirculating still)
Mole fraction of ethanol	Vapor or sublimation pressure, kPa	uncertainty
.0567	68.694	
.0767	71.188	
.0941	72.33	
.1071	73.446	
.1877	76.582	
.2421	77.6	
.2686	77.923	
.2924	77.15	
.3433	78.509	
.3702	78.567	
.4006	78.597	
.4223	78.603	
.4615	78.568	
.4754	78.511	
.4788	78.491	
.4822	78.415	
.5141	78.313	
.5248	78.24	
.55	78.072	
.5631	77.86	
.59	77.607	
.6171	77.164	
.6433	76.722	
.6771	75.995	
.7038	75.24	
.7321	74.244	
.7579	73.281	
.7835	72.134	
.8073	70.746	
.8356	68.829	
.8564	67.221	
.8863	64.367	
.9033	62.665	
.9161	60.99	
.9348	58.484	
.9511	55.985	
.9638	53.942	
.9724	52.458	

System: ethanol + acetonitrile; phases: Gas, Liquid
Fixed: Temperature, K = 333.15
Property: Mole fraction of ethanol (Gas); method: Index of refraction calibration data
Mole fraction of ethanol	Mole fraction of ethanol	uncertainty
.0839	.1573	
.1036	.1872	
.1268	.225	
.1538	.2592	
.1793	.286	
.2126	.3164	
.2394	.3428	
.2637	.3607	
.2821	.3732	
.3074	.3913	
.3278	.4044	
.3517	.422	
.3918	.4454	
.4019	.4515	
.4347	.4673	
.4469	.4755	
.475	.4904	
.4941	.4992	
.5116	.508	
.5367	.5205	
.5631	.5346	
.5807	.5435	
.6092	.5567	
.6404	.5732	
.6604	.5844	
.6914	.6011	
.7296	.6255	
.7682	.6465	
.7927	.6649	
.8317	.6977	
.8381	.7017	
.8702	.7296	
.8871	.749	
.9219	.7914	

System: ethanol + acetonitrile; phases: Liquid, Gas
Fixed: Temperature, K = 333.15
Property: Vapor or sublimation pressure, kPa (Liquid); method: Ebulliometric method (Recirculating still)
Mole fraction of ethanol	Vapor or sublimation pressure, kPa	uncertainty
.0839	53.786	
.1036	54.951	
.1268	56.149	
.1538	57.39	
.1793	58.342	
.2126	59.355	
.2394	60.095	
.2637	60.723	
.2821	61.062	
.3074	61.518	
.3278	61.782	
.3517	62.145	
.3918	62.577	
.4019	62.697	
.4347	62.812	
.4469	62.904	
.475	62.967	
.4941	62.987	
.5116	63.019	
.5367	63.001	
.5631	62.927	
.5807	62.848	
.6092	62.669	
.6404	62.471	
.6604	62.252	
.6914	61.884	
.7296	61.35	
.7682	60.631	
.7927	60.096	
.8317	59.11	
.8381	58.888	
.8702	57.891	
.8871	57.209	
.9219	55.698	
