Measured thermophysical data. Thermodynamic Properties of Micellization of Sodium Dodecylbenzene Sulfonate  in the Aqueous-Rich Region of 1-Pentanol and 1-Hexanol
Source: J. Chem. Eng. Data, 2009, 10.1021/je800934r
Compound 1: sodium dodecylbenzenesulfonate, C18H29NaO3S
Compound 2: 1-pentanol, C5H12O
Compound 3: 1-hexanol, C6H14O
Compound 4: water-d2, D2O
Compound 5: water, H2O

System: 1-pentanol + water + sodium dodecylbenzenesulfonate; phases: Liquid
Fixed: Pressure, kPa = 101
Property: Mass density, kg/m3 (Liquid); method: Vibrating tube method
Temperature, K	Solvent: Molality, mol/kg of sodium dodecylbenzenesulfonate	Molality, mol/kg of 1-pentanol	Mass density, kg/m3	uncertainty
298.15	.05	0	999.92	.002
298.15	.05	.058	999.1	.002
298.15	.05	.089	998.65	.002
298.15	.05	.109	998.33	.002
298.15	.05	.144	997.784	.002
298.15	.05	.191	997.025	.002
298.15	.05	.22	996.525	.002
298.15	.05	.236	996.26	.002
298.15	.05	.255	995.85	.002
308.15	.05	0	996.76	.002
308.15	.05	.058	995.955	.002
308.15	.05	.089	995.485	.002
308.15	.05	.109	995.157	.002
308.15	.05	.144	994.6	.002
308.15	.05	.191	993.78	.002
308.15	.05	.22	993.238	.002
308.15	.05	.236	992.97	.002
308.15	.05	.255	992.63	.002
298.15	.1	0	1002.755	.002
298.15	.1	.092	1001.389	.002
298.15	.1	.123	1000.896	.002
298.15	.1	.125	1000.875	.002
298.15	.1	.181	999.971	.002
298.15	.1	.234	999.102	.002
298.15	.1	.276	998.38	.002
298.15	.1	.296	998.048	.002
308.15	.1	0	999.44	.002
308.15	.1	.092	998.081	.002
308.15	.1	.123	997.61	.002
308.15	.1	.125	997.591	.002
308.15	.1	.181	996.68	.002
308.15	.1	.234	995.771	.002
308.15	.1	.276	995.041	.002
308.15	.1	.296	994.691	.002

System: 1-pentanol + water + sodium dodecylbenzenesulfonate; phases: Liquid
Fixed: Pressure, kPa = 101
Property: Speed of sound, m/s (Liquid); method: Pulse-echo method
Temperature, K	Solvent: Molality, mol/kg of sodium dodecylbenzenesulfonate	Molality, mol/kg of 1-pentanol	Speed of sound, m/s	uncertainty
298.15	.05	0	1498.7	.1
298.15	.05	.058	1501.01	.1
298.15	.05	.089	1502.02	.1
298.15	.05	.109	1502.83	.1
298.15	.05	.144	1503.8	.1
298.15	.05	.191	1505.46	.1
298.15	.05	.22	1506.2	.1
298.15	.05	.236	1506.6	.1
298.15	.05	.255	1507.2	.1
308.15	.05	0	1522.67	.1
308.15	.05	.058	1523.8	.1
308.15	.05	.089	1524.58	.1
308.15	.05	.109	1525.13	.1
308.15	.05	.144	1525.77	.1
308.15	.05	.191	1526.68	.1
308.15	.05	.22	1527.12	.1
308.15	.05	.236	1527.14	.1
308.15	.05	.255	1527.18	.1
298.15	.1	0	1500	.1
298.15	.1	.092	1502.92	.1
298.15	.1	.123	1503.63	.1
298.15	.1	.125	1503.71	.1
298.15	.1	.181	1504.8	.1
298.15	.1	.234	1505.8	.1
298.15	.1	.276	1506.49	.1
298.15	.1	.296	1506.87	.1
308.15	.1	0	1523.45	.1
308.15	.1	.092	1524.44	.1
308.15	.1	.123	1524.67	.1
308.15	.1	.125	1524.71	.1
308.15	.1	.181	1525.32	.1
308.15	.1	.234	1525.36	.1
308.15	.1	.276	1525.71	.1
308.15	.1	.296	1525.79	.1

System: 1-pentanol + water + sodium dodecylbenzenesulfonate; phases: Liquid
Fixed: Pressure, kPa = 101
Property: Viscosity, Pa*s (Liquid); method: Capillary tube (Ostwald; Ubbelohde) method
Temperature, K	Solvent: Molality, mol/kg of sodium dodecylbenzenesulfonate	Molality, mol/kg of 1-pentanol	Viscosity, Pa*s	uncertainty
298.15	.05	0	.000999	.000003
298.15	.05	.058	.001035	.000003
298.15	.05	.089	.00105	.000003
298.15	.05	.109	.001064	.000003
298.15	.05	.144	.001078	.000003
298.15	.05	.191	.001098	.000003
298.15	.05	.22	.001112	.000003
298.15	.05	.236	.00112	.000003
298.15	.05	.255	.001128	.000003
308.15	.05	0	.000795	.000003
308.15	.05	.058	.000821	.000003
308.15	.05	.089	.000829	.000003
308.15	.05	.109	.000838	.000003
308.15	.05	.144	.000853	.000003
308.15	.05	.191	.000866	.000003
308.15	.05	.22	.000876	.000003
308.15	.05	.236	.000879	.000003
308.15	.05	.255	.000881	.000003
298.15	.1	0	.001106	.000003
298.15	.1	.092	.001148	.000003
298.15	.1	.123	.001172	.000003
298.15	.1	.125	.001171	.000003
298.15	.1	.181	.001222	.000003
298.15	.1	.234	.001291	.000003
298.15	.1	.276	.001358	.000003
298.15	.1	.296	.001381	.000003
308.15	.1	0	.000868	.000003
308.15	.1	.092	.000899	.000003
308.15	.1	.123	.000918	.000003
308.15	.1	.125	.000921	.000003
308.15	.1	.181	.000958	.000003
308.15	.1	.234	.001	.000003
308.15	.1	.276	.001046	.000003
308.15	.1	.296	.001067	.000003

System: 1-hexanol + water + sodium dodecylbenzenesulfonate; phases: Liquid
Fixed: Pressure, kPa = 101
Property: Mass density, kg/m3 (Liquid); method: Vibrating tube method
Temperature, K	Solvent: Molality, mol/kg of sodium dodecylbenzenesulfonate	Molality, mol/kg of 1-hexanol	Mass density, kg/m3	uncertainty
298.15	.05	0	999.92	.002
298.15	.05	.01	999.764	.002
298.15	.05	.02	999.605	.002
298.15	.05	.03	999.443	.002
298.15	.05	.04	999.278	.002
298.15	.05	.046	999.178	.002
298.15	.05	.06	998.937	.002
298.15	.05	.067	998.81	.002
298.15	.05	.08	998.58	.002
308.15	.05	0	996.76	.002
308.15	.05	.01	996.607	.002
308.15	.05	.02	996.451	.002
308.15	.05	.03	996.292	.002
308.15	.05	.04	996.131	.002
308.15	.05	.046	996.033	.002
308.15	.05	.06	995.794	.002
308.15	.05	.067	995.67	.002
308.15	.05	.08	995.44	.002
298.15	.1	0	1002.755	.002
298.15	.1	.01	1002.593	.002
298.15	.1	.02	1002.429	.002
298.15	.1	.03	1002.262	.002
298.15	.1	.04	1002.09	.002
298.15	.1	.05	1001.914	.002
298.15	.1	.06	1001.731	.002
298.15	.1	.065	1001.64	.002
298.15	.1	.075	1001.455	.002
298.15	.1	.08	1001.364	.002
308.15	.1	0	999.44	.002
308.15	.1	.01	999.282	.002
308.15	.1	.02	999.122	.002
308.15	.1	.03	998.957	.002
308.15	.1	.04	998.79	.002
308.15	.1	.05	998.616	.002
308.15	.1	.06	998.44	.002
308.15	.1	.065	998.352	.002
308.15	.1	.075	998.173	.002
308.15	.1	.08	998.081	.002

System: 1-hexanol + water + sodium dodecylbenzenesulfonate; phases: Liquid
Fixed: Pressure, kPa = 101
Property: Speed of sound, m/s (Liquid); method: Pulse-echo method
Temperature, K	Solvent: Molality, mol/kg of sodium dodecylbenzenesulfonate	Molality, mol/kg of 1-hexanol	Speed of sound, m/s	uncertainty
298.15	.05	0	1498.7	.1
298.15	.05	.01	1498.35	.1
298.15	.05	.02	1498.1	.1
298.15	.05	.03	1497.85	.1
298.15	.05	.04	1497.55	.1
298.15	.05	.046	1497.35	.1
298.15	.05	.06	1496.9	.1
298.15	.05	.067	1496.7	.1
298.15	.05	.08	1496.38	.1
308.15	.05	0	1522.67	.1
308.15	.05	.01	1522.5	.1
308.15	.05	.02	1522.32	.1
308.15	.05	.03	1522.15	.1
308.15	.05	.04	1522	.1
308.15	.05	.046	1521.92	.1
308.15	.05	.06	1521.7	.1
308.15	.05	.067	1521.6	.1
308.15	.05	.08	1521.4	.1
298.15	.1	0	1500	.1
298.15	.1	.01	1499.76	.1
298.15	.1	.02	1499.47	.1
298.15	.1	.03	1499.14	.1
298.15	.1	.04	1498.84	.1
298.15	.1	.05	1498.45	.1
298.15	.1	.06	1498.12	.1
298.15	.1	.065	1497.91	.1
298.15	.1	.075	1497.6	.1
298.15	.1	.08	1497.38	.1
308.15	.1	0	1523.45	.1
308.15	.1	.01	1523.16	.1
308.15	.1	.02	1522.8	.1
308.15	.1	.03	1522.5	.1
308.15	.1	.04	1522.25	.1
308.15	.1	.05	1522.02	.1
308.15	.1	.06	1521.76	.1
308.15	.1	.065	1521.61	.1
308.15	.1	.075	1521.36	.1
308.15	.1	.08	1521.22	.1

System: 1-hexanol + water + sodium dodecylbenzenesulfonate; phases: Liquid
Fixed: Pressure, kPa = 101
Property: Viscosity, Pa*s (Liquid); method: Capillary tube (Ostwald; Ubbelohde) method
Temperature, K	Solvent: Molality, mol/kg of sodium dodecylbenzenesulfonate	Molality, mol/kg of 1-hexanol	Viscosity, Pa*s	uncertainty
298.15	.05	0	.000999	.000003
298.15	.05	.01	.001	.000003
298.15	.05	.02	.001005	.000003
298.15	.05	.03	.001011	.000003
298.15	.05	.04	.001018	.000003
298.15	.05	.046	.00102	.000003
298.15	.05	.06	.001035	.000003
298.15	.05	.067	.001041	.000003
298.15	.05	.08	.00106	.000003
308.15	.05	0	.000795	.000003
308.15	.05	.01	.000799	.000003
308.15	.05	.02	.0008	.000003
308.15	.05	.03	.000802	.000003
308.15	.05	.04	.000803	.000003
308.15	.05	.046	.000804	.000003
308.15	.05	.06	.000806	.000003
308.15	.05	.067	.000808	.000003
308.15	.05	.08	.000809	.000003
298.15	.1	0	.001106	.000003
298.15	.1	.01	.001108	.000003
298.15	.1	.02	.001109	.000003
298.15	.1	.03	.00111	.000003
298.15	.1	.04	.001112	.000003
298.15	.1	.05	.001115	.000003
298.15	.1	.06	.001118	.000003
298.15	.1	.065	.001121	.000003
298.15	.1	.075	.001126	.000003
298.15	.1	.08	.00113	.000003
308.15	.1	0	.000868	.000003
308.15	.1	.01	.000868	.000003
308.15	.1	.02	.000869	.000003
308.15	.1	.03	.000869	.000003
308.15	.1	.04	.00087	.000003
308.15	.1	.05	.000871	.000003
308.15	.1	.06	.000873	.000003
308.15	.1	.065	.000873	.000003
308.15	.1	.075	.000876	.000003
308.15	.1	.08	.00088	.000003

System: water + sodium dodecylbenzenesulfonate; phases: Liquid
Property: Mass density, kg/m3 (Liquid); method: Vibrating tube method
Temperature, K	Molality, mol/kg of sodium dodecylbenzenesulfonate	Pressure, kPa	Mass density, kg/m3	uncertainty
298.15	.05	101	999.92	.002
308.15	.05	101	996.76	.002
298.15	.1	101	1002.755	.002
308.15	.1	101	999.44	.002

System: water + sodium dodecylbenzenesulfonate; phases: Liquid
Property: Speed of sound, m/s (Liquid); method: Pulse-echo method
Temperature, K	Molality, mol/kg of sodium dodecylbenzenesulfonate	Pressure, kPa	Speed of sound, m/s	uncertainty
298.15	.05	101	1498.7	.1
308.15	.05	101	1522.67	.1
298.15	.1	101	1500	.1
308.15	.1	101	1523.45	.1

System: water + sodium dodecylbenzenesulfonate; phases: Liquid
Property: Viscosity, Pa*s (Liquid); method: Capillary tube (Ostwald; Ubbelohde) method
Temperature, K	Molality, mol/kg of sodium dodecylbenzenesulfonate	Pressure, kPa	Viscosity, Pa*s	uncertainty
298.15	.05	101	.000999	.000003
308.15	.05	101	.000795	.000003
298.15	.1	101	.001106	.000003
308.15	.1	101	.000868	.000003
