Measured thermophysical data. Solubility of Desmosterol in Five Organic Solvents
Source: J. Chem. Eng. Data, 2008, 10.1021/je8006088
Compound 1: desmosterol, C27H44O, purity 98%
Compound 2: methanol, CH4O, purity 99.5%
Compound 3: ethanol, C2H6O, purity 99.5%
Compound 4: propanone, C3H6O, purity 99.5%
Compound 5: ethyl ethanoate, C4H8O2, purity 99.5%
Compound 6: acetonitrile, C2H3N, purity 99.5%

System: desmosterol; phases: Crystal, Liquid, Air at 1 atmosphere
Property: Normal melting temperature, K (Crystal); method: Visual observation
Normal melting temperature, K	uncertainty
393.7	.5

System: methanol + desmosterol; phases: Liquid, Crystal
Fixed: Pressure, kPa = 101
Property: Amount concentration (molarity), mol/dm3 of desmosterol (Liquid); method: HPLC
Temperature, K	Amount concentration (molarity), mol/dm3 of desmosterol	uncertainty
299.8	.0314	.00026
303.3	.03447	.00023
307.8	.04064	.00035
311.5	.04556	.00013
315.1	.05588	.00049
318.8	.06704	.00061
322.5	.07695	.00024
327	.09344	.00051

System: ethanol + desmosterol; phases: Liquid, Crystal
Fixed: Pressure, kPa = 101
Property: Amount concentration (molarity), mol/dm3 of desmosterol (Liquid); method: HPLC
Temperature, K	Amount concentration (molarity), mol/dm3 of desmosterol	uncertainty
300.6	.1086	.0006
304	.1175	.0004
307.8	.1336	.0013
311.8	.1625	.0003
315.7	.1937	.0016
320.6	.2345	.0022
323.6	.2575	.0021
327.7	.3675	.0029
332.2	.4689	.0045

System: propanone + desmosterol; phases: Liquid, Crystal
Fixed: Pressure, kPa = 101
Property: Amount concentration (molarity), mol/dm3 of desmosterol (Liquid); method: HPLC
Temperature, K	Amount concentration (molarity), mol/dm3 of desmosterol	uncertainty
300.7	.1491	.0012
304	.1591	.0012
308	.2024	.0018
311.5	.2389	.001
315.4	.2911	.0027
319.2	.3768	.0013
323	.4952	.0036

System: ethyl ethanoate + desmosterol; phases: Liquid, Crystal
Fixed: Pressure, kPa = 101
Property: Amount concentration (molarity), mol/dm3 of desmosterol (Liquid); method: HPLC
Temperature, K	Amount concentration (molarity), mol/dm3 of desmosterol	uncertainty
301.2	.3374	.0031
304.4	.3733	.0033
307.7	.4433	.0041
311.5	.5159	.0007
315.5	.5951	.0051
319.2	.6758	.0058
323	.7871	.0069
327.1	.917	.006
332.8	1.102	.0072

System: acetonitrile + desmosterol; phases: Liquid, Crystal
Fixed: Pressure, kPa = 101
Property: Amount concentration (molarity), mol/dm3 of desmosterol (Liquid); method: HPLC
Temperature, K	Amount concentration (molarity), mol/dm3 of desmosterol	uncertainty
300.8	.01151	.0001
303.8	.01251	.00005
308	.01407	.00011
313.8	.01711	.00001
317.9	.01989	.00003
322.7	.02501	.00017
327.1	.02967	.00014
333.2	.03531	.00034
