Measured thermophysical data. Solubility of Tiamulin Hydrogen Fumarate in Acetone, Acetonitrile, Ethyl  Acetate, Ethyl Formate, and Butyl Acetate from (288.2 to 318.2) K
Source: J. Chem. Eng. Data, 2009, 10.1021/je800838w
Compound 1: tiamulin hydrogen fumarate, C31H50NO8S, purity 99.5%
Compound 2: propanone, C3H6O, purity 99.05%
Compound 3: acetonitrile, C2H3N, purity 99.9%
Compound 4: ethyl ethanoate, C4H8O2, purity 99.9%
Compound 5: ethyl methanoate, C3H6O2, purity 97%
Compound 6: butyl ethanoate, C6H12O2, purity 99%

System: propanone + tiamulin hydrogen fumarate; phases: Liquid, Crystal
Fixed: Pressure, kPa = 101
Property: Amount concentration (molarity), mol/dm3 of tiamulin hydrogen fumarate (Liquid); method: HPLC
Temperature, K	Amount concentration (molarity), mol/dm3 of tiamulin hydrogen fumarate	uncertainty
288.2	.0179	
293.2	.01923	
298.2	.0238	
303.2	.03075	
308.2	.0424	
313.2	.05585	
318.2	.08433	

System: acetonitrile + tiamulin hydrogen fumarate; phases: Liquid, Crystal
Fixed: Pressure, kPa = 101
Property: Amount concentration (molarity), mol/dm3 of tiamulin hydrogen fumarate (Liquid); method: HPLC
Temperature, K	Amount concentration (molarity), mol/dm3 of tiamulin hydrogen fumarate	uncertainty
288.2	.00213	
293.2	.00259	
298.2	.00394	
303.2	.00536	
308.2	.0079	
313.2	.00977	
318.2	.0142	

System: ethyl ethanoate + tiamulin hydrogen fumarate; phases: Liquid, Crystal
Fixed: Pressure, kPa = 101
Property: Amount concentration (molarity), mol/dm3 of tiamulin hydrogen fumarate (Liquid); method: HPLC
Temperature, K	Amount concentration (molarity), mol/dm3 of tiamulin hydrogen fumarate	uncertainty
288.2	.00573	
293.2	.00647	
298.2	.00679	
303.2	.00845	
308.2	.01082	
313.2	.01239	
318.2	.01643	

System: butyl ethanoate + tiamulin hydrogen fumarate; phases: Liquid, Crystal
Fixed: Pressure, kPa = 101
Property: Amount concentration (molarity), mol/dm3 of tiamulin hydrogen fumarate (Liquid); method: HPLC
Temperature, K	Amount concentration (molarity), mol/dm3 of tiamulin hydrogen fumarate	uncertainty
288.2	.00394	
293.2	.00457	
298.2	.0054	
303.2	.00645	
308.2	.00764	
313.2	.0091	
318.2	.01123	

System: ethyl methanoate + tiamulin hydrogen fumarate; phases: Liquid, Crystal
Fixed: Pressure, kPa = 101
Property: Amount concentration (molarity), mol/dm3 of tiamulin hydrogen fumarate (Liquid); method: HPLC
Temperature, K	Amount concentration (molarity), mol/dm3 of tiamulin hydrogen fumarate	uncertainty
288.2	.00561	
293.2	.00712	
298.2	.00846	
303.2	.01004	
308.2	.01256	
313.2	.01559	
318.2	.01972	
