Measured thermophysical data. Temperature Dependence on Mutual Solubility Data of the Binary (Methanol +  r-Pinene or  -Pinene) Systems and Ternary Liquid-Liquid Equilibria for the  (Methanol + Ethanol + r-Pinene or  -Pinene) Systems
Source: J. Chem. Eng. Data, 2008, 10.1021/je800407h
Compound 1: .alpha.-pinene, C10H16, purity 99%
Compound 2: bicyclo[3.1.1]heptane, 6,6-dimethyl-2-methylene-, C10H16, purity 99%
Compound 3: methanol, CH4O, purity 99.7%
Compound 4: ethanol, C2H6O, purity 99.5%

System: .alpha.-pinene; phases: Liquid
Fixed: Pressure, kPa = 101.325
Property: Mass density, kg/m3 (Liquid); method: Vibrating tube method
Temperature, K	Mass density, kg/m3	uncertainty
298.15	853.88	

System: bicyclo[3.1.1]heptane, 6,6-dimethyl-2-methylene-; phases: Liquid
Fixed: Pressure, kPa = 101.325
Property: Mass density, kg/m3 (Liquid); method: Vibrating tube method
Temperature, K	Mass density, kg/m3	uncertainty
298.15	866.84	

System: methanol; phases: Liquid
Fixed: Pressure, kPa = 101.325
Property: Mass density, kg/m3 (Liquid); method: Vibrating tube method
Temperature, K	Mass density, kg/m3	uncertainty
298.15	866.84	

System: ethanol; phases: Liquid
Fixed: Pressure, kPa = 101.325
Property: Mass density, kg/m3 (Liquid); method: Vibrating tube method
Temperature, K	Mass density, kg/m3	uncertainty
298.15	866.84	

System: methanol + .alpha.-pinene; phases: Liquid mixture 1, Liquid mixture 2
Fixed: Pressure, kPa = 101
Property: Mole fraction of methanol (Liquid mixture 1); method: Chromatography
Temperature, K	Mole fraction of methanol	uncertainty
288.15	.9241	.001
293.04	.9179	.001
298.15	.9129	.001
304.93	.9012	.001
308.15	.8912	.001
313.28	.8821	.001
318.17	.8678	.001
323.16	.8403	.001
328.09	.8019	.001

System: methanol + .alpha.-pinene; phases: Liquid mixture 2, Liquid mixture 1
Fixed: Pressure, kPa = 101
Property: Mole fraction of methanol (Liquid mixture 2); method: Chromatography
Temperature, K	Mole fraction of methanol	uncertainty
288.15	.1288	.001
293.04	.1373	.001
298.15	.1574	.001
304.93	.185	.001
308.15	.2177	.001
313.28	.2567	.001
318.17	.2989	.001
323.16	.3486	.001
328.09	.4394	.001

System: methanol + bicyclo[3.1.1]heptane, 6,6-dimethyl-2-methylene-; phases: Liquid mixture 1, Liquid mixture 2
Fixed: Pressure, kPa = 101
Property: Mole fraction of methanol (Liquid mixture 1); method: Chromatography
Temperature, K	Mole fraction of methanol	uncertainty
288.15	.9043	.001
293.22	.8926	.001
298.15	.8893	.001
304.87	.8625	.001
308.15	.8463	.001
313.28	.8169	.001
316.22	.7817	.001
318.03	.7652	.001

System: methanol + bicyclo[3.1.1]heptane, 6,6-dimethyl-2-methylene-; phases: Liquid mixture 2, Liquid mixture 1
Fixed: Pressure, kPa = 101
Property: Mole fraction of methanol (Liquid mixture 2); method: Chromatography
Temperature, K	Mole fraction of methanol	uncertainty
288.15	.1909	.001
293.22	.2085	.001
298.15	.2357	.001
304.87	.2902	.001
308.15	.3254	.001
313.28	.3954	.001
316.22	.4549	.001
318.03	.5176	.001

System: ethanol + methanol + .alpha.-pinene; phases: Liquid mixture 1, Liquid mixture 2
Fixed: Pressure, kPa = 101.325
Property: Mole fraction of ethanol (Liquid mixture 1); method: Chromatography
Property: Mole fraction of methanol (Liquid mixture 2); method: Chromatography
Property: Mole fraction of ethanol (Liquid mixture 2); method: Chromatography
Temperature, K	Mole fraction of methanol	Mole fraction of ethanol	uncertainty	Mole fraction of methanol	uncertainty	Mole fraction of ethanol	uncertainty
288.15	.8023	.0959	.001	.1484	.001	.0207	.001
288.15	.7134	.1528	.001	.185	.001	.0472	.001
288.15	.6125	.208	.001	.2101	.001	.0797	.001
288.15	.5271	.2309	.001	.2632	.001	.124	.001
288.15	.4397	.2469	.001	.3245	.001	.186	.001
298.15	.7944	.0887	.001	.1931	.001	.0271	.001
298.15	.6913	.1409	.001	.2411	.001	.0576	.001
298.15	.6167	.1691	.001	.2834	.001	.0864	.001
298.15	.567	.1865	.001	.3153	.001	.118	.001
308.15	.8526	.0261	.001	.222	.001	.0064	.001
308.15	.8177	.0499	.001	.2466	.001	.016	.001
308.15	.7678	.0776	.001	.2659	.001	.0317	.001
308.15	.7001	.1092	.001	.3469	.001	.0636	.001

System: ethanol + methanol + bicyclo[3.1.1]heptane, 6,6-dimethyl-2-methylene-; phases: Liquid mixture 1, Liquid mixture 2
Fixed: Pressure, kPa = 101.325
Property: Mole fraction of ethanol (Liquid mixture 1); method: Chromatography
Property: Mole fraction of methanol (Liquid mixture 2); method: Chromatography
Property: Mole fraction of ethanol (Liquid mixture 2); method: Chromatography
Temperature, K	Mole fraction of methanol	Mole fraction of ethanol	uncertainty	Mole fraction of methanol	uncertainty	Mole fraction of ethanol	uncertainty
288.15	.8084	.0647	.001	.2141	.001	.0207	.001
288.15	.7232	.1179	.001	.2537	.001	.0469	.001
288.15	.6603	.1512	.001	.2678	.001	.062	.001
288.15	.592	.172	.001	.3208	.001	.0947	.001
298.15	.8162	.0423	.001	.2621	.001	.0155	.001
298.15	.7574	.0813	.001	.2834	.001	.0341	.001
298.15	.6997	.1029	.001	.3228	.001	.0556	.001
298.15	.6349	.1302	.001	.3687	.001	.0731	.001
308.15	.8213	.014	.001	.3339	.001	.0049	.001
308.15	.7884	.0254	.001	.3686	.001	.0171	.001
308.15	.7527	.042	.001	.3974	.001	.0297	.001
308.15	.7418	.0498	.001	.4609	.001	.0347	.001
308.15	.6881	.0562	.001	.5077	.001	.0401	.001
