Measured thermophysical data. Ion Pair and Triple Ion Formation by Some Tetraalkylammonium Iodides in Binary Mixtures of Carbon Tetrachloride + Nitrobenzene
Source: J. Chem. Eng. Data, 2009, 10.1021/je800885h
Compound 1: carbon tetrachloride, CCl4, purity 99%
Compound 2: nitrobenzene, C6H5NO2, purity 99%
Compound 3: tetrabutylammonium iodide, C16H36IN, purity 98.5%
Compound 4: tetrapentylammonium iodide, C20H44IN, purity 98.5%
Compound 5: tetrahexylammonium iodide, C24H52IN, purity 98.5%
Compound 6: tetraheptylammonium iodide, C28H60IN, purity 98.5%

System: carbon tetrachloride; phases: Liquid
Property: Mass density, kg/m3 (Liquid); method: Pycnometric method
Temperature, K	Pressure, kPa	Mass density, kg/m3	uncertainty
298.15	101	1584.3	.3

System: carbon tetrachloride; phases: Liquid
Property: Viscosity, Pa*s (Liquid); method: Capillary tube (Ostwald; Ubbelohde) method
Temperature, K	Pressure, kPa	Viscosity, Pa*s	uncertainty
298.15	101	.000902	.000003

System: nitrobenzene; phases: Liquid
Property: Mass density, kg/m3 (Liquid); method: Pycnometric method
Temperature, K	Pressure, kPa	Mass density, kg/m3	uncertainty
298.15	101	1198.2	.3

System: nitrobenzene; phases: Liquid
Property: Viscosity, Pa*s (Liquid); method: Capillary tube (Ostwald; Ubbelohde) method
Temperature, K	Pressure, kPa	Viscosity, Pa*s	uncertainty
298.15	101	.001686	.000003

System: carbon tetrachloride + nitrobenzene; phases: Liquid
Fixed: Temperature, K = 298.15
Fixed: Pressure, kPa = 101
Property: Mass density, kg/m3 (Liquid); method: Pycnometric method
Mass fraction of carbon tetrachloride	Mass density, kg/m3	uncertainty
0	1198.2	.3
.2	1261.4	.3
.4	1331.4	.3
.6	1406.7	.3
.8	1491	.3
1	1584.3	.3

System: carbon tetrachloride + nitrobenzene; phases: Liquid
Fixed: Temperature, K = 298.15
Fixed: Pressure, kPa = 101
Property: Viscosity, Pa*s (Liquid); method: Capillary tube (Ostwald; Ubbelohde) method
Mass fraction of carbon tetrachloride	Viscosity, Pa*s	uncertainty
0	.001686	.000003
.2	.001613	.000003
.4	.001411	.000003
.6	.001224	.000003
.8	.001099	.000003
1	.000902	.000003

System: carbon tetrachloride + nitrobenzene + tetrabutylammonium iodide; phases: Liquid
Fixed: Temperature, K = 298.15
Fixed: Pressure, kPa = 101
Property: Molar conductivity, S*m2/mol (Liquid); method: dip-type immersion conductivity cell
Mass fraction of carbon tetrachloride	Amount concentration (molarity), mol/dm3 of tetrabutylammonium iodide	Molar conductivity, S*m2/mol	uncertainty
.2	.00083	.00395	.00001185
.2	.00153	.0037	.0000111
.2	.00212	.00358	.00001074
.2	.00262	.003468	.000010404
.2	.00306	.0034	.0000102
.2	.00344	.00335	.00001005
.2	.00378	.00328	.00000984
.2	.00408	.00321	.00000963
.2	.00459	.00317	.00000951
.2	.00501	.00305	.00000915
.2	.00536	.003	.000009
.2	.00578	.00294	.00000882
.2	.00612	.00292	.00000876
.2	.0064	.002859	.000008577
.2	.00663	.002834	.000008502
.2	.00683	.002826	.000008478
.2	.00699	.002801	.000008403
.2	.00714	.0028	.0000084
.2	.00723	.00278	.00000834
.2	.00738	.002776	.000008328
.4	.00044	.00388	.00001164
.4	.00081	.0037	.0000111
.4	.00113	.00358	.00001074
.4	.00139	.003456	.000010368
.4	.00163	.003337	.000010011
.4	.00183	.003283	.000009849
.4	.00201	.00323	.00000969
.4	.00231	.00315	.00000945
.4	.00256	.003043	.000009129
.4	.00276	.003019	.000009057
.4	.00293	.002981	.000008943
.4	.00314	.002932	.000008796
.4	.00331	.002897	.000008691
.4	.00344	.002844	.000008532
.4	.00356	.002836	.000008508
.4	.00369	.002791	.000008373
.4	.00379	.002766	.000008298
.4	.0039	.00274	.00000822
.4	.00399	.002729	.000008187
.4	.00407	.002729	.000008187
.6	.00017	.003641	.000010923
.6	.00025	.003482	.000010446
.6	.00032	.003412	.000010236
.6	.00038	.003294	.000009882
.6	.00044	.003212	.000009636
.6	.00049	.003131	.000009393
.6	.00054	.003094	.000009282
.6	.00059	.003044	.000009132
.6	.00063	.00298	.00000894
.6	.00071	.002921	.000008763
.6	.00078	.00282	.00000846
.6	.00084	.002766	.000008298
.6	.00089	.002718	.000008154
.6	.00095	.002681	.000008043
.6	.00099	.00265	.00000795
.6	.00107	.002586	.000007758
.6	.00114	.002542	.000007626
.6	.00119	.002531	.000007593
.6	.00126	.002462	.000007386
.6	.00132	.002454	.000007362
.8	.00017	.000407	.000001221
.8	.00024	.000357	.000001071
.8	.00031	.000326	.000000978
.8	.00038	.000303	.000000909
.8	.00043	.000293	.000000879
.8	.00049	.000281	.000000843
.8	.00054	.000272	.000000816
.8	.00058	.000259	.000000777
.8	.00063	.000255	.000000765
.8	.0007	.000245	.000000735
.8	.00077	.000233	.000000699
.8	.00084	.000226	.000000678
.8	.00089	.000219	.000000657
.8	.00094	.000215	.000000645
.8	.00102	.000205	.000000615
.8	.00109	.000201	.000000603
.8	.00116	.000194	.000000582
.8	.00121	.00019	.00000057
.8	.00127	.000186	.000000558
.8	.00133	.000182	.000000546

System: carbon tetrachloride + nitrobenzene + tetrapentylammonium iodide; phases: Liquid
Fixed: Temperature, K = 298.15
Fixed: Pressure, kPa = 101
Property: Molar conductivity, S*m2/mol (Liquid); method: dip-type immersion conductivity cell
Mass fraction of carbon tetrachloride	Amount concentration (molarity), mol/dm3 of tetrapentylammonium iodide	Molar conductivity, S*m2/mol	uncertainty
.2	.00083	.00386	.00001158
.2	.00153	.0036	.0000108
.2	.00212	.00349	.00001047
.2	.00262	.00342	.00001026
.2	.00306	.0033	.0000099
.2	.00344	.0033	.0000099
.2	.00378	.00317	.00000951
.2	.00408	.00313	.00000939
.2	.00435	.00306	.00000918
.2	.00481	.00297	.00000891
.2	.00519	.002927	.000008781
.2	.00551	.002866	.000008598
.2	.00578	.002852	.000008556
.2	.00612	.002808	.000008424
.2	.0064	.00278	.00000834
.2	.00663	.002758	.000008274
.2	.00683	.002737	.000008211
.2	.00705	.002723	.000008169
.2	.00723	.002696	.000008088
.2	.00742	.002695	.000008085
.4	.00044	.003689	.000011067
.4	.00063	.0036	.0000108
.4	.00081	.00352	.00001056
.4	.00097	.003456	.000010368
.4	.00112	.0034	.0000102
.4	.00139	.00329	.00000987
.4	.00162	.003234	.000009702
.4	.00182	.003143	.000009429
.4	.002	.00307	.00000921
.4	.00216	.00305	.00000915
.4	.0023	.003014	.000009042
.4	.00243	.002938	.000008814
.4	.00265	.00293	.00000879
.4	.00284	.002906	.000008718
.4	.00299	.002868	.000008604
.4	.00312	.002822	.000008466
.4	.00329	.002794	.000008382
.4	.00343	.002769	.000008307
.4	.00355	.002735	.000008205
.4	.00367	.002694	.000008082
.6	.00017	.00346	.00001038
.6	.00024	.003305	.000009915
.6	.00031	.00325	.00000975
.6	.00038	.00314	.00000942
.6	.00043	.00307	.00000921
.6	.00049	.003	.000009
.6	.00054	.00295	.00000885
.6	.00058	.00291	.00000873
.6	.00063	.00289	.00000867
.6	.00067	.00285	.00000855
.6	.0007	.002796	.000008388
.6	.00077	.00277	.00000831
.6	.00083	.002694	.000008082
.6	.00089	.002663	.000007989
.6	.00094	.002608	.000007824
.6	.00098	.002571	.000007713
.6	.00106	.00254	.00000762
.6	.00113	.00246	.00000738
.6	.00118	.002451	.000007353
.6	.00123	.002429	.000007287
.8	.00017	.000372	.000001116
.8	.00024	.000327	.000000981
.8	.00031	.000296	.000000888
.8	.00038	.000271	.000000813
.8	.00043	.000249	.000000747
.8	.00049	.000236	.000000708
.8	.00054	.000225	.000000675
.8	.00058	.000216	.000000648
.8	.00063	.00021	.00000063
.8	.0007	.0002	.0000006
.8	.00077	.000187	.000000561
.8	.00083	.000182	.000000546
.8	.00089	.000174	.000000522
.8	.00094	.000172	.000000516
.8	.00098	.000168	.000000504
.8	.00106	.000166	.000000498

System: carbon tetrachloride + nitrobenzene + tetrahexylammonium iodide; phases: Liquid
Fixed: Temperature, K = 298.15
Fixed: Pressure, kPa = 101
Property: Molar conductivity, S*m2/mol (Liquid); method: dip-type immersion conductivity cell
Mass fraction of carbon tetrachloride	Amount concentration (molarity), mol/dm3 of tetrahexylammonium iodide	Molar conductivity, S*m2/mol	uncertainty
.2	.00084	.003638	.000010914
.2	.00153	.003466	.000010398
.2	.00212	.003314	.000009942
.2	.00263	.003214	.000009642
.2	.003064	.003166	.000009498
.2	.00345	.00305	.00000915
.2	.00378	.00303	.00000909
.2	.00408	.00298	.00000894
.2	.00435	.00294	.00000882
.2	.0046	.002937	.000008811
.2	.00501	.002892	.000008676
.2	.00519	.002849	.000008547
.2	.00551	.002829	.000008487
.2	.00579	.002782	.000008346
.2	.00602	.002723	.000008169
.2	.00632	.002722	.000008166
.2	.00657	.002711	.000008133
.2	.00671	.002698	.000008094
.2	.00695	.002662	.000007986
.2	.00715	.002644	.000007932
.4	.00044	.00355	.00001065
.4	.00063	.003525	.000010575
.4	.0008	.003418	.000010254
.4	.00097	.003386	.000010158
.4	.00111	.003339	.000010017
.4	.00128	.003247	.000009741
.4	.00138	.00321	.00000963
.4	.00149	.003204	.000009612
.4	.00171	.003123	.000009369
.4	.0019	.003086	.000009258
.4	.00207	.00303	.00000909
.4	.00222	.002975	.000008925
.4	.00235	.002921	.000008763
.4	.00247	.002916	.000008748
.4	.00258	.002877	.000008631
.4	.00277	.002841	.000008523
.4	.00293	.002764	.000008292
.4	.00307	.002773	.000008319
.4	.00319	.002748	.000008244
.4	.00334	.002693	.000008079
.6	.00017	.00333	.00000999
.6	.00024	.003251	.000009753
.6	.00031	.00314	.00000942
.6	.00037	.003048	.000009144
.6	.00043	.00302	.00000906
.6	.00048	.00297	.00000891
.6	.00053	.0029	.0000087
.6	.00058	.00286	.00000858
.6	.00062	.00284	.00000852
.6	.00066	.0028	.0000084
.6	.00074	.002756	.000008268
.6	.00077	.002714	.000008142
.6	.00083	.002671	.000008013
.6	.00089	.00263	.00000789
.6	.00093	.002588	.000007764
.6	.00098	.00258	.00000774
.6	.00106	.002526	.000007578
.6	.00112	.002487	.000007461
.6	.00118	.002446	.000007338
.6	.00122	.002424	.000007272
.8	.00017	.000372	.000001116
.8	.00024	.00032	.00000096
.8	.00031	.000295	.000000885
.8	.00038	.000275	.000000825
.8	.00043	.000261	.000000783
.8	.00049	.00025	.00000075
.8	.00054	.00024	.00000072
.8	.00058	.000231	.000000693
.8	.00063	.000228	.000000684
.8	.0007	.000221	.000000663
.8	.00077	.000213	.000000639
.8	.00084	.000205	.000000615
.8	.00089	.000198	.000000594
.8	.00094	.000195	.000000585
.8	.00102	.000187	.000000561
.8	.00109	.000181	.000000543
.8	.00116	.000177	.000000531
.8	.00121	.000175	.000000525
.8	.00125	.00017	.00000051
.8	.00131	.000166	.000000498

System: carbon tetrachloride + nitrobenzene + tetraheptylammonium iodide; phases: Liquid
Fixed: Temperature, K = 298.15
Fixed: Pressure, kPa = 101
Property: Molar conductivity, S*m2/mol (Liquid); method: dip-type immersion conductivity cell
Mass fraction of carbon tetrachloride	Amount concentration (molarity), mol/dm3 of tetraheptylammonium iodide	Molar conductivity, S*m2/mol	uncertainty
.2	.00083	.00352	.00001056
.2	.00153	.00332	.00000996
.2	.00212	.003233	.000009699
.2	.00262	.003122	.000009366
.2	.00306	.003072	.000009216
.2	.00344	.00302	.00000906
.2	.00378	.002989	.000008967
.2	.00408	.00293	.00000879
.2	.00459	.0029	.0000087
.2	.00501	.00284	.00000852
.2	.00536	.002819	.000008457
.2	.00565	.00277	.00000831
.2	.0059	.002762	.000008286
.2	.00612	.002728	.000008184
.2	.00631	.002725	.000008175
.2	.00656	.0027	.0000081
.2	.00676	.002676	.000008028
.2	.00694	.002651	.000007953
.2	.00709	.002636	.000007908
.2	.00727	.002628	.000007884
.4	.00046	.003461	.000010383
.4	.00066	.003382	.000010146
.4	.00084	.003271	.000009813
.4	.00101	.003231	.000009693
.4	.00116	.003184	.000009552
.4	.00131	.003135	.000009405
.4	.00144	.003091	.000009273
.4	.00157	.003054	.000009162
.4	.00179	.002982	.000008946
.4	.00199	.002966	.000008898
.4	.00216	.002916	.000008748
.4	.00232	.002861	.000008583
.4	.00246	.00286	.00000858
.4	.00259	.002824	.000008472
.4	.0027	.002799	.000008397
.4	.0029	.002754	.000008262
.4	.00307	.002737	.000008211
.4	.00321	.002695	.000008085
.4	.00334	.002681	.000008043
.4	.00345	.00264	.00000792
.6	.00017	.00323	.00000969
.6	.00024	.00316	.00000948
.6	.00031	.00308	.00000924
.6	.00038	.003005	.000009015
.6	.00043	.002973	.000008919
.6	.00049	.002893	.000008679
.6	.00054	.002867	.000008601
.6	.00058	.002811	.000008433
.6	.00063	.0028	.0000084
.6	.00067	.00277	.00000831
.6	.0007	.00272	.00000816
.6	.00077	.002687	.000008061
.6	.00084	.002633	.000007899
.6	.00089	.002594	.000007782
.6	.00094	.002574	.000007722
.6	.00102	.002496	.000007488
.6	.00113	.002402	.000007206
.6	.00118	.002382	.000007146
.6	.00123	.002354	.000007062
.6	.00129	.002329	.000006987
.8	.00017	.000364	.000001092
.8	.00024	.000338	.000001014
.8	.00031	.000309	.000000927
.8	.00038	.00029	.00000087
.8	.00043	.000272	.000000816
.8	.00049	.000263	.000000789
.8	.00054	.000251	.000000753
.8	.00058	.000243	.000000729
.8	.00063	.000236	.000000708
.8	.00067	.000229	.000000687
.8	.0007	.000223	.000000669
.8	.00077	.000217	.000000651
.8	.00084	.000208	.000000624
.8	.00089	.000202	.000000606
.8	.00094	.000197	.000000591
.8	.00098	.000194	.000000582
.8	.00106	.000187	.000000561
.8	.00113	.000182	.000000546
.8	.00118	.000178	.000000534
.8	.00123	.000175	.000000525
