Measured thermophysical data. Solubility of Tobramycin in Methanol, Ethanol,  Dimethyl Sulfoxide, and N,N-Dimethylformamide
Source: J. Chem. Eng. Data, 2009, 10.1021/je800991v
Compound 1: tobramycin, C18H37N5O9, purity 97.5%
Compound 2: methanol, CH4O
Compound 3: ethanol, C2H6O
Compound 4: methyl sulfoxide, C2H6OS
Compound 5: N,N-dimethylformamide, C3H7NO

System: methanol + tobramycin; phases: Liquid, Crystal
Fixed: Pressure, kPa = 101
Property: Mole fraction of tobramycin (Liquid); method: Synthetic Method?
Temperature, K	Mole fraction of tobramycin	uncertainty
288.15	.0001288	
293.15	.0001329	
298.15	.0001888	
303.15	.0002845	
308.15	.0004328	
313.15	.0006349	

System: ethanol + tobramycin; phases: Liquid, Crystal
Fixed: Pressure, kPa = 101
Property: Mole fraction of tobramycin (Liquid); method: Synthetic Method?
Temperature, K	Mole fraction of tobramycin	uncertainty
283.15	.0004358	
288.15	.0005564	
293.15	.0007083	
298.15	.0011444	
303.15	.0019115	
308.15	.0024295	

System: methyl sulfoxide + tobramycin; phases: Liquid, Crystal
Fixed: Pressure, kPa = 101
Property: Mole fraction of tobramycin (Liquid); method: Synthetic Method?
Temperature, K	Mole fraction of tobramycin	uncertainty
294.15	.01245	
298.15	.01403	
303.15	.01804	
308.15	.02361	
313.15	.0282	
318.15	.03513	

System: N,N-dimethylformamide + tobramycin; phases: Liquid, Crystal
Fixed: Pressure, kPa = 101
Property: Mole fraction of tobramycin (Liquid); method: Synthetic Method?
Temperature, K	Mole fraction of tobramycin	uncertainty
293.15	.0001443	
298.15	.000181	
303.15	.0002495	
308.15	.0003935	
313.15	.0006625	
318.15	.0009418	
