Measured thermophysical data. Temperature and Composition Dependence of the Density and Viscosity of Binary Mixtures of {1-Butyl-3-methylimidazolium Thiocyanate + 1-Alcohols}
Source: J. Chem. Eng. Data, 2009, 10.1021/je8008254
Compound 1: 1-butyl-3-methylimidazolium thiocyanate, C9H15N3S, purity 98%
Compound 2: methanol, CH4O
Compound 3: ethanol, C2H6O
Compound 4: 1-propanol, C3H8O

System: 1-butyl-3-methylimidazolium thiocyanate; phases: Glass, Liquid, Air at 1 atmosphere
Property: Triple point temperature, K (Glass); method: DSC/DTA
Triple point temperature, K	uncertainty
181.6	3.632

System: 1-butyl-3-methylimidazolium thiocyanate; phases: Liquid
Property: Mass density, kg/m3 (Liquid); method: Vibrating tube method
Temperature, K	Pressure, kPa	Mass density, kg/m3	uncertainty
298.15	101	1069.79	.1
308.15	101	1063.89	.1
318.15	101	1058.02	.1
328.15	101	1052.19	.1
348.15	101	1040.7	.1
338.15	101	1046.43	.1

System: 1-butyl-3-methylimidazolium thiocyanate; phases: Liquid
Property: Viscosity, Pa*s (Liquid); method: Capillary tube (Ostwald; Ubbelohde) method
Temperature, K	Pressure, kPa	Viscosity, Pa*s	uncertainty
298.15	101	.0517	
308.15	101	.0349	
318.15	101	.0242	
328.15	101	.0167	
338.15	101	.01273	
348.15	101	.00998	
338.15	101	.0127	

System: methanol; phases: Liquid
Property: Mass density, kg/m3 (Liquid); method: Vibrating tube method
Temperature, K	Pressure, kPa	Mass density, kg/m3	uncertainty
298.15	101	786.64	.1
308.15	101	777.15	.1
318.15	101	767.59	.1
328.15	101	757.83	.1

System: methanol; phases: Liquid
Property: Viscosity, Pa*s (Liquid); method: Capillary tube (Ostwald; Ubbelohde) method
Temperature, K	Pressure, kPa	Viscosity, Pa*s	uncertainty
298.15	101	.000577	
308.15	101	.000525	
318.15	101	.000481	
328.15	101	.000443	

System: ethanol; phases: Liquid
Property: Mass density, kg/m3 (Liquid); method: Vibrating tube method
Temperature, K	Pressure, kPa	Mass density, kg/m3	uncertainty
298.15	101	785.17	.1
308.15	101	776.49	.1
318.15	101	767.67	.1
328.15	101	758.65	.1
338.15	101	749.35	.1
348.15	101	739.75	.1

System: ethanol; phases: Liquid
Property: Viscosity, Pa*s (Liquid); method: Capillary tube (Ostwald; Ubbelohde) method
Temperature, K	Pressure, kPa	Viscosity, Pa*s	uncertainty
298.15	101	.00109	
308.15	101	.000912	
318.15	101	.000774	
328.15	101	.000664	
338.15	101	.000589	
348.15	101	.000512	

System: 1-propanol; phases: Liquid
Property: Mass density, kg/m3 (Liquid); method: Vibrating tube method
Temperature, K	Pressure, kPa	Mass density, kg/m3	uncertainty
298.15	101	799.52	.1
308.15	101	791.41	.1
318.15	101	783.15	.1
328.15	101	774.66	.1
338.15	101	765.91	.1
348.15	101	756.84	.1

System: 1-propanol; phases: Liquid
Property: Viscosity, Pa*s (Liquid); method: Capillary tube (Ostwald; Ubbelohde) method
Temperature, K	Pressure, kPa	Viscosity, Pa*s	uncertainty
298.15	101	.00194	
308.15	101	.00154	
318.15	101	.00124	
328.15	101	.00102	
338.15	101	.000842	
348.15	101	.00071	

System: methanol + 1-butyl-3-methylimidazolium thiocyanate; phases: Liquid
Fixed: Pressure, kPa = 101
Property: Mass density, kg/m3 (Liquid); method: Vibrating tube method
Temperature, K	Mole fraction of 1-butyl-3-methylimidazolium thiocyanate	Mass density, kg/m3	uncertainty
298.15	1	1069.79	.1
298.15	.9046	1064.23	.1
298.15	.8006	1057.46	.1
298.15	.7114	1050.29	.1
298.15	.6227	1041.88	.1
298.15	.5083	1028.1	.1
298.15	.3602	1001.45	.1
298.15	.2076	954.94	.1
298.15	.1443	924.63	.1
298.15	.0964	892.65	.1
298.15	.0531	854.66	.1
298.15	.0154	810	.1
298.15	0	786.64	.1
308.15	1	1063.89	.1
308.15	.9046	1058.22	.1
308.15	.8006	1051.39	.1
308.15	.7114	1044.13	.1
308.15	.6227	1035.64	.1
308.15	.5083	1021.68	.1
308.15	.3602	994.74	.1
308.15	.2076	947.69	.1
308.15	.1443	917.04	.1
308.15	.0964	884.64	.1
308.15	.0531	846.16	.1
308.15	.0154	800.87	.1
308.15	0	777.15	.1
318.15	1	1058.02	.1
318.15	.9046	1052.27	.1
318.15	.8006	1045.36	.1
318.15	.7114	1038.01	.1
318.15	.6227	1029.43	.1
318.15	.5083	1015.3	.1
318.15	.3602	988.06	.1
318.15	.2076	940.47	.1
318.15	.1443	909.43	.1
318.15	.0964	876.63	.1
318.15	.0531	837.63	.1
318.15	.0154	791.7	.1
318.15	0	767.59	.1
328.15	1	1052.19	.1
328.15	.9046	1046.37	.1
328.15	.8006	1039.38	.1
328.15	.7114	1031.94	.1
328.15	.6227	1023.26	.1
328.15	.5083	1008.99	.1
328.15	.3602	981.43	.1
328.15	.2076	933.23	.1
328.15	.1443	901.81	.1
328.15	.0964	868.59	.1
328.15	.0531	829.05	.1
328.15	.0154	782.41	.1
328.15	0	757.83	.1

System: methanol + 1-butyl-3-methylimidazolium thiocyanate; phases: Liquid
Fixed: Pressure, kPa = 101
Property: Viscosity, Pa*s (Liquid); method: Capillary tube (Ostwald; Ubbelohde) method
Temperature, K	Mole fraction of 1-butyl-3-methylimidazolium thiocyanate	Viscosity, Pa*s	uncertainty
298.15	1	.0517	
298.15	.9046	.0341	
298.15	.8006	.0254	
298.15	.7114	.0194	
298.15	.6227	.0145	
298.15	.5083	.00975	
298.15	.3602	.00515	
298.15	.2076	.00234	
298.15	.1443	.00162	
298.15	.0964	.00118	
298.15	.0531	.000871	
298.15	.0154	.000665	
298.15	0	.000577	
308.15	1	.0349	
308.15	.9046	.0233	
308.15	.8006	.018	
308.15	.7114	.0141	
308.15	.6227	.0108	
308.15	.5083	.00755	
308.15	.3602	.00413	
308.15	.2076	.00196	
308.15	.1443	.00139	
308.15	.0964	.00102	
308.15	.0531	.000765	
308.15	.0154	.000593	
308.15	0	.000525	
318.15	1	.0242	
318.15	.9046	.0169	
318.15	.8006	.0134	
318.15	.7114	.0107	
318.15	.6227	.0084	
318.15	.5083	.00603	
318.15	.3602	.00333	
318.15	.2076	.00167	
318.15	.1443	.0012	
318.15	.0964	.000892	
318.15	.0531	.000681	
318.15	.0154	.000536	
318.15	0	.000481	
328.15	1	.0167	
328.15	.9046	.01278	
328.15	.8006	.01032	
328.15	.7114	.0084	
328.15	.6227	.00668	
328.15	.5083	.00485	
328.15	.3602	.00282	
328.15	.2076	.00145	
328.15	.1443	.00106	
328.15	.0964	.000792	
328.15	.0531	.000613	
328.15	.0154	.00049	
328.15	0	.000443	

System: ethanol + 1-butyl-3-methylimidazolium thiocyanate; phases: Liquid
Fixed: Pressure, kPa = 101
Property: Mass density, kg/m3 (Liquid); method: Vibrating tube method
Temperature, K	Mole fraction of 1-butyl-3-methylimidazolium thiocyanate	Mass density, kg/m3	uncertainty
298.15	0	785.17	.1
308.15	0	776.49	.1
318.15	0	767.67	.1
328.15	0	758.65	.1
338.15	0	749.35	.1
348.15	0	739.75	.1
298.15	.0473	829.74	.1
308.15	.0473	821.61	.1
318.15	.0473	813.39	.1
328.15	.0473	805.05	.1
338.15	.0473	796.53	.1
348.15	.0473	787.85	.1
308.15	.1129	868.74	.1
318.15	.1129	861.06	.1
298.15	.1129	876.41	.1
328.15	.1129	853.27	.1
338.15	.1129	845.44	.1
348.15	.1129	837.47	.1
308.15	.1877	909.46	.1
298.15	.1877	916.69	.1
318.15	.1877	902.2	.1
328.15	.1877	894.91	.1
338.15	.1877	887.57	.1
348.15	.1877	880.22	.1
318.15	.2943	943.72	.1
328.15	.2943	936.87	.1
298.15	.2943	957.41	.1
338.15	.2943	930.03	.1
348.15	.2943	923.18	.1
308.15	.2943	950.56	.1
328.15	.3637	958.11	.1
338.15	.3637	951.47	.1
318.15	.3637	964.72	.1
308.15	.3637	971.37	.1
348.15	.3637	944.88	.1
298.15	.3637	978.05	.1
328.15	.5306	995.61	.1
308.15	.5306	1008.22	.1
318.15	.5306	1001.9	.1
338.15	.5306	989.36	.1
298.15	.5306	1014.59	.1
348.15	.5306	983.14	.1
298.15	.696	1039.72	.1
338.15	.696	1015.36	.1
318.15	.696	1027.47	.1
308.15	.696	1033.57	.1
348.15	.696	1009.4	.1
328.15	.696	1021.4	.1
298.15	.8114	1052.9	.1
348.15	.8114	1023.05	.1
338.15	.8114	1028.95	.1
308.15	.8114	1046.84	.1
318.15	.8114	1040.84	.1
328.15	.8114	1034.86	.1
298.15	.9174	1062.78	.1
348.15	.9174	1033.34	.1
338.15	.9174	1039.15	.1
328.15	.9174	1044.99	.1
318.15	.9174	1050.88	.1
308.15	.9174	1056.82	.1
348.15	1	1040.7	.1
328.15	1	1052.19	.1
338.15	1	1046.43	.1
308.15	1	1063.89	.1
298.15	1	1069.79	.1

System: ethanol + 1-butyl-3-methylimidazolium thiocyanate; phases: Liquid
Fixed: Pressure, kPa = 101
Property: Viscosity, Pa*s (Liquid); method: Capillary tube (Ostwald; Ubbelohde) method
Temperature, K	Mole fraction of 1-butyl-3-methylimidazolium thiocyanate	Viscosity, Pa*s	uncertainty
298.15	1	.0517	
298.15	.9174	.0362	
298.15	.8114	.0274	
298.15	.696	.0197	
298.15	.5306	.0117	
298.15	.3637	.00636	
298.15	.2943	.0047	
298.15	.1877	.00295	
298.15	.1129	.00207	
298.15	.0473	.00148	
298.15	0	.00109	
308.15	1	.0349	
308.15	.9174	.0247	
308.15	.8114	.0192	
308.15	.696	.0143	
308.15	.5306	.00889	
308.15	.3637	.00495	
308.15	.2943	.00377	
308.15	.1877	.00241	
308.15	.1129	.00171	
308.15	.0473	.00123	
308.15	0	.000912	
318.15	1	.0242	
318.15	.9174	.0178	
318.15	.8114	.0142	
318.15	.696	.0109	
318.15	.5306	.007	
318.15	.3637	.00394	
318.15	.2943	.0031	
318.15	.1877	.00201	
318.15	.1129	.00144	
318.15	.0473	.00105	
318.15	0	.000774	
328.15	1	.0167	
328.15	.9174	.0134	
328.15	.8114	.0109	
328.15	.696	.00854	
328.15	.5306	.00597	
328.15	.3637	.00324	
328.15	.2943	.00259	
328.15	.1877	.00171	
328.15	.1129	.00123	
328.15	.0473	.000896	
328.15	0	.000664	
338.15	1	.01273	
338.15	.9174	.0105	
338.15	.8114	.00864	
338.15	.696	.00684	
338.15	.5306	.00456	
338.15	.3637	.00275	
338.15	.2943	.0022	
338.15	.1877	.00147	
338.15	.1129	.00106	
338.15	.0473	.00078	
338.15	0	.000589	
348.15	1	.00998	
348.15	.9174	.00839	
348.15	.8114	.00701	
348.15	.696	.00558	
348.15	.5306	.0038	
348.15	.2943	.0019	
348.15	.1877	.00128	
348.15	.1129	.000926	
348.15	0	.000512	

System: 1-propanol + 1-butyl-3-methylimidazolium thiocyanate; phases: Liquid
Fixed: Pressure, kPa = 101
Property: Mass density, kg/m3 (Liquid); method: Vibrating tube method
Temperature, K	Mole fraction of 1-butyl-3-methylimidazolium thiocyanate	Mass density, kg/m3	uncertainty
298.15	1	1069.79	.1
298.15	.9342	1062.97	.1
298.15	.805	1048.14	.1
298.15	.6791	1030.55	.1
298.15	.5868	1015.47	.1
298.15	.4577	988.94	.1
298.15	.3429	959.02	.1
298.15	.2538	930.41	.1
298.15	.1849	903.16	.1
298.15	.0833	854.16	.1
298.15	.0267	819.06	.1
298.15	0	799.52	.1
308.15	1	1063.89	.1
308.15	.9342	1057.02	.1
308.15	.805	1042.09	.1
308.15	.6791	1024.39	.1
308.15	.5868	1009.21	.1
308.15	.4577	982.5	.1
308.15	.3429	952.34	.1
308.15	.2538	923.49	.1
308.15	.1849	895.99	.1
308.15	.0833	846.63	.1
308.15	.0267	811.18	.1
308.15	0	791.41	.1
318.15	1	1058.02	.1
318.15	.9342	1051.09	.1
318.15	.805	1036.08	.1
318.15	.6791	1018.27	.1
318.15	.5868	1003.01	.1
318.15	.4577	976.07	.1
318.15	.3429	945.66	.1
318.15	.2538	916.58	.1
318.15	.1849	888.81	.1
318.15	.0833	839	.1
318.15	.0267	803.18	.1
318.15	0	783.15	.1
328.15	1	1052.19	.1
328.15	.9342	1045.22	.1
328.15	.805	1030.11	.1
328.15	.6791	1012.18	.1
328.15	.5868	996.84	.1
328.15	.4577	969.67	.1
328.15	.3429	939	.1
328.15	.2538	909.63	.1
328.15	.1849	881.57	.1
328.15	.0833	831.26	.1
328.15	.0267	795	.1
328.15	0	774.66	.1
338.15	1	1046.43	.1
338.15	.9342	1039.4	.1
338.15	.805	1024.2	.1
338.15	.6791	1006.14	.1
338.15	.5868	990.7	.1
338.15	.4577	963.3	.1
338.15	.3429	932.34	.1
338.15	.2538	902.7	.1
338.15	.1849	874.27	.1
338.15	.0833	823.39	.1
338.15	.0267	786.6	.1
338.15	0	765.91	.1
348.15	1	1040.7	.1
348.15	.9342	1033.61	.1
348.15	.805	1018.32	.1
348.15	.6791	1000.13	.1
348.15	.5868	984.6	.1
348.15	.4577	956.97	.1
348.15	.3429	925.71	.1
348.15	.2538	895.73	.1
348.15	.1849	866.94	.1
348.15	.0833	815.39	.1
348.15	.0267	777.98	.1
348.15	0	756.84	.1

System: 1-propanol + 1-butyl-3-methylimidazolium thiocyanate; phases: Liquid
Fixed: Pressure, kPa = 101
Property: Viscosity, Pa*s (Liquid); method: Capillary tube (Ostwald; Ubbelohde) method
Temperature, K	Mole fraction of 1-butyl-3-methylimidazolium thiocyanate	Viscosity, Pa*s	uncertainty
298.15	1	.0517	
298.15	.9342	.0386	
298.15	.805	.0258	
298.15	.6791	.0205	
298.15	.5868	.0167	
298.15	.4577	.0109	
298.15	.3429	.00742	
298.15	.2538	.00534	
298.15	.1849	.00427	
298.15	.0833	.00287	
298.15	.0267	.00226	
298.15	0	.00194	
308.15	1	.0349	
308.15	.9342	.0262	
308.15	.805	.0181	
308.15	.6791	.0148	
308.15	.5868	.0123	
308.15	.4577	.00822	
308.15	.3429	.00571	
308.15	.2538	.00421	
308.15	.1849	.00339	
308.15	.0833	.0023	
308.15	.0267	.0018	
308.15	0	.00154	
318.15	1	.0242	
318.15	.9342	.0187	
318.15	.805	.0134	
318.15	.6791	.0112	
318.15	.5868	.00937	
318.15	.4577	.00643	
318.15	.3429	.00449	
318.15	.2538	.0034	
318.15	.1849	.00275	
318.15	.0833	.00187	
318.15	.0267	.00146	
318.15	0	.00124	
328.15	1	.0167	
328.15	.9342	.014	
328.15	.805	.0104	
328.15	.6791	.0087	
328.15	.5868	.0073	
328.15	.4577	.0051	
328.15	.3429	.0036	
328.15	.2538	.0028	
328.15	.1849	.00227	
328.15	.0833	.00155	
328.15	.0267	.0012	
328.15	0	.00102	
338.15	1	.0127	
338.15	.9342	.0109	
338.15	.805	.00819	
338.15	.6791	.00697	
338.15	.5868	.00589	
338.15	.4577	.00418	
338.15	.3429	.00301	
338.15	.2538	.00235	
338.15	.1849	.0019	
338.15	.0833	.0013	
338.15	.0267	.001	
338.15	0	.000842	
348.15	1	.00998	
348.15	.9342	.00869	
348.15	.805	.00662	
348.15	.6791	.00564	
348.15	.5868	.00481	
348.15	.4577	.00346	
348.15	.3429	.00256	
348.15	.2538	.002	
348.15	.1849	.00162	
348.15	.0833	.0011	
348.15	.0267	.000848	
348.15	0	.00071	
