Measured thermophysical data. Solubility of 3-Aminopyridine in Acetone + n-Butyl Acetate from (288.15 to  323.15) K
Source: J. Chem. Eng. Data, 2009, 10.1021/je800945e
Compound 1: 3-pyridinamine, C5H6N2
Compound 2: propanone, C3H6O
Compound 3: butyl ethanoate, C6H12O2

System: 3-pyridinamine; phases: Crystal, Liquid, Air at 1 atmosphere
Property: Normal melting temperature, K (Crystal); method: Visual observation
Normal melting temperature, K	uncertainty
337.65	

System: propanone + butyl ethanoate + 3-pyridinamine; phases: Liquid, Crystal
Fixed: Pressure, kPa = 101
Property: Mole fraction of 3-pyridinamine (Liquid); method: static analytical method
Solvent: Mass fraction of propanone	Temperature, K	Mole fraction of 3-pyridinamine	uncertainty
0	288.15	.1548	.003096
0	293.15	.1937	.003874
0	298.15	.2436	.004872
0	303.15	.3048	.006096
0	308.15	.3798	.007596
0	313.15	.4677	.009354
0	318.15	.5648	.011296
0	323.15	.6684	.013368
.2	288.15	.2088	.004176
.2	293.15	.2501	.005002
.2	298.15	.2993	.005986
.2	303.15	.3575	.00715
.2	308.15	.4265	.00853
.2	313.15	.5046	.010092
.2	318.15	.593	.01186
.2	323.15	.6898	.013796
.4	288.15	.2811	.005622
.4	293.15	.3282	.006564
.4	298.15	.3838	.007676
.4	303.15	.4467	.008934
.4	308.15	.5173	.010346
.4	313.15	.5942	.011884
.4	318.15	.6763	.013526
.4	323.15	.7588	.015176
.6	288.15	.3252	.006504
.6	293.15	.3755	.00751
.6	298.15	.4305	.00861
.6	303.15	.4909	.009818
.6	308.15	.5551	.011102
.6	313.15	.6244	.012488
.6	318.15	.6975	.01395
.6	323.15	.7735	.01547
.8	288.15	.3636	.007272
.8	293.15	.4112	.008224
.8	298.15	.4629	.009258
.8	303.15	.5192	.010384
.8	308.15	.5792	.011584
.8	313.15	.6461	.012922
.8	318.15	.717	.01434
.8	323.15	.7935	.01587
1	288.15	.4325	.00865
1	293.15	.4806	.009612
1	298.15	.5375	.01075
1	303.15	.591	.01182
1	308.15	.6499	.012998
1	313.15	.7115	.01423
1	318.15	.7704	.015408
1	323.15	.8349	.016698
