Measured thermophysical data. Solubility of Tobramycin in Binary Water-Ethanol Solvent
Source: J. Chem. Eng. Data, 2008, 10.1021/je800309t
Compound 1: tobramycin, C18H37N5O9, purity 97.5%
Compound 2: ethanol, C2H6O
Compound 3: water, H2O

System: ethanol + water + tobramycin; phases: Liquid, Crystal
Fixed: Pressure, kPa = 101
Property: Mole fraction of tobramycin (Liquid); method: Chromatography
Temperature, K	Solvent: Mole fraction of water	Mole fraction of tobramycin	uncertainty
288.2	.1601	.00009109	.0000018218
288.2	.3202	.00069955	.000013991
288.2	.48	.00285495	.000057099
288.2	.6399	.00854077	.0001708154
288.2	.7998	.01875936	.0003751872
296.2	.1601	.00012	.0000024
296.2	.3202	.00078346	.0000156692
296.2	.48	.0028788	.000057576
296.2	.6399	.00939686	.0001879372
296.2	.7998	.02096041	.0004192082
304.2	.1601	.00015187	.0000030374
304.2	.3202	.00108096	.0000216192
304.2	.48	.00340757	.0000681514
304.2	.6399	.01168394	.0002336788
304.2	.7998	.02408791	.0004817582
312.2	.1601	.0001724	.000003448
312.2	.3202	.00123287	.0000246574
312.2	.48	.00502377	.0001004754
312.2	.6399	.01540804	.0003081608
312.2	.7998	.02979806	.0005959612
320.2	.1601	.0002043	.000004086
320.2	.3202	.00160227	.0000320454
320.2	.48	.0065838	.000131676
320.2	.6399	.01790186	.0003580372
320.2	.7998	.03467695	.000693539
328.2	.1601	.0002431	.000004862
328.2	.3202	.00201789	.0000403578
328.2	.48	.009062777	.00018125554
328.2	.6399	.02188315	.000437663
328.2	.7998	.04081464	.0008162928
