Measured thermophysical data. Phase Behavior for the Carbon Dioxide + 2-Butanol System: Experimental  Measurements and Modeling with Cubic Equations of State
Source: J. Chem. Eng. Data, 2009, 10.1021/je800799n
Compound 1: carbon dioxide, CO2, purity 99.7%
Compound 2: 2-butanol, dl-, C4H10O, purity 99.8%

System: 2-butanol, dl- + carbon dioxide; phases: Liquid, Gas
Property: Vapor or sublimation pressure, kPa (Liquid); method: Closed cell (Static) method
Mole fraction of carbon dioxide	Temperature, K	Vapor or sublimation pressure, kPa	uncertainty
.0412	298.15	740	
.1021	298.15	1620	
.1942	298.15	2660	
.3121	298.15	3730	
.4269	298.15	4680	
.4857	298.15	5040	
.5965	298.15	5510	
.6572	298.15	5650	
.7171	298.15	5790	
.8724	298.15	6010	
.9641	298.15	6280	
.0245	303.15	500	
.0546	303.15	1030	
.1269	303.15	2050	
.2282	303.15	3190	
.2775	303.15	3740	
.3384	303.15	4280	
.4465	303.15	5040	
.5367	303.15	5460	
.6753	303.15	5930	
.7847	303.15	6110	
.9175	303.15	6530	
.9468	303.15	6730	
.0238	308.15	480	
.0587	308.15	1120	
.1266	308.15	2140	
.1989	308.15	3000	
.2883	308.15	3960	
.4279	308.15	5340	
.5398	308.15	6180	
.6219	308.15	6590	
.6885	308.15	6830	
.7249	308.15	6900	
.7297	308.15	6910	
.7973	308.15	7020	
.8011	308.15	7060	
.8183	308.15	7110	
.8485	308.15	7250	
.0238	313.15	460	
.048	313.15	840	
.0941	313.15	1580	
.1506	313.15	2480	
.1928	313.15	3110	
.2081	313.15	3320	
.2866	313.15	4260	
.4151	313.15	5510	
.4425	313.15	5740	
.5097	313.15	6270	
.5263	313.15	6340	
.6052	313.15	6710	
.6904	313.15	7040	
.7498	313.15	7220	
.8048	313.15	7420	
.8396	313.15	7510	
.9007	313.15	7740	
.9605	313.15	8150	
.0543	318.15	1050	
.0847	318.15	1610	
.1445	318.15	2610	
.2234	318.15	3760	
.3295	318.15	4920	
.4355	318.15	6040	
.5152	318.15	6690	
.6082	318.15	7380	
.7643	318.15	8110	
.7792	318.15	8150	

System: 2-butanol, dl- + carbon dioxide; phases: Gas, Liquid
Property: Mole fraction of carbon dioxide (Gas); method: gravimetric
Mole fraction of carbon dioxide	Temperature, K	Mole fraction of carbon dioxide	uncertainty
.0412	298.15	.9962	.001
.1021	298.15	.9975	.001
.1942	298.15	.9979	.001
.3121	298.15	.9986	.001
.4269	298.15	.9982	.001
.4857	298.15	.998	.001
.5965	298.15	.9977	.001
.6572	298.15	.9975	.001
.7171	298.15	.9978	.001
.8724	298.15	.9982	.001
.9641	298.15	.9988	.001
.0245	303.15	.9941	.001
.0546	303.15	.9963	.001
.1269	303.15	.9974	.001
.2282	303.15	.9977	.001
.2775	303.15	.9977	.001
.3384	303.15	.9976	.001
.4465	303.15	.997	.001
.5367	303.15	.9967	.001
.6753	303.15	.9964	.001
.7847	303.15	.9965	.001
.9175	303.15	.9971	.001
.9468	303.15	.9979	.001
.0238	308.15	.9938	.001
.0587	308.15	.9946	.001
.1266	308.15	.9965	.001
.1989	308.15	.9973	.001
.2883	308.15	.9972	.001
.4279	308.15	.9964	.001
.5398	308.15	.9956	.001
.6219	308.15	.995	.001
.6885	308.15	.9947	.001
.7249	308.15	.9945	.001
.7297	308.15	.9945	.001
.7973	308.15	.9943	.001
.8011	308.15	.9943	.001
.8183	308.15	.9941	.001
.8485	308.15	.9938	.001
.0238	313.15	.992	.001
.048	313.15	.9934	.001
.0941	313.15	.9948	.001
.1506	313.15	.9962	.001
.1928	313.15	.9961	.001
.2081	313.15	.9962	.001
.2866	313.15	.9962	.001
.4151	313.15	.9956	.001
.4425	313.15	.9954	.001
.5097	313.15	.9945	.001
.5263	313.15	.9942	.001
.6052	313.15	.9934	.001
.6904	313.15	.9929	.001
.7498	313.15	.9926	.001
.8048	313.15	.9921	.001
.8396	313.15	.9914	.001
.9007	313.15	.99	.001
.9605	313.15	.985	.001
.0543	318.15	.9912	.001
.0847	318.15	.9924	.001
.1445	318.15	.994	.001
.2234	318.15	.9944	.001
.3295	318.15	.9939	.001
.4355	318.15	.9933	.001
.5152	318.15	.9919	.001
.6082	318.15	.9904	.001
.7643	318.15	.9894	.001
.7792	318.15	.9894	.001
