Measured thermophysical data. Unusual S-Shaped Binodal Curves of the System Water + Lithium Chloride +  2-Methyl-2-propanol
Source: J. Chem. Eng. Data, 2008, 10.1021/je800588p
Compound 1: water, H2O
Compound 2: lithium chloride, ClLi
Compound 3: 2-methyl-2-propanol, C4H10O

System: 2-methyl-2-propanol + lithium chloride + water; phases: Liquid, Crystal
Fixed: Temperature, K = 298.15
Fixed: Pressure, kPa = 101
Property: Mass fraction of lithium chloride (Liquid); method: Chromatography
Mass fraction of 2-methyl-2-propanol	Mass fraction of lithium chloride	uncertainty
.0156	.984	.00984
.0203	.958	.00958
.0453	.91	.0091
.061	.877	.00877
.072	.844	.00844
.0792	.818	.00818
.094	.784	.00784

System: 2-methyl-2-propanol + lithium chloride + water; phases: Liquid, Crystal
Fixed: Temperature, K = 298.15
Fixed: Pressure, kPa = 101
Property: Mass fraction of lithium chloride (Liquid); method: Chromatography
Mass fraction of 2-methyl-2-propanol	Mass fraction of lithium chloride	uncertainty
.458	0	0

System: 2-methyl-2-propanol + lithium chloride + water; phases: Liquid mixture 1, Liquid mixture 2
Fixed: Pressure, kPa = 101
Property: Mass fraction of 2-methyl-2-propanol (Liquid mixture 1); method: Chromatography
Property: Mass fraction of 2-methyl-2-propanol (Liquid mixture 2); method: Chromatography
Property: Mass fraction of lithium chloride (Liquid mixture 2); method: Chromatography
Temperature, K	Mass fraction of lithium chloride	Mass fraction of 2-methyl-2-propanol	uncertainty	Mass fraction of 2-methyl-2-propanol	uncertainty	Mass fraction of lithium chloride	uncertainty
25	.345	.0184	.000184	.707	.00707	.113	.00113
25	.326	.0264	.000264	.695	.00695	.107	.00107
25	.3	.0341	.000341	.704	.00704	.0902	.000902
25	.271	.0426	.000426	.747	.00747	.069	.00069
25	.244	.0517	.000517	.783	.00783	.0492	.000492
25	.217	.059	.00059	.805	.00805	.0345	.000345
25	.185	.0745	.000745	.812	.00812	.025	.00025
25	.154	.0925	.000925	.787	.00787	.0225	.000225
25	.124	.116	.00116	.744	.00744	.021	.00021
25	.0895	.172	.00172	.644	.00644	.0232	.000232
40	.416	.0097	.000097	.765	.00765	.119	.00119
40	.37	.0141	.000141	.752	.00752	.109	.00109
40	.323	.023	.00023	.76	.0076	.0836	.000836
40	.297	.0287	.000287	.789	.00789	.0655	.000655
40	.279	.0351	.000351	.833	.00833	.0361	.000361
40	.246	.04	.0004	.842	.00842	.0324	.000324
40	.214	.0491	.000491	.863	.00863	.0233	.000233
40	.191	.0564	.000564	.836	.00836	.0183	.000183
40	.167	.0663	.000663	.82	.0082	.0147	.000147
40	.127	.086	.00086	.79	.0079	.0136	.000136
40	.0942	.111	.00111	.754	.00754	.0133	.000133
40	.0564	.187	.00187	.595	.00595	.0171	.000171
