Measured thermophysical data. Volumetric and Viscometric Studies of Some Metal Acetates in Aqueous Solutions  at T ) (288.15 to 318.15) K
Source: J. Chem. Eng. Data, 2008, 10.1021/je800326n
Compound 1: lithium acetate, C2H3LiO2
Compound 2: acetic acid, sodium salt, C2H3NaO2
Compound 3: magnesium acetate, C2H4Mg0.5O2
Compound 4: calcium acetate, C4H8CaO4
Compound 5: acetic acid, potassium salt, C2H3KO2
Compound 6: water, H2O, purity 99.9%

System: lithium acetate + water; phases: Liquid
Fixed: Pressure, kPa = 101.3
Property: Mass density, kg/m3 (Liquid); method: Vibrating tube method
Temperature, K	Molality, mol/kg of lithium acetate	Mass density, kg/m3	uncertainty
288.15	.09432	1002.659	.003
288.15	.17429	1005.618	.003
288.15	.19005	1006.181	.003
288.15	.27939	1009.429	.003
288.15	.33169	1011.283	.003
288.15	.38826	1013.267	.003
288.15	.43693	1014.96	.003
288.15	.49131	1016.864	.003
288.15	.75367	1025.828	.003
298.15	.03696	998.437	.003
298.15	.0594	999.272	.003
298.15	.09149	1000.457	.003
298.15	.15642	1002.843	.003
298.15	.18195	1003.767	.003
298.15	.20995	1004.778	.003
298.15	.30313	1008.132	.003
298.15	.30386	1008.152	.003
308.15	.06615	996.502	.003
308.15	.10635	997.96	.003
308.15	.13989	999.184	.003
308.15	.18388	1000.776	.003
308.15	.28213	1004.275	.003
308.15	.31253	1005.323	.003
308.15	.35446	1006.787	.003
308.15	.38337	1007.809	.003
308.15	.52436	1012.616	.003
308.15	.57492	1014.321	.003
308.15	.66152	1017.193	.003
318.15	.06623	992.771	.003
318.15	.12654	994.925	.003
318.15	.20639	997.815	.003
318.15	.35432	1003.044	.003
318.15	.41347	1005.093	.003
318.15	.52336	1008.839	.003
318.15	.65429	1013.232	.003

System: lithium acetate + water; phases: Liquid
Fixed: Pressure, kPa = 101.3
Property: Viscosity, Pa*s (Liquid); method: Capillary tube (Ostwald; Ubbelohde) method
Temperature, K	Amount concentration (molarity), mol/dm3 of lithium acetate	Viscosity, Pa*s	uncertainty
288.15	.05042	1.0229	.001
288.15	.09317	1.0411	.001
288.15	.18568	1.0817	.001
288.15	.29267	1.1307	.001
288.15	.60301	1.2857	.001
298.15	.05032	1.0193	.001
298.15	.09297	1.037	.001
298.15	.18528	1.0753	.001
298.15	.29202	1.1212	.001
298.15	.60159	1.2661	.001
308.15	.06409	1.0262	.001
308.15	.10553	1.0424	.001
308.15	.14062	1.056	.001
308.15	.21374	1.0852	.001
308.15	.27373	1.11	.001
308.15	.35051	1.1416	.001
318.15	.06385	1.0274	.001
318.15	.10553	1.0433	.001
318.15	.14008	1.0557	.001
318.15	.21293	1.0832	.001
318.15	.27373	1.1072	.001
318.15	.3492	1.1366	.001

System: acetic acid, sodium salt + water; phases: Liquid
Fixed: Pressure, kPa = 101.3
Property: Mass density, kg/m3 (Liquid); method: Vibrating tube method
Temperature, K	Molality, mol/kg of acetic acid, sodium salt	Mass density, kg/m3	uncertainty
288.15	.10004	1003.438	.003
288.15	.19846	1007.544	.003
288.15	.25001	1009.612	.003
288.15	.39801	1015.476	.003
288.15	.5001	1019.341	.003
288.15	.74286	1028.343	.003
288.15	.89621	1033.707	.003
288.15	1.00009	1037.222	.003
298.15	.10004	1001.299	.003
298.15	.19846	1005.332	.003
298.15	.25001	1007.393	.003
298.15	.39806	1013.191	.003
298.15	.5001	1017.052	.003
298.15	.74286	1025.937	.003
298.15	.89621	1031.275	.003
298.15	1.00009	1034.758	.003
308.15	.10004	998.223	.003
308.15	.19846	1002.224	.003
308.15	.25001	1004.269	.003
308.15	.39806	1010.038	.003
308.15	.5001	1013.899	.003
308.15	.74286	1022.693	.003
308.15	.89621	1028.037	.003
308.15	1.00009	1031.563	.003
318.15	.10004	994.376	.003
318.15	.19846	998.321	.003
318.15	.25001	1000.351	.003
318.15	.39806	1006.044	.003
318.15	.5001	1009.844	.003
318.15	.74286	1018.559	.003
318.15	.89621	1023.795	.003
318.15	1.00009	1027.235	.003

System: acetic acid, sodium salt + water; phases: Liquid
Fixed: Pressure, kPa = 101.3
Property: Viscosity, Pa*s (Liquid); method: Capillary tube (Ostwald; Ubbelohde) method
Temperature, K	Amount concentration (molarity), mol/dm3 of acetic acid, sodium salt	Viscosity, Pa*s	uncertainty
288.15	.04971	1.019	.001
288.15	.10362	1.0405	.001
288.15	.15961	1.0591	.001
288.15	.30695	1.117	.001
288.15	.38634	1.148	.001
298.15	.0496	1.0175	.001
298.15	.1034	1.0377	.001
298.15	.15927	1.0558	.001
298.15	.30626	1.112	.001
298.15	.38547	1.1411	.001
308.15	.06114	1.0212	.001
308.15	.1111	1.0389	.001
308.15	.17361	1.0612	.001
308.15	.26161	1.0922	.001
308.15	.37823	1.1348	.001
308.15	.49674	1.1779	.001
318.15	.0609	1.022	.001
318.15	.11067	1.0391	.001
318.15	.18347	1.0648	.001
318.15	.26058	1.0909	.001
318.15	.36805	1.1293	.001
318.15	.49476	1.174	.001

System: acetic acid, potassium salt + water; phases: Liquid
Fixed: Pressure, kPa = 101.3
Property: Mass density, kg/m3 (Liquid); method: Vibrating tube method
Temperature, K	Molality, mol/kg of acetic acid, potassium salt	Mass density, kg/m3	uncertainty
288.15	.12326	1004.98	.003
288.15	.13335	1005.436	.003
288.15	.18317	1007.736	.003
288.15	.20149	1008.579	.003
288.15	.25951	1011.203	.003
288.15	.35723	1015.604	.003
288.15	.71988	1031.4	.003
298.15	.02581	998.25	.003
298.15	.11382	1002.278	.003
298.15	.14352	1003.619	.003
298.15	.15359	1004.074	.003
298.15	.19631	1005.965	.003
298.15	.24809	1008.277	.003
298.15	.32895	1011.76	.003
308.15	.02581	995.208	.003
308.15	.06931	997.178	.003
308.15	.14352	1000.499	.003
308.15	.19361	1002.698	.003
308.15	.19631	1002.815	.003
308.15	.32895	1008.578	.003
318.15	.04864	992.421	.003
318.15	.01857	991.057	.003
318.15	.0937	994.454	.003
318.15	.12357	995.795	.003
318.15	.18534	998.552	.003
318.15	.20479	999.409	.003
318.15	.30991	1004.04	.003
318.15	.34382	1005.516	.003
318.15	.39542	1007.747	.003
318.15	.43513	1009.451	.003

System: acetic acid, potassium salt + water; phases: Liquid
Fixed: Pressure, kPa = 101.3
Property: Viscosity, Pa*s (Liquid); method: Capillary tube (Ostwald; Ubbelohde) method
Temperature, K	Amount concentration (molarity), mol/dm3 of acetic acid, potassium salt	Viscosity, Pa*s	uncertainty
288.15	.03642	1.0094	.001
288.15	.09167	1.0209	.001
288.15	.17963	1.0407	.001
288.15	.22983	1.0523	.001
288.15	.26467	1.0605	.001
298.15	.03634	1.0071	.001
298.15	.09146	1.0193	.001
298.15	.17922	1.0394	.001
298.15	.22931	1.051	.001
298.15	.26407	1.0592	.001
308.15	.03581	1.0089	.001
308.15	.08035	1.0187	.001
308.15	.11941	1.028	.001
308.15	.16602	1.0383	.001
308.15	.21882	1.0506	.001
308.15	.28569	1.0656	.001
318.15	.03567	1.011	.001
318.15	.08004	1.0204	.001
318.15	.11788	1.0298	.001
318.15	.16539	1.0396	.001
318.15	.22827	1.0545	.001
318.15	.28459	1.0679	.001

System: magnesium acetate + water; phases: Liquid
Fixed: Pressure, kPa = 101.3
Property: Mass density, kg/m3 (Liquid); method: Vibrating tube method
Temperature, K	Molality, mol/kg of magnesium acetate	Mass density, kg/m3	uncertainty
288.15	.05044	1003.158	.003
288.15	.11332	1008.044	.003
288.15	.14323	1010.331	.003
288.15	.23005	1016.762	.003
288.15	.24324	1017.718	.003
288.15	.27282	1019.854	.003
288.15	.31295	1022.694	.003
288.15	.40685	1029.181	.003
288.15	.53568	1037.78	.003
298.15	.01442	998.216	.003
298.15	.02261	998.872	.003
298.15	.04257	1000.455	.003
298.15	.08718	1003.926	.003
298.15	.15133	1008.817	.003
298.15	.20616	1012.865	.003
298.15	.26305	1017.001	.003
298.15	.39161	1025.918	.003
298.15	.57282	1037.792	.003
308.15	.02622	996.136	.003
308.15	.07392	999.881	.003
308.15	.20424	1009.661	.003
308.15	.37292	1021.507	.003
308.15	.51362	1030.914	.003
308.15	.64378	1039.191	.003
308.15	.97512	1058.335	.003
318.15	.02744	992.438	.003
318.15	.09153	997.435	.003
318.15	.14069	1001.171	.003
318.15	.18089	1004.131	.003
318.15	.2498	1009.162	.003
318.15	.31579	1013.778	.003
318.15	.3542	1016.468	.003
318.15	.56782	1030.591	.003

System: magnesium acetate + water; phases: Liquid
Fixed: Pressure, kPa = 101.3
Property: Viscosity, Pa*s (Liquid); method: Capillary tube (Ostwald; Ubbelohde) method
Temperature, K	Amount concentration (molarity), mol/dm3 of magnesium acetate	Viscosity, Pa*s	uncertainty
288.15	.02073	1.0225	.001
288.15	.03748	1.0379	.001
288.15	.08431	1.0839	.001
288.15	.13767	1.1379	.001
288.15	.30462	1.3338	.001
298.15	.02068	1.0184	.001
298.15	.0374	1.0339	.001
298.15	.08414	1.0769	.001
298.15	.13739	1.1284	.001
298.15	.30401	1.302	.001
308.15	.01923	1.0189	.001
308.15	.04809	1.0431	.001
308.15	.06531	1.0591	.001
308.15	.09111	1.0814	.001
308.15	.14146	1.1273	.001
308.15	.20133	1.1838	.001
318.15	.01916	1.0198	.001
318.15	.04791	1.0433	.001
318.15	.06581	1.0601	.001
318.15	.09077	1.0798	.001
318.15	.13927	1.1145	.001
318.15	.20059	1.1771	.001

System: calcium acetate + water; phases: Liquid
Fixed: Pressure, kPa = 101.3
Property: Mass density, kg/m3 (Liquid); method: Vibrating tube method
Temperature, K	Molality, mol/kg of calcium acetate	Mass density, kg/m3	uncertainty
288.15	.01371	1000.272	.003
288.15	.03399	1001.979	.003
288.15	.06666	1004.705	.003
288.15	.08915	1006.529	.003
288.15	.12568	1009.492	.003
288.15	.15278	1011.628	.003
288.15	.24636	1018.94	.003
288.15	.39845	1030.466	.003
288.15	.60746	1045.206	.003
298.15	.0454	1000.837	.003
298.15	.09847	1005.162	.003
298.15	.11651	1006.609	.003
298.15	.18065	1011.675	.003
298.15	.21071	1013.967	.003
298.15	.24039	1016.193	.003
298.15	.25851	1017.603	.003
298.15	.40042	1028.087	.003
298.15	.46552	1032.821	.003
308.15	.05575	998.626	.003
308.15	.10026	1002.189	.003
308.15	.13839	1005.209	.003
308.15	.22552	1011.902	.003
308.15	.23404	1012.495	.003
308.15	.26836	1015.16	.003
308.15	.34645	1020.876	.003
308.15	.58903	1037.99	.003
318.15	.06321	995.38	.003
318.15	.11358	999.391	.003
318.15	.21598	1007.335	.003
318.15	.29341	1013.192	.003
318.15	.34741	1017.171	.003
318.15	.48132	1026.852	.003
318.15	.56103	1032.274	.003

System: calcium acetate + water; phases: Liquid
Fixed: Pressure, kPa = 101.3
Property: Viscosity, Pa*s (Liquid); method: Capillary tube (Ostwald; Ubbelohde) method
Temperature, K	Amount concentration (molarity), mol/dm3 of calcium acetate	Viscosity, Pa*s	uncertainty
288.15	.0315	1.0256	.001
288.15	.08571	1.069	.001
288.15	.14049	1.1114	.001
288.15	.18518	1.1483	.001
288.15	.18042	1.1465	.001
298.15	.03144	1.0231	.001
298.15	.08553	1.0635	.001
298.15	.14018	1.105	.001
298.15	.18477	1.14	.001
298.15	.18002	1.1375	.001
308.15	.04618	1.0348	.001
308.15	.06623	1.0494	.001
308.15	.1005	1.0746	.001
308.15	.16315	1.1203	.001
308.15	.21212	1.1591	.001
308.15	.2586	1.1957	.001
318.15	.046	1.0353	.001
318.15	.07449	1.0557	.001
318.15	.10008	1.074	.001
318.15	.16246	1.117	.001
318.15	.20677	1.1507	.001
318.15	.25745	1.1885	.001
