Measured thermophysical data. Comparison between Experimental and Theoretical Estimations of the Thermal  Expansion, Concentration Expansion Coefficients, and Viscosity for Binary  Mixtures under Pressures up to 20 MPa
Source: J. Chem. Eng. Data, 2009, 10.1021/je8008073
Compound 1: tetralin, C10H12
Compound 2: dodecane, C12H26
Compound 3: isobutylbenzene, C10H14

System: dodecane + isobutylbenzene; phases: Liquid
Fixed: Mass fraction of dodecane = .5
Fixed: Temperature, K = 298.15
Property: Viscosity, Pa*s (Liquid); method: Falling or rolling sphere viscometry
Pressure, kPa	Viscosity, Pa*s	uncertainty
100	.00109	.0000218
4000	.00114	.0000228
10000	.00122	.0000244

System: dodecane + isobutylbenzene; phases: Liquid
Fixed: Mass fraction of dodecane = .5
Property: Mass density, kg/m3 (Liquid); method: Vibrating tube method
Pressure, kPa	Temperature, K	Mass density, kg/m3	uncertainty
100	293.15	795.4	.5
100	295.65	793.6	.5
100	298.15	791.7	.5
100	300.65	789.9	.5
100	303.15	788.1	.5
2000	293.15	796.7	.5
2000	295.65	794.9	.5
2000	298.15	793.1	.5
2000	300.65	791.2	.5
2000	303.15	789.6	.5
4000	293.15	798.1	.5
4000	295.65	796.3	.5
4000	298.15	794.5	.5
4000	300.65	792.6	.5
4000	303.15	791.1	.5
6000	293.15	799.5	.5
6000	295.65	797.7	.5
6000	298.15	795.9	.5
6000	300.65	794	.5
6000	303.15	792.5	.5
8000	293.15	801.1	.5
8000	295.65	799.1	.5
8000	298.15	797.3	.5
8000	300.65	795.4	.5
8000	303.15	794	.5
10000	293.15	802.5	.5
10000	295.65	800.5	.5
10000	298.15	798.6	.5
10000	300.65	796.8	.5
10000	303.15	795.4	.5
12000	293.15	803.7	.5
12000	295.65	801.8	.5
12000	298.15	799.9	.5
12000	300.65	798.1	.5
12000	303.15	796.7	.5
14000	293.15	805	.5
14000	295.65	803.1	.5
14000	298.15	801.3	.5
14000	300.65	799.4	.5
14000	303.15	798.1	.5
16000	293.15	806.3	.5
16000	295.65	804.3	.5
16000	298.15	802.6	.5
16000	300.65	800.7	.5
16000	303.15	799.4	.5
18000	293.15	807.6	.5
18000	295.65	805.6	.5
18000	298.15	803.8	.5
18000	300.65	802	.5
18000	303.15	800.8	.5
20000	293.15	808.9	.5
20000	295.65	806.8	.5
20000	298.15	805.1	.5
20000	300.65	803.3	.5
20000	303.15	802	.5

System: dodecane + isobutylbenzene; phases: Liquid
Fixed: Temperature, K = 298.15
Property: Mass density, kg/m3 (Liquid); method: Vibrating tube method
Pressure, kPa	Mass fraction of isobutylbenzene	Mass density, kg/m3	uncertainty
100	.48	789.5	.5
100	.49	790.4	.5
100	.5	791.7	.5
100	.51	792.7	.5
100	.52	793.6	.5
2000	.48	790.9	.5
2000	.49	792	.5
2000	.5	793.1	.5
2000	.51	794.1	.5
2000	.52	795.2	.5
4000	.48	792.4	.5
4000	.49	793.5	.5
4000	.5	794.5	.5
4000	.51	795.7	.5
4000	.52	796.6	.5
6000	.48	793.9	.5
6000	.49	794.9	.5
6000	.5	795.9	.5
6000	.51	797	.5
6000	.52	797.9	.5
8000	.48	795.3	.5
8000	.49	796.3	.5
8000	.5	797.3	.5
8000	.51	798.4	.5
8000	.52	799.3	.5
10000	.48	796.6	.5
10000	.49	797.4	.5
10000	.5	798.6	.5
10000	.51	799.7	.5
10000	.52	800.6	.5
12000	.48	797.9	.5
12000	.49	798.7	.5
12000	.5	799.9	.5
12000	.51	801	.5
12000	.52	801.9	.5
14000	.48	799.2	.5
14000	.49	800.1	.5
14000	.5	801.3	.5
14000	.51	802.3	.5
14000	.52	803.2	.5
16000	.48	800.5	.5
16000	.49	801.3	.5
16000	.5	802.6	.5
16000	.51	803.5	.5
16000	.52	804.5	.5
18000	.48	801.7	.5
18000	.49	802.6	.5
18000	.5	803.8	.5
18000	.51	804.7	.5
18000	.52	805.7	.5
20000	.48	803.1	.5
20000	.49	803.9	.5
20000	.5	805.1	.5
20000	.51	806	.5
20000	.52	807	.5

System: dodecane + tetralin; phases: Liquid
Fixed: Mass fraction of dodecane = .5
Fixed: Temperature, K = 298.15
Property: Viscosity, Pa*s (Liquid); method: Falling or rolling sphere viscometry
Pressure, kPa	Viscosity, Pa*s	uncertainty
100	.00146	.0000292
4000	.00153	.0000306
10000	.00164	.0000328

System: dodecane + tetralin; phases: Liquid
Fixed: Mass fraction of dodecane = .5
Property: Mass density, kg/m3 (Liquid); method: Vibrating tube method
Pressure, kPa	Temperature, K	Mass density, kg/m3	uncertainty
100	293.15	844.4	.5
100	295.65	842.4	.5
100	298.15	840.7	.5
100	300.65	838.8	.5
100	303.15	837.3	.5
2000	293.15	845.7	.5
2000	295.65	843.6	.5
2000	298.15	842	.5
2000	300.65	840	.5
2000	303.15	838.5	.5
4000	293.15	846.8	.5
4000	295.65	844.9	.5
4000	298.15	843.4	.5
4000	300.65	841.3	.5
4000	303.15	839.9	.5
6000	293.15	848	.5
6000	295.65	846	.5
6000	298.15	844.7	.5
6000	300.65	842.5	.5
6000	303.15	841.1	.5
8000	293.15	849.5	.5
8000	295.65	847.4	.5
8000	298.15	845.9	.5
8000	300.65	843.8	.5
8000	303.15	842.4	.5
10000	293.15	850.8	.5
10000	295.65	848.6	.5
10000	298.15	847.1	.5
10000	300.65	845	.5
10000	303.15	843.6	.5
12000	293.15	851.9	.5
12000	295.65	849.8	.5
12000	298.15	848.4	.5
12000	300.65	846.3	.5
12000	303.15	844.9	.5
14000	293.15	853.1	.5
14000	295.65	851	.5
14000	298.15	849.5	.5
14000	300.65	847.5	.5
14000	303.15	846.1	.5
16000	293.15	854.2	.5
16000	295.65	852.1	.5
16000	298.15	850.7	.5
16000	300.65	848.8	.5
16000	303.15	847.5	.5
18000	293.15	855.4	.5
18000	295.65	853.3	.5
18000	298.15	851.9	.5
18000	300.65	849.9	.5
18000	303.15	848.7	.5
20000	293.15	856.6	.5
20000	295.65	854.4	.5
20000	298.15	853	.5
20000	300.65	851	.5
20000	303.15	849.8	.5

System: dodecane + tetralin; phases: Liquid
Fixed: Temperature, K = 298.15
Property: Mass density, kg/m3 (Liquid); method: Vibrating tube method
Pressure, kPa	Mass fraction of tetralin	Mass density, kg/m3	uncertainty
100	.48	835.7	.5
100	.49	838.4	.5
100	.5	840.7	.5
100	.51	842.7	.5
100	.52	844.8	.5
2000	.48	836.9	.5
2000	.49	839.7	.5
2000	.5	842	.5
2000	.51	844	.5
2000	.52	846.1	.5
4000	.48	838.3	.5
4000	.49	841	.5
4000	.5	843.4	.5
4000	.51	845.3	.5
4000	.52	847.5	.5
6000	.48	839.6	.5
6000	.49	842.2	.5
6000	.5	844.7	.5
6000	.51	846.5	.5
6000	.52	848.7	.5
8000	.48	840.9	.5
8000	.49	843.5	.5
8000	.5	845.9	.5
8000	.51	847.8	.5
8000	.52	849.9	.5
10000	.48	842.1	.5
10000	.49	844.7	.5
10000	.5	847.1	.5
10000	.51	848.8	.5
10000	.52	851.1	.5
12000	.48	843.3	.5
12000	.49	845.9	.5
12000	.5	848.4	.5
12000	.51	850.3	.5
12000	.52	852.2	.5
14000	.48	844.6	.5
14000	.49	847.1	.5
14000	.5	849.5	.5
14000	.51	851.5	.5
14000	.52	853.5	.5
16000	.48	845.7	.5
16000	.49	848.3	.5
16000	.5	850.7	.5
16000	.51	852.7	.5
16000	.52	854.6	.5
18000	.48	846.9	.5
18000	.49	849.3	.5
18000	.5	851.9	.5
18000	.51	853.8	.5
18000	.52	855.7	.5
20000	.48	848.1	.5
20000	.49	850.6	.5
20000	.5	853	.5
20000	.51	855	.5
20000	.52	857	.5

System: tetralin + isobutylbenzene; phases: Liquid
Fixed: Mass fraction of tetralin = .5
Fixed: Temperature, K = 298.15
Property: Viscosity, Pa*s (Liquid); method: Falling or rolling sphere viscometry
Pressure, kPa	Viscosity, Pa*s	uncertainty
100	.00133	.0000266
4000	.00137	.0000274
10000	.00143	.0000286

System: tetralin + isobutylbenzene; phases: Liquid
Fixed: Mass fraction of tetralin = .5
Property: Mass density, kg/m3 (Liquid); method: Vibrating tube method
Pressure, kPa	Temperature, K	Mass density, kg/m3	uncertainty
100	293.15	907.9	.5
100	295.65	905.7	.5
100	298.15	903.6	.5
100	300.65	901.5	.5
100	303.15	900	.5
2000	293.15	909.1	.5
2000	295.65	906.8	.5
2000	298.15	904.7	.5
2000	300.65	902.9	.5
2000	303.15	901.3	.5
4000	293.15	910.3	.5
4000	295.65	908.1	.5
4000	298.15	906.1	.5
4000	300.65	904.2	.5
4000	303.15	902.6	.5
6000	293.15	911.6	.5
6000	295.65	909.3	.5
6000	298.15	907.5	.5
6000	300.65	905.4	.5
6000	303.15	904	.5
8000	293.15	913	.5
8000	295.65	910.6	.5
8000	298.15	908.8	.5
8000	300.65	906.8	.5
8000	303.15	905.3	.5
10000	293.15	914.3	.5
10000	295.65	911.9	.5
10000	298.15	910.1	.5
10000	300.65	908	.5
10000	303.15	906.5	.5
12000	293.15	915.4	.5
12000	295.65	913.1	.5
12000	298.15	911.3	.5
12000	300.65	909.2	.5
12000	303.15	907.8	.5
14000	293.15	916.6	.5
14000	295.65	914.3	.5
14000	298.15	912.5	.5
14000	300.65	910.4	.5
14000	303.15	909	.5
16000	293.15	917.7	.5
16000	295.65	915.4	.5
16000	298.15	913.7	.5
16000	300.65	911.6	.5
16000	303.15	910.3	.5
18000	293.15	918.8	.5
18000	295.65	916.6	.5
18000	298.15	914.9	.5
18000	300.65	912.8	.5
18000	303.15	911.4	.5
20000	293.15	920.1	.5
20000	295.65	917.7	.5
20000	298.15	916.1	.5
20000	300.65	914	.5
20000	303.15	912.6	.5

System: tetralin + isobutylbenzene; phases: Liquid
Fixed: Temperature, K = 298.15
Property: Mass density, kg/m3 (Liquid); method: Vibrating tube method
Pressure, kPa	Mass fraction of tetralin	Mass density, kg/m3	uncertainty
100	.48	901.3	.5
100	.49	902.5	.5
100	.5	903.6	.5
100	.51	905	.5
100	.52	906	.5
2000	.48	902.6	.5
2000	.49	903.8	.5
2000	.5	904.7	.5
2000	.51	906.2	.5
2000	.52	907.3	.5
4000	.48	904	.5
4000	.49	905.1	.5
4000	.5	906.1	.5
4000	.51	907.6	.5
4000	.52	908.8	.5
6000	.48	905.3	.5
6000	.49	906.4	.5
6000	.5	907.5	.5
6000	.51	908.8	.5
6000	.52	910	.5
8000	.48	906.6	.5
8000	.49	907.7	.5
8000	.5	908.8	.5
8000	.51	910.1	.5
8000	.52	911.2	.5
10000	.48	907.8	.5
10000	.49	909	.5
10000	.5	910.1	.5
10000	.51	911.2	.5
10000	.52	912.4	.5
12000	.48	909	.5
12000	.49	910.2	.5
12000	.5	911.3	.5
12000	.51	912.5	.5
12000	.52	913.6	.5
14000	.48	910.2	.5
14000	.49	911.5	.5
14000	.5	912.5	.5
14000	.51	913.7	.5
14000	.52	914.8	.5
16000	.48	911.4	.5
16000	.49	912.6	.5
16000	.5	913.7	.5
16000	.51	915	.5
16000	.52	916	.5
18000	.48	912.6	.5
18000	.49	913.7	.5
18000	.5	914.9	.5
18000	.51	916.1	.5
18000	.52	917.1	.5
20000	.48	913.8	.5
20000	.49	914.9	.5
20000	.5	916.1	.5
20000	.51	917.2	.5
20000	.52	918.2	.5
