Measured thermophysical data. Calorimetric Enthalpies of Solution for Lidocaine
Source: J. Chem. Eng. Data, 2009, 10.1021/je800551g
Compound 1: lidocaine hydrochloride, C14H23ClN2O
Compound 2: chlorocaine, C13H21ClN2O2
Compound 3: water, H2O

System: lidocaine hydrochloride + water; phases: Liquid
Fixed: Pressure, kPa = 101
Fixed: Temperature, K = 298.15
Property: Molar enthalpy of solution, kJ/mol (Liquid); method: Isoperibol calorimetry
Molality, mol/kg of lidocaine hydrochloride	Molar enthalpy of solution, kJ/mol	uncertainty
.0028	35.83	
.00563	31.1	
.00814	25.98	
.01093	23.43	
.01397	22.41	

System: chlorocaine + water; phases: Liquid
Fixed: Pressure, kPa = 101
Fixed: Temperature, K = 298.15
Property: Molar enthalpy of solution, kJ/mol (Liquid); method: Isoperibol calorimetry
Molality, mol/kg of chlorocaine	Molar enthalpy of solution, kJ/mol	uncertainty
.003	31.91	
.00588	33.35	
.00882	33.82	
.01173	34.94	
.01776	35.44	
