Measured thermophysical data. Solubilities of Dodecanoic and Tetradecanoic Acids in Supercritical CO2 with and  without Entrainers
Source: J. Chem. Eng. Data, 2008, 10.1021/je800544a
Compound 1: carbon dioxide, CO2, purity 99%
Compound 2: dodecanoic acid, C12H24O2, purity 99%
Compound 3: tetradecanoic acid, C14H28O2, purity 98%
Compound 4: ethanol, C2H6O, purity 99.9%
Compound 5: 3-methyl-1-butanol, C5H12O, purity 98%

System: carbon dioxide + dodecanoic acid; phases: Fluid (supercritical or subcritical phases), Crystal
Fixed: Temperature, K = 308
Property: Mole fraction of dodecanoic acid (Fluid (supercritical or subcritical phases)); method: UV Spectra
Pressure, kPa	Mole fraction of dodecanoic acid	uncertainty
9900	.00484	.0002904
12850	.007	.00042
14810	.01044	.0006264
16770	.01178	.0007068
19710	.0149	.000894
22650	.01706	.0010236

System: 3-methyl-1-butanol + carbon dioxide + dodecanoic acid; phases: Fluid (supercritical or subcritical phases), Crystal
Fixed: Temperature, K = 308
Fixed: Solvent: Mole fraction of 3-methyl-1-butanol = .005
Property: Mole fraction of dodecanoic acid (Fluid (supercritical or subcritical phases)); method: UV Spectra
Pressure, kPa	Mole fraction of dodecanoic acid	uncertainty
9900	.00581	.0003486
12850	.00826	.0004956
14810	.01201	.0007206
16770	.01343	.0008058
19710	.01684	.0010104
22650	.01911	.0011466

System: ethanol + carbon dioxide + dodecanoic acid; phases: Fluid (supercritical or subcritical phases), Crystal
Fixed: Temperature, K = 308
Fixed: Solvent: Mole fraction of ethanol = .005
Property: Mole fraction of dodecanoic acid (Fluid (supercritical or subcritical phases)); method: UV Spectra
Pressure, kPa	Mole fraction of dodecanoic acid	uncertainty
9900	.00678	.0004068
12850	.00945	.000567
14810	.01378	.0008268
16770	.01496	.0008976
19710	.01788	.0010728
22650	.02133	.0012798

System: carbon dioxide + tetradecanoic acid; phases: Liquid, Crystal
Property: Mole fraction of tetradecanoic acid (Liquid); method: UV Spectra
Temperature, K	Pressure, kPa	Mole fraction of tetradecanoic acid	uncertainty
308	9900	.00112	.0000672
308	12850	.00234	.0001404
308	14810	.00379	.0002274
308	16770	.004	.00024
308	19710	.00409	.0002454
308	22650	.00433	.0002598
318	12850	.00193	.0001158
318	14810	.00408	.0002448
318	16770	.00584	.0003504
318	19710	.00633	.0003798
318	22650	.00745	.000447

System: 3-methyl-1-butanol + carbon dioxide + tetradecanoic acid; phases: Liquid, Crystal
Property: Mole fraction of tetradecanoic acid (Liquid); method: UV Spectra
Temperature, K	Pressure, kPa	Solvent: Mole fraction of 3-methyl-1-butanol	Mole fraction of tetradecanoic acid	uncertainty
308	9900	.0073	.00134	.0000804
308	12850	.0073	.00276	.0001656
308	14810	.0073	.00439	.0002634
308	16770	.0073	.00462	.0002772
308	19710	.0073	.00498	.0002988
308	22650	.0073	.00508	.0003048
318	12850	.0073	.00285	.000171
318	14810	.0073	.00554	.0003324
318	16770	.0073	.00725	.000435
318	19710	.0073	.00765	.000459
318	22650	.0073	.00888	.0005328
318	12850	.0198	.00475	.000285
318	14810	.0198	.00772	.0004632
318	16770	.0198	.01072	.0006432
318	19710	.0198	.01154	.0006924
318	22650	.0198	.01269	.0007614

System: ethanol + carbon dioxide + tetradecanoic acid; phases: Liquid, Crystal
Property: Mole fraction of tetradecanoic acid (Liquid); method: UV Spectra
Temperature, K	Pressure, kPa	Solvent: Mole fraction of ethanol	Mole fraction of tetradecanoic acid	uncertainty
308	9900	.0073	.00157	.0000942
308	12850	.0073	.00321	.0001926
308	14810	.0073	.00487	.0002922
308	16770	.0073	.00516	.0003096
308	19710	.0073	.00525	.000315
308	22650	.0073	.00531	.0003186
318	12850	.0073	.00409	.0002454
318	14810	.0073	.00756	.0004536
318	16770	.0073	.00984	.0005904
318	19710	.0073	.01054	.0006324
318	22650	.0073	.01227	.0007362
318	12850	.0198	.00675	.000405
318	14810	.0198	.01414	.0008484
318	16770	.0198	.01698	.0010188
318	19710	.0198	.01779	.0010674
318	22650	.0198	.01954	.0011724
318	12850	.0416	.01033	.0006198
318	14810	.0416	.02064	.0012384
318	16770	.0416	.02943	.0017658
318	19710	.0416	.03184	.0019104
318	22650	.0416	.03475	.002085
