Measured thermophysical data. Isothermal Vapor-Liquid Equilibrium Data for the Hexafluoroethane (R116) + Propane System at Temperatures from (263 to 323) K
Source: J. Chem. Eng. Data, 2009, 10.1021/je800849s
Compound 1: hexafluoroethane, C2F6
Compound 2: propane, C3H8

System: propane; phases: Liquid, Gas
Property: Vapor or sublimation pressure, kPa (Liquid); method: Closed cell (Static) method
Temperature, K	Vapor or sublimation pressure, kPa	uncertainty
263.3	344	.3
283.25	639	.3
291.22	795	.3
296.23	906	.3
308.21	1221	.3
323.19	1715	.3

System: propane + hexafluoroethane; phases: Liquid, Gas
Property: Vapor or sublimation pressure, kPa (Liquid); method: Closed cell (Static) method
Mole fraction of hexafluoroethane	Temperature, K	Vapor or sublimation pressure, kPa	uncertainty
0	263.3	344	.3
.019	263.3	453	.3
.063	263.3	651	.3
.135	263.3	849	.3
.286	263.3	1053	.3
.49	263.3	1198	.3
.652	263.3	1298	.3
.844	263.3	1373	.3
.961	263.3	1406	.3
0	283.25	639	.3
.02	283.25	784	.3
.045	283.25	944	.3
.079	283.25	1117	.3
.136	283.25	1332	.3
.197	283.25	1501	.3
.302	283.25	1705	.3
.451	283.25	1914	.3
.616	283.25	2103	.3
.735	283.25	2224	.3
.814	283.25	2298	.3
.873	283.25	2343	.3
.946	283.25	2378	.3
0	291.22	795	.3
.02	291.22	958	.3
.048	291.22	1155	.3
.083	291.22	1350	.3
.13	291.22	1551	.3
.19	291.22	1758	.3
.269	291.22	1956	.3
.377	291.22	2161	.3
.502	291.22	2361	.3
.637	291.22	2558	.3
.763	291.22	2727	.3
.86	291.22	2835	.3
.917	291.22	2880	.3
.941	291.22	2893	.3
0	296.23	906	.3
.018	296.23	1065	.3
.052	296.23	1318	.3
.085	296.23	1507	.3
.127	296.23	1711	.3
.18	296.23	1917	.3
.25	296.23	2120	.3
.345	296.23	2338	.3
.459	296.23	2552	.3
.555	296.23	2713	.3
.661	296.23	2890	.3
.731	296.23	3003	.3
.784	296.23	3087	.3
.808	296.23	3118	.3
0	308.21	1221	.3
.029	308.21	1503	.3
.084	308.21	1905	.3
.16	308.21	2306	.3
.264	308.21	2704	.3
.406	308.21	3103	.3
.502	308.21	3326	.3
.569	308.21	3449	.3
0	323.19	1715	.3
.03	323.19	2040	.3
.083	323.19	2493	.3
.164	323.19	3008	.3
.241	323.19	3397	.3
.296	323.19	3604	.3
.332	323.19	3717	.3
.363	323.19	3803	.3
.392	323.19	3851	.3

System: propane + hexafluoroethane; phases: Gas, Liquid
Property: Mole fraction of hexafluoroethane (Gas); method: Chromatography
Mole fraction of hexafluoroethane	Temperature, K	Mole fraction of hexafluoroethane	uncertainty
0	263.3	0	.0003
.019	263.3	.218	.0003
.063	263.3	.45	.0003
.135	263.3	.581	.0003
.286	263.3	.677	.0003
.49	263.3	.743	.0003
.652	263.3	.802	.0003
.844	263.3	.878	.0003
.961	263.3	.963	.0003
0	283.25	0	.0003
.02	283.25	.168	.0003
.045	283.25	.296	.0003
.079	283.25	.401	.0003
.136	283.25	.491	.0003
.197	283.25	.556	.0003
.302	283.25	.62	.0003
.451	283.25	.682	.0003
.616	283.25	.747	.0003
.735	283.25	.802	.0003
.814	283.25	.851	.0003
.873	283.25	.892	.0003
.946	283.25	.949	.0003
0	291.22	0	.0003
.02	291.22	.149	.0003
.048	291.22	.281	.0003
.083	291.22	.377	.0003
.13	291.22	.455	.0003
.19	291.22	.52	.0003
.269	291.22	.574	.0003
.377	291.22	.624	.0003
.502	291.22	.676	.0003
.637	291.22	.736	.0003
.763	291.22	.807	.0003
.86	291.22	.876	.0003
.917	291.22	.924	.0003
.941	291.22	.945	.0003
0	296.23	0	.0003
.018	296.23	.127	.0003
.052	296.23	.277	.0003
.085	296.23	.36	.0003
.127	296.23	.431	.0003
.18	296.23	.492	.0003
.25	296.23	.543	.0003
.345	296.23	.593	.0003
.459	296.23	.643	.0003
.555	296.23	.681	.0003
.661	296.23	.731	.0003
.731	296.23	.77	.0003
.784	296.23	.804	.0003
.808	296.23	.816	.0003
0	308.21	0	.0003
.029	308.21	.152	.0003
.084	308.21	.308	.0003
.16	308.21	.415	.0003
.264	308.21	.499	.0003
.406	308.21	.565	.0003
.502	308.21	.597	.0003
.569	308.21	.601	.0003
0	323.19	0	.0003
.03	323.19	.125	.0003
.083	323.19	.254	.0003
.164	323.19	.353	.0003
.241	323.19	.405	.0003
.296	323.19	.429	.0003
.332	323.19	.438	.0003
.363	323.19	.436	.0003
.392	323.19	.421	.0003
