Measured thermophysical data. Densities and Viscosities of (1,6-Hexanediamine + Ethanol) and  (1,6-Hexanediamine + Ethanol + Water) Mixtures at T ) (303.15 to 328.15) K
Source: J. Chem. Eng. Data, 2009, 10.1021/je800942u
Compound 1: ethanol, C2H6O
Compound 2: 1,6-diaminohexane, C6H16N2
Compound 3: water, H2O

System: ethanol; phases: Liquid
Property: Mass density, kg/m3 (Liquid); method: Pycnometric method
Temperature, K	Pressure, kPa	Mass density, kg/m3	uncertainty
303.15	101	780.8	.2
308.15	101	776.5	.2
313.15	101	770.3	.2
318.15	101	765.2	.2
323.15	101	760.3	.2
328.15	101	754.5	.2

System: ethanol; phases: Liquid
Property: Viscosity, Pa*s (Liquid); method: Capillary tube (Ostwald; Ubbelohde) method
Temperature, K	Pressure, kPa	Viscosity, Pa*s	uncertainty
303.15	101	.000979	.000003
308.15	101	.0008877	.000003
313.15	101	.0008086	.000003
318.15	101	.0007335	.000003
323.15	101	.0006677	.000003
328.15	101	.0006104	.000003

System: ethanol + 1,6-diaminohexane; phases: Liquid
Fixed: Pressure, kPa = 101
Property: Mass density, kg/m3 (Liquid); method: Pycnometric method
Temperature, K	Molality, mol/kg of 1,6-diaminohexane	Mass density, kg/m3	uncertainty
303.15	0	780.8	.2
303.15	.1293	782.3	.2
303.15	.2808	784.2	.2
303.15	.4406	786.3	.2
303.15	.6113	788.6	.2
303.15	.7834	791.1	.2
303.15	.9637	793.8	.2
308.15	0	776.5	.2
308.15	.1293	777.9	.2
308.15	.2808	779.7	.2
308.15	.4406	781.9	.2
308.15	.6113	784.7	.2
308.15	.7834	787.3	.2
308.15	.9637	790.1	.2
313.15	0	770.3	.2
313.15	.1293	771.6	.2
313.15	.2808	773.3	.2
313.15	.4406	775.2	.2
313.15	.6113	777.2	.2
313.15	.7834	779.3	.2
313.15	.9637	781.5	.2
318.15	0	765.2	.2
318.15	.1293	766.4	.2
318.15	.2808	767.9	.2
318.15	.4406	769.6	.2
318.15	.6113	771.4	.2
318.15	.7834	773.3	.2
318.15	.9637	775.3	.2
323.15	0	760.3	.2
323.15	.1293	761.4	.2
323.15	.2808	762.8	.2
323.15	.4406	764.3	.2
323.15	.6113	766	.2
323.15	.7834	767.8	.2
323.15	.9637	769.7	.2
328.15	0	754.5	.2
328.15	.1293	755.5	.2
328.15	.2808	756.8	.2
328.15	.4406	758.3	.2
328.15	.6113	759.9	.2
328.15	.7834	761.6	.2
328.15	.9637	763.4	.2

System: ethanol + 1,6-diaminohexane; phases: Liquid
Fixed: Pressure, kPa = 101
Property: Viscosity, Pa*s (Liquid); method: Capillary tube (Ostwald; Ubbelohde) method
Temperature, K	Molality, mol/kg of 1,6-diaminohexane	Viscosity, Pa*s	uncertainty
303.15	0	.000979	.000003
303.15	.1293	.0010111	.000003
303.15	.2808	.0010526	.000003
303.15	.4406	.0011022	.000003
303.15	.6113	.001162	.000003
303.15	.7834	.0012022	.000003
303.15	.9637	.0012583	.000003
308.15	0	.0008877	.000003
308.15	.1293	.0009157	.000003
308.15	.2808	.0009505	.000003
308.15	.4406	.0009928	.000003
308.15	.6113	.001046	.000003
308.15	.7834	.0010807	.000003
308.15	.9637	.0011331	.000003
313.15	0	.0008086	.000003
313.15	.1293	.0008341	.000003
313.15	.2808	.0008606	.000003
313.15	.4406	.0008994	.000003
313.15	.6113	.0009437	.000003
313.15	.7834	.000975	.000003
313.15	.9637	.0010188	.000003
318.15	0	.0007335	.000003
318.15	.1293	.0007569	.000003
318.15	.2808	.0007849	.000003
318.15	.4406	.0008154	.000003
318.15	.6113	.0008571	.000003
318.15	.7834	.0008816	.000003
318.15	.9637	.0009201	.000003
323.15	0	.0006677	.000003
323.15	.1293	.0006866	.000003
323.15	.2808	.0007105	.000003
323.15	.4406	.0007356	.000003
323.15	.6113	.0007761	.000003
323.15	.7834	.000798	.000003
323.15	.9637	.0008301	.000003
328.15	0	.0006104	.000003
328.15	.1293	.0006275	.000003
328.15	.2808	.0006485	.000003
328.15	.4406	.0006737	.000003
328.15	.6113	.0007013	.000003
328.15	.7834	.0007227	.000003
328.15	.9637	.0007564	.000003

System: ethanol + 1,6-diaminohexane + water; phases: Liquid
Fixed: Pressure, kPa = 101
Property: Mass density, kg/m3 (Liquid); method: Pycnometric method
Temperature, K	Molality, mol/kg of 1,6-diaminohexane	Mass fraction of water	Mass density, kg/m3	uncertainty
303.15	0	.25	848.8	.2
303.15	.5002	.25	853	.2
303.15	1.002	.25	857.1	.2
303.15	1.5027	.25	861.1	.2
303.15	1.9954	.25	865	.2
303.15	2.5009	.25	868.9	.2
303.15	3.0004	.25	872.7	.2
308.15	0	.25	843	.2
308.15	.5002	.25	847	.2
308.15	1.002	.25	850.9	.2
308.15	1.5027	.25	854.7	.2
308.15	1.9954	.25	858.4	.2
308.15	2.5009	.25	862.1	.2
308.15	3.0004	.25	865.7	.2
313.15	0	.25	838.2	.2
313.15	.5002	.25	842	.2
313.15	1.002	.25	845.8	.2
313.15	1.5027	.25	849.7	.2
313.15	1.9954	.25	853.5	.2
313.15	2.5009	.25	857.4	.2
313.15	3.0004	.25	861.3	.2
318.15	0	.25	833.6	.2
318.15	.5002	.25	837.2	.2
318.15	1.002	.25	840.8	.2
318.15	1.5027	.25	844.5	.2
318.15	1.9954	.25	848.1	.2
318.15	2.5009	.25	851.8	.2
318.15	3.0004	.25	855.5	.2
323.15	0	.25	827.5	.2
323.15	.5002	.25	831	.2
323.15	1.002	.25	834.5	.2
323.15	1.5027	.25	838	.2
323.15	1.9954	.25	841.5	.2
323.15	2.5009	.25	845.1	.2
323.15	3.0004	.25	848.6	.2
328.15	0	.25	822.5	.2
328.15	.5002	.25	825.9	.2
328.15	1.002	.25	829.4	.2
328.15	1.5027	.25	832.9	.2
328.15	1.9954	.25	836.4	.2
328.15	2.5009	.25	840	.2
328.15	3.0004	.25	843.6	.2
303.15	0	.2	836	.2
303.15	.4002	.2	839.9	.2
303.15	.8017	.2	843.8	.2
303.15	1.2003	.2	847.7	.2
303.15	1.6011	.2	851.6	.2
303.15	2	.2	855.5	.2
303.15	2.401	.2	859.5	.2
308.15	0	.2	831.8	.2
308.15	.4002	.2	835.7	.2
308.15	.8017	.2	839.6	.2
308.15	1.2003	.2	843.4	.2
308.15	1.6011	.2	847.2	.2
308.15	2	.2	851	.2
308.15	2.401	.2	854.9	.2
313.15	0	.2	827.1	.2
313.15	.4002	.2	831	.2
313.15	.8017	.2	835	.2
313.15	1.2003	.2	838.9	.2
313.15	1.6011	.2	842.9	.2
313.15	2	.2	847	.2
313.15	2.401	.2	851	.2
318.15	0	.2	821	.2
318.15	.4002	.2	825	.2
318.15	.8017	.2	829	.2
318.15	1.2003	.2	833.1	.2
318.15	1.6011	.2	837.2	.2
318.15	2	.2	841.2	.2
318.15	2.401	.2	845.1	.2
323.15	0	.2	814.6	.2
323.15	.4002	.2	818.7	.2
323.15	.8017	.2	822.8	.2
323.15	1.2003	.2	826.8	.2
323.15	1.6011	.2	830.8	.2
323.15	2	.2	834.9	.2
323.15	2.401	.2	839.1	.2
328.15	0	.2	809.1	.2
328.15	.4002	.2	813.2	.2
328.15	.8017	.2	817.3	.2
328.15	1.2003	.2	821.3	.2
328.15	1.6011	.2	825.4	.2
328.15	2	.2	829.4	.2
328.15	2.401	.2	833.3	.2
303.15	0	.15	822.7	.2
303.15	.3502	.15	826.6	.2
303.15	.7008	.15	830.4	.2
303.15	1.0503	.15	834.1	.2
303.15	1.4019	.15	837.8	.2
303.15	1.7498	.15	841.4	.2
303.15	2.1998	.15	845.7	.2
308.15	0	.15	818.4	.2
308.15	.3502	.15	822.4	.2
308.15	.7008	.15	826.3	.2
308.15	1.0503	.15	830.1	.2
308.15	1.4019	.15	833.9	.2
308.15	1.7498	.15	837.6	.2
308.15	2.1998	.15	841.9	.2
313.15	0	.15	813.1	.2
313.15	.3502	.15	817.2	.2
313.15	.7008	.15	821.2	.2
313.15	1.0503	.15	825.1	.2
313.15	1.4019	.15	828.9	.2
313.15	1.7498	.15	832.7	.2
313.15	2.1998	.15	837.1	.2
318.15	0	.15	807.1	.2
318.15	.3502	.15	811.3	.2
318.15	.7008	.15	815.4	.2
318.15	1.0503	.15	819.5	.2
318.15	1.4019	.15	823.6	.2
318.15	1.7498	.15	827.6	.2
318.15	2.1998	.15	832.2	.2
323.15	0	.15	801.4	.2
323.15	.3502	.15	805.7	.2
323.15	.7008	.15	809.9	.2
323.15	1.0503	.15	814	.2
323.15	1.4019	.15	818	.2
323.15	1.7498	.15	822	.2
323.15	2.1998	.15	826.6	.2
328.15	0	.15	796.9	.2
328.15	.3502	.15	801.3	.2
328.15	.7008	.15	805.6	.2
328.15	1.0503	.15	809.8	.2
328.15	1.4019	.15	813.9	.2
328.15	1.7498	.15	818	.2
328.15	2.1998	.15	822.7	.2

System: ethanol + 1,6-diaminohexane + water; phases: Liquid
Fixed: Pressure, kPa = 101
Property: Viscosity, Pa*s (Liquid); method: Capillary tube (Ostwald; Ubbelohde) method
Temperature, K	Molality, mol/kg of 1,6-diaminohexane	Mass fraction of water	Viscosity, Pa*s	uncertainty
303.15	0	.25	.0016111	.000003
303.15	.5002	.25	.0018643	.000003
303.15	1.002	.25	.0021418	.000003
303.15	1.5027	.25	.0024319	.000003
303.15	1.9954	.25	.0027547	.000003
303.15	2.5009	.25	.0030809	.000003
303.15	3.0004	.25	.0034519	.000003
308.15	0	.25	.0014016	.000003
308.15	.5002	.25	.0016129	.000003
308.15	1.002	.25	.0018435	.000003
308.15	1.5027	.25	.0020857	.000003
308.15	1.9954	.25	.0023488	.000003
308.15	2.5009	.25	.002614	.000003
308.15	3.0004	.25	.0029058	.000003
313.15	0	.25	.0012294	.000003
313.15	.5002	.25	.0014111	.000003
313.15	1.002	.25	.0016066	.000003
313.15	1.5027	.25	.0018053	.000003
313.15	1.9954	.25	.0020279	.000003
313.15	2.5009	.25	.0022485	.000003
313.15	3.0004	.25	.002489	.000003
318.15	0	.25	.0010851	.000003
318.15	.5002	.25	.0012409	.000003
318.15	1.002	.25	.0014036	.000003
318.15	1.5027	.25	.0015749	.000003
318.15	1.9954	.25	.0017607	.000003
318.15	2.5009	.25	.0019461	.000003
318.15	3.0004	.25	.0021506	.000003
323.15	0	.25	.0009573	.000003
323.15	.5002	.25	.001088	.000003
323.15	1.002	.25	.0012275	.000003
323.15	1.5027	.25	.0013714	.000003
323.15	1.9954	.25	.0015295	.000003
323.15	2.5009	.25	.0016855	.000003
323.15	3.0004	.25	.0018531	.000003
328.15	0	.25	.0008538	.000003
328.15	.5002	.25	.0009659	.000003
328.15	1.002	.25	.0010861	.000003
328.15	1.5027	.25	.0012112	.000003
328.15	1.9954	.25	.001349	.000003
328.15	2.5009	.25	.0014773	.000003
328.15	3.0004	.25	.0016194	.000003
303.15	0	.2	.0015109	.000003
303.15	.4002	.2	.0016761	.000003
303.15	.8017	.2	.0019009	.000003
303.15	1.2003	.2	.0020874	.000003
303.15	1.6011	.2	.0023929	.000003
303.15	2	.2	.0026135	.000003
303.15	2.401	.2	.00291	.000003
308.15	0	.2	.0013321	.000003
308.15	.4002	.2	.0014691	.000003
308.15	.8017	.2	.0016581	.000003
308.15	1.2003	.2	.0018137	.000003
308.15	1.6011	.2	.0020602	.000003
308.15	2	.2	.0022436	.000003
308.15	2.401	.2	.0024923	.000003
313.15	0	.2	.0011739	.000003
313.15	.4002	.2	.0012879	.000003
313.15	.8017	.2	.0014485	.000003
313.15	1.2003	.2	.0015811	.000003
313.15	1.6011	.2	.0017907	.000003
313.15	2	.2	.0019454	.000003
313.15	2.401	.2	.0021581	.000003
318.15	0	.2	.001025	.000003
318.15	.4002	.2	.0011344	.000003
318.15	.8017	.2	.0012722	.000003
318.15	1.2003	.2	.0013845	.000003
318.15	1.6011	.2	.0015637	.000003
318.15	2	.2	.0016944	.000003
318.15	2.401	.2	.0018685	.000003
323.15	0	.2	.0009113	.000003
323.15	.4002	.2	.0010009	.000003
323.15	.8017	.2	.0011197	.000003
323.15	1.2003	.2	.001215	.000003
323.15	1.6011	.2	.0013648	.000003
323.15	2	.2	.0014744	.000003
323.15	2.401	.2	.0016234	.000003
328.15	0	.2	.0008123	.000003
328.15	.4002	.2	.0008905	.000003
328.15	.8017	.2	.0009927	.000003
328.15	1.2003	.2	.0010765	.000003
328.15	1.6011	.2	.0012056	.000003
328.15	2	.2	.0012992	.000003
328.15	2.401	.2	.0014314	.000003
303.15	0	.15	.0013832	.000003
303.15	.3502	.15	.0015684	.000003
303.15	.7008	.15	.0017182	.000003
303.15	1.0503	.15	.0019069	.000003
303.15	1.4019	.15	.0020878	.000003
303.15	1.7498	.15	.0022555	.000003
303.15	2.1998	.15	.0025098	.000003
308.15	0	.15	.0012223	.000003
308.15	.3502	.15	.0013784	.000003
308.15	.7008	.15	.0015174	.000003
308.15	1.0503	.15	.0016638	.000003
308.15	1.4019	.15	.0018128	.000003
308.15	1.7498	.15	.0019614	.000003
308.15	2.1998	.15	.0021707	.000003
313.15	0	.15	.001085	.000003
313.15	.3502	.15	.0012233	.000003
313.15	.7008	.15	.0013469	.000003
313.15	1.0503	.15	.0014625	.000003
313.15	1.4019	.15	.0015873	.000003
313.15	1.7498	.15	.0017131	.000003
313.15	2.1998	.15	.001893	.000003
318.15	0	.15	.0009649	.000003
318.15	.3502	.15	.001084	.000003
318.15	.7008	.15	.001187	.000003
318.15	1.0503	.15	.0012895	.000003
318.15	1.4019	.15	.0013956	.000003
318.15	1.7498	.15	.0015019	.000003
318.15	2.1998	.15	.0016532	.000003
323.15	0	.15	.0008601	.000003
323.15	.3502	.15	.0009577	.000003
323.15	.7008	.15	.0010413	.000003
323.15	1.0503	.15	.0011352	.000003
323.15	1.4019	.15	.001228	.000003
323.15	1.7498	.15	.0013182	.000003
323.15	2.1998	.15	.0014465	.000003
328.15	0	.15	.0007734	.000003
328.15	.3502	.15	.0008614	.000003
328.15	.7008	.15	.0009601	.000003
328.15	1.0503	.15	.0010162	.000003
328.15	1.4019	.15	.0010921	.000003
328.15	1.7498	.15	.0011707	.000003
328.15	2.1998	.15	.0012834	.000003

System: ethanol + water; phases: Liquid
Property: Mass density, kg/m3 (Liquid); method: Pycnometric method
Temperature, K	Mass fraction of water	Pressure, kPa	Mass density, kg/m3	uncertainty
303.15	.25	101	848.8	.2
308.15	.25	101	843	.2
313.15	.25	101	838.2	.2
318.15	.25	101	833.6	.2
323.15	.25	101	827.5	.2
328.15	.25	101	822.5	.2
303.15	.2	101	836	.2
308.15	.2	101	831.8	.2
313.15	.2	101	827.1	.2
318.15	.2	101	821	.2
323.15	.2	101	814.6	.2
328.15	.2	101	809.1	.2
303.15	.15	101	822.7	.2
308.15	.15	101	818.4	.2
313.15	.15	101	813.1	.2
318.15	.15	101	807.1	.2
323.15	.15	101	801.4	.2
328.15	.15	101	796.9	.2

System: ethanol + water; phases: Liquid
Property: Viscosity, Pa*s (Liquid); method: Capillary tube (Ostwald; Ubbelohde) method
Temperature, K	Mass fraction of water	Pressure, kPa	Viscosity, Pa*s	uncertainty
303.15	.25	101	.0016111	.000003
308.15	.25	101	.0014016	.000003
313.15	.25	101	.0012294	.000003
318.15	.25	101	.0010851	.000003
323.15	.25	101	.0009573	.000003
328.15	.25	101	.0008538	.000003
303.15	.2	101	.0015109	.000003
308.15	.2	101	.0013321	.000003
313.15	.2	101	.0011739	.000003
318.15	.2	101	.001025	.000003
323.15	.2	101	.0009113	.000003
328.15	.2	101	.0008123	.000003
303.15	.15	101	.0013832	.000003
308.15	.15	101	.0012223	.000003
313.15	.15	101	.001085	.000003
318.15	.15	101	.0009649	.000003
323.15	.15	101	.0008601	.000003
328.15	.15	101	.0007734	.000003
