Measured thermophysical data. Vapor and Sublimation Pressures of Three Normal Alkanes: C20, C24, and C28
Source: J. Chem. Eng. Data, 2009, 10.1021/je800534x
Compound 1: eicosane, C20H42
Compound 2: tetracosane, C24H50
Compound 3: octacosane, C28H58

System: eicosane; phases: Crystal 2, Gas
Property: Vapor or sublimation pressure, kPa (Crystal 2); method: Transpiration method
Temperature, K	Vapor or sublimation pressure, kPa	uncertainty
302.37	.00000173	.0000000173
304.59	.0000033	.000000033
306.79	.00000459	.0000000459
307.86	.00000594	.0000000594

System: eicosane; phases: Liquid, Gas
Property: Vapor or sublimation pressure, kPa (Liquid); method: Transpiration method
Temperature, K	Vapor or sublimation pressure, kPa	uncertainty
312.76	.0000113	.000000113
322.82	.0000345	.000000345
327.82	.0000601	.000000601
337.82	.000174	.00000174
342.89	.000293	.00000293
373.17	.00545	.0000545

System: tetracosane; phases: Crystal 1, Gas
Property: Vapor or sublimation pressure, kPa (Crystal 1); method: Transpiration method
Temperature, K	Vapor or sublimation pressure, kPa	uncertainty
322.94	.00000123	.0000000123

System: tetracosane; phases: Liquid, Gas
Property: Vapor or sublimation pressure, kPa (Liquid); method: Transpiration method
Temperature, K	Vapor or sublimation pressure, kPa	uncertainty
333.09	.00000458	.0000000458
353.2	.0000407	.000000407
373.13	.000268	.00000268

System: tetracosane; phases: Crystal 2, Gas
Property: Vapor or sublimation pressure, kPa (Crystal 2); method: Transpiration method
Temperature, K	Vapor or sublimation pressure, kPa	uncertainty
307.74	.0000000589	.000000000589
312.83	.000000178	.00000000178
317.93	.000000479	.00000000479

System: octacosane; phases: Crystal 2, Gas
Property: Vapor or sublimation pressure, kPa (Crystal 2); method: Transpiration method
Temperature, K	Vapor or sublimation pressure, kPa	uncertainty
323.05	.0000000117	.000000000117
326.15	.0000000237	.000000000237
329.02	.0000000439	.000000000439

System: octacosane; phases: Liquid, Gas
Property: Vapor or sublimation pressure, kPa (Liquid); method: Transpiration method
Temperature, K	Vapor or sublimation pressure, kPa	uncertainty
339.02	.000000358	.00000000358
352.98	.00000186	.0000000186
372.85	.0000176	.000000176
392.76	.000114	.00000114
412.72	.000606	.00000606
