Measured thermophysical data. Densities and Excess Molar Volumes of Cyclopentane (1) + 1-Alkanol (2) Systems  at (298.15 and 308.15) K
Source: J. Chem. Eng. Data, 2009, 10.1021/je800831d
Compound 1: cyclopentane, C5H10
Compound 2: 1-propanol, C3H8O
Compound 3: 1-pentanol, C5H12O
Compound 4: 1-heptanol, C7H16O

System: cyclopentane; phases: Liquid
Property: Mass density, kg/m3 (Liquid); method: Vibrating tube method
Temperature, K	Pressure, kPa	Mass density, kg/m3	uncertainty
298.15	101	733.634	.005
308.15	101	726.571	.005

System: 1-propanol; phases: Liquid
Property: Mass density, kg/m3 (Liquid); method: Vibrating tube method
Temperature, K	Pressure, kPa	Mass density, kg/m3	uncertainty
298.15	101	799.813	.005
308.15	101	791.692	.005

System: 1-pentanol; phases: Liquid
Property: Mass density, kg/m3 (Liquid); method: Vibrating tube method
Temperature, K	Pressure, kPa	Mass density, kg/m3	uncertainty
298.15	101	811.037	.005
308.15	101	803.683	.005

System: 1-heptanol; phases: Liquid
Property: Mass density, kg/m3 (Liquid); method: Vibrating tube method
Temperature, K	Pressure, kPa	Mass density, kg/m3	uncertainty
298.15	101	818.813	.005
308.15	101	811.73	.005

System: 1-propanol + cyclopentane; phases: Liquid
Fixed: Pressure, kPa = 101
Property: Mass density, kg/m3 (Liquid); method: Vibrating tube method
Mole fraction of cyclopentane	Temperature, K	Mass density, kg/m3	uncertainty
.0553	298.15	795.275	.005
.1627	298.15	786.754	.005
.2341	298.15	781.37	.005
.3137	298.15	775.778	.005
.4691	298.15	764.862	.005
.5666	298.15	758.623	.005
.6338	298.15	754.486	.005
.7688	298.15	746.451	.005
.8446	298.15	742.132	.005
.9167	298.15	738.181	.005
.0553	308.15	786.98	.005
.1627	308.15	778.045	.005
.2341	308.15	772.538	.005
.3137	308.15	766.718	.005
.4691	308.15	755.363	.005
.5666	308.15	748.897	.005
.6338	308.15	744.566	.005
.7688	308.15	737.144	.005
.8446	308.15	733.21	.005
.9167	308.15	729.51	.005
1	298.15	733.634	.005
1	308.15	726.571	.005
0	298.15	799.813	.005
0	308.15	791.692	.005

System: 1-pentanol + cyclopentane; phases: Liquid
Fixed: Pressure, kPa = 101
Property: Mass density, kg/m3 (Liquid); method: Vibrating tube method
Mole fraction of cyclopentane	Temperature, K	Mass density, kg/m3	uncertainty
.0155	298.15	810.22	.005
.1886	298.15	799.34	.005
.2742	298.15	793.439	.005
.3746	298.15	786.395	.005
.3884	298.15	785.467	.005
.4798	298.15	779.082	.005
.5738	298.15	771.559	.005
.6868	298.15	762.096	.005
.7543	298.15	756.486	.005
.8131	298.15	751.07	.005
.9079	298.15	742.377	.005
.0155	308.15	802.763	.005
.1886	308.15	791.417	.005
.2742	308.15	785.673	.005
.3746	308.15	778.336	.005
.3884	308.15	777.389	.005
.4798	308.15	770.553	.005
.5738	308.15	763.458	.005
.6868	308.15	754.298	.005
.7543	308.15	748.638	.005
.8131	308.15	743.306	.005
.9079	308.15	735.151	.005
1	298.15	733.634	.005
1	308.15	726.571	.005
0	298.15	811.037	.005
0	308.15	803.683	.005

System: 1-heptanol + cyclopentane; phases: Liquid
Fixed: Pressure, kPa = 101
Property: Mass density, kg/m3 (Liquid); method: Vibrating tube method
Mole fraction of cyclopentane	Temperature, K	Mass density, kg/m3	uncertainty
.0632	298.15	815.837	.005
.1965	298.15	808.334	.005
.3173	298.15	800.287	.005
.4244	298.15	793.064	.005
.4606	298.15	790.282	.005
.5084	298.15	786.531	.005
.6664	298.15	772.628	.005
.7675	298.15	762.185	.005
.8534	298.15	752.769	.005
.9644	298.15	739.018	.005
.0632	308.15	808.629	.005
.1965	308.15	800.856	.005
.3173	308.15	792.895	.005
.4244	308.15	785.675	.005
.4606	308.15	782.889	.005
.5084	308.15	779.091	.005
.6664	308.15	764.753	.005
.7675	308.15	754.805	.005
.8534	308.15	745.466	.005
.9644	308.15	731.663	.005
1	298.15	733.634	.005
1	308.15	726.571	.005
0	298.15	818.813	.005
0	308.15	811.73	.005
