Measured thermophysical data. Dielectric Constants for Binary Amino Acid-Water Solutions from (278.15 to  313.15) K
Source: J. Chem. Eng. Data, 2009, 10.1021/je800644b
Compound 1: L-proline, C5H9NO2
Compound 2: glycine, C2H5NO2
Compound 3: L-alanine, C3H7NO2
Compound 4: L-serine, C3H7NO3
Compound 5: water, H2O

System: L-proline + water; phases: Liquid
Fixed: Pressure, kPa = 101
Property: Relative permittivity at zero frequency (Liquid); method: dielectric constant meter
Temperature, K	Molality, mol/kg of L-proline	Relative permittivity at zero frequency	uncertainty
278.15	.1	88.1	.1
283.15	.1	86.2	.1
288.15	.1	84.3	.1
293.15	.1	82.4	.1
298.15	.1	80.6	.1
303.15	.1	78.7	.1
308.15	.1	76.9	.1
313.15	.1	75.1	.1
278.15	.15	89.1	.1
283.15	.15	87.3	.1
288.15	.15	85.3	.1
293.15	.15	83.4	.1
298.15	.15	81.5	.1
303.15	.15	79.7	.1
308.15	.15	77.9	.1
313.15	.15	76.1	.1
278.15	.2	90.1	.1
283.15	.2	88.2	.1
288.15	.2	86.3	.1
293.15	.2	84.4	.1
298.15	.2	82.4	.1
303.15	.2	80.6	.1
308.15	.2	78.8	.1
313.15	.2	77	.1
278.15	.25	91.2	.1
283.15	.25	89.3	.1
288.15	.25	87.4	.1
293.15	.25	85.4	.1
298.15	.25	83.5	.1
303.15	.25	81.6	.1
308.15	.25	79.8	.1
313.15	.25	77.9	.1
278.15	.3	92.3	.1
283.15	.3	90.3	.1
288.15	.3	88.3	.1
293.15	.3	86.4	.1
298.15	.3	84.5	.1
303.15	.3	82.6	.1
308.15	.3	80.7	.1
313.15	.3	78.9	.1
278.15	.35	93.2	.1
283.15	.35	91.2	.1
288.15	.35	89.2	.1
293.15	.35	87.2	.1
298.15	.35	85.3	.1
303.15	.35	83.4	.1
308.15	.35	81.5	.1
313.15	.35	79.7	.1

System: glycine + water; phases: Liquid
Fixed: Pressure, kPa = 101
Property: Relative permittivity at zero frequency (Liquid); method: dielectric constant meter
Temperature, K	Molality, mol/kg of glycine	Relative permittivity at zero frequency	uncertainty
278.15	.1	88.2	.1
283.15	.1	86.3	.1
288.15	.1	84.4	.1
293.15	.1	82.5	.1
298.15	.1	80.6	.1
303.15	.1	78.7	.1
308.15	.1	76.9	.1
313.15	.1	75.1	.1
278.15	.15	89.4	.1
283.15	.15	87.5	.1
288.15	.15	85.5	.1
293.15	.15	83.6	.1
298.15	.15	81.7	.1
303.15	.15	79.7	.1
308.15	.15	77.8	.1
313.15	.15	75.8	.1
278.15	.2	90.7	.1
283.15	.2	88.7	.1
288.15	.2	86.7	.1
293.15	.2	84.6	.1
298.15	.2	82.7	.1
303.15	.2	80.6	.1
308.15	.2	78.6	.1
313.15	.2	76.4	.1
278.15	.25	91.6	.1
283.15	.25	89.6	.1
288.15	.25	87.6	.1
293.15	.25	85.4	.1
298.15	.25	83.4	.1
303.15	.25	81.2	.1
308.15	.25	79	.1
313.15	.25	76.8	.1
278.15	.3	92.9	.1
283.15	.3	90.8	.1
288.15	.3	88.7	.1
293.15	.3	86.5	.1
298.15	.3	84.3	.1
303.15	.3	82	.1
308.15	.3	79.7	.1
313.15	.3	77.1	.1
278.15	.35	93.7	.1
283.15	.35	91.6	.1
288.15	.35	89.4	.1
293.15	.35	87.2	.1
298.15	.35	84.9	.1
303.15	.35	82.4	.1
308.15	.35	79.9	.1
313.15	.35	77.2	.1

System: L-alanine + water; phases: Liquid
Fixed: Pressure, kPa = 101
Property: Relative permittivity at zero frequency (Liquid); method: dielectric constant meter
Temperature, K	Molality, mol/kg of L-alanine	Relative permittivity at zero frequency	uncertainty
278.15	.1	88.2	.1
283.15	.1	86.3	.1
288.15	.1	84.4	.1
293.15	.1	82.5	.1
298.15	.1	80.8	.1
303.15	.1	78.9	.1
308.15	.1	77.1	.1
313.15	.1	75.4	.1
278.15	.15	89.4	.1
283.15	.15	87.5	.1
288.15	.15	85.6	.1
293.15	.15	83.7	.1
298.15	.15	81.9	.1
303.15	.15	80	.1
308.15	.15	78.2	.1
313.15	.15	76.3	.1
278.15	.2	90.7	.1
283.15	.2	88.7	.1
288.15	.2	86.8	.1
293.15	.2	84.9	.1
298.15	.2	83.1	.1
303.15	.2	81.2	.1
308.15	.2	79.3	.1
313.15	.2	77.4	.1
278.15	.25	91.8	.1
283.15	.25	89.8	.1
288.15	.25	87.9	.1
293.15	.25	85.9	.1
298.15	.25	84.1	.1
303.15	.25	82.2	.1
308.15	.25	80.3	.1
313.15	.25	78.4	.1
278.15	.3	93	.1
283.15	.3	91	.1
288.15	.3	89	.1
293.15	.3	87.1	.1
298.15	.3	85.3	.1
303.15	.3	83.3	.1
308.15	.3	81.4	.1
313.15	.3	79.5	.1
278.15	.35	94.2	.1
283.15	.35	92.2	.1
288.15	.35	90.2	.1
293.15	.35	88.3	.1
298.15	.35	86.3	.1
303.15	.35	84.3	.1
308.15	.35	82.4	.1
313.15	.35	80.4	.1

System: L-serine + water; phases: Liquid
Fixed: Pressure, kPa = 101
Property: Relative permittivity at zero frequency (Liquid); method: dielectric constant meter
Temperature, K	Molality, mol/kg of L-serine	Relative permittivity at zero frequency	uncertainty
278.15	.1	88.2	.1
283.15	.1	86.3	.1
288.15	.1	84.5	.1
293.15	.1	82.6	.1
298.15	.1	80.7	.1
303.15	.1	78.8	.1
308.15	.1	76.9	.1
313.15	.1	75	.1
278.15	.15	89.3	.1
283.15	.15	87.4	.1
288.15	.15	85.5	.1
293.15	.15	83.6	.1
298.15	.15	81.7	.1
303.15	.15	79.8	.1
308.15	.15	77.9	.1
313.15	.15	75.8	.1
278.15	.2	90.6	.1
283.15	.2	88.6	.1
288.15	.2	86.6	.1
293.15	.2	84.7	.1
298.15	.2	82.8	.1
303.15	.2	80.7	.1
308.15	.2	78.7	.1
313.15	.2	76.5	.1
278.15	.25	91.6	.1
283.15	.25	89.6	.1
288.15	.25	87.7	.1
293.15	.25	85.7	.1
298.15	.25	83.7	.1
303.15	.25	81.4	.1
308.15	.25	79.1	.1
313.15	.25	76.6	.1
278.15	.3	92.8	.1
283.15	.3	90.8	.1
288.15	.3	88.8	.1
293.15	.3	86.8	.1
298.15	.3	84.7	.1
303.15	.3	82.5	.1
308.15	.3	80.2	.1
313.15	.3	77.6	.1
278.15	.35	93.9	.1
283.15	.35	91.9	.1
288.15	.35	89.9	.1
293.15	.35	87.7	.1
298.15	.35	85.6	.1
303.15	.35	83.3	.1
308.15	.35	81	.1
313.15	.35	77.8	.1
