Measured thermophysical data. Mass Diffusion Coefficients of Oxygenated Fuel Additives in Diesel Oil and in Heptane at T=(276 to 333) K
Source: J. Chem. Eng. Data, 2009, 10.1021/je800747v
Compound 1: 2,5,8-trioxanonane, C6H14O3
Compound 2: 1,2-dimethoxyethane, C4H10O2
Compound 3: ethanol, C2H6O
Compound 4: heptane, C7H16
Compound 5: potassium chloride, ClK
Compound 6: water, H2O

System: potassium chloride + water; phases: Liquid
Fixed: Pressure, kPa = 101
Fixed: Temperature, K = 298.15
Property: Binary diffusion coefficient, m2/s (Liquid); method: Optical method
Mole fraction of potassium chloride	Binary diffusion coefficient, m2/s	uncertainty
0	0.000000001863	.000000000001863

System: 1,2-dimethoxyethane + heptane; phases: Liquid
Fixed: Pressure, kPa = 101
Fixed: Mole fraction of 1,2-dimethoxyethane = 0
Property: Binary diffusion coefficient, m2/s (Liquid); method: Optical method
Temperature, K	Binary diffusion coefficient, m2/s	uncertainty
276.64	0.000000005243	.000000000012
277.73	0.000000005275	.000000000016
281.59	0.000000005313	.000000000011
284.32	0.000000005351	.000000000013
287.28	0.000000005396	.000000000013
289.59	0.000000005437	.000000000012
292.83	0.000000005513	.000000000012
294.95	0.000000005567	.000000000016
296.37	0.000000005634	.000000000014
298.46	0.000000005692	.00000000001
301.29	0.000000005793	.000000000012
304.98	0.000000005886	.000000000013
306.86	0.000000005982	.000000000016
310.67	0.000000006129	.00000000001
312.41	0.000000006296	.000000000014
316.09	0.000000006478	.000000000013
319.27	0.000000006619	.000000000015
322.81	0.000000006786	.00000000002
325.36	0.000000006939	.000000000015
328.78	0.000000007295	.000000000016
332.63	0.000000007593	.000000000015

System: 2,5,8-trioxanonane + heptane; phases: Liquid
Fixed: Pressure, kPa = 101
Fixed: Mole fraction of 2,5,8-trioxanonane = 0
Property: Binary diffusion coefficient, m2/s (Liquid); method: Optical method
Temperature, K	Binary diffusion coefficient, m2/s	uncertainty
276.64	0.000000000942	.0000000000028
277.73	0.000000000948	.0000000000017
281.59	0.000000000951	.0000000000022
284.32	0.000000000958	.0000000000021
287.28	0.000000000976	.0000000000022
289.59	0.000000000987	.0000000000025
292.83	0.000000001005	.0000000000022
294.95	0.000000001024	.0000000000022
296.37	0.000000001046	.0000000000023
298.46	0.000000001068	.0000000000024
301.29	0.000000001084	.000000000002
304.98	0.000000001116	.000000000002
306.86	0.000000001141	.000000000003
310.67	0.000000001178	.0000000000021
312.41	0.000000001225	.0000000000027
316.09	0.000000001258	.0000000000025
319.27	0.000000001314	.0000000000031
322.81	0.000000001369	.0000000000033
325.36	0.000000001428	.0000000000029
328.78	0.000000001484	.0000000000041
332.63	0.000000001529	.0000000000033

System: ethanol + heptane; phases: Liquid
Fixed: Pressure, kPa = 101
Fixed: Mole fraction of ethanol = 0
Property: Binary diffusion coefficient, m2/s (Liquid); method: Optical method
Temperature, K	Binary diffusion coefficient, m2/s	uncertainty
276.64	0.000000007572	.000000000015
277.73	0.000000007613	.000000000021
281.59	0.000000007641	.000000000015
284.32	0.000000007695	.000000000017
287.28	0.000000007754	.000000000014
289.59	0.000000007786	.000000000017
292.83	0.000000007841	.000000000016
294.95	0.000000007898	.000000000013
296.37	0.000000007936	.00000000002
298.46	0.000000008067	.00000000002
301.29	0.000000008193	.000000000015
304.98	0.000000008224	.000000000018
306.86	0.000000008365	.00000000002
310.67	0.000000008471	.000000000018
312.41	0.000000008582	.000000000018
316.09	0.000000008712	.000000000019
319.27	0.000000008906	.000000000018
322.81	0.000000009174	.000000000029
325.36	0.000000009219	.00000000002
328.78	0.000000009361	.000000000024
332.63	0.000000009503	.000000000019
