Measured thermophysical data. Isobaric Vapor-Liquid Equilibria for 1-Propanol + Water +  1-Ethyl-3-methylimidazolium Trifluoromethanesulfonate at 100 kPa
Source: J. Chem. Eng. Data, 2008, 10.1021/je800436u
Compound 1: 1-propanol, C3H8O, purity 99.5%
Compound 2: water, H2O
Compound 3: 1-ethyl-3-methylimidazolium trifluoromethanesulfonate, C7H11F3N2O3S

System: 1-propanol; phases: Liquid, Gas
Property: Vapor or sublimation pressure, kPa (Liquid); method: Ebulliometric method (Recirculating still)
Temperature, K	Vapor or sublimation pressure, kPa	uncertainty
332	2.952	.037
337	3.198	.037
342	3.435	.037
347	3.663	.037
352	3.882	.037
357	4.094	.037
362	4.298	.037
367	4.496	.037
372	4.686	.037
377	4.87	.037

System: water; phases: Liquid, Gas
Property: Vapor or sublimation pressure, kPa (Liquid); method: Ebulliometric method (Recirculating still)
Temperature, K	Vapor or sublimation pressure, kPa	uncertainty
331	2.872	.024
336	3.107	.024
341	3.334	.024
346	3.553	.024
351	3.764	.024
356	3.968	.024
361	4.165	.024
366	4.356	.024
371	4.54	.024
376	4.718	.024
381	4.891	.024

System: 1-propanol + water; phases: Gas, Liquid
Fixed: Pressure, kPa = 100
Property: Mole fraction of 1-propanol (Gas); method: Chromatography
Mole fraction of 1-propanol	Mole fraction of 1-propanol	uncertainty
0	0	.001
.008	.139	.001
.014	.213	.001
.028	.297	.001
.048	.353	.001
.075	.373	.001
.111	.383	.001
.15	.388	.001
.192	.393	.001
.233	.397	.001
.269	.401	.001
.311	.408	.001
.352	.414	.001
.396	.422	.001
.44	.432	.001
.484	.446	.001
.524	.462	.001
.573	.478	.001
.618	.499	.001
.669	.526	.001
.726	.566	.001
.773	.606	.001
.82	.658	.001
.873	.727	.001
.916	.796	.001
.956	.882	.001
.977	.927	.001
1	1	.001

System: 1-propanol + water; phases: Liquid, Gas
Fixed: Pressure, kPa = 100
Property: Boiling temperature at pressure P, K (Liquid); method: Ebulliometric method (Recirculating still)
Mole fraction of 1-propanol	Boiling temperature at pressure P, K	uncertainty
0	372.81	.01
.008	368.64	.01
.014	366.69	.01
.028	364.09	.01
.048	362.46	.01
.075	361.56	.01
.111	361.15	.01
.15	360.99	.01
.192	360.85	.01
.233	360.73	.01
.269	360.65	.01
.311	360.59	.01
.352	360.53	.01
.396	360.51	.01
.44	360.49	.01
.484	360.52	.01
.524	360.57	.01
.573	360.77	.01
.618	360.98	.01
.669	361.33	.01
.726	361.98	.01
.773	362.66	.01
.82	363.61	.01
.873	364.92	.01
.916	366.2	.01
.956	367.77	.01
.977	368.56	.01
1	369.87	.01

System: 1-propanol + 1-ethyl-3-methylimidazolium trifluoromethanesulfonate; phases: Liquid, Gas
Fixed: Pressure, kPa = 100
Property: Boiling temperature at pressure P, K (Liquid); method: Ebulliometric method (Recirculating still)
Mole fraction of 1-ethyl-3-methylimidazolium trifluoromethanesulfonate	Boiling temperature at pressure P, K	uncertainty
0	369.86	.01
.0081	370.05	.01
.0106	370.13	.01
.0143	370.15	.01
.0186	370.29	.01
.023	370.3	.01
.0279	370.43	.01
.0345	370.46	.01
.0397	370.56	.01
.0477	370.65	.01
.0521	370.77	.01
.0627	370.9	.01
.066	371.02	.01
.0778	371.09	.01
.0822	371.22	.01
.0948	371.37	.01
.0989	371.48	.01
.1128	371.69	.01
.1139	371.76	.01
.1275	371.95	.01
.1325	372.02	.01
.1421	372.25	.01
.1557	372.48	.01
.1634	372.66	.01
.178	372.96	.01
.1782	372.85	.01
.2016	373.39	.01
.2164	373.69	.01
.2238	373.83	.01
.239	374.18	.01
.2554	374.64	.01
.2705	374.95	.01
.2777	375.25	.01
.2859	375.41	.01
.2969	375.63	.01
.3027	375.73	.01
.321	376.39	.01
.3354	376.63	.01
.3455	377.04	.01

System: water + 1-ethyl-3-methylimidazolium trifluoromethanesulfonate; phases: Liquid, Gas
Fixed: Pressure, kPa = 100
Property: Boiling temperature at pressure P, K (Liquid); method: Ebulliometric method (Recirculating still)
Mole fraction of 1-ethyl-3-methylimidazolium trifluoromethanesulfonate	Boiling temperature at pressure P, K	uncertainty
0	372.81	.01
.0029	372.95	.01
.0069	373.13	.01
.0143	373.37	.01
.0251	373.67	.01
.0367	373.94	.01
.0489	374.19	.01
.0603	374.44	.01
.0725	374.71	.01
.0874	375.05	.01
.0988	375.34	.01
.1091	375.6	.01
.119	375.87	.01
.1298	376.21	.01
.1413	376.56	.01
.1546	376.99	.01
.1699	377.55	.01
.1868	378.25	.01
.2016	378.84	.01
.2167	379.51	.01
.2327	380.15	.01
.2482	380.9	.01
.2635	381.75	.01
.2836	382.56	.01
.301	383.81	.01
.3199	384.89	.01
.3359	385.7	.01
.3561	387.14	.01
.3741	388.41	.01
.3971	389.81	.01
.4145	391.1	.01

System: 1-propanol + water + 1-ethyl-3-methylimidazolium trifluoromethanesulfonate; phases: Gas, Liquid
Fixed: Pressure, kPa = 100
Property: Mole fraction of 1-propanol (Gas); method: Chromatography
Mole fraction of 1-ethyl-3-methylimidazolium trifluoromethanesulfonate	Solvent: Mole fraction of 1-propanol	Mole fraction of 1-propanol	uncertainty
.055	0	0	.001
.0543	.009	.059	.001
.0538	.03	.189	.001
.0533	.079	.301	.001
.055	.157	.373	.001
.0559	.238	.41	.001
.0558	.334	.445	.001
.0566	.434	.481	.001
.0576	.523	.516	.001
.0583	.604	.554	.001
.0592	.68	.603	.001
.0597	.752	.663	.001
.0594	.82	.724	.001
.0581	.879	.784	.001
.0587	.928	.846	.001
.059	.961	.901	.001
.0589	.98	.945	.001
.0627	1	1	.001
.1015	0	0	.001
.1004	.024	.107	.001
.1024	.058	.198	.001
.1009	.106	.279	.001
.099	.164	.346	.001
.0991	.24	.401	.001
.0996	.323	.439	.001
.0992	.403	.473	.001
.0985	.483	.511	.001
.0983	.571	.563	.001
.0983	.658	.616	.001
.0981	.737	.678	.001
.0974	.798	.728	.001
.0987	.851	.778	.001
.1003	.897	.841	.001
.103	.935	.882	.001
.1041	.966	.936	.001
.0989	1	1	.001
.2069	0	0	.001
.201	.023	.081	.001
.198	.054	.158	.001
.1956	.093	.232	.001
.1925	.146	.304	.001
.191	.211	.371	.001
.1909	.284	.427	.001
.1904	.361	.478	.001
.1908	.45	.527	.001
.1903	.542	.585	.001
.1897	.624	.64	.001
.1887	.699	.694	.001
.1882	.761	.74	.001
.1863	.829	.799	.001
.1883	.883	.848	.001
.1877	.923	.893	.001
.1886	.955	.932	.001
.1782	1	1	.001
.301	0	0	.001
.3164	.013	.036	.001
.3165	.029	.081	.001
.312	.066	.166	.001
.3158	.126	.27	.001
.3142	.184	.344	.001
.3143	.248	.405	.001
.3136	.326	.465	.001
.3113	.403	.522	.001
.3061	.471	.577	.001
.3029	.548	.633	.001
.3	.628	.69	.001
.2988	.705	.741	.001
.294	.768	.794	.001
.2951	.837	.848	.001
.2945	.894	.896	.001
.2955	.956	.951	.001
.2969	1	1	.001

System: 1-propanol + water + 1-ethyl-3-methylimidazolium trifluoromethanesulfonate; phases: Liquid, Gas
Fixed: Pressure, kPa = 100
Property: Boiling temperature at pressure P, K (Liquid); method: Ebulliometric method (Recirculating still)
Mole fraction of 1-ethyl-3-methylimidazolium trifluoromethanesulfonate	Solvent: Mole fraction of 1-propanol	Boiling temperature at pressure P, K	uncertainty
.055	0	374.28	.01
.0543	.009	372.38	.01
.0538	.03	369.25	.01
.0533	.079	365.3	.01
.055	.157	363.42	.01
.0559	.238	362.6	.01
.0558	.334	362.14	.01
.0566	.434	362.08	.01
.0576	.523	362.32	.01
.0583	.604	362.71	.01
.0592	.68	363.4	.01
.0597	.752	364.3	.01
.0594	.82	365.37	.01
.0581	.879	366.51	.01
.0587	.928	367.86	.01
.059	.961	369.02	.01
.0589	.98	369.82	.01
.0627	1	370.9	.01
.1015	0	375.27	.01
.1004	.024	372.67	.01
.1024	.058	370.54	.01
.1009	.106	367.41	.01
.099	.164	365.32	.01
.0991	.24	364.23	.01
.0996	.323	363.67	.01
.0992	.403	363.45	.01
.0985	.483	363.53	.01
.0983	.571	363.93	.01
.0983	.658	364.58	.01
.0981	.737	365.51	.01
.0974	.798	366.47	.01
.0987	.851	367.53	.01
.1003	.897	368.62	.01
.103	.935	369.76	.01
.1041	.966	370.51	.01
.0989	1	371.48	.01
.2069	0	378.88	.01
.201	.023	376.61	.01
.198	.054	375.05	.01
.1956	.093	372.3	.01
.1925	.146	370.18	.01
.191	.211	368.51	.01
.1909	.284	367.48	.01
.1904	.361	367.02	.01
.1908	.45	366.77	.01
.1903	.542	366.97	.01
.1897	.624	367.56	.01
.1887	.699	368.11	.01
.1882	.761	368.91	.01
.1863	.829	369.75	.01
.1883	.883	370.68	.01
.1877	.923	371.54	.01
.1886	.955	372.28	.01
.1782	1	372.85	.01
.301	0	383.81	.01
.3164	.013	383.33	.01
.3165	.029	382.06	.01
.312	.066	379.78	.01
.3158	.126	377.54	.01
.3142	.184	375.79	.01
.3143	.248	374.19	.01
.3136	.326	373.08	.01
.3113	.403	372.46	.01
.3061	.471	372.1	.01
.3029	.548	372.14	.01
.3	.628	372.25	.01
.2988	.705	372.62	.01
.294	.768	372.96	.01
.2951	.837	373.74	.01
.2945	.894	374.29	.01
.2955	.956	374.97	.01
.2969	1	375.63	.01
