Measured thermophysical data. Surface Tension of Aqueous Solutions of Short N-Alkyl-2-pyrrolidinones
Source: J. Chem. Eng. Data, 2008, 10.1021/je800589e
Compound 1: water, H2O
Compound 2: 2-pyrrolidinone, C4H7NO
Compound 3: N-methyl-2-pyrrolidone, C5H9NO
Compound 4: 1-ethyl-2-pyrrolidinone, C6H11NO

System: 2-pyrrolidinone + water; phases: Liquid, Air at 1 atmosphere
Property: Surface tension liquid-gas, N/m (Liquid); method: Ring tensiometer
Temperature, K	Mole fraction of 2-pyrrolidinone	Surface tension liquid-gas, N/m	uncertainty
293.15	0	.07265	.00007
293.15	.0002	.0604	.00007
293.15	.0006	.05569	.00007
293.15	.01	.0529	.00007
293.15	.015	.0524	.00007
293.15	.05	.05072	.00007
293.15	.07	.05026	.00007
293.15	.1	.04996	.00007
293.15	.2	.04891	.00007
293.15	.3	.04793	.00007
293.15	.4	.04754	.00007
293.15	.5	.04717	.00007
293.15	.6	.0471	.00007
293.15	.7	.0471	.00007
293.15	.8	.04694	.00007
293.15	.9	.04664	.00007
293.15	1	.04631	.00007
298.15	0	.07205	.00007
298.15	.0002	.0589	.00007
298.15	.0006	.0546	.00007
298.15	.01	.05168	.00007
298.15	.015	.05119	.00007
298.15	.05	.04958	.00007
298.15	.07	.04928	.00007
298.15	.1	.04891	.00007
298.15	.2	.04808	.00007
298.15	.3	.04717	.00007
298.15	.4	.04687	.00007
298.15	.5	.04672	.00007
298.15	.6	.04664	.00007
298.15	.7	.04642	.00007
298.15	.8	.04642	.00007
298.15	.9	.04611	.00007
298.15	1	.04581	.00007
303.15	0	.07121	.00007
303.15	.0002	.0573	.00007
303.15	.0006	.05393	.00007
303.15	.01	.0508	.00007
303.15	.015	.05023	.00007
303.15	.05	.04868	.00007
303.15	.07	.04845	.00007
303.15	.1	.048	.00007
303.15	.2	.04709	.00007
303.15	.3	.04642	.00007
303.15	.4	.04619	.00007
303.15	.5	.04602	.00007
303.15	.6	.04581	.00007
303.15	.7	.04566	.00007
303.15	.8	.04566	.00007
303.15	.9	.04551	.00007
303.15	1	.04522	.00007
313.15	0	.06952	.00007
313.15	.0002	.0554	.00007
313.15	.0006	.0522	.00007
313.15	.01	.0498	.00007
313.15	.015	.0493	.00007
313.15	.05	.04777	.00007
313.15	.07	.047	.00007
313.15	.1	.04649	.00007
313.15	.2	.04589	.00007
313.15	.3	.04543	.00007
313.15	.4	.04528	.00007
313.15	.5	.04521	.00007
313.15	.6	.04491	.00007
313.15	.7	.045	.00007
313.15	.8	.04468	.00007
313.15	.9	.04453	.00007
313.15	1	.04412	.00007
323.15	0	.06792	.00007
323.15	.0002	.0532	.00007
323.15	.0006	.05105	.00007
323.15	.01	.0491	.00007
323.15	.015	.0487	.00007
323.15	.05	.04634	.00007
323.15	.07	.04589	.00007
323.15	.1	.04558	.00007
323.15	.2	.04513	.00007
323.15	.3	.0446	.00007
323.15	.4	.04453	.00007
323.15	.5	.04445	.00007
323.15	.6	.04415	.00007
323.15	.7	.04423	.00007
323.15	.8	.04385	.00007
323.15	.9	.04377	.00007
323.15	1	.04319	.00007

System: N-methyl-2-pyrrolidone + water; phases: Liquid, Air at 1 atmosphere
Property: Surface tension liquid-gas, N/m (Liquid); method: Ring tensiometer
Temperature, K	Mole fraction of N-methyl-2-pyrrolidone	Surface tension liquid-gas, N/m	uncertainty
293.15	0	.07265	.00007
293.15	.0002	.06396	.00007
293.15	.0004	.05814	.00007
293.15	.0006	.05521	.00007
293.15	.001	.0535	.00007
293.15	.005	.0524	.00007
293.15	.01	.0516	.00007
293.15	.03	.0502	.00007
293.15	.1	.049	.00007
293.15	.2	.04805	.00007
293.15	.4	.04605	.00007
293.15	.5	.04526	.00007
293.15	.6	.04446	.00007
293.15	.7	.04366	.00007
293.15	.8	.04278	.00007
293.15	.9	.04198	.00007
293.15	1	.04126	.00007
298.15	0	.07205	.00007
298.15	.0002	.0615	.00007
298.15	.0004	.05658	.00007
298.15	.0006	.05422	.00007
298.15	.001	.05286	.00007
298.15	.005	.05168	.00007
298.15	.01	.05078	.00007
298.15	.03	.04941	.00007
298.15	.1	.04829	.00007
298.15	.2	.04749	.00007
298.15	.4	.04542	.00007
298.15	.5	.04462	.00007
298.15	.6	.04382	.00007
298.15	.7	.043	.00007
298.15	.8	.04214	.00007
298.15	.9	.04134	.00007
298.15	1	.0408	.00007
303.15	0	.07121	.00007
303.15	.0002	.05925	.00007
303.15	.0004	.05568	.00007
303.15	.0006	.05341	.00007
303.15	.001	.05223	.00007
303.15	.005	.05087	.00007
303.15	.01	.05	.00007
303.15	.03	.04853	.00007
303.15	.1	.04749	.00007
303.15	.2	.04661	.00007
303.15	.4	.04494	.00007
303.15	.5	.044	.00007
303.15	.6	.0431	.00007
303.15	.7	.04238	.00007
303.15	.8	.04166	.00007
303.15	.9	.04094	.00007
303.15	1	.04038	.00007
313.15	0	.06952	.00007
313.15	.0002	.057	.00007
313.15	.0004	.05377	.00007
313.15	.0006	.05205	.00007
313.15	.001	.05105	.00007
313.15	.005	.04969	.00007
313.15	.01	.04887	.00007
313.15	.03	.04717	.00007
313.15	.1	.04634	.00007
313.15	.2	.0455	.00007
313.15	.4	.044	.00007
313.15	.5	.04312	.00007
313.15	.6	.0423	.00007
313.15	.7	.0415	.00007
313.15	.8	.04078	.00007
313.15	.9	.04014	.00007
313.15	1	.03964	.00007
323.15	0	.06792	.00007
323.15	.0002	.055	.00007
323.15	.0004	.05241	.00007
323.15	.0006	.05087	.00007
323.15	.001	.05014	.00007
323.15	.005	.04878	.00007
323.15	.01	.04805	.00007
323.15	.03	.04556	.00007
323.15	.1	.0446	.00007
323.15	.2	.0437	.00007
323.15	.4	.0424	.00007
323.15	.5	.04181	.00007
323.15	.6	.04118	.00007
323.15	.7	.04046	.00007
323.15	.8	.03974	.00007
323.15	.9	.03927	.00007
323.15	1	.03868	.00007

System: 1-ethyl-2-pyrrolidinone + water; phases: Liquid, Air at 1 atmosphere
Property: Surface tension liquid-gas, N/m (Liquid); method: Ring tensiometer
Temperature, K	Mole fraction of 1-ethyl-2-pyrrolidinone	Surface tension liquid-gas, N/m	uncertainty
293.15	0	.07265	.00007
293.15	.0002	.06516	.00007
293.15	.0005	.05961	.00007
293.15	.001	.0563	.00007
293.15	.01	.04862	.00007
293.15	.02	.04412	.00007
293.15	.05	.04348	.00007
293.15	.1	.04211	.00007
293.15	.2	.0409	.00007
293.15	.3	.04028	.00007
293.15	.4	.03963	.00007
293.15	.5	.03925	.00007
293.15	.6	.0386	.00007
293.15	.7	.03804	.00007
293.15	.8	.03771	.00007
293.15	.9	.03709	.00007
293.15	1	.03648	.00007
298.15	0	.07205	.00007
298.15	.0002	.06284	.00007
298.15	.0005	.05785	.00007
298.15	.001	.05477	.00007
298.15	.01	.04751	.00007
298.15	.02	.04328	.00007
298.15	.05	.04253	.00007
298.15	.1	.04122	.00007
298.15	.2	.04009	.00007
298.15	.3	.03944	.00007
298.15	.4	.03873	.00007
298.15	.5	.03823	.00007
298.15	.6	.03789	.00007
298.15	.7	.03701	.00007
298.15	.8	.03663	.00007
298.15	.9	.03617	.00007
298.15	1	.03565	.00007
303.15	0	.07121	.00007
303.15	.0002	.06076	.00007
303.15	.0005	.05595	.00007
303.15	.001	.05323	.00007
303.15	.01	.04659	.00007
303.15	.02	.04253	.00007
303.15	.05	.04179	.00007
303.15	.1	.04042	.00007
303.15	.2	.03935	.00007
303.15	.3	.03852	.00007
303.15	.4	.03787	.00007
303.15	.5	.03731	.00007
303.15	.6	.03694	.00007
303.15	.7	.03639	.00007
303.15	.8	.0359	.00007
303.15	.9	.03563	.00007
303.15	1	.035	.00007
313.15	0	.06952	.00007
313.15	.0002	.05813	.00007
313.15	.0005	.05314	.00007
313.15	.001	.051	.00007
313.15	.01	.04511	.00007
313.15	.02	.0414	.00007
313.15	.05	.04032	.00007
313.15	.1	.0393	.00007
313.15	.2	.03843	.00007
313.15	.3	.03759	.00007
313.15	.4	.03687	.00007
313.15	.5	.0362	.00007
313.15	.6	.03583	.00007
313.15	.7	.03535	.00007
313.15	.8	.03508	.00007
313.15	.9	.03472	.00007
313.15	1	.03435	.00007
323.15	0	.06792	.00007
323.15	.0002	.05344	.00007
323.15	.0005	.05014	.00007
323.15	.001	.049	.00007
323.15	.01	.04384	.00007
323.15	.02	.0402	.00007
323.15	.05	.03926	.00007
323.15	.1	.03832	.00007
323.15	.2	.03722	.00007
323.15	.3	.03648	.00007
323.15	.4	.03572	.00007
323.15	.5	.03526	.00007
323.15	.6	.03486	.00007
323.15	.7	.03472	.00007
323.15	.8	.03435	.00007
323.15	.9	.034	.00007
323.15	1	.03361	.00007
