Measured thermophysical data. Excess Enthalpy, Density, and Speed of Sound for the Ternary Mixture Methyl  tert-Butyl Ether (1) + Butan-1-ol (2) + Octane (3)
Source: J. Chem. Eng. Data, 2009, 10.1021/je8004613
Compound 1: methyl tert-butyl ether, C5H12O, purity 99.8%
Compound 2: 1-butanol, C4H10O, purity 98.8%
Compound 3: octane, C8H18, purity 99.5%

System: octane; phases: Liquid
Fixed: Pressure, kPa = 101.325
Property: Mass density, kg/m3 (Liquid); method: Vibrating tube method
Temperature, K	Mass density, kg/m3	uncertainty
288.15	706.58	
293.15	702.57	
298.15	698.55	
303.15	694.48	
308.15	690.42	

System: octane; phases: Liquid
Fixed: Pressure, kPa = 101.325
Property: Speed of sound, m/s (Liquid); method: Pulse-echo method
Temperature, K	Speed of sound, m/s	uncertainty
288.15	1213.6	
293.15	1193	
298.15	1171.9	
303.15	1151	
308.15	1130.3	

System: 1-butanol + octane + methyl tert-butyl ether; phases: Liquid
Fixed: Pressure, kPa = 101
Property: Mass density, kg/m3 (Liquid); method: Vibrating tube method
Temperature, K	Mole fraction of methyl tert-butyl ether	Mole fraction of 1-butanol	Mass density, kg/m3	uncertainty
288.15	.0681	0	708.15	.05
288.15	.1226	0	709.47	.05
288.15	.2056	0	711.65	.05
288.15	.3046	0	714.48	.05
288.15	.4001	0	717.54	.05
288.15	.4535	0	719.37	.05
288.15	.4947	0	720.85	.05
288.15	.5442	0	722.73	.05
288.15	.5996	0	724.94	.05
288.15	.6916	0	728.91	.05
288.15	.8001	0	734.16	.05
288.15	.9007	0	739.68	.05
288.15	.9487	0	742.54	.05
288.15	.0668	.0504	710.98	.05
288.15	.056	.8928	800.22	.05
288.15	.1149	.0988	715.58	.05
288.15	.1125	.1968	722.58	.05
288.15	.1094	.2933	730.25	.05
288.15	.1123	.3915	739.26	.05
288.15	.1082	.4831	748.29	.05
288.15	.1037	.5963	761.06	.05
288.15	.1066	.6951	774.15	.05
288.15	.103	.7987	789.45	.05
288.15	.2079	.0974	718.54	.05
288.15	.2044	.1957	726.11	.05
288.15	.2052	.2972	735.02	.05
288.15	.2142	.3922	744.88	.05
288.15	.2072	.494	755.82	.05
288.15	.21	.5926	768.56	.05
288.15	.206	.6951	783.12	.05
288.15	.2985	.098	721.81	.05
288.15	.3011	.197	730.34	.05
288.15	.3023	.2975	739.97	.05
288.15	.3037	.3946	750.53	.05
288.15	.3017	.4935	762.43	.05
288.15	.3016	.5984	777.17	.05
288.15	.4026	.0951	725.61	.05
288.15	.4008	.1978	735.07	.05
288.15	.4075	.2953	745.61	.05
288.15	.4067	.3914	756.93	.05
288.15	.411	.4865	770.09	.05
288.15	.4943	.0987	729.85	.05
288.15	.4926	.1999	740	.05
288.15	.4921	.3013	751.56	.05
288.15	.4995	.4003	765.05	.05
288.15	.5949	.0999	734.75	.05
288.15	.5955	.2006	746.01	.05
288.15	.5999	.3004	758.91	.05
288.15	.6919	.0998	739.86	.05
288.15	.7003	.1989	752.52	.05
288.15	.8	.1005	746.31	.05
288.15	.9016	.0487	746.02	.05
293.15	.0681	0	704.08	.05
293.15	.1226	0	705.36	.05
293.15	.2056	0	707.48	.05
293.15	.3046	0	710.23	.05
293.15	.4001	0	713.19	.05
293.15	.4535	0	714.96	.05
293.15	.4947	0	716.4	.05
293.15	.5442	0	718.21	.05
293.15	.5996	0	720.36	.05
293.15	.6916	0	724.2	.05
293.15	.8001	0	729.3	.05
293.15	.9007	0	734.66	.05
293.15	.9487	0	737.44	.05
293.15	.0668	.0504	706.89	.05
293.15	.056	.8928	796.34	.05
293.15	.1149	.0988	711.44	.05
293.15	.1125	.1968	718.44	.05
293.15	.1094	.2933	726.1	.05
293.15	.1123	.3915	735.12	.05
293.15	.1082	.4831	744.17	.05
293.15	.1037	.5963	756.96	.05
293.15	.1066	.6951	770.1	.05
293.15	.103	.7987	785.46	.05
293.15	.2079	.0974	714.33	.05
293.15	.2044	.1957	721.88	.05
293.15	.2052	.2972	730.81	.05
293.15	.2142	.3922	740.66	.05
293.15	.2072	.494	751.62	.05
293.15	.21	.5926	764.4	.05
293.15	.206	.6951	779	.05
293.15	.2985	.098	717.51	.05
293.15	.3011	.197	726.04	.05
293.15	.3023	.2975	735.68	.05
293.15	.3037	.3946	746.24	.05
293.15	.3017	.4935	758.16	.05
293.15	.3016	.5984	772.93	.05
293.15	.4026	.0951	721.22	.05
293.15	.4008	.1978	730.67	.05
293.15	.4075	.2953	741.21	.05
293.15	.4067	.3914	752.53	.05
293.15	.411	.4865	765.71	.05
293.15	.4943	.0987	725.37	.05
293.15	.4926	.1999	735.5	.05
293.15	.4921	.3013	747.06	.05
293.15	.4995	.4003	760.55	.05
293.15	.5949	.0999	730.14	.05
293.15	.5955	.2006	741.38	.05
293.15	.5999	.3004	754.28	.05
293.15	.6919	.0998	735.11	.05
293.15	.7003	.1989	747.75	.05
293.15	.8	.1005	741.42	.05
293.15	.9016	.0487	740.99	.05
298.15	.0681	0	700.01	.05
298.15	.1226	0	701.24	.05
298.15	.2056	0	703.29	.05
298.15	.3046	0	705.96	.05
298.15	.4001	0	708.81	.05
298.15	.4535	0	710.53	.05
298.15	.4947	0	711.92	.05
298.15	.5442	0	713.67	.05
298.15	.5996	0	715.75	.05
298.15	.6916	0	719.47	.05
298.15	.8001	0	724.41	.05
298.15	.9007	0	729.6	.05
298.15	.0668	.0504	702.77	.05
298.15	.056	.8928	792.42	.05
298.15	.1149	.0988	707.29	.05
298.15	.1125	.1968	714.26	.05
298.15	.1094	.2933	721.93	.05
298.15	.1123	.3915	730.95	.05
298.15	.1082	.4831	740.02	.05
298.15	.1037	.5963	752.85	.05
298.15	.1066	.6951	766.03	.05
298.15	.103	.7987	781.46	.05
298.15	.2079	.0974	710.1	.05
298.15	.2044	.1957	717.64	.05
298.15	.2052	.2972	726.56	.05
298.15	.2142	.3922	736.42	.05
298.15	.2072	.494	747.4	.05
298.15	.21	.5926	760.21	.05
298.15	.206	.6951	774.85	.05
298.15	.2985	.098	713.21	.05
298.15	.3011	.197	721.71	.05
298.15	.3023	.2975	731.35	.05
298.15	.3037	.3946	741.93	.05
298.15	.3017	.4935	753.86	.05
298.15	.3016	.5984	768.66	.05
298.15	.4026	.0951	716.81	.05
298.15	.4008	.1978	726.25	.05
298.15	.4075	.2953	736.78	.05
298.15	.4067	.3914	748.1	.05
298.15	.411	.4865	761.3	.05
298.15	.4943	.0987	720.84	.05
298.15	.4926	.1999	730.97	.05
298.15	.4921	.3013	742.53	.05
298.15	.4995	.4003	756.02	.05
298.15	.5949	.0999	725.49	.05
298.15	.5955	.2006	736.73	.05
298.15	.5999	.3004	749.61	.05
298.15	.6919	.0998	730.34	.05
298.15	.7003	.1989	742.96	.05
298.15	.8	.1005	736.48	.05
298.15	.9016	.0487	735.91	.05
303.15	.0681	0	695.91	.05
303.15	.1226	0	697.1	.05
303.15	.2056	0	699.07	.05
303.15	.3046	0	701.64	.05
303.15	.4001	0	704.4	.05
303.15	.4535	0	706.06	.05
303.15	.4947	0	707.4	.05
303.15	.5442	0	709.09	.05
303.15	.5996	0	711.1	.05
303.15	.6916	0	714.7	.05
303.15	.8001	0	719.47	.05
303.15	.9007	0	724.5	.05
303.15	.9487	0	727.1	.05
303.15	.0668	.0504	698.62	.05
303.15	.056	.8928	788.46	.05
303.15	.1149	.0988	703.08	.05
303.15	.1125	.1968	710.04	.05
303.15	.1094	.2933	717.71	.05
303.15	.1123	.3915	726.73	.05
303.15	.1082	.4831	735.82	.05
303.15	.1037	.5963	748.69	.05
303.15	.1066	.6951	761.93	.05
303.15	.103	.7987	777.4	.05
303.15	.2079	.0974	705.81	.05
303.15	.2044	.1957	713.35	.05
303.15	.2052	.2972	722.28	.05
303.15	.2142	.3922	732.13	.05
303.15	.2072	.494	743.14	.05
303.15	.21	.5926	755.97	.05
303.15	.206	.6951	770.67	.05
303.15	.2985	.098	708.85	.05
303.15	.3011	.197	717.33	.05
303.15	.3023	.2975	726.96	.05
303.15	.3037	.3946	737.55	.05
303.15	.3017	.4935	749.52	.05
303.15	.3016	.5984	764.35	.05
303.15	.4026	.0951	712.33	.05
303.15	.4008	.1978	721.77	.05
303.15	.4075	.2953	732.29	.05
303.15	.4067	.3914	743.62	.05
303.15	.411	.4865	756.83	.05
303.15	.4943	.0987	716.27	.05
303.15	.4926	.1999	726.4	.05
303.15	.4921	.3013	737.95	.05
303.15	.4995	.4003	751.44	.05
303.15	.5949	.0999	720.8	.05
303.15	.5955	.2006	732.02	.05
303.15	.5999	.3004	744.89	.05
303.15	.6919	.0998	725.51	.05
303.15	.7003	.1989	738.09	.05
303.15	.8	.1005	731.49	.05
303.15	.9016	.0487	730.77	.05
308.15	.0681	0	691.79	.05
308.15	.1226	0	692.93	.05
308.15	.2056	0	694.83	.05
308.15	.3046	0	697.3	.05
308.15	.4001	0	699.96	.05
308.15	.4535	0	701.56	.05
308.15	.4947	0	702.84	.05
308.15	.5442	0	704.48	.05
308.15	.5996	0	706.42	.05
308.15	.6916	0	709.89	.05
308.15	.8001	0	714.49	.05
308.15	.9007	0	719.35	.05
308.15	.9487	0	721.86	.05
308.15	.0668	.0504	694.45	.05
308.15	.056	.8928	784.49	.05
308.15	.1149	.0988	698.85	.05
308.15	.1125	.1968	705.8	.05
308.15	.1094	.2933	713.46	.05
308.15	.1123	.3915	722.49	.05
308.15	.1082	.4831	731.58	.05
308.15	.1037	.5963	744.49	.05
308.15	.1066	.6951	757.77	.05
308.15	.103	.7987	773.33	.05
308.15	.2079	.0974	701.51	.05
308.15	.2044	.1957	709.04	.05
308.15	.2052	.2972	717.95	.05
308.15	.2142	.3922	727.81	.05
308.15	.2072	.494	738.86	.05
308.15	.21	.5926	751.7	.05
308.15	.206	.6951	766.45	.05
308.15	.2985	.098	704.46	.05
308.15	.3011	.197	712.93	.05
308.15	.3023	.2975	722.56	.05
308.15	.3037	.3946	733.15	.05
308.15	.3017	.4935	745.14	.05
308.15	.3016	.5984	760.01	.05
308.15	.4026	.0951	707.85	.05
308.15	.4008	.1978	717.26	.05
308.15	.4075	.2953	727.77	.05
308.15	.4067	.3914	739.12	.05
308.15	.411	.4865	752.34	.05
308.15	.4943	.0987	711.68	.05
308.15	.4926	.1999	721.79	.05
308.15	.4921	.3013	733.34	.05
308.15	.4995	.4003	746.82	.05
308.15	.5949	.0999	716.08	.05
308.15	.5955	.2006	727.27	.05
308.15	.5999	.3004	740.14	.05
308.15	.6919	.0998	720.66	.05
308.15	.7003	.1989	733.2	.05
308.15	.8	.1005	726.48	.05
308.15	.9016	.0487	725.61	.05

System: 1-butanol + octane + methyl tert-butyl ether; phases: Liquid
Fixed: Pressure, kPa = 101
Property: Speed of sound, m/s (Liquid); method: Pulse-echo method
Temperature, K	Mole fraction of methyl tert-butyl ether	Mole fraction of 1-butanol	Speed of sound, m/s	uncertainty
288.15	.0681	0	1205.4	.5
288.15	.1226	0	1198.4	.5
288.15	.2056	0	1187.6	.5
288.15	.3046	0	1174.2	.5
288.15	.4001	0	1161.4	.5
288.15	.4535	0	1154.3	.5
288.15	.4947	0	1148.7	.5
288.15	.5442	0	1142	.5
288.15	.5996	0	1134.7	.5
288.15	.6916	0	1122.5	.5
288.15	.8001	0	1108.1	.5
288.15	.9007	0	1095.1	.5
288.15	.9487	0	1089	.5
288.15	.0668	.0504	1203.6	.5
288.15	.056	.8928	1255.4	.5
288.15	.1149	.0988	1197.8	.5
288.15	.1125	.1968	1199	.5
288.15	.1094	.2933	1201.6	.5
288.15	.1123	.3915	1205.1	.5
288.15	.1082	.4831	1210.3	.5
288.15	.1037	.5963	1218.5	.5
288.15	.1066	.6951	1227.4	.5
288.15	.103	.7987	1239.7	.5
288.15	.2079	.0974	1188.1	.5
288.15	.2044	.1957	1188.8	.5
288.15	.2052	.2972	1191.7	.5
288.15	.2142	.3922	1195	.5
288.15	.2072	.494	1201.8	.5
288.15	.21	.5926	1209.5	.5
288.15	.206	.6951	1220.9	.5
288.15	.2985	.098	1177	.5
288.15	.3011	.197	1179.1	.5
288.15	.3023	.2975	1182.1	.5
288.15	.3037	.3946	1186.2	.5
288.15	.3017	.4935	1193.3	.5
288.15	.3016	.5984	1203.2	.5
288.15	.4026	.0951	1163.8	.5
288.15	.4008	.1978	1166.8	.5
288.15	.4075	.2953	1170.1	.5
288.15	.4067	.3914	1175.8	.5
288.15	.411	.4865	1183.2	.5
288.15	.4943	.0987	1152.8	.5
288.15	.4926	.1999	1156.5	.5
288.15	.4921	.3013	1161.5	.5
288.15	.4995	.4003	1167.9	.5
288.15	.5949	.0999	1140.7	.5
288.15	.5955	.2006	1145	.5
288.15	.5999	.3004	1150.6	.5
288.15	.6919	.0998	1128	.5
288.15	.7003	.1989	1133.2	.5
288.15	.8	.1005	1115.1	.5
288.15	.9016	.0487	1098.6	.5
293.15	.0681	0	1184.6	.5
293.15	.1226	0	1177.6	.5
293.15	.2056	0	1166.7	.5
293.15	.3046	0	1153.1	.5
293.15	.4001	0	1140.2	.5
293.15	.4535	0	1132.9	.5
293.15	.4947	0	1127.2	.5
293.15	.5442	0	1120.6	.5
293.15	.5996	0	1113	.5
293.15	.6916	0	1100.6	.5
293.15	.8001	0	1085.8	.5
293.15	.9007	0	1072.6	.5
293.15	.9487	0	1066.2	.5
293.15	.0668	.0504	1183	.5
293.15	.056	.8928	1237.9	.5
293.15	.1149	.0988	1177.2	.5
293.15	.1125	.1968	1178.5	.5
293.15	.1094	.2933	1181.3	.5
293.15	.1123	.3915	1185	.5
293.15	.1082	.4831	1190.5	.5
293.15	.1037	.5963	1199.1	.5
293.15	.1066	.6951	1208.6	.5
293.15	.103	.7987	1221.4	.5
293.15	.2079	.0974	1166.6	.5
293.15	.2044	.1957	1168.2	.5
293.15	.2052	.2972	1171.3	.5
293.15	.2142	.3922	1174.8	.5
293.15	.2072	.494	1181.9	.5
293.15	.21	.5926	1190.3	.5
293.15	.206	.6951	1202.1	.5
293.15	.2985	.098	1155.6	.5
293.15	.3011	.197	1157.9	.5
293.15	.3023	.2975	1162.1	.5
293.15	.3037	.3946	1166.3	.5
293.15	.3017	.4935	1173.5	.5
293.15	.3016	.5984	1183.9	.5
293.15	.4026	.0951	1142.8	.5
293.15	.4008	.1978	1146.1	.5
293.15	.4075	.2953	1149.6	.5
293.15	.4067	.3914	1155.5	.5
293.15	.411	.4865	1163.3	.5
293.15	.4943	.0987	1131.6	.5
293.15	.4926	.1999	1135.7	.5
293.15	.4921	.3013	1140.8	.5
293.15	.4995	.4003	1147.5	.5
293.15	.5949	.0999	1119.3	.5
293.15	.5955	.2006	1123.9	.5
293.15	.5999	.3004	1129.7	.5
293.15	.6919	.0998	1106.3	.5
293.15	.7003	.1989	1111.4	.5
293.15	.8	.1005	1092.8	.5
293.15	.9016	.0487	1076.3	.5
298.15	.0681	0	1163.5	.5
298.15	.1226	0	1156.3	.5
298.15	.2056	0	1145.4	.5
298.15	.3046	0	1131.8	.5
298.15	.4001	0	1118.7	.5
298.15	.4535	0	1111.2	.5
298.15	.4947	0	1105.4	.5
298.15	.5442	0	1098.7	.5
298.15	.5996	0	1091	.5
298.15	.6916	0	1078.4	.5
298.15	.8001	0	1063.2	.5
298.15	.9007	0	1049.6	.5
298.15	.9487	0	1043.1	.5
298.15	.0668	.0504	1162.1	.5
298.15	.056	.8928	1219.5	.5
298.15	.1149	.0988	1156.3	.5
298.15	.1125	.1968	1157.7	.5
298.15	.1094	.2933	1160.7	.5
298.15	.1123	.3915	1164.6	.5
298.15	.1082	.4831	1170.4	.5
298.15	.1037	.5963	1179.5	.5
298.15	.1066	.6951	1189.4	.5
298.15	.103	.7987	1202.9	.5
298.15	.2079	.0974	1145.5	.5
298.15	.2044	.1957	1147.3	.5
298.15	.2052	.2972	1150.5	.5
298.15	.2142	.3922	1154.3	.5
298.15	.2072	.494	1161.8	.5
298.15	.21	.5926	1170.6	.5
298.15	.206	.6951	1182.9	.5
298.15	.2985	.098	1134.5	.5
298.15	.3011	.197	1137	.5
298.15	.3023	.2975	1140.9	.5
298.15	.3037	.3946	1145.9	.5
298.15	.3017	.4935	1153.3	.5
298.15	.3016	.5984	1164.2	.5
298.15	.4026	.0951	1121.4	.5
298.15	.4008	.1978	1124.8	.5
298.15	.4075	.2953	1128.6	.5
298.15	.4067	.3914	1134.9	.5
298.15	.411	.4865	1143	.5
298.15	.4943	.0987	1110.1	.5
298.15	.4926	.1999	1114.6	.5
298.15	.4921	.3013	1119.8	.5
298.15	.4995	.4003	1126.7	.5
298.15	.5949	.0999	1096.5	.5
298.15	.5955	.2006	1102.6	.5
298.15	.5999	.3004	1108.6	.5
298.15	.6919	.0998	1084.3	.5
298.15	.7003	.1989	1089.6	.5
298.15	.8	.1005	1070.9	.5
298.15	.9016	.0487	1053.2	.5
303.15	.0681	0	1142.6	.5
303.15	.1226	0	1135.4	.5
303.15	.2056	0	1124.3	.5
303.15	.3046	0	1110.5	.5
303.15	.4001	0	1097.1	.5
303.15	.4535	0	1089.6	.5
303.15	.4947	0	1083.8	.5
303.15	.5442	0	1077	.5
303.15	.5996	0	1069.1	.5
303.15	.6916	0	1056.2	.5
303.15	.8001	0	1040.8	.5
303.15	.9007	0	1026.9	.5
303.15	.9487	0	1020.1	.5
303.15	.0668	.0504	1141.1	.5
303.15	.056	.8928	1201.1	.5
303.15	.1149	.0988	1135.4	.5
303.15	.1125	.1968	1136.9	.5
303.15	.1094	.2933	1140.1	.5
303.15	.1123	.3915	1144.2	.5
303.15	.1082	.4831	1150.2	.5
303.15	.1037	.5963	1159.8	.5
303.15	.1066	.6951	1170.4	.5
303.15	.103	.7987	1184.5	.5
303.15	.2079	.0974	1124.5	.5
303.15	.2044	.1957	1126.5	.5
303.15	.2052	.2972	1130	.5
303.15	.2142	.3922	1134	.5
303.15	.2072	.494	1141.9	.5
303.15	.21	.5926	1151	.5
303.15	.206	.6951	1163.9	.5
303.15	.2985	.098	1113.4	.5
303.15	.3011	.197	1116.1	.5
303.15	.3023	.2975	1120.1	.5
303.15	.3037	.3946	1125.6	.5
303.15	.3017	.4935	1133.2	.5
303.15	.3016	.5984	1144.6	.5
303.15	.4026	.0951	1100.1	.5
303.15	.4008	.1978	1103.7	.5
303.15	.4075	.2953	1107.9	.5
303.15	.4067	.3914	1114.4	.5
303.15	.411	.4865	1122.8	.5
303.15	.4943	.0987	1088.1	.5
303.15	.4926	.1999	1093.6	.5
303.15	.4921	.3013	1099	.5
303.15	.4995	.4003	1106.1	.5
303.15	.5949	.0999	1075.1	.5
303.15	.5955	.2006	1081.4	.5
303.15	.5999	.3004	1087.5	.5
303.15	.6919	.0998	1062.4	.5
303.15	.7003	.1989	1068.1	.5
303.15	.8	.1005	1048	.5
303.15	.9016	.0487	1030.5	.5
308.15	.0681	0	1121.8	.5
308.15	.1226	0	1114.7	.5
308.15	.2056	0	1103.4	.5
308.15	.3046	0	1089.4	.5
308.15	.4001	0	1075.9	.5
308.15	.4535	0	1068.2	.5
308.15	.4947	0	1062.3	.5
308.15	.5442	0	1055.3	.5
308.15	.5996	0	1047.5	.5
308.15	.6916	0	1034.3	.5
308.15	.8001	0	1018.6	.5
308.15	.9007	0	1004.2	.5
308.15	.9487	0	997.3	.5
308.15	.0668	.0504	1120.4	.5
308.15	.056	.8928	1183.6	.5
308.15	.1149	.0988	1114.6	.5
308.15	.1125	.1968	1116.3	.5
308.15	.1094	.2933	1119.6	.5
308.15	.1123	.3915	1124	.5
308.15	.1082	.4831	1130.3	.5
308.15	.1037	.5963	1140.3	.5
308.15	.1066	.6951	1150.4	.5
308.15	.103	.7987	1165.2	.5
308.15	.2079	.0974	1103.9	.5
308.15	.2044	.1957	1105.9	.5
308.15	.2052	.2972	1109.6	.5
308.15	.2142	.3922	1113.8	.5
308.15	.2072	.494	1122.2	.5
308.15	.21	.5926	1131.5	.5
308.15	.206	.6951	1145	.5
308.15	.2985	.098	1092.8	.5
308.15	.3011	.197	1095.6	.5
308.15	.3023	.2975	1100.1	.5
308.15	.3037	.3946	1105.4	.5
308.15	.3017	.4935	1113.4	.5
308.15	.3016	.5984	1125.2	.5
308.15	.4026	.0951	1079	.5
308.15	.4008	.1978	1082.9	.5
308.15	.4075	.2953	1087.4	.5
308.15	.4067	.3914	1095.2	.5
308.15	.411	.4865	1102.9	.5
308.15	.4943	.0987	1067	.5
308.15	.4926	.1999	1073	.5
308.15	.4921	.3013	1078.5	.5
308.15	.4995	.4003	1085.8	.5
308.15	.5949	.0999	1053.9	.5
308.15	.5955	.2006	1060.6	.5
308.15	.5999	.3004	1066.9	.5
308.15	.6919	.0998	1041	.5
308.15	.7003	.1989	1046.6	.5
308.15	.8	.1005	1026.1	.5
308.15	.9016	.0487	1008.1	.5

System: 1-butanol + octane + methyl tert-butyl ether; phases: Liquid
Fixed: Pressure, kPa = 101
Fixed: Temperature, K = 298.15
Property: Excess molar enthalpy (molar enthalpy of mixing), kJ/mol (Liquid); method: Calvet calorimetry
Mole fraction of methyl tert-butyl ether	Mole fraction of 1-butanol	Excess molar enthalpy (molar enthalpy of mixing), kJ/mol	uncertainty
0	.03632	.323	.001
0	.0645	.427	.001
0	.11819	.537	.001
0	.15683	.575	.001
0	.20312	.637	.001
0	.24881	.662	.001
.0274	.0822	.518	.001
.0488	.1465	.655	.001
.0673	.202	.729	.001
.089	.2671	.785	.001
.1091	.3274	.806	.001
.1262	.3786	.828	.001
.1408	.4224	.832	.001
.1568	.4705	.799	.001
.1701	.5105	.784	.001
.1839	.5519	.754	.001
.196	.5882	.709	.001
.2074	.6222	.658	.001
.22	.66	.599	.001
.2303	.6909	.541	.001
.2393	.7179	.479	.001
0	.29898	.682	.001
0	.34501	.687	.001
0	.40282	.68	.001
0	.44991	.668	.001
0	.50289	.635	.001
0	.60341	.561	.001
.0495	.05	.463	.001
.0929	.0939	.638	.001
.1314	.1329	.747	.001
.1698	.1717	.84	.001
.2072	.2095	.892	.001
.2404	.243	.923	.001
.2687	.2716	.944	.001
.2997	.3029	.959	.001
.3303	.3339	.944	.001
.3574	.3612	.932	.001
.381	.3852	.903	.001
.4003	.4047	.868	.001
.4329	.4375	.821	.001
.4561	.461	.766	.001
.4744	.4795	.707	.001
0	.69876	.47	.001
0	.79786	.342	.001
0	.90052	.182	.001
0	.94925	.094	.001
.0737	.0248	.373	.001
.1327	.0447	.53	.001
.1881	.0634	.66	.001
.2463	.083	.764	.001
.2982	.1005	.831	.001
.3453	.1163	.863	.001
.3966	.1336	.882	.001
.4429	.1492	.881	.001
.4881	.1645	.874	.001
.528	.1779	.869	.001
.57	.1921	.844	.001
.6052	.2039	.819	.001
.6447	.2172	.769	.001
.6805	.2293	.716	.001
.7124	.2401	.652	.001

System: octane + methyl tert-butyl ether; phases: Liquid
Property: Mass density, kg/m3 (Liquid); method: Vibrating tube method
Temperature, K	Mole fraction of methyl tert-butyl ether	Pressure, kPa	Mass density, kg/m3	uncertainty
288.15	.0681	101	708.15	.05
288.15	.1226	101	709.47	.05
288.15	.2056	101	711.65	.05
288.15	.3046	101	714.48	.05
288.15	.4001	101	717.54	.05
288.15	.4535	101	719.37	.05
288.15	.4947	101	720.85	.05
288.15	.5442	101	722.73	.05
288.15	.5996	101	724.94	.05
288.15	.6916	101	728.91	.05
288.15	.8001	101	734.16	.05
288.15	.9007	101	739.68	.05
288.15	.9487	101	742.54	.05
293.15	.0681	101	704.08	.05
293.15	.1226	101	705.36	.05
293.15	.2056	101	707.48	.05
293.15	.3046	101	710.23	.05
293.15	.4001	101	713.19	.05
293.15	.4535	101	714.96	.05
293.15	.4947	101	716.4	.05
293.15	.5442	101	718.21	.05
293.15	.5996	101	720.36	.05
293.15	.6916	101	724.2	.05
293.15	.8001	101	729.3	.05
293.15	.9007	101	734.66	.05
293.15	.9487	101	737.44	.05
298.15	.0681	101	700.01	.05
298.15	.1226	101	701.24	.05
298.15	.2056	101	703.29	.05
298.15	.3046	101	705.96	.05
298.15	.4001	101	708.81	.05
298.15	.4535	101	710.53	.05
298.15	.4947	101	711.92	.05
298.15	.5442	101	713.67	.05
298.15	.5996	101	715.75	.05
298.15	.6916	101	719.47	.05
298.15	.8001	101	724.41	.05
298.15	.9007	101	729.6	.05
303.15	.0681	101	695.91	.05
303.15	.1226	101	697.1	.05
303.15	.2056	101	699.07	.05
303.15	.3046	101	701.64	.05
303.15	.4001	101	704.4	.05
303.15	.4535	101	706.06	.05
303.15	.4947	101	707.4	.05
303.15	.5442	101	709.09	.05
303.15	.5996	101	711.1	.05
303.15	.6916	101	714.7	.05
303.15	.8001	101	719.47	.05
303.15	.9007	101	724.5	.05
303.15	.9487	101	727.1	.05
308.15	.0681	101	691.79	.05
308.15	.1226	101	692.93	.05
308.15	.2056	101	694.83	.05
308.15	.3046	101	697.3	.05
308.15	.4001	101	699.96	.05
308.15	.4535	101	701.56	.05
308.15	.4947	101	702.84	.05
308.15	.5442	101	704.48	.05
308.15	.5996	101	706.42	.05
308.15	.6916	101	709.89	.05
308.15	.8001	101	714.49	.05
308.15	.9007	101	719.35	.05
308.15	.9487	101	721.86	.05

System: octane + methyl tert-butyl ether; phases: Liquid
Property: Speed of sound, m/s (Liquid); method: Pulse-echo method
Temperature, K	Mole fraction of methyl tert-butyl ether	Pressure, kPa	Speed of sound, m/s	uncertainty
288.15	.0681	101	1205.4	.5
288.15	.1226	101	1198.4	.5
288.15	.2056	101	1187.6	.5
288.15	.3046	101	1174.2	.5
288.15	.4001	101	1161.4	.5
288.15	.4535	101	1154.3	.5
288.15	.4947	101	1148.7	.5
288.15	.5442	101	1142	.5
288.15	.5996	101	1134.7	.5
288.15	.6916	101	1122.5	.5
288.15	.8001	101	1108.1	.5
288.15	.9007	101	1095.1	.5
288.15	.9487	101	1089	.5
293.15	.0681	101	1184.6	.5
293.15	.1226	101	1177.6	.5
293.15	.2056	101	1166.7	.5
293.15	.3046	101	1153.1	.5
293.15	.4001	101	1140.2	.5
293.15	.4535	101	1132.9	.5
293.15	.4947	101	1127.2	.5
293.15	.5442	101	1120.6	.5
293.15	.5996	101	1113	.5
293.15	.6916	101	1100.6	.5
293.15	.8001	101	1085.8	.5
293.15	.9007	101	1072.6	.5
293.15	.9487	101	1066.2	.5
298.15	.0681	101	1163.5	.5
298.15	.1226	101	1156.3	.5
298.15	.2056	101	1145.4	.5
298.15	.3046	101	1131.8	.5
298.15	.4001	101	1118.7	.5
298.15	.4535	101	1111.2	.5
298.15	.4947	101	1105.4	.5
298.15	.5442	101	1098.7	.5
298.15	.5996	101	1091	.5
298.15	.6916	101	1078.4	.5
298.15	.8001	101	1063.2	.5
298.15	.9007	101	1049.6	.5
298.15	.9487	101	1043.1	.5
303.15	.0681	101	1142.6	.5
303.15	.1226	101	1135.4	.5
303.15	.2056	101	1124.3	.5
303.15	.3046	101	1110.5	.5
303.15	.4001	101	1097.1	.5
303.15	.4535	101	1089.6	.5
303.15	.4947	101	1083.8	.5
303.15	.5442	101	1077	.5
303.15	.5996	101	1069.1	.5
303.15	.6916	101	1056.2	.5
303.15	.8001	101	1040.8	.5
303.15	.9007	101	1026.9	.5
303.15	.9487	101	1020.1	.5
308.15	.0681	101	1121.8	.5
308.15	.1226	101	1114.7	.5
308.15	.2056	101	1103.4	.5
308.15	.3046	101	1089.4	.5
308.15	.4001	101	1075.9	.5
308.15	.4535	101	1068.2	.5
308.15	.4947	101	1062.3	.5
308.15	.5442	101	1055.3	.5
308.15	.5996	101	1047.5	.5
308.15	.6916	101	1034.3	.5
308.15	.8001	101	1018.6	.5
308.15	.9007	101	1004.2	.5
308.15	.9487	101	997.3	.5

System: 1-butanol + octane; phases: Liquid
Property: Excess molar enthalpy (molar enthalpy of mixing), kJ/mol (Liquid); method: Calvet calorimetry
Mole fraction of 1-butanol	Pressure, kPa	Temperature, K	Excess molar enthalpy (molar enthalpy of mixing), kJ/mol	uncertainty
.03632	101	298.15	.323	.001
.0645	101	298.15	.427	.001
.11819	101	298.15	.537	.001
.15683	101	298.15	.575	.001
.20312	101	298.15	.637	.001
.24881	101	298.15	.662	.001
.29898	101	298.15	.682	.001
.34501	101	298.15	.687	.001
.40282	101	298.15	.68	.001
.44991	101	298.15	.668	.001
.50289	101	298.15	.635	.001
.60341	101	298.15	.561	.001
.69876	101	298.15	.47	.001
.79786	101	298.15	.342	.001
.90052	101	298.15	.182	.001
.94925	101	298.15	.094	.001
