Measured thermophysical data. Vapor-Liquid Equilibria for Propane (R290) + n-Butane (R600) at Various  Temperatures
Source: J. Chem. Eng. Data, 2008, 10.1021/je800377b
Compound 1: propane, C3H8, purity 99.5%
Compound 2: butane, C4H10, purity 99.5%

System: propane; phases: Liquid, Gas
Property: Vapor or sublimation pressure, kPa (Liquid); method: Closed cell (Static) method
Temperature, K	Vapor or sublimation pressure, kPa	uncertainty
273.15	476	1
283.15	633	1
293.15	833	1
303.15	1079	1
313.15	1366	1
323.15	1709	1

System: butane; phases: Liquid, Gas
Property: Vapor or sublimation pressure, kPa (Liquid); method: Closed cell (Static) method
Temperature, K	Vapor or sublimation pressure, kPa	uncertainty
273.15	103	1
283.15	149	1
293.15	208	1
303.15	284	1
313.15	378	1
323.15	493	1

System: propane + butane; phases: Liquid, Gas
Property: Vapor or sublimation pressure, kPa (Liquid); method: Closed cell (Static) method
Mole fraction of propane	Temperature, K	Vapor or sublimation pressure, kPa	uncertainty
0	273.15	103	1
.06	273.15	126	1
.113	273.15	144	1
.228	273.15	188	1
.27	273.15	203	1
.543	273.15	302	1
.638	273.15	337	1
.727	273.15	370	1
.792	273.15	395	1
.912	273.15	442	1
.933	273.15	450	1
.963	273.15	462	1
1	273.15	476	1
0	283.15	149	1
.065	283.15	180	1
.146	283.15	216	1
.242	283.15	260	1
.476	283.15	374	1
.552	283.15	413	1
.643	283.15	456	1
.745	283.15	509	1
.819	283.15	546	1
.882	283.15	578	1
.931	283.15	601	1
.965	283.15	620	1
1	283.15	633	1
0	293.15	208	1
.058	293.15	242	1
.108	293.15	272	1
.201	293.15	326	1
.304	293.15	388	1
.419	293.15	460	1
.532	293.15	530	1
.606	293.15	579	1
.679	293.15	624	1
.714	293.15	649	1
.833	293.15	726	1
.9	293.15	771	1
.971	293.15	820	1
1	293.15	833	1
0	303.15	284	1
.054	303.15	324	1
.113	303.15	364	1
.235	303.15	456	1
.33	303.15	529	1
.436	303.15	611	1
.543	303.15	693	1
.641	303.15	775	1
.736	303.15	856	1
.802	303.15	910	1
.866	303.15	966	1
.919	303.15	1010	1
.964	303.15	1049	1
1	303.15	1079	1
0	313.15	378	1
.063	313.15	429	1
.148	313.15	510	1
.217	313.15	574	1
.335	313.15	683	1
.434	313.15	777	1
.54	313.15	882	1
.64	313.15	988	1
.729	313.15	1077	1
.802	313.15	1151	1
.859	313.15	1212	1
.911	313.15	1269	1
.959	313.15	1323	1
1	313.15	1366	1
0	323.15	493	1
.054	323.15	557	1
.112	323.15	618	1
.226	323.15	743	1
.334	323.15	878	1
.426	323.15	971	1
.535	323.15	1101	1
.634	323.15	1222	1
.714	323.15	1324	1
.808	323.15	1448	1
.895	323.15	1564	1
.922	323.15	1602	1
.951	323.15	1643	1
1	323.15	1709	1

System: propane + butane; phases: Gas, Liquid
Property: Mole fraction of propane (Gas); method: Chromatography
Mole fraction of propane	Temperature, K	Mole fraction of propane	uncertainty
0	273.15	0	.001
.06	273.15	.172	.001
.113	273.15	.3	.001
.228	273.15	.504	.001
.27	273.15	.563	.001
.543	273.15	.773	.001
.638	273.15	.839	.001
.727	273.15	.887	.001
.792	273.15	.915	.001
.912	273.15	.97	.001
.933	273.15	.978	.001
.963	273.15	.989	.001
1	273.15	1	.001
0	283.15	0	.001
.065	283.15	.182	.001
.146	283.15	.322	.001
.242	283.15	.492	.001
.476	283.15	.717	.001
.552	283.15	.774	.001
.643	283.15	.838	.001
.745	283.15	.893	.001
.819	283.15	.925	.001
.882	283.15	.956	.001
.931	283.15	.974	.001
.965	283.15	.988	.001
1	283.15	1	.001
0	293.15	0	.001
.058	293.15	.152	.001
.108	293.15	.245	.001
.201	293.15	.421	.001
.304	293.15	.564	.001
.419	293.15	.679	.001
.532	293.15	.769	.001
.606	293.15	.812	.001
.679	293.15	.854	.001
.714	293.15	.872	.001
.833	293.15	.933	.001
.9	293.15	.961	.001
.971	293.15	.991	.001
1	293.15	1	.001
0	303.15	0	.001
.054	303.15	.132	.001
.113	303.15	.266	.001
.235	303.15	.464	.001
.33	303.15	.582	.001
.436	303.15	.686	.001
.543	303.15	.768	.001
.641	303.15	.826	.001
.736	303.15	.882	.001
.802	303.15	.916	.001
.866	303.15	.945	.001
.919	303.15	.966	.001
.964	303.15	.986	.001
1	303.15	1	.001
0	313.15	0	.001
.063	313.15	.164	.001
.148	313.15	.323	.001
.217	313.15	.432	.001
.335	313.15	.58	.001
.434	313.15	.671	.001
.54	313.15	.754	.001
.64	313.15	.819	.001
.729	313.15	.872	.001
.802	313.15	.907	.001
.859	313.15	.938	.001
.911	313.15	.963	.001
.959	313.15	.983	.001
1	313.15	1	.001
0	323.15	0	.001
.054	323.15	.139	.001
.112	323.15	.254	.001
.226	323.15	.432	.001
.334	323.15	.563	.001
.426	323.15	.651	.001
.535	323.15	.732	.001
.634	323.15	.804	.001
.714	323.15	.853	.001
.808	323.15	.906	.001
.895	323.15	.95	.001
.922	323.15	.964	.001
.951	323.15	.978	.001
1	323.15	1	.001
