Measured thermophysical data. Viscosity and Density of Binary Mixtures of Ethyl Alcohol with n-Alkanes (C6, C8,  and C10)
Source: J. Chem. Eng. Data, 2009, 10.1021/je800925v
Compound 1: ethanol, C2H6O, purity 98.5%
Compound 2: hexane, C6H14, purity 98.5%
Compound 3: octane, C8H18, purity 98.5%
Compound 4: decane, C10H22, purity 98.5%

System: ethanol; phases: Liquid, Air at 1 atmosphere
Property: Viscosity, Pa*s (Liquid); method: Concentric cylinders viscometry
Temperature, K	Viscosity, Pa*s	uncertainty
298.15	.0010991	.00000384685
293.15	.0012103	.00000423605

System: ethanol; phases: Liquid, Air at 1 atmosphere
Property: Mass density, kg/m3 (Liquid); method: Vibrating tube method
Temperature, K	Mass density, kg/m3	uncertainty
293.15	790.2	.5
298.15	785.9	.5

System: hexane; phases: Liquid, Air at 1 atmosphere
Property: Viscosity, Pa*s (Liquid); method: Concentric cylinders viscometry
Temperature, K	Viscosity, Pa*s	uncertainty
298.15	.0002865	.00000100275
293.15	.0002979	.00000104265

System: hexane; phases: Liquid, Air at 1 atmosphere
Property: Mass density, kg/m3 (Liquid); method: Vibrating tube method
Temperature, K	Mass density, kg/m3	uncertainty
293.15	659.8	.5
298.15	655.3	.5

System: octane; phases: Liquid, Air at 1 atmosphere
Property: Viscosity, Pa*s (Liquid); method: Concentric cylinders viscometry
Temperature, K	Viscosity, Pa*s	uncertainty
298.15	.0005087	.00000178045
293.15	.0005374	.0000018809

System: octane; phases: Liquid, Air at 1 atmosphere
Property: Mass density, kg/m3 (Liquid); method: Vibrating tube method
Temperature, K	Mass density, kg/m3	uncertainty
298.15	701.6	.5
293.15	705.6	.5

System: decane; phases: Liquid, Air at 1 atmosphere
Property: Viscosity, Pa*s (Liquid); method: Concentric cylinders viscometry
Temperature, K	Viscosity, Pa*s	uncertainty
298.15	.0008509	.00000297815
293.15	.0009133	.00000319655

System: decane; phases: Liquid, Air at 1 atmosphere
Property: Mass density, kg/m3 (Liquid); method: Vibrating tube method
Temperature, K	Mass density, kg/m3	uncertainty
298.15	727.2	.5
293.15	731	.5

System: ethanol + hexane; phases: Liquid, Air at 1 atmosphere
Property: Viscosity, Pa*s (Liquid); method: Concentric cylinders viscometry
Mole fraction of ethanol	Temperature, K	Viscosity, Pa*s	uncertainty
0	298.15	.0002865	.00000100275
.198	298.15	.0003049	.00000106715
.302	298.15	.0003398	.0000011893
.401	298.15	.0003755	.00000131425
.101	298.15	.0002953	.00000103355
.496	298.15	.0004288	.0000015008
.6	298.15	.0005021	.00000175735
.701	298.15	.0005944	.0000020804
.793	298.15	.0007071	.00000247485
.901	298.15	.0008663	.00000303205
1	298.15	.0010991	.00000384685
.198	295.65	.0003161	.00000110635
.302	295.65	.0003499	.00000122465
.401	295.65	.0003949	.00000138215
.101	295.65	.0003016	.0000010556
.496	295.65	.0004437	.00000155295
.6	295.65	.0005401	.00000189035
.701	295.65	.0006182	.0000021637
.793	295.65	.0007377	.00000258195
.901	295.65	.0009052	.0000031682
0	293.15	.0002979	.00000104265
.101	293.15	.000308	.000001078
.198	293.15	.0003264	.0000011424
.302	293.15	.0003597	.00000125895
.401	293.15	.0003995	.00000139825
.496	293.15	.0004493	.00000157255
.6	293.15	.0005606	.0000019621
.701	293.15	.000643	.0000022505
.793	293.15	.0007696	.0000026936
.901	293.15	.0009463	.00000331205
1	293.15	.0012103	.00000423605
.101	290.65	.0003147	.00000110145
.198	290.65	.0003366	.0000011781
.302	290.65	.0003728	.0000013048
.401	290.65	.000433	.0000015155
.496	290.65	.000498	.000001743
.6	290.65	.0005822	.0000020377
.701	290.65	.0006691	.00000234185
.793	290.65	.0008031	.00000281085
.901	290.65	.0009898	.0000034643
.101	288.15	.0003215	.00000112525
.198	288.15	.000346	.000001211
.302	288.15	.000383	.0000013405
.401	288.15	.0004239	.00000148365
.496	288.15	.0005159	.00000180565
.6	288.15	.0006052	.0000021182
.701	288.15	.0006967	.00000243845
.793	288.15	.0008384	.0000029344
.901	288.15	.001036	.000003626
.101	285.65	.0003283	.00000114905
.198	285.65	.0003549	.00000124215
.302	285.65	.0003934	.0000013769
.401	285.65	.0004614	.0000016149
.496	285.65	.0005343	.00000187005
.6	285.65	.000629	.0000022015
.701	285.65	.0007257	.00000253995
.793	285.65	.0008754	.0000030639
.901	285.65	.0010848	.0000037968
.101	283.15	.0003352	.0000011732
.198	283.15	.0003635	.00000127225
.302	283.15	.0004042	.0000014147
.401	283.15	.0004766	.0000016681
.496	283.15	.0005537	.00000193795
.6	283.15	.0006543	.00000229005
.701	283.15	.0007562	.0000026467
.793	283.15	.0009147	.00000320145
.901	283.15	.0011365	.00000397775
.101	280.65	.0003422	.0000011977
.198	280.65	.0003722	.0000013027
.302	280.65	.0004154	.0000014539
.401	280.65	.0004927	.00000172445
.496	280.65	.0005741	.00000200935
.6	280.65	.0006809	.00000238315
.701	280.65	.0007884	.0000027594
.793	280.65	.0009561	.00000334635
.901	280.65	.0011914	.0000041699
.101	278.15	.0003492	.0000012222
.198	278.15	.0003812	.0000013342
.302	278.15	.0004269	.00000149415
.401	278.15	.0005119	.00000179165
.496	278.15	.0005956	.0000020846
.6	278.15	.000709	.0000024815
.701	278.15	.0008224	.0000028784
.793	278.15	.0010003	.00000350105
.901	278.15	.0012496	.0000043736
.101	275.65	.0003563	.00000124705
.198	275.65	.0003904	.0000013664
.302	275.65	.0004388	.0000015358
.401	275.65	.0005294	.0000018529
.496	275.65	.0006182	.0000021637
.6	275.65	.0007386	.0000025851
.701	275.65	.0008583	.00000300405
.793	275.65	.0010467	.00000366345
.901	275.65	.0013115	.00000459025
.101	273.15	.0003638	.0000012733
.198	273.15	.0004	.0000014
.302	273.15	.0004511	.00000157885
.401	273.15	.0005478	.0000019173
.496	273.15	.0006415	.00000224525
.6	273.15	.00077	.000002695
.701	273.15	.0008963	.00000313705
.793	273.15	.0010961	.00000383635
.901	273.15	.0013773	.00000482055

System: ethanol + hexane; phases: Liquid, Air at 1 atmosphere
Property: Mass density, kg/m3 (Liquid); method: Vibrating tube method
Mole fraction of ethanol	Temperature, K	Mass density, kg/m3	uncertainty
.101	273.15	688.8	.5
.198	273.15	694.5	.5
.302	273.15	702	.5
.401	273.15	712.1	.5
.496	273.15	721.4	.5
.6	273.15	732.7	.5
.701	273.15	744.1	.5
.793	273.15	760.4	.5
.901	273.15	781.1	.5
.101	275.65	686.5	.5
.198	275.65	692.3	.5
.302	275.65	699.7	.5
.401	275.65	709.8	.5
.496	275.65	719.2	.5
.6	275.65	730.5	.5
.701	275.65	741.9	.5
.793	275.65	758.3	.5
.901	275.65	779	.5
.101	278.15	684.3	.5
.198	278.15	690	.5
.302	278.15	697.5	.5
.401	278.15	707.6	.5
.496	278.15	716.9	.5
.6	278.15	728.3	.5
.701	278.15	739.7	.5
.793	278.15	756.1	.5
.901	278.15	776.8	.5
.101	280.65	682	.5
.198	280.65	687.8	.5
.302	280.65	695.2	.5
.401	280.65	704.9	.5
.496	280.65	714.7	.5
.6	280.65	726.1	.5
.701	280.65	737.4	.5
.793	280.65	753.9	.5
.901	280.65	774.7	.5
.101	283.15	679.8	.5
.198	283.15	685.5	.5
.302	283.15	692.9	.5
.401	283.15	702.7	.5
.496	283.15	712.4	.5
.6	283.15	723.8	.5
.701	283.15	735.2	.5
.793	283.15	751.7	.5
.901	283.15	772.5	.5
.101	285.65	677.5	.5
.198	285.65	683.2	.5
.302	285.65	690.6	.5
.401	285.65	700.4	.5
.496	285.65	710.1	.5
.6	285.65	721.5	.5
.701	285.65	733	.5
.793	285.65	749.5	.5
.901	285.65	770.4	.5
.701	288.15	730.8	.5
.793	288.15	747.3	.5
.901	288.15	768.2	.5
.6	288.15	719.3	.5
.101	288.15	675.2	.5
.198	288.15	680.9	.5
.302	288.15	688.3	.5
.401	288.15	698.1	.5
.496	288.15	707.9	.5
.701	290.65	728.5	.5
.793	290.65	745.1	.5
.901	290.65	766	.5
.6	290.65	717	.5
.101	290.65	672.8	.5
.198	290.65	678.6	.5
.302	290.65	686	.5
.401	290.65	695.8	.5
.496	290.65	705.5	.5
.793	293.15	742.8	.5
.901	293.15	763.9	.5
1	293.15	790.2	.5
.701	293.15	726.2	.5
0	293.15	659.8	.5
.101	293.15	670.5	.5
.198	293.15	676.2	.5
.302	293.15	683.7	.5
.401	293.15	693.5	.5
.496	293.15	703.2	.5
.6	293.15	714.7	.5
.901	295.65	761.7	.5
.793	295.65	740.6	.5
.198	295.65	673.9	.5
.302	295.65	681.4	.5
.401	295.65	691.1	.5
.101	295.65	668.2	.5
.496	295.65	700.9	.5
.6	295.65	712.4	.5
.701	295.65	724	.5
1	298.15	785.9	.5
.901	298.15	759.5	.5
0	298.15	655.3	.5
.198	298.15	671.5	.5
.302	298.15	679	.5
.401	298.15	688.8	.5
.101	298.15	665.9	.5
.496	298.15	688.6	.5
.6	298.15	710.1	.5
.701	298.15	721.7	.5
.793	298.15	738.3	.5

System: ethanol + octane; phases: Liquid, Air at 1 atmosphere
Property: Viscosity, Pa*s (Liquid); method: Concentric cylinders viscometry
Mole fraction of ethanol	Temperature, K	Viscosity, Pa*s	uncertainty
0	298.15	.0005087	.00000178045
.095	298.15	.0004675	.00000163625
.192	298.15	.000477	.0000016695
.294	298.15	.0005022	.0000017577
.399	298.15	.0005386	.0000018851
.496	298.15	.0005828	.0000020398
.602	298.15	.0006396	.0000022386
.691	298.15	.0007137	.00000249795
.807	298.15	.0008061	.00000282135
.911	298.15	.000925	.0000032375
.095	295.65	.0004796	.0000016786
.192	295.65	.0004908	.0000017178
.294	295.65	.0005197	.00000181895
.399	295.65	.0005566	.0000019481
.496	295.65	.0006039	.00000211365
.602	295.65	.0006643	.00000232505
.691	295.65	.0007428	.0000025998
.807	295.65	.0008415	.00000294525
.911	295.65	.000956	.000003346
0	293.15	.0005374	.0000018809
.095	293.15	.0004931	.00000172585
.192	293.15	.0005049	.00000176715
.294	293.15	.0005366	.0000018781
.399	293.15	.0005752	.0000020132
.496	293.15	.0006298	.0000022043
.602	293.15	.0006899	.00000241465
.691	293.15	.0007742	.0000027097
.807	293.15	.0008781	.00000307335
.911	293.15	.0009997	.00000349895
.095	290.65	.0005072	.0000017752
.192	290.65	.0005195	.00000181825
.294	290.65	.0005541	.00000193935
.399	290.65	.0005946	.0000020811
.496	290.65	.0006543	.00000229005
.602	290.65	.0007168	.0000025088
.691	290.65	.0008071	.00000282485
.807	290.65	.0009164	.0000032074
.911	290.65	.001046	.000003661
.095	288.15	.0005207	.00000182245
.192	288.15	.0005347	.00000187145
.294	288.15	.0005721	.00000200235
.399	288.15	.000615	.0000021525
.496	288.15	.0006805	.00000238175
.602	288.15	.0007453	.00000260855
.691	288.15	.0008411	.00000294385
.807	288.15	.000958	.000003353
.911	288.15	.001095	.0000038325
.095	285.65	.0005351	.00000187285
.192	285.65	.0005505	.00000192675
.294	285.65	.0005906	.0000020671
.399	285.65	.0006363	.00000222705
.496	285.65	.000707	.0000024745
.602	285.65	.0007758	.0000027153
.691	285.65	.0008763	.00000306705
.807	285.65	.0010016	.0000035056
.911	285.65	.0011469	.00000401415
.095	283.15	.0005505	.00000192675
.192	283.15	.0005669	.00000198415
.294	283.15	.0006105	.00000213675
.399	283.15	.0006587	.00000230545
.496	283.15	.0007348	.0000025718
.602	283.15	.0008067	.00000282345
.691	283.15	.0009146	.0000032011
.807	283.15	.0010474	.0000036659
.911	283.15	.001202	.000004207
.095	280.65	.0005664	.0000019824
.192	280.65	.0005841	.00000204435
.294	280.65	.0006308	.0000022078
.399	280.65	.0006822	.0000023877
.496	280.65	.0007643	.00000267505
.602	280.65	.0008399	.00000293965
.691	280.65	.0009555	.00000334425
.807	280.65	.0010966	.0000038381
.911	280.65	.0012605	.00000441175
.095	278.15	.000583	.0000020405
.192	278.15	.0006019	.00000210665
.294	278.15	.000652	.000002282
.399	278.15	.0007069	.00000247415
.496	278.15	.0007951	.00000278285
.602	278.15	.0008751	.00000306285
.691	278.15	.0010082	.0000035287
.807	278.15	.0011484	.0000040194
.911	278.15	.0013227	.00000462945
.095	275.65	.0006003	.00000210105
.192	275.65	.0006206	.0000021721
.294	275.65	.0006743	.00000236005
.399	275.65	.0007329	.00000256515
.496	275.65	.000828	.000002898
.602	275.65	.0009122	.0000031927
.691	275.65	.0010541	.00000368935
.807	275.65	.0012032	.0000042112
.911	275.65	.0013888	.0000048608
.095	273.15	.0006185	.00000216475
.192	273.15	.0006401	.00000224035
.294	273.15	.000698	.000002443
.399	273.15	.0007603	.00000266105
.496	273.15	.0008635	.00000302225
.602	273.15	.0009516	.0000033306
.691	273.15	.001103	.0000038605
.807	273.15	.0012616	.0000044156
.911	273.15	.0014594	.0000051079

System: ethanol + octane; phases: Liquid, Air at 1 atmosphere
Property: Mass density, kg/m3 (Liquid); method: Vibrating tube method
Mole fraction of ethanol	Temperature, K	Mass density, kg/m3	uncertainty
0	298.15	701.6	.5
.095	298.15	690.5	.5
.192	298.15	693.8	.5
.294	298.15	699.6	.5
.399	298.15	704.3	.5
.496	298.15	712.6	.5
.602	298.15	718.9	.5
.691	298.15	730.8	.5
.807	298.15	742.6	.5
.911	298.15	759.8	.5
.095	295.65	692.6	.5
.192	295.65	695.9	.5
.294	295.65	701.7	.5
.399	295.65	706.5	.5
.496	295.65	714.7	.5
.602	295.65	721.1	.5
.691	295.65	732.9	.5
.807	295.65	744.7	.5
.911	295.65	762	.5
0	293.15	705.6	.5
.095	293.15	694.7	.5
.192	293.15	698	.5
.294	293.15	703.8	.5
.399	293.15	708.6	.5
.496	293.15	716.8	.5
.602	293.15	723.2	.5
.691	293.15	735.1	.5
.807	293.15	746.9	.5
.911	293.15	764.1	.5
.095	290.65	696.8	.5
.192	290.65	700.1	.5
.294	290.65	705.9	.5
.399	290.65	710.8	.5
.496	290.65	718.9	.5
.602	290.65	725.3	.5
.691	290.65	737.2	.5
.807	290.65	749.1	.5
.911	290.65	766.3	.5
.095	288.15	698.9	.5
.192	288.15	702.2	.5
.294	288.15	708.1	.5
.399	288.15	712.9	.5
.496	288.15	721	.5
.602	288.15	727.5	.5
.691	288.15	739.4	.5
.807	288.15	751.2	.5
.911	288.15	768.4	.5
.095	285.65	701	.5
.192	285.65	704.3	.5
.294	285.65	710.2	.5
.399	285.65	715	.5
.496	285.65	723.1	.5
.602	285.65	729.6	.5
.691	285.65	741.5	.5
.807	285.65	753.3	.5
.911	285.65	770.5	.5
.095	283.15	703	.5
.192	283.15	706.4	.5
.294	283.15	712.5	.5
.399	283.15	717.1	.5
.496	283.15	723.1	.5
.602	283.15	731.7	.5
.691	283.15	743.6	.5
.807	283.15	755.4	.5
.911	283.15	772.6	.5
.095	280.65	705.1	.5
.192	280.65	708.5	.5
.294	280.65	714.8	.5
.399	280.65	719.2	.5
.496	280.65	725.2	.5
.602	280.65	733.8	.5
.691	280.65	745.7	.5
.807	280.65	757.6	.5
.911	280.65	774.7	.5
.095	278.15	707.2	.5
.192	278.15	711.8	.5
.294	278.15	717.2	.5
.399	278.15	721.3	.5
.496	278.15	729.4	.5
.602	278.15	735.9	.5
.691	278.15	747.8	.5
.807	278.15	759.7	.5
.911	278.15	776.8	.5
.095	275.65	709.2	.5
.192	275.65	713.9	.5
.294	275.65	719.5	.5
.399	275.65	723.4	.5
.496	275.65	731.5	.5
.602	275.65	738	.5
.691	275.65	749.9	.5
.807	275.65	761.7	.5
.911	275.65	778.9	.5
.095	273.15	713.3	.5
.192	273.15	715.9	.5
.294	273.15	719.6	.5
.399	273.15	725.5	.5
.496	273.15	732.2	.5
.602	273.15	740.1	.5
.691	273.15	752	.5
.807	273.15	763.9	.5
.911	273.15	781	.5
1	293.15	790.2	.5
1	298.15	785.9	.5

System: ethanol + decane; phases: Liquid, Air at 1 atmosphere
Property: Viscosity, Pa*s (Liquid); method: Concentric cylinders viscometry
Mole fraction of ethanol	Temperature, K	Viscosity, Pa*s	uncertainty
0	298.15	.0008509	.00000297815
.098	298.15	.000823	.0000028805
.198	298.15	.0008318	.0000029113
.301	298.15	.0008314	.0000029099
.397	298.15	.0008501	.00000297535
.501	298.15	.0008872	.0000031052
.602	298.15	.0009216	.0000032256
.694	298.15	.0009407	.00000329245
.799	298.15	.0009698	.0000033943
.905	298.15	.0010132	.0000035462
.098	295.65	.0008534	.0000029869
.198	295.65	.0008635	.00000302225
.301	295.65	.0008638	.0000030233
.397	295.65	.0008848	.0000030968
.501	295.65	.0009255	.00000323925
.602	295.65	.000962	.000003367
.694	295.65	.000983	.0000034405
.799	295.65	.0010138	.0000035483
.905	295.65	.00106	.00000371
0	293.15	.0009133	.00000319655
.098	293.15	.0008862	.0000031017
.198	293.15	.0008973	.00000314055
.301	293.15	.0008982	.0000031437
.397	293.15	.0009215	.00000322525
.501	293.15	.000966	.000003381
.602	293.15	.0010065	.00000352275
.694	293.15	.0010281	.00000359835
.799	293.15	.0010606	.0000037121
.905	293.15	.0011095	.00000388325
.098	290.65	.0009207	.00000322245
.198	290.65	.0009321	.00000326235
.301	290.65	.0009348	.0000032718
.397	290.65	.0009608	.0000033628
.501	290.65	.0010094	.0000035329
.602	290.65	.0010529	.00000368515
.694	290.65	.0010762	.0000037667
.799	290.65	.0011103	.00000388605
.905	290.65	.0011623	.00000406805
.098	288.15	.0009574	.0000033509
.198	288.15	.0009702	.0000033957
.301	288.15	.0009738	.0000034083
.397	288.15	.0010029	.00000351015
.501	288.15	.0010557	.00000369495
.602	288.15	.0011036	.0000038626
.694	288.15	.0011276	.0000039466
.799	288.15	.0011632	.0000040712
.905	288.15	.0012183	.00000426405
.098	285.65	.0009963	.00000348705
.198	285.65	.00101	.000003535
.301	285.65	.0010154	.0000035539
.397	285.65	.0010477	.00000366695
.501	285.65	.0011054	.0000038689
.602	285.65	.0011584	.0000040544
.694	285.65	.0011826	.0000041391
.799	285.65	.0012195	.00000426825
.905	285.65	.0012776	.0000044716
.098	283.15	.001038	.000003633
.198	283.15	.001053	.0000036855
.301	283.15	.0010598	.0000037093
.397	283.15	.0010956	.0000038346
.501	283.15	.0011594	.0000040579
.602	283.15	.0012193	.00000426755
.694	283.15	.0012417	.00000434595
.799	283.15	.0012796	.0000044786
.905	283.15	.0013408	.0000046928
.098	280.65	.0010825	.00000378875
.198	280.65	.001099	.0000038465
.301	280.65	.0011074	.0000038759
.397	280.65	.0011471	.00000401485
.501	280.65	.0012173	.00000426055
.602	280.65	.0012821	.00000448735
.694	280.65	.0013052	.0000045682
.799	280.65	.0013438	.0000047033
.905	280.65	.0014081	.00000492835
.098	278.15	.0011301	.00000395535
.198	278.15	.0011479	.00000401765
.301	278.15	.0011584	.0000040544
.397	278.15	.0012026	.0000042091
.501	278.15	.0012811	.00000448385
.602	278.15	.0013534	.0000047369
.694	278.15	.0013738	.0000048083
.799	278.15	.0014125	.00000494375
.905	278.15	.0014801	.00000518035
.098	275.65	.0011813	.00000413455
.198	275.65	.0012001	.00000420035
.301	275.65	.0012133	.00000424655
.397	275.65	.0012627	.00000441945
.501	275.65	.0013509	.00000472815
.602	275.65	.001432	.000005012
.694	275.65	.0014483	.00000506905
.799	275.65	.0014861	.00000520135
.905	275.65	.0015566	.0000054481
.098	273.15	.0012363	.00000432705
.198	273.15	.0012572	.0000044002
.301	273.15	.0012726	.0000044541
.397	273.15	.001328	.000004648
.501	273.15	.001429	.0000050015
.602	273.15	.0015226	.0000053291
.694	273.15	.0015297	.00000535395
.799	273.15	.0015653	.00000547855
.905	273.15	.0016387	.00000573545

System: ethanol + decane; phases: Liquid, Air at 1 atmosphere
Property: Mass density, kg/m3 (Liquid); method: Vibrating tube method
Mole fraction of ethanol	Temperature, K	Mass density, kg/m3	uncertainty
0	298.15	727.2	.5
.098	298.15	727.3	.5
.198	298.15	728.9	.5
.301	298.15	731.1	.5
.397	298.15	734	.5
.501	298.15	737.5	.5
.602	298.15	742.5	.5
.694	298.15	747	.5
.799	298.15	754.4	.5
.905	298.15	766.9	.5
.098	295.65	729.4	.5
.198	295.65	730.9	.5
.301	295.65	733.1	.5
.397	295.65	736	.5
.501	295.65	739.5	.5
.602	295.65	744.5	.5
.694	295.65	749	.5
.799	295.65	756.5	.5
.905	295.65	769.1	.5
0	293.15	731	.5
.098	293.15	731.2	.5
.198	293.15	732.8	.5
.301	293.15	735.1	.5
.397	293.15	738	.5
.501	293.15	741.5	.5
.602	293.15	746.6	.5
.694	293.15	751.1	.5
.799	293.15	758.5	.5
.905	293.15	771.2	.5
.098	290.65	733.1	.5
.198	290.65	734.8	.5
.301	290.65	737	.5
.397	290.65	740	.5
.501	290.65	743.5	.5
.602	290.65	748.6	.5
.694	290.65	753.1	.5
.799	290.65	760.6	.5
.905	290.65	773.3	.5
.098	288.15	735	.5
.198	288.15	736.7	.5
.301	288.15	739	.5
.397	288.15	742	.5
.501	288.15	745.5	.5
.602	288.15	750.6	.5
.694	288.15	755.2	.5
.799	288.15	762.7	.5
.905	288.15	775.3	.5
.098	285.65	737	.5
.198	285.65	738.7	.5
.301	285.65	741	.5
.397	285.65	744	.5
.501	285.65	747.5	.5
.602	285.65	752.7	.5
.694	285.65	757.3	.5
.799	285.65	764.7	.5
.905	285.65	777.4	.5
.098	283.15	738.9	.5
.198	283.15	740.6	.5
.301	283.15	742.9	.5
.397	283.15	746	.5
.501	283.15	749.5	.5
.602	283.15	754.7	.5
.694	283.15	759.3	.5
.799	283.15	766.8	.5
.905	283.15	779.5	.5
.098	280.65	740.8	.5
.198	280.65	742.5	.5
.301	280.65	744.8	.5
.397	280.65	747.9	.5
.501	280.65	751.5	.5
.602	280.65	756.7	.5
.694	280.65	761.3	.5
.799	280.65	768.8	.5
.905	280.65	781.6	.5
.098	278.15	742.7	.5
.198	278.15	744.4	.5
.301	278.15	746.8	.5
.397	278.15	749.9	.5
.501	278.15	753.4	.5
.602	278.15	758.7	.5
.694	278.15	763.3	.5
.799	278.15	770.9	.5
.905	278.15	783.6	.5
.098	275.65	744.6	.5
.198	275.65	746.4	.5
.301	275.65	748.7	.5
.397	275.65	751.8	.5
.501	275.65	755.4	.5
.602	275.65	760.7	.5
.694	275.65	765.4	.5
.799	275.65	772.9	.5
.905	275.65	785.7	.5
.098	273.15	746.5	.5
.198	273.15	748.3	.5
.301	273.15	750.7	.5
.397	273.15	753.8	.5
.501	273.15	757.4	.5
.602	273.15	762.7	.5
.694	273.15	767.4	.5
.799	273.15	774.9	.5
.905	273.15	787.7	.5
