Measured thermophysical data. Solubilities of Oxygenated Aromatic Solids in Pressurized Hot Water
Source: J. Chem. Eng. Data, 2009, 10.1021/je800707x
Compound 1: xanthene, C13H10O
Compound 2: 9(10H)-anthracenone, C14H10O
Compound 3: 9H-xanthen-9-one, C13H8O2
Compound 4: thioxanthone, C13H8OS
Compound 5: 9,10-anthracenedione, C14H8O2
Compound 6: 9,10-phenanthrenequinone, C14H8O2
Compound 7: water, H2O

System: xanthene + water; phases: Liquid, Crystal
Property: Mole fraction of xanthene (Liquid); method: Chromatography
Temperature, K	Pressure, kPa	Mole fraction of xanthene	uncertainty
313.2	.0000053	.000000252	.00000003024
323.2	.0000053	.000000471	.00000005652
333.2	.0000051	.000000844	.00000010128
343.2	.0000051	.00000145	.000000174
353.2	.000005	.00000257	.0000003084
363.2	.000005	.00000427	.0000005124
368.2	.000005	.00000556	.0000006672

System: 9(10H)-anthracenone + water; phases: Liquid, Crystal
Property: Mole fraction of 9(10H)-anthracenone (Liquid); method: Chromatography
Temperature, K	Pressure, kPa	Mole fraction of 9(10H)-anthracenone	uncertainty
313.2	5100	.000000345	.0000000414
333.2	5000	.00000106	.0000001272
353.2	5800	.00000318	.0000003816
373.2	5000	.00000949	.0000011388
393.2	5000	.0000279	.000003348
413.2	5000	.0000989	.000011868
423.2	5000	.000126	.00001512

System: 9H-xanthen-9-one + water; phases: Liquid, Crystal
Property: Mole fraction of 9H-xanthen-9-one (Liquid); method: Chromatography
Temperature, K	Pressure, kPa	Mole fraction of 9H-xanthen-9-one	uncertainty
313.2	5300	.000000709	.00000008508
333.2	5100	.00000193	.0000002316
353.2	5000	.00000544	.0000006528
373.2	5000	.0000129	.000001548
393.2	5100	.000037	.00000444
413.2	5000	.0000913	.000010956
433.2	5000	.000271	.00003252

System: thioxanthone + water; phases: Liquid, Crystal
Property: Mole fraction of thioxanthone (Liquid); method: Chromatography
Temperature, K	Pressure, kPa	Mole fraction of thioxanthone	uncertainty
313.2	5400	.000000118	.00000001416
333.2	5200	.000000313	.00000003756
353.2	5100	.000000879	.00000010548
373.2	5100	.00000222	.0000002664
393.2	5300	.00000644	.0000007728
413.2	5200	.0000198	.000002376
433.2	5300	.000055	.0000066
453.2	5300	.000135	.0000162
473.2	6400	.000383	.00004596

System: 9,10-anthracenedione + water; phases: Liquid, Crystal
Property: Mole fraction of 9,10-anthracenedione (Liquid); method: Chromatography
Temperature, K	Pressure, kPa	Mole fraction of 9,10-anthracenedione	uncertainty
313.2	5000	.0000000725	.0000000087
333.2	5000	.000000205	.0000000246
353.2	5000	.000000592	.00000007104
373.2	5100	.00000156	.0000001872
393.2	5200	.0000041	.000000492
413.2	5000	.0000106	.000001272
433.2	5800	.0000296	.000003552

System: 9,10-phenanthrenequinone + water; phases: Liquid, Crystal
Property: Mole fraction of 9,10-phenanthrenequinone (Liquid); method: Chromatography
Temperature, K	Pressure, kPa	Mole fraction of 9,10-phenanthrenequinone	uncertainty
313.2	5200	.00000055	.000000066
333.2	5000	.00000163	.0000001956
353.2	5000	.00000418	.0000005016
373.2	5000	.0000106	.000001272
393.2	5000	.0000394	.000004728
413.2	5000	.0000846	.000010152
433.2	5100	.000255	.0000306
453.2	5300	.000842	.00010104
473.2	5400	.00183	.0002196
