Measured thermophysical data. Volumetric and Viscometric Studies of Antidepressant Drugs in Aqueous Medium  at Different Temperatures
Source: J. Chem. Eng. Data, 2009, 10.1021/je8008864
Compound 1: nortriptyline hydrochloride, C19H22ClN, purity 99%
Compound 2: trimipramine maleate, C24H30N2O4, purity 99%
Compound 3: water, H2O, purity 99.9%

System: nortriptyline hydrochloride + water; phases: Liquid
Fixed: Pressure, kPa = 101
Property: Mass density, kg/m3 (Liquid); method: Vibrating tube method
Temperature, K	Molality, mol/kg of nortriptyline hydrochloride	Mass density, kg/m3	uncertainty
293.15	.0075	998.486	.05
293.15	.01	998.545	.05
293.15	.0125	998.599	.05
293.15	.0152	998.645	.05
293.15	.0175	998.668	.05
293.15	.02	998.705	.05
293.15	.025	998.721	.05
298.15	.0076	997.322	.05
298.15	.01	997.382	.05
298.15	.0125	997.428	.05
298.15	.0152	997.469	.05
298.15	.0175	997.499	.05
298.15	.02	997.521	.05
298.15	.025	997.545	.05
303.15	.0076	995.904	.05
303.15	.01	995.959	.05
303.15	.0125	996.001	.05
303.15	.0152	996.045	.05
303.15	.0175	996.065	.05
303.15	.02	996.085	.05
303.15	.025	996.105	.05
308.15	.0076	994.285	.05
308.15	.01	994.335	.05
308.15	.0125	994.379	.05
308.15	.0152	994.409	.05
308.15	.0175	994.435	.05
308.15	.02	994.455	.05
308.15	.025	994.465	.05
310.15	.0076	993.565	.05
310.15	.01	993.621	.05
310.15	.0125	993.659	.05
310.15	.0152	993.689	.05
310.15	.0175	993.712	.05
310.15	.02	993.73	.05
310.15	.025	993.741	.05
313.15	.0076	992.443	.05
313.15	.01	992.499	.05
313.15	.0125	992.539	.05
313.15	.0152	992.571	.05
313.15	.0175	992.592	.05
313.15	.02	992.601	.05
313.15	.025	992.609	.05

System: nortriptyline hydrochloride + water; phases: Liquid
Fixed: Pressure, kPa = 101
Property: Viscosity, Pa*s (Liquid); method: Rotational
Temperature, K	Molality, mol/kg of nortriptyline hydrochloride	Viscosity, Pa*s	uncertainty
293.15	.0075	.0010347	.000003
293.15	.01	.0010351	.000003
293.15	.0125	.0010356	.000003
293.15	.0152	.001036	.000003
293.15	.0175	.0010366	.000003
293.15	.02	.0010371	.000003
293.15	.025	.0010381	.000003
303.15	.0076	.0008338	.000003
303.15	.01	.0008339	.000003
303.15	.0125	.0008342	.000003
303.15	.0152	.0008345	.000003
303.15	.0175	.0008348	.000003
303.15	.02	.0008349	.000003
303.15	.025	.0008356	.000003
310.15	.0076	.0006925	.000003
310.15	.01	.0006928	.000003
310.15	.0125	.0006929	.000003
310.15	.0152	.0006931	.000003
310.15	.0175	.0006932	.000003
310.15	.02	.0006935	.000003
310.15	.025	.0006938	.000003
298.15	.0076	.0009368	.000003
298.15	.01	.000937	.000003
298.15	.0125	.0009374	.000003
298.15	.0152	.0009376	.000003
298.15	.0175	.0009379	.000003
298.15	.02	.0009382	.000003
298.15	.025	.0009388	.000003
308.15	.0076	.0007279	.000003
308.15	.01	.0007281	.000003
308.15	.0125	.0007283	.000003
308.15	.0152	.0007285	.000003
308.15	.0175	.0007286	.000003
308.15	.02	.0007289	.000003
308.15	.025	.0007293	.000003
313.15	.0076	.0006556	.000003
313.15	.01	.0006557	.000003
313.15	.0125	.0006558	.000003
313.15	.0152	.000656	.000003
313.15	.0175	.0006562	.000003
313.15	.02	.0006564	.000003
313.15	.025	.0006568	.000003

System: trimipramine maleate + water; phases: Liquid
Fixed: Pressure, kPa = 101
Property: Mass density, kg/m3 (Liquid); method: Vibrating tube method
Temperature, K	Molality, mol/kg of trimipramine maleate	Mass density, kg/m3	uncertainty
293.15	.0075	998.499	.05
293.15	.01	998.566	.05
293.15	.0125	998.625	.05
293.15	.0152	998.675	.05
293.15	.0175	998.715	.05
293.15	.02	998.745	.05
293.15	.025	998.799	.05
298.15	.0076	997.329	.05
298.15	.01	997.396	.05
298.15	.0125	997.455	.05
298.15	.0152	997.499	.05
298.15	.0175	997.535	.05
298.15	.02	997.569	.05
298.15	.025	997.601	.05
303.15	.0076	995.919	.05
303.15	.01	995.981	.05
303.15	.0125	996.031	.05
303.15	.0152	996.081	.05
303.15	.0175	996.105	.05
303.15	.02	996.141	.05
303.15	.025	996.175	.05
308.15	.0076	994.296	.05
308.15	.01	994.355	.05
308.15	.0125	994.401	.05
308.15	.0152	994.455	.05
308.15	.0175	994.475	.05
308.15	.02	994.515	.05
308.15	.025	994.535	.05
310.15	.0076	993.58	.05
310.15	.01	993.638	.05
310.15	.0125	993.681	.05
310.15	.0152	993.721	.05
310.15	.0175	993.749	.05
310.15	.02	993.769	.05
310.15	.025	993.799	.05
313.15	.0076	992.458	.05
313.15	.01	992.506	.05
313.15	.0125	992.551	.05
313.15	.0152	992.589	.05
313.15	.0175	992.609	.05
313.15	.02	992.615	.05
313.15	.025	992.635	.05

System: trimipramine maleate + water; phases: Liquid
Fixed: Pressure, kPa = 101
Property: Viscosity, Pa*s (Liquid); method: Rotational
Temperature, K	Molality, mol/kg of trimipramine maleate	Viscosity, Pa*s	uncertainty
293.15	.0075	.0010349	.000003
293.15	.01	.0010354	.000003
293.15	.0125	.0010358	.000003
293.15	.0152	.0010362	.000003
293.15	.0175	.0010369	.000003
293.15	.02	.0010375	.000003
293.15	.025	.00104	.000003
303.15	.0076	.0008339	.000003
303.15	.01	.0008342	.000003
303.15	.0125	.0008345	.000003
303.15	.0152	.0008348	.000003
303.15	.0175	.000835	.000003
303.15	.02	.0008354	.000003
303.15	.025	.0008361	.000003
310.15	.0076	.0006928	.000003
310.15	.01	.000693	.000003
310.15	.0125	.0006932	.000003
310.15	.0152	.0006934	.000003
310.15	.0175	.0006937	.000003
310.15	.02	.0006939	.000003
310.15	.025	.0006943	.000003
298.15	.0076	.000937	.000003
298.15	.01	.0009373	.000003
298.15	.0125	.0009376	.000003
298.15	.0152	.0009379	.000003
298.15	.0175	.0009382	.000003
298.15	.02	.0009385	.000003
298.15	.025	.0009393	.000003
308.15	.0076	.0007339	.000003
308.15	.01	.0007341	.000003
308.15	.0125	.0007343	.000003
308.15	.0152	.0007346	.000003
308.15	.0175	.0007348	.000003
308.15	.02	.0007351	.000003
308.15	.025	.0007355	.000003
313.15	.0076	.0006561	.000003
313.15	.01	.0006564	.000003
313.15	.0125	.0006566	.000003
313.15	.0152	.0006568	.000003
313.15	.0175	.0006571	.000003
313.15	.02	.0006573	.000003
313.15	.025	.0006579	.000003
