Measured thermophysical data. Solubility of Form B Pravastatin Sodium in (Water + 2-Propanol)
Source: J. Chem. Eng. Data, 2009, 10.1021/je800919m
Compound 1: pravastatin sodium, C23H35NaO7
Compound 2: water, H2O
Compound 3: 2-propanol, C3H8O

System: 2-propanol + water + pravastatin sodium; phases: Liquid, Crystal
Fixed: Pressure, kPa = 101
Property: Mole fraction of pravastatin sodium (Liquid); method: Laser monitoring system
Temperature, K	Solvent: Mole fraction of water	Mole fraction of pravastatin sodium	uncertainty
278	.182	.00237	
283	.182	.00299	
288	.182	.00346	
293	.182	.00423	
298	.182	.00503	
303	.182	.00582	
308	.182	.00762	
313	.182	.00936	
318	.182	.011	
323	.182	.01319	
278	.143	.00136	
283	.143	.00181	
288	.143	.00225	
293	.143	.00286	
298	.143	.00345	
303	.143	.00415	
308	.143	.00504	
313	.143	.00614	
318	.143	.00781	
323	.143	.0099	
278	.118	.00083	
283	.118	.00112	
288	.118	.00131	
293	.118	.00173	
298	.118	.00215	
303	.118	.00268	
308	.118	.00342	
313	.118	.00441	
318	.118	.00566	
323	.118	.00707	
278	.1	.0006	
283	.1	.00077	
288	.1	.00095	
293	.1	.00121	
298	.1	.00152	
303	.1	.002	
308	.1	.00255	
313	.1	.00333	
318	.1	.00435	
323	.1	.0055	
278	.077	.00042	
283	.077	.00051	
288	.077	.00069	
293	.077	.00091	
298	.077	.00117	
303	.077	.00148	
308	.077	.00188	
313	.077	.00246	
318	.077	.0032	
323	.077	.00406	
278	0	.00021	
283	0	.00029	
288	0	.00036	
293	0	.00047	
298	0	.00067	
303	0	.00086	
308	0	.00109	
313	0	.00141	
318	0	.00175	
323	0	.00209	

System: 2-propanol + pravastatin sodium; phases: Liquid, Crystal
Property: Mole fraction of pravastatin sodium (Liquid); method: Laser monitoring system
Temperature, K	Pressure, kPa	Mole fraction of pravastatin sodium	uncertainty
278	101	.00021	
283	101	.00029	
288	101	.00036	
293	101	.00047	
298	101	.00067	
303	101	.00086	
308	101	.00109	
313	101	.00141	
318	101	.00175	
323	101	.00209	
