Measured thermophysical data. Vapor-Liquid Equilibria of Binary Systems Comprising 1-Chloro-2-ethylhexane and 2-Ethyl-1-hexanol
Source: J. Chem. Eng. Data, 2008, 10.1021/je8001249
Compound 1: N,N-dimethylformamide, C3H7NO
Compound 2: toluene, C7H8
Compound 3: 3-(chloromethyl)heptane, C8H17Cl
Compound 4: 2-ethyl-1-hexanol, C8H18O

System: N,N-dimethylformamide; phases: Liquid, Gas
Property: Boiling temperature at pressure P, K (Liquid); method: Ebulliometric method (Recirculating still)
Pressure, kPa	Boiling temperature at pressure P, K	uncertainty
79.99	415.92	5.00000000000114E-02

System: N,N-dimethylformamide; phases: Liquid
Fixed: Pressure, kPa = 101.325
Property: Mass density, kg/m3 (Liquid); method: Pycnometric method
Temperature, K	Mass density, kg/m3	uncertainty
293.15	948.7	

System: N,N-dimethylformamide; phases: Liquid
Fixed: Pressure, kPa = 101.325
Property: Refractive index (Na D-line) (Liquid); method: Standard Abbe refractometry
Temperature, K	Refractive index (Na D-line)	uncertainty
293.15	1.4307	

System: toluene; phases: Liquid, Gas
Property: Boiling temperature at pressure P, K (Liquid); method: Ebulliometric method (Recirculating still)
Pressure, kPa	Boiling temperature at pressure P, K	uncertainty
79.99	375.66	5.00000000000114E-02

System: toluene; phases: Liquid
Fixed: Pressure, kPa = 101.325
Property: Mass density, kg/m3 (Liquid); method: Pycnometric method
Temperature, K	Mass density, kg/m3	uncertainty
293.15	867	

System: toluene; phases: Liquid
Fixed: Pressure, kPa = 101.325
Property: Refractive index (Na D-line) (Liquid); method: Standard Abbe refractometry
Temperature, K	Refractive index (Na D-line)	uncertainty
293.15	1.4961	

System: 3-(chloromethyl)heptane; phases: Liquid, Gas
Property: Boiling temperature at pressure P, K (Liquid); method: Ebulliometric method (Recirculating still)
Pressure, kPa	Boiling temperature at pressure P, K	uncertainty
79.99	436.17	5.00000000000114E-02

System: 3-(chloromethyl)heptane; phases: Liquid
Fixed: Pressure, kPa = 101.325
Property: Mass density, kg/m3 (Liquid); method: Pycnometric method
Temperature, K	Mass density, kg/m3	uncertainty
293.15	791.8	

System: 3-(chloromethyl)heptane; phases: Liquid
Fixed: Pressure, kPa = 101.325
Property: Refractive index (Na D-line) (Liquid); method: Standard Abbe refractometry
Temperature, K	Refractive index (Na D-line)	uncertainty
293.15	1.4326	

System: 2-ethyl-1-hexanol; phases: Liquid, Gas
Property: Boiling temperature at pressure P, K (Liquid); method: Ebulliometric method (Recirculating still)
Pressure, kPa	Boiling temperature at pressure P, K	uncertainty
79.99	449.23	5.00000000000114E-02

System: 2-ethyl-1-hexanol; phases: Liquid
Fixed: Pressure, kPa = 101.325
Property: Mass density, kg/m3 (Liquid); method: Pycnometric method
Temperature, K	Mass density, kg/m3	uncertainty
293.15	833.2	

System: 2-ethyl-1-hexanol; phases: Liquid
Fixed: Pressure, kPa = 101.325
Property: Refractive index (Na D-line) (Liquid); method: Standard Abbe refractometry
Temperature, K	Refractive index (Na D-line)	uncertainty
293.15	1.431	

System: N,N-dimethylformamide + 3-(chloromethyl)heptane; phases: Liquid, Gas
Fixed: Pressure, kPa = 79.99
Property: Boiling temperature at pressure P, K (Liquid); method: Ebulliometric method (Recirculating still)
Mole fraction of N,N-dimethylformamide	Boiling temperature at pressure P, K	uncertainty
.1173	432.25	.05
.1963	429.55	.05
.3474	424	.05
.4175	421.05	.05
.4774	419	.05
.5908	415.55	.05
.6761	413.9	.05
.7173	413.4	.05
.8807	413.95	.05
.9308	414.85	.05
.9754	415.55	.05

System: N,N-dimethylformamide + 3-(chloromethyl)heptane; phases: Liquid, Gas
Fixed: Pressure, kPa = 79.99
Property: Mole fraction of N,N-dimethylformamide (Liquid); method: Chromatography
Mole fraction of N,N-dimethylformamide	Mole fraction of N,N-dimethylformamide	uncertainty
.1173	.0801	.005
.1963	.115	.005
.3474	.1814	.005
.4175	.2272	.005
.4774	.2823	.005
.5908	.4349	.005
.6761	.5895	.005
.7173	.6844	.005
.8807	.9108	.005
.9308	.9608	.005
.9754	.9879	.005

System: N,N-dimethylformamide + 2-ethyl-1-hexanol; phases: Liquid, Gas
Fixed: Pressure, kPa = 79.99
Property: Mole fraction of N,N-dimethylformamide (Liquid); method: Chromatography
Mole fraction of N,N-dimethylformamide	Mole fraction of N,N-dimethylformamide	uncertainty
.2004	.112	.005
.3363	.2189	.005
.448	.3108	.005
.5259	.3695	.005
.6988	.4935	.005
.8186	.618	.005
.9016	.7464	.005
.961	.8963	.005

System: N,N-dimethylformamide + 2-ethyl-1-hexanol; phases: Liquid, Gas
Fixed: Pressure, kPa = 79.99
Property: Boiling temperature at pressure P, K (Liquid); method: Ebulliometric method (Recirculating still)
Mole fraction of N,N-dimethylformamide	Boiling temperature at pressure P, K	uncertainty
.2004	444.75	.05
.3363	442.1	.05
.448	439.05	.05
.5259	436.75	.05
.6988	430.85	.05
.8186	426.15	.05
.9016	421.95	.05
.961	418.2	.05

System: toluene + 3-(chloromethyl)heptane; phases: Liquid, Gas
Fixed: Pressure, kPa = 79.99
Property: Mole fraction of toluene (Liquid); method: Chromatography
Mole fraction of toluene	Mole fraction of toluene	uncertainty
.2162	.0412	.005
.3836	.1199	.005
.504	.1849	.005
.6388	.2595	.005
.6869	.297	.005
.8046	.4368	.005
.8453	.4905	.005
.8865	.6012	.005
.9629	.7918	.005

System: toluene + 3-(chloromethyl)heptane; phases: Liquid, Gas
Fixed: Pressure, kPa = 79.99
Property: Boiling temperature at pressure P, K (Liquid); method: Ebulliometric method (Recirculating still)
Mole fraction of toluene	Boiling temperature at pressure P, K	uncertainty
.2162	427.65	.05
.3836	421.25	.05
.504	416.4	.05
.6388	409.7	.05
.6869	406.7	.05
.8046	398.35	.05
.8453	394.4	.05
.8865	388.35	.05
.9629	381.05	.05

System: 2-ethyl-1-hexanol + toluene; phases: Liquid, Gas
Fixed: Pressure, kPa = 79.99
Property: Mole fraction of toluene (Liquid); method: Chromatography
Mole fraction of toluene	Mole fraction of toluene	uncertainty
.1436	.0269	.005
.3021	.0487	.005
.5236	.1027	.005
.6847	.1726	.005
.8116	.2781	.005
.8721	.3697	.005
.935	.5588	.005
.9601	.6834	.005
.9827	.8473	.005

System: 2-ethyl-1-hexanol + toluene; phases: Liquid, Gas
Fixed: Pressure, kPa = 79.99
Property: Boiling temperature at pressure P, K (Liquid); method: Ebulliometric method (Recirculating still)
Mole fraction of toluene	Boiling temperature at pressure P, K	uncertainty
.1436	442.6	.05
.3021	437.15	.05
.5236	427.15	.05
.6847	417.4	.05
.8116	406.2	.05
.8721	398.9	.05
.935	388.2	.05
.9601	384.65	.05
.9827	378.9	.05
