Measured thermophysical data. Solubility of Form A Pravastatin Sodium in Aqueous 2-Propanol Mixtures
Source: J. Chem. Eng. Data, 2009, 10.1021/je800699f
Compound 1: pravastatin sodium, C23H35NaO7, purity 99.5%
Compound 2: 2-propanol, C3H8O
Compound 3: water, H2O

System: 2-propanol + water + pravastatin sodium; phases: Liquid, Crystal
Fixed: Pressure, kPa = 101
Property: Mole fraction of pravastatin sodium (Liquid); method: Laser Monitering observation
Temperature, K	Mole fraction of water	Mole fraction of pravastatin sodium	uncertainty
278	.182	.0063	.0000063
283	.182	.0081	.0000081
288	.182	.01	.00001
293	.182	.0122	.0000122
298	.182	.0151	.0000151
303	.182	.0188	.0000188
308	.182	.0217	.0000217
313	.182	.0251	.0000251
318	.182	.0309	.0000309
323	.182	.0372	.0000372
278	.143	.0036	.0000036
283	.143	.0049	.0000049
288	.143	.0063	.0000063
293	.143	.0082	.0000082
298	.143	.0105	.0000105
303	.143	.0123	.0000123
308	.143	.015	.000015
313	.143	.0188	.0000188
318	.143	.022	.000022
323	.143	.0267	.0000267
278	.118	.0026	.0000026
283	.118	.0035	.0000035
288	.118	.0047	.0000047
293	.118	.0054	.0000054
298	.118	.007	.000007
303	.118	.0088	.0000088
308	.118	.0114	.0000114
313	.118	.015	.000015
318	.118	.0186	.0000186
323	.118	.022	.000022
278	.1	.0018	.0000018
283	.1	.0025	.0000025
288	.1	.0035	.0000035
293	.1	.0043	.0000043
298	.1	.0052	.0000052
303	.1	.0069	.0000069
308	.1	.0087	.0000087
313	.1	.0118	.0000118
318	.1	.0147	.0000147
323	.1	.0181	.0000181
278	.077	.0001	.0000001
283	.077	.0014	.0000014
288	.077	.002	.000002
293	.077	.0027	.0000027
298	.077	.0036	.0000036
303	.077	.0047	.0000047
308	.077	.0062	.0000062
313	.077	.0081	.0000081
318	.077	.0104	.0000104
323	.077	.0133	.0000133
