Measured thermophysical data. Experimental and Theoretical Study of the Phase Equilibria in Ternary Aqueous  Mixtures of 1,4-Butanediol with Alcohols at 298.2 K
Source: J. Chem. Eng. Data, 2009, 10.1021/je8008792
Compound 1: water, H2O
Compound 2: 1,4-butanediol, C4H10O2, purity 99%
Compound 3: 2-ethyl-1-hexanol, C8H18O, purity 99%
Compound 4: 1-decanol, C10H22O, purity 99%
Compound 5: cyclohexanol, C6H12O, purity 99%

System: 2-ethyl-1-hexanol + 1,4-butanediol + water; phases: Liquid mixture 2, Liquid mixture 1
Fixed: Temperature, K = 298.2
Fixed: Pressure, kPa = 101.3
Property: Mole fraction of water (Liquid mixture 2); method: Chromatography
Property: Mole fraction of 1,4-butanediol (Liquid mixture 1); method: Chromatography
Property: Mole fraction of water (Liquid mixture 1); method: Chromatography
Mole fraction of 1,4-butanediol	Mole fraction of water	uncertainty	Mole fraction of 1,4-butanediol	uncertainty	Mole fraction of water	uncertainty
.039	.0229	.0005	.0681	.0005	.9284	.0005
.0509	.0237	.0005	.1296	.0005	.8641	.0005
.0519	.0239	.0005	.2279	.0005	.7611	.0005
.0596	.0245	.0005	.2574	.0005	.73	.0005
.1101	.0287	.0005	.464	.0005	.5111	.0005

System: 1,4-butanediol + 1-decanol + water; phases: Liquid mixture 2, Liquid mixture 1
Fixed: Temperature, K = 298.2
Fixed: Pressure, kPa = 101.3
Property: Mole fraction of water (Liquid mixture 2); method: Chromatography
Property: Mole fraction of 1,4-butanediol (Liquid mixture 1); method: Chromatography
Property: Mole fraction of water (Liquid mixture 1); method: Chromatography
Mole fraction of 1,4-butanediol	Mole fraction of water	uncertainty	Mole fraction of 1,4-butanediol	uncertainty	Mole fraction of water	uncertainty
.0155	.0136	.0005	.1653	.0005	.829	.0005
.0267	.0192	.0005	.2525	.0005	.7345	.0005
.0365	.0245	.0005	.3432	.0005	.6343	.0005
.0418	.0274	.0005	.4311	.0005	.5245	.0005
.067	.0415	.0005	.464	.0005	.465	.0005

System: cyclohexanol + 1,4-butanediol + water; phases: Liquid mixture 2, Liquid mixture 1
Fixed: Temperature, K = 298.2
Fixed: Pressure, kPa = 101.3
Property: Mole fraction of water (Liquid mixture 2); method: Chromatography
Property: Mole fraction of water (Liquid mixture 1); method: Chromatography
Property: Mole fraction of 1,4-butanediol (Liquid mixture 1); method: Chromatography
Mole fraction of 1,4-butanediol	Mole fraction of water	uncertainty	Mole fraction of water	uncertainty	Mole fraction of 1,4-butanediol	uncertainty
.0419	.1472	.0005	.8048	.0005	.1346	.0005
.0882	.1765	.0005	.7042	.0005	.2075	.0005
.1685	.2223	.0005	.6026	.0005	.2679	.0005
.1806	.2301	.0005	.5933	.0005	.275	.0005
.218	.2521	.0005	.5374	.0005	.3103	.0005
