Measured thermophysical data. Binary Phase Diagram of Tetraethyl Orthosilicate and Carbon Dioxide
Source: J. Chem. Eng. Data, 2008, 10.1021/je800422q
Compound 1: tetraethoxysilane, C8H20O4Si
Compound 2: carbon dioxide, CO2

System: tetraethoxysilane + carbon dioxide; phases: Gas, Liquid
Property: Vapor or sublimation pressure, kPa (Gas); method: Closed cell (Static) method
Temperature, K	Mole fraction of tetraethoxysilane	Vapor or sublimation pressure, kPa	uncertainty
306.2	.002	7280	70
313.2	.0021	7920	70
323.2	.0026	8380	70
323.2	.0053	8940	70
333.2	.0097	9900	70
343.2	.0083	10640	70
343.2	.012	11120	70

System: tetraethoxysilane + carbon dioxide; phases: Liquid, Gas
Property: Critical temperature, K (Liquid); method: Visual observation in an unstirred cell
Mole fraction of tetraethoxysilane	Critical temperature, K	uncertainty
.0031	306.2	.1
.0051	313.2	.1
.0089	323.2	.1
.0267	333.2	.1
.0396	343.2	.1

System: tetraethoxysilane + carbon dioxide; phases: Liquid, Gas
Property: Critical pressure, kPa (Liquid); method: Direct measurement
Mole fraction of tetraethoxysilane	Critical pressure, kPa	uncertainty
.0031	7380	70
.0051	8200	70
.0089	9220	70
.0267	10720	70
.0396	11840	70

System: tetraethoxysilane + carbon dioxide; phases: Liquid, Gas
Property: Vapor or sublimation pressure, kPa (Liquid); method: Closed cell (Static) method
Mole fraction of tetraethoxysilane	Temperature, K	Vapor or sublimation pressure, kPa	uncertainty
.0067	306.2	7400	.07
.0071	306.2	7380	.07
.0087	306.2	7340	.07
.0203	306.2	7180	.07
.0303	306.2	7080	.07
.0462	306.2	6900	.07
.0662	306.2	6680	.07
.0071	313.2	8340	.07
.0147	313.2	8240	.07
.0195	313.2	8120	.07
.0384	313.2	7860	.07
.0472	313.2	7740	.07
.0738	313.2	7460	.07
.0108	323.2	9320	.07
.0166	323.2	9540	.07
.0249	323.2	9480	.07
.0342	323.2	9440	.07
.0504	323.2	9260	.07
.0722	323.2	9020	.07
.0423	333.2	10680	.07
.0581	333.2	10580	.07
.0819	333.2	10320	.07
.0582	343.2	11920	.07
.0772	343.2	11840	.07
