Measured thermophysical data. Solubilities of Palmitic Acid in Pure Solvents and Its Mixtures
Source: J. Chem. Eng. Data, 2009, 10.1021/je8005979
Compound 1: hexadecanoic acid, C16H32O2, purity 97%
Compound 2: ethanol, C2H6O
Compound 3: heptane, C7H16
Compound 4: hexane, C6H14
Compound 5: propanone, C3H6O
Compound 6: 2-propanol, C3H8O
Compound 7: trichloroethylene, C2HCl3

System: hexadecanoic acid; phases: Crystal, Liquid, Air at 1 atmosphere
Property: Normal melting temperature, K (Crystal); method: Visual observation
Normal melting temperature, K	uncertainty
335.8	.1

System: hexadecanoic acid + propanone; phases: Liquid, Crystal
Fixed: Pressure, kPa = 101
Property: Solid-liquid equilibrium temperature, K (Liquid); method: Visual observation
Mole fraction of hexadecanoic acid	Solid-liquid equilibrium temperature, K	uncertainty
.0119	292.85	.1
.02	297.25	.1
.0328	301.65	.1
.0429	304.05	.1
.0566	306.55	.1
.086	310.25	.1
.1096	312.05	.1
.1649	315.45	.1
.2221	317.95	.1
.3115	321.05	.1
.3768	322.95	.1

System: hexadecanoic acid + ethanol; phases: Liquid, Crystal
Fixed: Pressure, kPa = 101
Property: Solid-liquid equilibrium temperature, K (Liquid); method: Visual observation
Mole fraction of hexadecanoic acid	Solid-liquid equilibrium temperature, K	uncertainty
.0128	292.15	.1
.017	295.35	.1
.0232	297.85	.1
.0393	302.75	.1
.0454	304.15	.1
.0565	306.25	.1
.0679	307.65	.1
.0929	310.05	.1
.121	312.35	.1
.1425	313.75	.1
.1642	315.15	.1
.2053	317.05	.1
.2513	319.25	.1
.3241	321.55	.1
.395	323.65	.1

System: hexadecanoic acid + heptane; phases: Liquid, Crystal
Fixed: Pressure, kPa = 101
Property: Solid-liquid equilibrium temperature, K (Liquid); method: Visual observation
Mole fraction of hexadecanoic acid	Solid-liquid equilibrium temperature, K	uncertainty
.0145	294.55	.1
.0302	300.05	.1
.0483	303.05	.1
.0767	306.55	.1
.1016	308.65	.1
.1477	312.05	.1
.1872	313.75	.1
.2252	315.65	.1
.2927	318.25	.1
.3596	320.55	.1
.4151	322.25	.1

System: hexadecanoic acid + hexane; phases: Liquid, Crystal
Fixed: Pressure, kPa = 101
Property: Solid-liquid equilibrium temperature, K (Liquid); method: Visual observation
Mole fraction of hexadecanoic acid	Solid-liquid equilibrium temperature, K	uncertainty
.0154	293.75	.1
.0257	297.15	.1
.0379	299.95	.1
.0663	304.15	.1
.0947	306.75	.1
.1284	309.55	.1
.1658	311.35	.1
.22	314.25	.1
.2846	317.05	.1
.3561	319.65	.1
.4384	322.75	.1

System: hexadecanoic acid + 2-propanol; phases: Liquid, Crystal
Fixed: Pressure, kPa = 101
Property: Solid-liquid equilibrium temperature, K (Liquid); method: Visual observation
Mole fraction of hexadecanoic acid	Solid-liquid equilibrium temperature, K	uncertainty
.027	291.75	.1
.0325	293.65	.1
.0416	296.25	.1
.0581	299.95	.1
.0889	304.25	.1
.1135	306.65	.1
.1525	309.85	.1
.2103	313.85	.1
.2617	316.75	.1
.3168	319.35	.1
.3801	321.75	.1

System: hexadecanoic acid + trichloroethylene; phases: Liquid, Crystal
Fixed: Pressure, kPa = 101
Property: Solid-liquid equilibrium temperature, K (Liquid); method: Visual observation
Mole fraction of hexadecanoic acid	Solid-liquid equilibrium temperature, K	uncertainty
.0816	294.2	.1
.1003	297.1	.1
.1254	300.3	.1
.1562	303.5	.1
.1809	305.5	.1
.2272	309.2	.1
.2885	313.1	.1
.3522	316.55	.1
.4134	319.55	.1
.4596	321.45	.1
.522	323.75	.1

System: hexadecanoic acid + ethanol + heptane; phases: Liquid, Crystal
Fixed: Pressure, kPa = 101
Fixed: Mole fraction of ethanol = .618
Property: Solid-liquid equilibrium temperature, K (Liquid); method: Visual observation
Mole fraction of hexadecanoic acid	Solid-liquid equilibrium temperature, K	uncertainty
.0543	292.25	.1
.0685	295.45	.1
.088	298.85	.1
.0988	300.95	.1
.1246	304.45	.1
.1619	308.35	.1
.1939	311.55	.1
.241	314.65	.1
.3078	318.65	.1
.3608	320.65	.1
.4262	323.45	.1

System: hexadecanoic acid + ethanol + hexane; phases: Liquid, Crystal
Fixed: Pressure, kPa = 101
Fixed: Mole fraction of hexane = .659
Property: Solid-liquid equilibrium temperature, K (Liquid); method: Visual observation
Mole fraction of hexadecanoic acid	Solid-liquid equilibrium temperature, K	uncertainty
.0678	293.05	.1
.0802	295.65	.1
.0996	298.85	.1
.113	300.65	.1
.1458	304.45	.1
.1677	306.65	.1
.2138	310.75	.1
.275	314.25	.1
.3438	317.45	.1
.4205	320.95	.1
.4743	323.35	.1

System: hexadecanoic acid + ethanol + trichloroethylene; phases: Liquid, Crystal
Fixed: Pressure, kPa = 101
Fixed: Mole fraction of ethanol = .5259
Property: Solid-liquid equilibrium temperature, K (Liquid); method: Visual observation
Mole fraction of hexadecanoic acid	Solid-liquid equilibrium temperature, K	uncertainty
.081	292.05	.1
.0876	293.75	.1
.1114	297.95	.1
.1371	301.05	.1
.1675	304.95	.1
.2073	308.65	.1
.244	311.55	.1
.2936	314.95	.1
.3455	317.65	.1
.3992	320.45	.1
.4541	322.65	.1

System: hexadecanoic acid + propanone + heptane; phases: Liquid, Crystal
Fixed: Pressure, kPa = 101
Fixed: Mole fraction of propanone = .9
Property: Solid-liquid equilibrium temperature, K (Liquid); method: Visual observation
Mole fraction of hexadecanoic acid	Solid-liquid equilibrium temperature, K	uncertainty
.019	291.45	.1
.0245	294.05	.1
.0363	298.25	.1
.0493	301.55	.1
.0761	305.65	.1
.1233	310.65	.1
.1712	313.55	.1
.2182	316.45	.1
.2802	318.85	.1
.3459	321.25	.1
.3901	322.65	.1

System: hexadecanoic acid + 2-propanol + heptane; phases: Liquid, Crystal
Fixed: Pressure, kPa = 101
Fixed: Mole fraction of heptane = .545
Property: Solid-liquid equilibrium temperature, K (Liquid); method: Visual observation
Mole fraction of hexadecanoic acid	Solid-liquid equilibrium temperature, K	uncertainty
.0711	292.55	.1
.0816	294.65	.1
.095	296.85	.1
.1227	300.85	.1
.1547	304.45	.1
.1935	308.15	.1
.2337	311.65	.1
.2803	314.35	.1
.3314	317.15	.1
.3927	320.05	.1
.4485	322.85	.1

System: hexadecanoic acid + propanone + hexane; phases: Liquid, Crystal
Fixed: Pressure, kPa = 101
Fixed: Mole fraction of propanone = .63
Property: Solid-liquid equilibrium temperature, K (Liquid); method: Visual observation
Mole fraction of hexadecanoic acid	Solid-liquid equilibrium temperature, K	uncertainty
.0433	293.15	.1
.0498	294.75	.1
.0636	298.15	.1
.0816	301.25	.1
.1154	305.05	.1
.1465	307.75	.1
.1962	311.65	.1
.2547	314.75	.1
.3138	318.05	.1
.3751	320.45	.1
.4282	322.75	.1

System: hexadecanoic acid + 2-propanol + hexane; phases: Liquid, Crystal
Fixed: Pressure, kPa = 101
Fixed: Mole fraction of hexane = .8429
Property: Solid-liquid equilibrium temperature, K (Liquid); method: Visual observation
Mole fraction of hexadecanoic acid	Solid-liquid equilibrium temperature, K	uncertainty
.068	292.95	.1
.0793	295.05	.1
.1065	299.75	.1
.1405	303.85	.1
.1727	307.35	.1
.2126	310.35	.1
.2753	314.25	.1
.3207	316.85	.1
.3734	319.25	.1
.4181	321.45	.1
.4552	323.05	.1

System: hexadecanoic acid + 2-propanol + trichloroethylene; phases: Liquid, Crystal
Fixed: Pressure, kPa = 101
Fixed: Mole fraction of 2-propanol = .4837
Property: Solid-liquid equilibrium temperature, K (Liquid); method: Visual observation
Mole fraction of hexadecanoic acid	Solid-liquid equilibrium temperature, K	uncertainty
.1069	294.05	.1
.1222	296.85	.1
.1506	301.35	.1
.1944	305.95	.1
.2443	310.25	.1
.2838	313.15	.1
.3295	315.85	.1
.38	318.45	.1
.4276	320.55	.1
.4646	322.25	.1
.5046	323.55	.1
