Measured thermophysical data. Solubility of 3-Chlorophthalic Anhydride and 4-Chlorophthalic Anhydride in  Organic Solvents and Solubility of 3-Chlorophthalic Acid and 4-Chlorophthalic  Acid in Water from (283.15 to 333.15) K
Source: J. Chem. Eng. Data, 2009, 10.1021/je800869g
Compound 1: 3-chlorophthalic anhydride, C8H3ClO3, purity 98.3%
Compound 2: 4-chlorophthalic anhydride, C8H3ClO3, purity 98.2%
Compound 3: 3-chlorophthalic acid, C8H5ClO4
Compound 4: 4-chlorophthalic acid, C8H5ClO4
Compound 5: ethyl ethanoate, C4H8O2
Compound 6: propanone, C3H6O
Compound 7: 1,4-dioxane, C4H8O2
Compound 8: water, H2O

System: 3-chlorophthalic anhydride + ethyl ethanoate; phases: Liquid, Crystal
Fixed: Pressure, kPa = 101
Property: Mole fraction of 3-chlorophthalic anhydride (Liquid); method: Chromatography
Temperature, K	Mole fraction of 3-chlorophthalic anhydride	uncertainty
283.15	.1067	
288.15	.1123	
293.15	.1213	
298.15	.1328	
303.15	.1544	
308.15	.1688	
313.15	.1909	
318.15	.2246	
323.15	.265	

System: propanone + 3-chlorophthalic anhydride; phases: Liquid, Crystal
Fixed: Pressure, kPa = 101
Property: Mole fraction of 3-chlorophthalic anhydride (Liquid); method: Chromatography
Temperature, K	Mole fraction of 3-chlorophthalic anhydride	uncertainty
283.15	.1669	
288.15	.1824	
293.15	.2022	
298.15	.2184	
303.15	.2344	
308.15	.2612	
313.15	.2915	
318.15	.3198	
323.15	.3569	

System: 3-chlorophthalic anhydride + 1,4-dioxane; phases: Liquid, Crystal
Fixed: Pressure, kPa = 101
Property: Mole fraction of 3-chlorophthalic anhydride (Liquid); method: Chromatography
Temperature, K	Mole fraction of 3-chlorophthalic anhydride	uncertainty
283.15	.185	
288.15	.2256	
293.15	.2681	
298.15	.296	
303.15	.3281	
308.15	.3672	
313.15	.3959	
318.15	.4202	
323.15	.4393	

System: 4-chlorophthalic anhydride + ethyl ethanoate; phases: Liquid, Crystal
Fixed: Pressure, kPa = 101
Property: Mole fraction of 4-chlorophthalic anhydride (Liquid); method: Chromatography
Temperature, K	Mole fraction of 4-chlorophthalic anhydride	uncertainty
283.15	.1777	
288.15	.1843	
293.15	.2056	
298.15	.2275	
303.15	.2607	
308.15	.2929	
313.15	.3261	
318.15	.3773	
323.15	.4366	

System: propanone + 4-chlorophthalic anhydride; phases: Liquid, Crystal
Fixed: Pressure, kPa = 101
Property: Mole fraction of 4-chlorophthalic anhydride (Liquid); method: Chromatography
Temperature, K	Mole fraction of 4-chlorophthalic anhydride	uncertainty
283.15	.2012	
288.15	.2223	
293.15	.2456	
298.15	.287	
303.15	.3155	
308.15	.369	
313.15	.4274	
318.15	.4735	
323.15	.5219	

System: 4-chlorophthalic anhydride + 1,4-dioxane; phases: Liquid, Crystal
Fixed: Pressure, kPa = 101
Property: Mole fraction of 4-chlorophthalic anhydride (Liquid); method: Chromatography
Temperature, K	Mole fraction of 4-chlorophthalic anhydride	uncertainty
283.15	.0825	
288.15	.0992	
293.15	.1237	
298.15	.142	
303.15	.1664	
308.15	.2052	
313.15	.2502	
318.15	.2978	
323.15	.359	

System: water + 3-chlorophthalic acid; phases: Liquid, Crystal
Fixed: Pressure, kPa = 101
Property: Mole fraction of 3-chlorophthalic acid (Liquid); method: Chromatography
Temperature, K	Mole fraction of 3-chlorophthalic acid	uncertainty
283.15	.0020136	
288.15	.0022087	
293.15	.0024834	
298.15	.0028053	
303.15	.0031473	
308.15	.0034609	
313.15	.0038346	
318.15	.004301	
323.15	.0047276	
328.15	.0051734	
333.15	.0056	

System: 4-chlorophthalic acid + water; phases: Liquid, Crystal
Fixed: Pressure, kPa = 101
Property: Mole fraction of 4-chlorophthalic acid (Liquid); method: Chromatography
Temperature, K	Mole fraction of 4-chlorophthalic acid	uncertainty
283.15	.08021	
288.15	.09132	
293.15	.1093	
298.15	.125	
303.15	.1451	
308.15	.1686	
313.15	.1996	
318.15	.2262	
323.15	.2615	
328.15	.2987	
333.15	.3494	
