Measured thermophysical data. Isothermal Vapor-Liquid Equilibria of (Monoethanolamine + Water) and  (4-Methylmorpholine + Water) Binary Systems at Several Temperatures
Source: J. Chem. Eng. Data, 2009, 10.1021/je800530u
Compound 1: 2-aminoethanol, C2H7NO
Compound 2: N-methylmorpholine, C5H11NO
Compound 3: water, H2O

System: 2-aminoethanol; phases: Liquid, Gas
Property: Vapor or sublimation pressure, kPa (Liquid); method: Closed cell (Static) method
Temperature, K	Vapor or sublimation pressure, kPa	uncertainty
283.34	.016	5
288.34	.02533	5
293.34	.03866	5
298.34	.05866	5
303.34	.08799	5
308.34	.12932	5
313.34	.18798	5
318.34	.26931	.5
323.34	.3813	.5
328.34	.53329	.5
333.34	.73594	.5
338.34	1.0066	.2
343.34	1.3626	.2
348.34	1.8265	.2
353.34	2.4251	.2
358.34	3.1931	.2
363.09	4.113	.2

System: 2-aminoethanol; phases: Liquid, Gas
Property: Vapor or sublimation pressure, kPa (Liquid); method: Closed cell (Static) method
Temperature, K	Vapor or sublimation pressure, kPa	uncertainty
283.15	.0158	5
293.15	.0382	5
303.15	.0867	5
313.15	.1855	5
323.15	.3762	.5
333.15	.7274	.5
343.15	1.3472	.2
353.15	2.3998	.2
363.15	4.1263	.2

System: N-methylmorpholine; phases: Liquid, Gas
Property: Vapor or sublimation pressure, kPa (Liquid); method: Closed cell (Static) method
Temperature, K	Vapor or sublimation pressure, kPa	uncertainty
273.18	.6893	.5
278.18	.9533	.5
283.18	1.2999	.2
288.18	1.7479	.2
293.18	2.3225	.2
298.18	3.0491	.2
303.18	3.9597	.2
308.18	5.0902	.2
313.18	6.4795	.2
318.18	8.174	.2
323.18	10.2205	.2
328.18	12.6776	.2
333.18	15.6027	.2
338.18	19.0624	.2
343.18	23.1274	.2
348.18	27.875	.2
353.08	33.2706	.2

System: N-methylmorpholine; phases: Liquid, Gas
Property: Vapor or sublimation pressure, kPa (Liquid); method: Closed cell (Static) method
Temperature, K	Vapor or sublimation pressure, kPa	uncertainty
313.15	6.4707	.2
323.15	10.2075	.2
333.15	15.583	.2
343.15	23.1011	.2
353.15	33.3536	.2
363.15	47.022	.2

System: water; phases: Liquid, Gas
Property: Vapor or sublimation pressure, kPa (Liquid); method: Closed cell (Static) method
Temperature, K	Vapor or sublimation pressure, kPa	uncertainty
282.87	1.1772	.2
287.87	1.6359	.2
292.87	2.2438	.2
297.87	3.0437	.2
302.87	4.081	.2
307.87	5.4156	.2
312.87	7.1141	.2
317.87	9.2579	.2
322.87	11.939	.2
327.87	15.2654	.2
332.87	19.3611	.2
337.87	24.366	.2
342.87	30.4402	.2
347.87	37.7622	.2
352.87	46.5348	.2
357.87	56.9806	.2
362.87	69.3476	.2
363.8	71.8808	.2

System: water; phases: Liquid, Gas
Property: Vapor or sublimation pressure, kPa (Liquid); method: Closed cell (Static) method
Temperature, K	Vapor or sublimation pressure, kPa	uncertainty
283.15	1.1995	.2
293.15	2.2838	.2
303.15	4.1478	.2
313.15	7.2219	.2
323.15	12.107	.2
333.15	19.6156	.2
343.15	30.8153	.2
353.15	47.0737	.2
363.15	70.1021	.2

System: 2-aminoethanol + water; phases: Liquid, Gas
Property: Vapor or sublimation pressure, kPa (Liquid); method: Closed cell (Static) method
Temperature, K	Mole fraction of 2-aminoethanol	Vapor or sublimation pressure, kPa	uncertainty
283.15	1	.0158	5
293.15	1	.0382	5
303.15	1	.0867	5
283.15	.848	.093	5
313.15	1	.1855	5
293.15	.848	.1968	5
283.15	.684	.1986	5
323.15	1	.3762	.5
283.15	.5214	.3779	.5
303.15	.848	.3887	.5
293.15	.684	.3969	.5
283.15	.3759	.5974	.5
313.15	.848	.7231	.5
333.15	1	.7274	.5
293.15	.5214	.7327	.5
303.15	.684	.7535	.5
283.15	.274	.7888	.5
283.15	.2023	.929	.5
283.15	.119	1.0671	.2
293.15	.3759	1.1224	.2
283.15	.0527	1.1363	.2
283.15	0	1.1995	.2
323.15	.848	1.2767	.2
343.15	1	1.3472	.2
303.15	.5214	1.3628	.2
313.15	.684	1.3664	.2
293.15	.274	1.4658	.2
293.15	.2023	1.7528	.2
293.15	.119	2.0146	.2
303.15	.3759	2.0295	.2
333.15	.848	2.1527	.2
293.15	.0527	2.1697	.2
293.15	0	2.2838	.2
323.15	.684	2.3782	.2
353.15	1	2.3998	.2
313.15	.5214	2.4403	.2
303.15	.274	2.6291	.2
303.15	.2023	3.1664	.2
343.15	.848	3.4854	.2
313.15	.3759	3.5436	.2
303.15	.119	3.6387	.2
303.15	.0527	3.9488	.2
333.15	.684	3.9889	.2
363.15	1	4.1263	.2
303.15	0	4.1478	.2
323.15	.5214	4.2215	.2
313.15	.274	4.565	.2
353.15	.848	5.443	.2
313.15	.2023	5.5003	.2
323.15	.3759	5.9931	.2
313.15	.119	6.3158	.2
343.15	.684	6.4709	.2
313.15	.0527	6.8852	.2
333.15	.5214	7.076	.2
313.15	0	7.2219	.2
323.15	.274	7.6934	.2
363.15	.848	8.2313	.2
323.15	.2023	9.2219	.2
333.15	.3759	9.8436	.2
353.15	.684	10.1845	.2
323.15	.119	10.5762	.2
343.15	.5214	11.5226	.2
323.15	.0527	11.5528	.2
323.15	0	12.107	.2
333.15	.274	12.6144	.2
333.15	.2023	14.9731	.2
363.15	.684	15.5943	.2
343.15	.3759	15.7391	.2
333.15	.119	17.1441	.2
353.15	.5214	18.2721	.2
333.15	.0527	18.7262	.2
333.15	0	19.6156	.2
343.15	.274	20.165	.2
343.15	.2023	23.6113	.2
353.15	.3759	24.5504	.2
343.15	.119	26.9824	.2
363.15	.5214	28.2757	.2
343.15	.0527	29.4211	.2
343.15	0	30.8153	.2
353.15	.274	31.4879	.2
353.15	.2023	36.2541	.2
363.15	.3759	37.4297	.2
353.15	.119	41.3398	.2
353.15	.0527	44.9353	.2
353.15	0	47.0737	.2
363.15	.274	48.1112	.2
363.15	.2023	54.3261	.2
363.15	.119	61.7997	.2
363.15	.0527	66.8887	.2
363.15	0	70.1021	.2

System: N-methylmorpholine + water; phases: Liquid, Gas
Property: Vapor or sublimation pressure, kPa (Liquid); method: Closed cell (Static) method
Temperature, K	Mole fraction of N-methylmorpholine	Vapor or sublimation pressure, kPa	uncertainty
313.15	1	6.4707	.2
313.15	0	7.2219	.2
313.15	.05	7.4594	.2
313.15	.1585	7.8856	.2
313.15	.3486	8.5495	.2
313.15	.8478	8.6173	.2
313.15	.6669	8.7493	.2
313.15	.4955	8.7841	.2
323.15	1	10.2075	.2
323.15	0	12.107	.2
323.15	.05	12.6941	.2
323.15	.8478	13.2915	.2
323.15	.1585	13.5099	.2
323.15	.3486	14.4246	.2
323.15	.6669	14.5043	.2
323.15	.4955	14.6771	.2
333.15	1	15.583	.2
333.15	0	19.6156	.2
333.15	.05	20.832	.2
333.15	.8478	20.8995	.2
333.15	.1585	22.2643	.2
343.15	1	23.1011	.2
333.15	.6669	23.2288	.2
333.15	.3486	23.4765	.2
333.15	.4955	23.7023	.2
343.15	0	30.8153	.2
343.15	.8478	31.8634	.2
343.15	.05	33.0868	.2
353.15	1	33.3536	.2
343.15	.1585	35.4381	.2
343.15	.6669	36.0621	.2
343.15	.3486	36.9904	.2
343.15	.4955	37.1169	.2
363.15	1	47.022	.2
353.15	0	47.0737	.2
353.15	.8478	47.2466	.2
353.15	.05	51.0198	.2
353.15	.6669	54.4334	.2
353.15	.1585	54.6709	.2
353.15	.4955	56.5241	.2
353.15	.3486	56.6018	.2
363.15	.8478	68.3167	.2
363.15	0	70.1021	.2
363.15	.05	76.5902	.2
363.15	.6669	80.0946	.2
363.15	.1585	81.9961	.2
363.15	.4955	83.9213	.2
363.15	.3486	84.3427	.2
