Measured thermophysical data. Solubility of Ammonium Thiocyanate in Different Solvents
Source: J. Chem. Eng. Data, 2009, 10.1021/je800621p
Compound 1: ammonium thiocyanate, CH4N2S, purity 99%
Compound 2: ethanol, C2H6O
Compound 3: water, H2O
Compound 4: methanol, CH4O
Compound 5: propanone, C3H6O

System: ethanol + ammonium thiocyanate; phases: Liquid, Crystal
Fixed: Pressure, kPa = 101
Property: Mole fraction of ammonium thiocyanate (Liquid); method: laser observation technique
Temperature, K	Mole fraction of ammonium thiocyanate	uncertainty
279.7	.1175	.005875
286.1	.125	.00625
290.7	.1318	.00659
299.5	.1431	.007155
305.4	.148	.0074
311.2	.1578	.00789
319.2	.1689	.008445
327.5	.182	.0091
333	.191	.00955
338	.202	.0101

System: ammonium thiocyanate + water; phases: Liquid, Crystal
Fixed: Pressure, kPa = 101
Property: Mole fraction of ammonium thiocyanate (Liquid); method: laser observation technique
Temperature, K	Mole fraction of ammonium thiocyanate	uncertainty
276.8	.237	.01185
285.5	.2676	.01338
295	.2982	.01491
302.3	.3262	.01631
308.8	.3526	.01763
314.8	.3773	.018865
324.6	.4118	.02059
331.2	.438	.0219
336	.4687	.023435
341	.4919	.024595
345	.5225	.026125

System: methanol + ammonium thiocyanate; phases: Liquid, Crystal
Fixed: Pressure, kPa = 101
Property: Mole fraction of ammonium thiocyanate (Liquid); method: laser observation technique
Temperature, K	Mole fraction of ammonium thiocyanate	uncertainty
279.6	.1693	.008465
283.9	.1794	.00897
291.1	.1895	.009475
296	.1988	.00994
304.9	.2199	.010995
309.4	.2334	.01167
317.5	.2491	.012455
326.2	.2769	.013845
333	.3089	.015445

System: propanone + ammonium thiocyanate; phases: Liquid, Crystal
Fixed: Pressure, kPa = 101
Property: Mole fraction of ammonium thiocyanate (Liquid); method: laser observation technique
Temperature, K	Mole fraction of ammonium thiocyanate	uncertainty
279	.2358	.01179
284.1	.2705	.013525
288	.3008	.01504
293	.3616	.01808
298	.4169	.020845
303	.4895	.024475
308	.5567	.027835
313	.6141	.030705
318	.7006	.03503
323	.7411	.037055
328	.8111	.040555

System: ethanol + ammonium thiocyanate + water; phases: Liquid, Crystal
Fixed: Pressure, kPa = 101
Property: Mole fraction of ammonium thiocyanate (Liquid); method: laser observation technique
Solvent: Mass fraction of ethanol	Temperature, K	Mole fraction of ammonium thiocyanate	uncertainty
.95	282	.1391	.006955
.95	289.3	.1483	.007415
.95	295.5	.1572	.00786
.95	301.8	.1668	.00834
.95	309.4	.1802	.00901
.95	315.2	.1936	.00968
.95	322.8	.2078	.01039
.95	327.3	.2217	.011085
.95	333	.2368	.01184
.95	338	.2511	.012555
.5	279	.1843	.009215
.5	284	.205	.01025
.5	289	.2191	.010955
.5	294	.2313	.011565
.5	298	.2471	.012355
.5	305	.2719	.013595
.5	313	.3036	.01518
.5	318	.3261	.016305
.5	323	.3456	.01728
.5	328	.3685	.018425
.5	333	.3934	.01967
.5	338	.4188	.02094
.5	343	.4411	.022055
