Measured thermophysical data. Densities and Viscosities of Binary Liquid Mixtures of 2-Butanone with Branched  Alcohols at (293.15 to 313.15) K
Source: J. Chem. Eng. Data, 2009, 10.1021/je800571y
Compound 1: butanone, C4H8O
Compound 2: 2-propanol, C3H8O
Compound 3: 2-methyl-1-propanol, C4H10O
Compound 4: 2-butanol, dl-, C4H10O
Compound 5: 2-methyl-2-butanol, C5H12O

System: butanone; phases: Liquid
Property: Mass density, kg/m3 (Liquid); method: Pycnometric method
Temperature, K	Pressure, kPa	Mass density, kg/m3	uncertainty
293.15	101	804.92	.05
298.15	101	799.7	.05
303.15	101	794.81	.05
308.15	101	789.78	.05
313.15	101	784.32	.05

System: butanone; phases: Liquid
Property: Viscosity, Pa*s (Liquid); method: Capillary tube (Ostwald; Ubbelohde) method
Temperature, K	Pressure, kPa	Viscosity, Pa*s	uncertainty
293.15	101	.0003956	.000002
298.15	101	.0002828	.000002
303.15	101	.0002666	.000002
308.15	101	.0002601	.000002
313.15	101	.0002545	.000002

System: 2-propanol; phases: Liquid
Property: Mass density, kg/m3 (Liquid); method: Pycnometric method
Temperature, K	Pressure, kPa	Mass density, kg/m3	uncertainty
293.15	101	785.45	.05
298.15	101	781.26	.05
303.15	101	777.97	.05
308.15	101	772.59	.05
313.15	101	768.32	.05

System: 2-propanol; phases: Liquid
Property: Viscosity, Pa*s (Liquid); method: Capillary tube (Ostwald; Ubbelohde) method
Temperature, K	Pressure, kPa	Viscosity, Pa*s	uncertainty
293.15	101	.0022256	.000002
298.15	101	.0019102	.000002
303.15	101	.001737	.000002
308.15	101	.0015242	.000002
313.15	101	.0013472	.000002

System: 2-methyl-1-propanol; phases: Liquid
Property: Mass density, kg/m3 (Liquid); method: Pycnometric method
Temperature, K	Pressure, kPa	Mass density, kg/m3	uncertainty
293.15	101	801.68	.05
298.15	101	797.8	.05
303.15	101	794.16	.05
308.15	101	790.06	.05
313.15	101	786.7	.05

System: 2-methyl-1-propanol; phases: Liquid
Property: Viscosity, Pa*s (Liquid); method: Capillary tube (Ostwald; Ubbelohde) method
Temperature, K	Pressure, kPa	Viscosity, Pa*s	uncertainty
293.15	101	.0040366	.000002
298.15	101	.0033297	.000002
303.15	101	.0028752	.000002
308.15	101	.0024207	.000002
313.15	101	.0019666	.000002

System: 2-butanol, dl-; phases: Liquid
Property: Mass density, kg/m3 (Liquid); method: Pycnometric method
Temperature, K	Pressure, kPa	Mass density, kg/m3	uncertainty
293.15	101	806.48	.05
298.15	101	802.35	.05
303.15	101	798.96	.05
308.15	101	794.18	.05
313.15	101	790.07	.05

System: 2-butanol, dl-; phases: Liquid
Property: Viscosity, Pa*s (Liquid); method: Capillary tube (Ostwald; Ubbelohde) method
Temperature, K	Pressure, kPa	Viscosity, Pa*s	uncertainty
293.15	101	.0036316	.000002
298.15	101	.0029975	.000002
303.15	101	.0024978	.000002
308.15	101	.0020542	.000002
313.15	101	.0017989	.000002

System: 2-methyl-2-butanol; phases: Liquid
Property: Mass density, kg/m3 (Liquid); method: Pycnometric method
Temperature, K	Pressure, kPa	Mass density, kg/m3	uncertainty
293.15	101	809.61	.05
298.15	101	805.01	.05
303.15	101	800.41	.05
308.15	101	795.81	.05
313.15	101	791.21	.05

System: 2-methyl-2-butanol; phases: Liquid
Property: Viscosity, Pa*s (Liquid); method: Capillary tube (Ostwald; Ubbelohde) method
Temperature, K	Pressure, kPa	Viscosity, Pa*s	uncertainty
293.15	101	.005108	.000002
298.15	101	.004474	.000002
303.15	101	.0039086	.000002
308.15	101	.0033871	.000002
313.15	101	.0029086	.000002

System: 2-propanol + butanone; phases: Liquid
Fixed: Pressure, kPa = 101
Property: Mass density, kg/m3 (Liquid); method: Pycnometric method
Temperature, K	Mole fraction of butanone	Mass density, kg/m3	uncertainty
293.15	0	785.45	.05
293.15	.0562	786.4	.05
293.15	.1136	787.47	.05
293.15	.1724	788.54	.05
293.15	.2326	789.67	.05
293.15	.2941	790.83	.05
293.15	.3571	792.05	.05
293.15	.4217	793.29	.05
293.15	.4878	794.6	.05
293.15	.5555	795.96	.05
293.15	.625	797.35	.05
293.15	.6962	798.79	.05
293.15	.7692	800.26	.05
293.15	.8442	801.6	.05
293.15	.9211	803.3	.05
293.15	1	804.92	.05
298.15	0	781.26	.05
298.15	.0562	782.34	.05
298.15	.1136	783.31	.05
298.15	.1724	784.36	.05
298.15	.2326	785.46	.05
298.15	.2941	786.59	.05
298.15	.3571	787.74	.05
298.15	.4217	788.95	.05
298.15	.4878	790.18	.05
298.15	.5555	791.44	.05
298.15	.625	792.74	.05
298.15	.6962	794.08	.05
298.15	.7692	795.45	.05
298.15	.8442	796.86	.05
298.15	.9211	798.3	.05
298.15	1	799.7	.05
303.15	0	777.97	.05
303.15	.0562	778.9	.05
303.15	.1136	779.85	.05
303.15	.1724	780.81	.05
303.15	.2326	781.82	.05
303.15	.2941	782.85	.05
303.15	.3571	783.91	.05
303.15	.4217	785.01	.05
303.15	.4878	786.14	.05
303.15	.5555	787.29	.05
303.15	.625	788.49	.05
303.15	.6962	789.7	.05
303.15	.7692	790.95	.05
303.15	.8442	792.21	.05
303.15	.9211	793.51	.05
303.15	1	794.81	.05
308.15	0	772.59	.05
308.15	.0562	773.52	.05
308.15	.1136	774.58	.05
308.15	.1724	775.58	.05
308.15	.2326	776.64	.05
308.15	.2941	777.7	.05
308.15	.3571	778.8	.05
308.15	.4217	779.92	.05
308.15	.4878	781.07	.05
308.15	.5555	782.24	.05
308.15	.625	783.44	.05
308.15	.6962	784.66	.05
308.15	.7692	785.91	.05
308.15	.8442	787.18	.05
308.15	.9211	788.48	.05
308.15	1	789.78	.05
313.15	0	768.32	.05
313.15	.0562	769.21	.05
313.15	.1136	770.17	.05
313.15	.1724	771.13	.05
313.15	.2326	772.12	.05
313.15	.2941	773.13	.05
313.15	.3571	774.16	.05
313.15	.4217	775.21	.05
313.15	.4878	776.27	.05
313.15	.5555	777.37	.05
313.15	.625	778.48	.05
313.15	.6962	779.61	.05
313.15	.7692	780.76	.05
313.15	.8442	781.93	.05
313.15	.9211	783.12	.05
313.15	1	784.32	.05

System: 2-propanol + butanone; phases: Liquid
Fixed: Pressure, kPa = 101
Property: Viscosity, Pa*s (Liquid); method: Capillary tube (Ostwald; Ubbelohde) method
Temperature, K	Mole fraction of butanone	Viscosity, Pa*s	uncertainty
293.15	0	.0022256	.000002
293.15	.0595	.0018161	.000002
293.15	.1282	.0015044	.000002
293.15	.1724	.0012939	.000002
293.15	.2326	.0011026	.000002
293.15	.2941	.0009668	.000002
293.15	.3572	.000852	.000002
293.15	.4217	.0007693	.000002
293.15	.4878	.0007113	.000002
293.15	.5556	.0006609	.000002
293.15	.625	.0006072	.000002
293.15	.6962	.0005511	.000002
293.15	.7693	.0005144	.000002
293.15	.8442	.0004675	.000002
293.15	.9211	.0004293	.000002
293.15	1	.0003956	.000002
298.15	0	.0019102	.000002
298.15	.0595	.0015957	.000002
298.15	.1282	.0013616	.000002
298.15	.1724	.0011845	.000002
298.15	.2326	.0009992	.000002
298.15	.2941	.0008812	.000002
298.15	.3572	.0007675	.000002
298.15	.4217	.0006949	.000002
298.15	.4878	.0006289	.000002
298.15	.5556	.0005801	.000002
298.15	.625	.0005071	.000002
298.15	.6962	.0004516	.000002
298.15	.7693	.0003852	.000002
298.15	.8442	.000353	.000002
298.15	.9211	.0003262	.000002
298.15	1	.0002828	.000002
303.15	0	.001737	.000002
303.15	.0595	.0014133	.000002
303.15	.1282	.0012067	.000002
303.15	.1724	.0010456	.000002
303.15	.2326	.0009083	.000002
303.15	.2941	.0008021	.000002
303.15	.3572	.0007154	.000002
303.15	.4217	.0006406	.000002
303.15	.4878	.0005816	.000002
303.15	.5556	.0005303	.000002
303.15	.625	.0004848	.000002
303.15	.6962	.0004355	.000002
303.15	.7693	.0003866	.000002
303.15	.8442	.0003359	.000002
303.15	.9211	.0002972	.000002
303.15	1	.0002666	.000002
308.15	0	.0015242	.000002
308.15	.0595	.0012715	.000002
308.15	.1282	.0010948	.000002
308.15	.1724	.0009637	.000002
308.15	.2326	.0008366	.000002
308.15	.2941	.0007488	.000002
308.15	.3572	.0006663	.000002
308.15	.4217	.0005987	.000002
308.15	.4878	.0005428	.000002
308.15	.5556	.0004834	.000002
308.15	.625	.0004314	.000002
308.15	.6962	.0003751	.000002
308.15	.7693	.0003345	.000002
308.15	.8442	.000306	.000002
308.15	.9211	.0002758	.000002
308.15	1	.0002601	.000002
313.15	0	.0013472	.000002
313.15	.0595	.0011649	.000002
313.15	.1282	.0010029	.000002
313.15	.1724	.0008693	.000002
313.15	.2326	.000774	.000002
313.15	.2941	.0006929	.000002
313.15	.3572	.0006169	.000002
313.15	.4217	.0005567	.000002
313.15	.4878	.0004753	.000002
313.15	.5556	.0004406	.000002
313.15	.625	.0003846	.000002
313.15	.6962	.0003302	.000002
313.15	.7693	.000316	.000002
313.15	.8442	.000286	.000002
313.15	.9211	.0002706	.000002
313.15	1	.0002545	.000002

System: 2-methyl-1-propanol + butanone; phases: Liquid
Fixed: Pressure, kPa = 101
Property: Mass density, kg/m3 (Liquid); method: Pycnometric method
Temperature, K	Mole fraction of butanone	Mass density, kg/m3	uncertainty
293.15	0	801.68	.05
293.15	.0684	801.9	.05
293.15	.1365	802.11	.05
293.15	.2044	802.32	.05
293.15	.2721	802.52	.05
293.15	.3395	802.72	.05
293.15	.4066	802.92	.05
293.15	.4735	803.13	.05
293.15	.5402	803.33	.05
293.15	.6066	803.54	.05
293.15	.6727	803.75	.05
293.15	.7387	803.97	.05
293.15	.8044	804.2	.05
293.15	.8698	804.43	.05
293.15	.935	804.67	.05
293.15	1	804.92	.05
298.15	0	797.8	.05
298.15	.0684	797.93	.05
298.15	.1365	798.06	.05
298.15	.2044	798.18	.05
298.15	.2721	798.29	.05
298.15	.3395	798.41	.05
298.15	.4066	798.52	.05
298.15	.4735	798.63	.05
298.15	.5402	798.75	.05
298.15	.6066	798.87	.05
298.15	.6727	798.99	.05
298.15	.7387	799.12	.05
298.15	.8044	799.25	.05
298.15	.8698	799.4	.05
298.15	.935	799.54	.05
298.15	1	799.7	.05
303.15	0	794.16	.05
303.15	.0684	794.21	.05
303.15	.1365	794.25	.05
303.15	.2044	794.29	.05
303.15	.2721	794.32	.05
303.15	.3395	794.36	.05
303.15	.4066	794.39	.05
303.15	.4735	794.42	.05
303.15	.5402	794.46	.05
303.15	.6066	794.49	.05
303.15	.6727	794.53	.05
303.15	.7387	794.58	.05
303.15	.8044	794.63	.05
303.15	.8698	794.68	.05
303.15	.935	794.74	.05
303.15	1	794.81	.05
308.15	0	790.06	.05
308.15	.0684	790.04	.05
308.15	.1365	790.03	.05
308.15	.2044	790	.05
308.15	.2721	789.98	.05
308.15	.3395	789.95	.05
308.15	.4066	789.92	.05
308.15	.4735	789.89	.05
308.15	.5402	789.87	.05
308.15	.6066	789.85	.05
308.15	.6727	789.83	.05
308.15	.7387	789.82	.05
308.15	.8044	789.81	.05
308.15	.8698	789.8	.05
308.15	.935	789.79	.05
308.15	1	789.78	.05
313.15	0	786.7	.05
313.15	.0684	786.54	.05
313.15	.1365	786.39	.05
313.15	.2044	786.22	.05
313.15	.2721	786.06	.05
313.15	.3395	785.89	.05
313.15	.4066	785.73	.05
313.15	.4735	785.56	.05
313.15	.5402	785.4	.05
313.15	.6066	785.23	.05
313.15	.6727	785.08	.05
313.15	.7387	784.92	.05
313.15	.8044	784.77	.05
313.15	.8698	784.62	.05
313.15	.935	784.47	.05
313.15	1	784.32	.05

System: 2-methyl-1-propanol + butanone; phases: Liquid
Fixed: Pressure, kPa = 101
Property: Viscosity, Pa*s (Liquid); method: Capillary tube (Ostwald; Ubbelohde) method
Temperature, K	Mole fraction of butanone	Viscosity, Pa*s	uncertainty
293.15	0	.0040366	.000002
293.15	.0684	.0031376	.000002
293.15	.1365	.0024294	.000002
293.15	.2044	.0018623	.000002
293.15	.2721	.001426	.000002
293.15	.3395	.0011106	.000002
293.15	.4066	.0008561	.000002
293.15	.4735	.0007002	.000002
293.15	.5402	.0006142	.000002
293.15	.6066	.000538	.000002
293.15	.6727	.0005271	.000002
293.15	.7387	.0005071	.000002
293.15	.8044	.0005079	.000002
293.15	.8698	.0004996	.000002
293.15	.935	.0004722	.000002
293.15	1	.0003956	.000002
298.15	0	.0033297	.000002
298.15	.0684	.0026113	.000002
298.15	.1365	.0020537	.000002
298.15	.2044	.001566	.000002
298.15	.2721	.0012057	.000002
298.15	.3395	.0009449	.000002
298.15	.4066	.0007513	.000002
298.15	.4735	.000607	.000002
298.15	.5402	.0005305	.000002
298.15	.6066	.0004883	.000002
298.15	.6727	.0004556	.000002
298.15	.7387	.0004444	.000002
298.15	.8044	.0004189	.000002
298.15	.8698	.0004217	.000002
298.15	.935	.0003617	.000002
298.15	1	.0002828	.000002
303.15	0	.0028752	.000002
303.15	.0684	.0022402	.000002
303.15	.1365	.0017799	.000002
303.15	.2044	.0014042	.000002
303.15	.2721	.0011041	.000002
303.15	.3395	.0008637	.000002
303.15	.4066	.000676	.000002
303.15	.4735	.0005418	.000002
303.15	.5402	.0004663	.000002
303.15	.6066	.0004135	.000002
303.15	.6727	.0003743	.000002
303.15	.7387	.0003713	.000002
303.15	.8044	.0003607	.000002
303.15	.8698	.0003443	.000002
303.15	.935	.0003135	.000002
303.15	1	.0002666	.000002
308.15	0	.0024207	.000002
308.15	.0684	.0019129	.000002
308.15	.1365	.0015337	.000002
308.15	.2044	.0011932	.000002
308.15	.2721	.0009579	.000002
308.15	.3395	.0007612	.000002
308.15	.4066	.0006222	.000002
308.15	.4735	.0005176	.000002
308.15	.5402	.0004456	.000002
308.15	.6066	.0004102	.000002
308.15	.6727	.0003752	.000002
308.15	.7387	.0003573	.000002
308.15	.8044	.0003498	.000002
308.15	.8698	.0003334	.000002
308.15	.935	.0003005	.000002
308.15	1	.0002601	.000002
313.15	0	.0019666	.000002
313.15	.0684	.0016255	.000002
313.15	.1365	.00133	.000002
313.15	.2044	.0010736	.000002
313.15	.2721	.0008538	.000002
313.15	.3395	.0006894	.000002
313.15	.4066	.0005674	.000002
313.15	.4735	.00046	.000002
313.15	.5402	.0003948	.000002
313.15	.6066	.00034	.000002
313.15	.6727	.0003138	.000002
313.15	.7387	.0002909	.000002
313.15	.8044	.0002754	.000002
313.15	.8698	.00028	.000002
313.15	.935	.0002769	.000002
313.15	1	.0002545	.000002

System: 2-butanol, dl- + butanone; phases: Liquid
Fixed: Pressure, kPa = 101
Property: Mass density, kg/m3 (Liquid); method: Pycnometric method
Temperature, K	Mole fraction of butanone	Mass density, kg/m3	uncertainty
293.15	0	806.48	.05
293.15	.0684	806.36	.05
293.15	.1365	806.25	.05
293.15	.2044	806.14	.05
293.15	.2721	806.03	.05
293.15	.3395	805.92	.05
293.15	.4066	805.81	.05
293.15	.4735	805.71	.05
293.15	.5402	805.61	.05
293.15	.6066	805.5	.05
293.15	.6727	805.4	.05
293.15	.7387	805.3	.05
293.15	.8044	805.21	.05
293.15	.8698	805.11	.05
293.15	.935	805.01	.05
293.15	1	804.92	.05
298.15	0	802.35	.05
298.15	.0684	802.16	.05
298.15	.1365	801.98	.05
298.15	.2044	801.79	.05
298.15	.2721	801.61	.05
298.15	.3395	801.43	.05
298.15	.4066	801.25	.05
298.15	.4735	801.07	.05
298.15	.5402	800.9	.05
298.15	.6066	800.72	.05
298.15	.6727	800.55	.05
298.15	.7387	800.38	.05
298.15	.8044	800.1	.05
298.15	.8698	800.04	.05
298.15	.935	799.87	.05
298.15	1	799.7	.05
303.15	0	798.96	.05
303.15	.0684	798.67	.05
303.15	.1365	798.39	.05
303.15	.2044	798.1	.05
303.15	.2721	797.82	.05
303.15	.3395	797.54	.05
303.15	.4066	797.26	.05
303.15	.4735	796.98	.05
303.15	.5402	796.71	.05
303.15	.6066	796.43	.05
303.15	.6727	796.16	.05
303.15	.7387	795.89	.05
303.15	.8044	795.62	.05
303.15	.8698	795.35	.05
303.15	.935	795.08	.05
303.15	1	794.81	.05
308.15	0	794.18	.05
308.15	.0684	793.88	.05
308.15	.1365	793.58	.05
308.15	.2044	793.28	.05
308.15	.2721	792.98	.05
308.15	.3395	792.68	.05
308.15	.4066	792.39	.05
308.15	.4735	792.09	.05
308.15	.5402	791.8	.05
308.15	.6066	791.51	.05
308.15	.6727	791.22	.05
308.15	.7387	790.93	.05
308.15	.8044	790.64	.05
308.15	.8698	790.35	.05
308.15	.935	790.06	.05
308.15	1	789.78	.05
313.15	0	790.07	.05
313.15	.0684	789.68	.05
313.15	.1365	789.29	.05
313.15	.2044	788.9	.05
313.15	.2721	788.51	.05
313.15	.3395	788.13	.05
313.15	.4066	787.74	.05
313.15	.4735	787.36	.05
313.15	.5402	786.97	.05
313.15	.6066	786.59	.05
313.15	.6727	786.21	.05
313.15	.7387	785.83	.05
313.15	.8044	785.45	.05
313.15	.8698	785.07	.05
313.15	.935	784.7	.05
313.15	1	784.32	.05

System: 2-butanol, dl- + butanone; phases: Liquid
Fixed: Pressure, kPa = 101
Property: Viscosity, Pa*s (Liquid); method: Capillary tube (Ostwald; Ubbelohde) method
Temperature, K	Mole fraction of butanone	Viscosity, Pa*s	uncertainty
293.15	0	.0036316	.000002
293.15	.0684	.0029103	.000002
293.15	.1365	.0023397	.000002
293.15	.2044	.00187	.000002
293.15	.2721	.0014911	.000002
293.15	.3395	.0011831	.000002
293.15	.4066	.0009558	.000002
293.15	.4735	.0007693	.000002
293.15	.5402	.0006236	.000002
293.15	.6066	.0005287	.000002
293.15	.6727	.0004645	.000002
293.15	.7387	.0004412	.000002
293.15	.8044	.0004486	.000002
293.15	.8698	.0004468	.000002
293.15	.935	.00042	.000002
293.15	1	.0003956	.000002
298.15	0	.0029975	.000002
298.15	.0684	.0024289	.000002
298.15	.1365	.0020069	.000002
298.15	.2044	.0016125	.000002
298.15	.2721	.0012989	.000002
298.15	.3395	.0010509	.000002
298.15	.4066	.0008537	.000002
298.15	.4735	.000687	.000002
298.15	.5402	.00056	.000002
298.15	.6066	.00048	.000002
298.15	.6727	.0004282	.000002
298.15	.7387	.0003922	.000002
298.15	.8044	.000362	.000002
298.15	.8698	.0003482	.000002
298.15	.935	.0003	.000002
298.15	1	.0002828	.000002
303.15	0	.0024978	.000002
303.15	.0684	.0020372	.000002
303.15	.1365	.0016491	.000002
303.15	.2044	.0013517	.000002
303.15	.2721	.0010737	.000002
303.15	.3395	.0008484	.000002
303.15	.4066	.0006826	.000002
303.15	.4735	.0005613	.000002
303.15	.5402	.0004526	.000002
303.15	.6066	.0003944	.000002
303.15	.6727	.0003468	.000002
303.15	.7387	.0003077	.000002
303.15	.8044	.0003031	.000002
303.15	.8698	.0003071	.000002
303.15	.935	.0002786	.000002
303.15	1	.0002666	.000002
308.15	0	.0020542	.000002
308.15	.0684	.0016915	.000002
308.15	.1365	.0013391	.000002
308.15	.2044	.0010543	.000002
308.15	.2721	.0008161	.000002
308.15	.3395	.0006282	.000002
308.15	.4066	.0005076	.000002
308.15	.4735	.0004126	.000002
308.15	.5402	.0003601	.000002
308.15	.6066	.000326	.000002
308.15	.6727	.0003051	.000002
308.15	.7387	.000309	.000002
308.15	.8044	.0003112	.000002
308.15	.8698	.0003186	.000002
308.15	.935	.0002966	.000002
308.15	1	.0002601	.000002
313.15	0	.0017989	.000002
313.15	.0684	.0014993	.000002
313.15	.1365	.001228	.000002
313.15	.2044	.0010032	.000002
313.15	.2721	.0008187	.000002
313.15	.3395	.0006806	.000002
313.15	.4066	.0005709	.000002
313.15	.4735	.0004786	.000002
313.15	.5402	.0004206	.000002
313.15	.6066	.0003681	.000002
313.15	.6727	.0003429	.000002
313.15	.7387	.0003191	.000002
313.15	.8044	.0002915	.000002
313.15	.8698	.0002805	.000002
313.15	.935	.0002718	.000002
313.15	1	.0002545	.000002

System: 2-methyl-2-butanol + butanone; phases: Liquid
Fixed: Pressure, kPa = 101
Property: Mass density, kg/m3 (Liquid); method: Pycnometric method
Temperature, K	Mole fraction of butanone	Mass density, kg/m3	uncertainty
293.15	0	809.61	.05
293.15	.0803	809.22	.05
293.15	.1583	808.84	.05
293.15	.2341	808.48	.05
293.15	.3077	808.13	.05
293.15	.3794	807.79	.05
293.15	.449	807.47	.05
293.15	.5168	807.16	.05
293.15	.5828	806.85	.05
293.15	.6471	806.56	.05
293.15	.7097	806.27	.05
293.15	.7707	805.99	.05
293.15	.8302	805.71	.05
293.15	.8882	805.45	.05
293.15	.9448	805.18	.05
293.15	1	804.92	.05
298.15	0	805.01	.05
298.15	.0803	804.57	.05
298.15	.1583	804.15	.05
298.15	.2341	803.74	.05
298.15	.3077	803.35	.05
298.15	.3794	802.97	.05
298.15	.449	802.6	.05
298.15	.5168	802.24	.05
298.15	.5828	801.89	.05
298.15	.6471	801.56	.05
298.15	.7097	801.23	.05
298.15	.7707	800.91	.05
298.15	.8302	800.6	.05
298.15	.8882	800.29	.05
298.15	.9448	799.99	.05
298.15	1	799.7	.05
303.15	0	800.41	.05
303.15	.0803	799.94	.05
303.15	.1583	799.49	.05
303.15	.2341	799.06	.05
303.15	.3077	798.85	.05
303.15	.3794	798.25	.05
303.15	.449	797.86	.05
303.15	.5168	797.48	.05
303.15	.5828	796.12	.05
303.15	.6471	796.77	.05
303.15	.7097	796.43	.05
303.15	.7707	796.08	.05
303.15	.8302	795.75	.05
303.15	.8882	795.42	.05
303.15	.9448	795.11	.05
303.15	1	794.81	.05
308.15	0	795.81	.05
308.15	.0803	795.3	.05
308.15	.1583	794.82	.05
308.15	.2341	794.36	.05
308.15	.3077	793.92	.05
308.15	.3794	793.49	.05
308.15	.449	793.07	.05
308.15	.5168	792.67	.05
308.15	.5828	792.27	.05
308.15	.6471	791.89	.05
308.15	.7097	791.52	.05
308.15	.7707	791.15	.05
308.15	.8302	790.79	.05
308.15	.8882	790.44	.05
308.15	.9448	790.1	.05
308.15	1	789.78	.05
313.15	0	791.21	.05
313.15	.0803	790.63	.05
313.15	.1583	790.09	.05
313.15	.2341	789.57	.05
313.15	.3077	789.06	.05
313.15	.3794	788.57	.05
313.15	.449	788.09	.05
313.15	.5168	787.63	.05
313.15	.5828	787.18	.05
313.15	.6471	786.74	.05
313.15	.7097	786.32	.05
313.15	.7707	785.9	.05
313.15	.8302	785.49	.05
313.15	.8882	785.09	.05
313.15	.9448	784.7	.05
313.15	1	784.32	.05

System: 2-methyl-2-butanol + butanone; phases: Liquid
Fixed: Pressure, kPa = 101
Property: Viscosity, Pa*s (Liquid); method: Capillary tube (Ostwald; Ubbelohde) method
Temperature, K	Mole fraction of butanone	Viscosity, Pa*s	uncertainty
293.15	0	.005108	.000002
293.15	.0803	.0038096	.000002
293.15	.1583	.0028621	.000002
293.15	.2341	.0021049	.000002
293.15	.3077	.0015578	.000002
293.15	.3794	.0011503	.000002
293.15	.449	.000842	.000002
293.15	.5168	.0006725	.000002
293.15	.5828	.0005515	.000002
293.15	.6471	.0004986	.000002
293.15	.7097	.0004935	.000002
293.15	.7707	.0004482	.000002
293.15	.8302	.0004457	.000002
293.15	.8882	.0004464	.000002
293.15	.9448	.0004338	.000002
293.15	1	.0003956	.000002
298.15	0	.004474	.000002
298.15	.0803	.00335	.000002
298.15	.1583	.0025206	.000002
298.15	.2341	.00185	.000002
298.15	.3077	.00137	.000002
298.15	.3794	.0010541	.000002
298.15	.449	.0008221	.000002
298.15	.5168	.0006579	.000002
298.15	.5828	.0005913	.000002
298.15	.6471	.0005219	.000002
298.15	.7097	.0004894	.000002
298.15	.7707	.0004437	.000002
298.15	.8302	.0004344	.000002
298.15	.8882	.0003813	.000002
298.15	.9448	.0003142	.000002
298.15	1	.0002828	.000002
303.15	0	.0039086	.000002
303.15	.0803	.0029001	.000002
303.15	.1583	.0021401	.000002
303.15	.2341	.0015301	.000002
303.15	.3077	.0010901	.000002
303.15	.3794	.0008501	.000002
303.15	.449	.0006863	.000002
303.15	.5168	.0005601	.000002
303.15	.5828	.0005201	.000002
303.15	.6471	.00052	.000002
303.15	.7097	.00048	.000002
303.15	.7707	.0004801	.000002
303.15	.8302	.0004802	.000002
303.15	.8882	.0004402	.000002
303.15	.9448	.0003601	.000002
303.15	1	.0002666	.000002
308.15	0	.0033871	.000002
308.15	.0803	.0025207	.000002
308.15	.1583	.001905	.000002
308.15	.2341	.0014208	.000002
308.15	.3077	.0011034	.000002
308.15	.3794	.00084	.000002
308.15	.449	.0007188	.000002
308.15	.5168	.0005865	.000002
308.15	.5828	.0005202	.000002
308.15	.6471	.0004801	.000002
308.15	.7097	.0004507	.000002
308.15	.7707	.0004505	.000002
308.15	.8302	.0004503	.000002
308.15	.8882	.0004012	.000002
308.15	.9448	.00032	.000002
308.15	1	.0002601	.000002
313.15	0	.0029086	.000002
313.15	.0803	.00226	.000002
313.15	.1583	.0017	.000002
313.15	.2341	.0012873	.000002
313.15	.3077	.0009819	.000002
313.15	.3794	.0007418	.000002
313.15	.449	.0005869	.000002
313.15	.5168	.0004801	.000002
313.15	.5828	.0004017	.000002
313.15	.6471	.0003511	.000002
313.15	.7097	.0003307	.000002
313.15	.7707	.000323	.000002
313.15	.8302	.0003001	.000002
313.15	.8882	.0002999	.000002
313.15	.9448	.0002997	.000002
313.15	1	.0002545	.000002
