Measured thermophysical data. Isobaric Vapor-Liquid and Liquid-Liquid Equilibria for Chloroform + Ethanol + 1-Ethyl-3-methylimidazolium Trifluoromethanesulfonate at 100 kPa
Source: J. Chem. Eng. Data, 2008, 10.1021/je800548t
Compound 1: chloroform, CHCl3
Compound 2: ethanol, C2H6O
Compound 3: 1-ethyl-3-methylimidazolium trifluoromethanesulfonate, C7H11F3N2O3S

System: chloroform; phases: Liquid, Gas
Property: Vapor or sublimation pressure, kPa (Liquid); method: Ebulliometric method (Recirculating still)
Temperature, K	Vapor or sublimation pressure, kPa	uncertainty
305	34.81	.06962
310	42.47	.08494
315	51.43	.10286
320	61.85	.1237
325	73.88	.14776
330	87.71	.17542
335	103.5	.207
340	121.45	.2429
342	129.28	.25856

System: ethanol; phases: Liquid, Gas
Property: Vapor or sublimation pressure, kPa (Liquid); method: Ebulliometric method (Recirculating still)
Temperature, K	Vapor or sublimation pressure, kPa	uncertainty
321	26.41	.10564
325	32.02	.12808
330	40.44	.16176
335	50.67	.20268
340	63	.252
345	77.77	.31108
350	95.35	.3814
355	116.13	.46452
359	135.37	.54148

System: ethanol + chloroform; phases: Liquid, Gas
Fixed: Pressure, kPa = 100
Property: Mole fraction of chloroform (Liquid); method: Chromatography
Mole fraction of chloroform	Mole fraction of chloroform	uncertainty
0	0	.001
.049	.016	.001
.089	.029	.001
.151	.053	.001
.208	.074	.001
.268	.102	.001
.346	.138	.001
.415	.178	.001
.488	.226	.001
.553	.284	.001
.609	.347	.001
.646	.398	.001
.684	.457	.001
.711	.505	.001
.732	.55	.001
.749	.591	.001
.765	.632	.001
.782	.674	.001
.794	.709	.001
.803	.735	.001
.815	.769	.001
.828	.801	.001
.84	.83	.001
.854	.86	.001
.869	.889	.001
.885	.911	.001
.902	.932	.001
.926	.951	.001
.948	.97	.001
.971	.985	.001
1	1	.001

System: ethanol + chloroform; phases: Liquid, Gas
Fixed: Pressure, kPa = 100
Property: Boiling temperature at pressure P, K (Liquid); method: Ebulliometric method (Recirculating still)
Mole fraction of chloroform	Boiling temperature at pressure P, K	uncertainty
0	351.2	.1
.049	350.29	.1
.089	349.54	.1
.151	348.3	.1
.208	347.13	.1
.268	345.7	.1
.346	344.13	.1
.415	342.39	.1
.488	340.48	.1
.553	338.66	.1
.609	337.04	.1
.646	335.84	.1
.684	334.92	.1
.711	334.29	.1
.732	333.75	.1
.749	333.35	.1
.765	333.03	.1
.782	332.78	.1
.794	332.59	.1
.803	332.49	.1
.815	332.34	.1
.828	332.24	.1
.84	332.24	.1
.854	332.2	.1
.869	332.27	.1
.885	332.37	.1
.902	332.53	.1
.926	332.77	.1
.948	333.07	.1
.971	333.44	.1
1	333.96	.1

System: chloroform + 1-ethyl-3-methylimidazolium trifluoromethanesulfonate; phases: Liquid, Gas
Fixed: Pressure, kPa = 100
Property: Boiling temperature at pressure P, K (Liquid); method: Ebulliometric method (Recirculating still)
Mole fraction of 1-ethyl-3-methylimidazolium trifluoromethanesulfonate	Boiling temperature at pressure P, K	uncertainty
0	333.96	.1
.1554	334	.1
.1978	333.98	.1
.2185	333.96	.1
.2342	334.07	.1
.2523	334.36	.1
.2706	334.68	.1
.281	334.98	.1
.2952	335.51	.1
.3106	335.83	.1
.3284	336.48	.1
.3491	337.41	.1
.3585	337.79	.1
.3724	338.37	.1
.3881	339.12	.1
.4014	339.7	.1
.4204	340.8	.1
.4289	341.88	.1
.4524	342.99	.1
.4666	344.44	.1
.4709	344.54	.1

System: chloroform + 1-ethyl-3-methylimidazolium trifluoromethanesulfonate; phases: Liquid mixture 1, Liquid mixture 2
Fixed: Pressure, kPa = 101
Property: Mole fraction of chloroform (Liquid mixture 1); method: Chromatography
Temperature, K	Mole fraction of chloroform	uncertainty
293.15	.80519	.001
313.15	.78685	.001
323.15	.77563	.001
333.15	.7684	.001

System: chloroform + 1-ethyl-3-methylimidazolium trifluoromethanesulfonate; phases: Liquid mixture 2, Liquid mixture 1
Fixed: Pressure, kPa = 101
Property: Mole fraction of chloroform (Liquid mixture 2); method: Chromatography
Temperature, K	Mole fraction of chloroform	uncertainty
293.15	.9981	.001
313.15	.99818	.001
323.15	.99822	.001
333.15	.99825	.001

System: ethanol + chloroform + 1-ethyl-3-methylimidazolium trifluoromethanesulfonate; phases: Gas, Liquid
Fixed: Pressure, kPa = 100
Property: Mole fraction of chloroform (Gas); method: Chromatography
Solvent: Mole fraction of 1-ethyl-3-methylimidazolium trifluoromethanesulfonate	Mole fraction of chloroform	Mole fraction of chloroform	uncertainty
.0525	0	0	.001
.0532	.031	.091	.001
.0535	.069	.188	.001
.0537	.114	.284	.001
.0541	.157	.372	.001
.0545	.204	.449	.001
.055	.257	.516	.001
.0555	.316	.578	.001
.0557	.38	.633	.001
.0558	.446	.685	.001
.0561	.514	.725	.001
.0559	.587	.758	.001
.0554	.642	.784	.001
.0548	.719	.818	.001
.0561	.821	.864	.001
.0628	.906	.907	.001
.0626	.943	.929	.001
.0627	.972	.953	.001
.0611	.989	.974	.001
.06	1	1	.001
.117	0	0	.001
.1183	.03	.078	.001
.1195	.069	.175	.001
.121	.113	.271	.001
.1217	.164	.365	.001
.1247	.217	.447	.001
.1259	.272	.522	.001
.1272	.331	.585	.001
.1287	.393	.641	.001
.1292	.461	.696	.001
.129	.525	.738	.001
.1285	.601	.781	.001
.1286	.669	.813	.001
.1273	.744	.848	.001
.1276	.847	.893	.001
.1296	.916	.926	.001
.1314	.978	.969	.001
.13	1	1	.001
.192	0	0	.001
.1948	.029	.066	.001
.197	.067	.15	.001
.1998	.103	.229	.001
.2026	.148	.321	.001
.205	.2	.409	.001
.2082	.256	.483	.001
.2111	.318	.551	.001
.2136	.38	.616	.001
.2149	.444	.674	.001
.215	.509	.722	.001
.2136	.574	.766	.001
.2118	.629	.802	.001
.2116	.699	.837	.001
.2122	.804	.889	.001
.2117	.885	.932	.001
.2081	.951	.968	.001
.2185	1	1	.001
.3062	0	0	.001
.3064	.033	.076	.001
.3078	.06	.139	.001
.3088	.099	.214	.001
.3093	.14	.286	.001
.3114	.192	.373	.001
.3155	.264	.474	.001
.3171	.335	.557	.001
.3204	.412	.628	.001
.3209	.485	.691	.001
.3217	.56	.749	.001
.3234	.629	.795	.001
.3268	.707	.84	.001
.3286	.804	.891	.001
.3305	.876	.928	.001
.3288	.935	.961	.001
.326	.973	.984	.001
.3228	1	1	.001

System: ethanol + chloroform + 1-ethyl-3-methylimidazolium trifluoromethanesulfonate; phases: Liquid, Gas
Fixed: Pressure, kPa = 100
Property: Boiling temperature at pressure P, K (Liquid); method: Ebulliometric method (Recirculating still)
Solvent: Mole fraction of 1-ethyl-3-methylimidazolium trifluoromethanesulfonate	Mole fraction of chloroform	Boiling temperature at pressure P, K	uncertainty
.0525	0	352.28	.1
.0532	.031	350.53	.1
.0535	.069	348.52	.1
.0537	.114	346.33	.1
.0541	.157	344.53	.1
.0545	.204	342.46	.1
.055	.257	340.47	.1
.0555	.316	338.64	.1
.0557	.38	336.97	.1
.0558	.446	335.58	.1
.0561	.514	334.47	.1
.0559	.587	333.59	.1
.0554	.642	333	.1
.0548	.719	332.53	.1
.0561	.821	332.28	.1
.0628	.906	332.41	.1
.0626	.943	332.72	.1
.0627	.972	333.14	.1
.0611	.989	333.39	.1
.06	1	333.96	.1
.117	0	353.5	.1
.1183	.03	351.78	.1
.1195	.069	349.92	.1
.121	.113	347.89	.1
.1217	.164	345.68	.1
.1247	.217	343.62	.1
.1259	.272	341.67	.1
.1272	.331	339.88	.1
.1287	.393	338.15	.1
.1292	.461	336.59	.1
.129	.525	335.31	.1
.1285	.601	334.16	.1
.1286	.669	333.4	.1
.1273	.744	332.83	.1
.1276	.847	332.57	.1
.1296	.916	332.84	.1
.1314	.978	333.38	.1
.13	1	333.96	.1
.192	0	355.12	.1
.1948	.029	353.44	.1
.197	.067	351.91	.1
.1998	.103	350.36	.1
.2026	.148	348.53	.1
.205	.2	346.61	.1
.2082	.256	344.84	.1
.2111	.318	342.92	.1
.2136	.38	341.3	.1
.2149	.444	339.69	.1
.215	.509	338.26	.1
.2136	.574	336.95	.1
.2118	.629	335.94	.1
.2116	.699	334.97	.1
.2122	.804	334.03	.1
.2117	.885	333.52	.1
.2081	.951	333.43	.1
.2185	1	333.96	.1
.3062	0	358.6	.1
.3064	.033	356.81	.1
.3078	.06	355.77	.1
.3088	.099	354.33	.1
.3093	.14	352.74	.1
.3114	.192	350.95	.1
.3155	.264	349.09	.1
.3171	.335	347.16	.1
.3204	.412	345.22	.1
.3209	.485	343.38	.1
.3217	.56	341.81	.1
.3234	.629	340.65	.1
.3268	.707	339.48	.1
.3286	.804	338.29	.1
.3305	.876	337.39	.1
.3288	.935	336.78	.1
.326	.973	336.56	.1
.3228	1	336.26	.1

System: ethanol + chloroform + 1-ethyl-3-methylimidazolium trifluoromethanesulfonate; phases: Liquid mixture 2, Liquid mixture 1
Fixed: Pressure, kPa = 101
Property: Mole fraction of ethanol (Liquid mixture 2); method: Chromatography
Property: Mole fraction of ethanol (Liquid mixture 1); method: Chromatography
Property: Mole fraction of chloroform (Liquid mixture 1); method: Chromatography
Temperature, K	Mole fraction of chloroform	Mole fraction of ethanol	uncertainty	Mole fraction of ethanol	uncertainty	Mole fraction of chloroform	uncertainty
293.15	.9981	0	.001	.8052	.001	0	.001
293.15	.9915	.0061	.001	.8026	.001	.0204	.001
293.15	.9864	.0107	.001	.8024	.001	.0315	.001
293.15	.9793	.0169	.001	.802	.001	.0479	.001
293.15	.9737	.0216	.001	.8028	.001	.0588	.001
293.15	.9672	.0269	.001	.8067	.001	.0668	.001
293.15	.9609	.0317	.001	.8137	.001	.0707	.001
293.15	.9548	.0358	.001	.8195	.001	.0755	.001
293.15	.9478	.0401	.001	.8264	.001	.0795	.001
293.15	.9305	.0493	.001	.8461	.001	.0803	.001
323.15	.9982	0	.001	.7756	.001	0	.001
323.15	.992	.0058	.001	.7745	.001	.016	.001
323.15	.9861	.0114	.001	.7736	.001	.0294	.001
323.15	.9776	.0192	.001	.775	.001	.0446	.001
323.15	.9731	.0232	.001	.774	.001	.0529	.001
323.15	.9665	.0291	.001	.7777	.001	.0626	.001
323.15	.9594	.0351	.001	.7801	.001	.0716	.001
323.15	.9554	.0383	.001	.7826	.001	.0759	.001
323.15	.9513	.0417	.001	.7847	.001	.0806	.001
323.15	.9424	.0487	.001	.7917	.001	.0867	.001
323.15	.934	.0559	.001	.7967	.001	.0922	.001
323.15	.9266	.0607	.001	.8051	.001	.095	.001
323.15	.9115	.0691	.001	.8177	.001	.0966	.001
