Measured thermophysical data. Studies on Molecular Interactions of Some Thiocyanate Salts in Coaqueous  Solutions of 1,3-Dioxolane + Water by Volumetric, Viscometric, and Speed of  Sound Measurements
Source: J. Chem. Eng. Data, 2009, 10.1021/je800562h
Compound 1: 1,3-dioxolane, C3H6O2
Compound 2: ammonium thiocyanate, CH4N2S
Compound 3: sodium thiocyanate, CNNaS
Compound 4: potassium thiocyanate, CKNS
Compound 5: water, H2O

System: 1,3-dioxolane + ammonium thiocyanate + water; phases: Liquid
Fixed: Pressure, kPa = 101
Property: Mass density, kg/m3 (Liquid); method: Pycnometric method
Temperature, K	Solvent: Mass fraction of 1,3-dioxolane	Amount concentration (molarity), mol/dm3 of ammonium thiocyanate	Mass density, kg/m3	uncertainty
298.15	.1	.00198	1013.5	.3
298.15	.1	.01388	1014.14	.3
298.15	.1	.02578	1014.83	.3
298.15	.1	.03767	1015.57	.3
298.15	.1	.04957	1016.3	.3
298.15	.1	.06147	1017.05	.3
308.15	.1	.00197	1007.48	.3
308.15	.1	.01379	1007.99	.3
308.15	.1	.02561	1008.57	.3
308.15	.1	.03742	1009.2	.3
308.15	.1	.04923	1009.82	.3
308.15	.1	.06104	1010.52	.3
318.15	.1	.00196	1003.95	.3
318.15	.1	.01374	1004.31	.3
318.15	.1	.02551	1004.74	.3
318.15	.1	.03728	1005.22	.3
318.15	.1	.04903	1005.74	.3
318.15	.1	.06078	1006.33	.3
298.15	.2	.00199	1024.8	.3
298.15	.2	.01391	1025.45	.3
298.15	.2	.02583	1026.15	.3
298.15	.2	.03775	1026.87	.3
298.15	.2	.04967	1027.61	.3
298.15	.2	.06158	1028.39	.3
308.15	.2	.00198	1018.78	.3
308.15	.2	.01382	1019.34	.3
308.15	.2	.02566	1019.95	.3
308.15	.2	.0375	1020.59	.3
308.15	.2	.04933	1021.28	.3
308.15	.2	.06116	1021.97	.3
318.15	.2	.00197	1013.86	.3
318.15	.2	.01375	1014.29	.3
318.15	.2	.02553	1014.8	.3
318.15	.2	.03731	1015.33	.3
318.15	.2	.04907	1015.93	.3
318.15	.2	.06084	1016.55	.3
298.15	.3	.00206	1034.31	.3
298.15	.3	.01406	1034.96	.3
298.15	.3	.02636	1035.68	.3
298.15	.3	.03809	1036.38	.3
298.15	.3	.0498	1037.07	.3
298.15	.3	.06205	1037.86	.3
308.15	.3	.00205	1027.9	.3
308.15	.3	.01397	1028.49	.3
308.15	.3	.02619	1029.16	.3
308.15	.3	.03783	1029.82	.3
308.15	.3	.04945	1030.5	.3
308.15	.3	.06161	1031.24	.3
318.15	.3	.00204	1021.37	.3
318.15	.3	.01388	1021.84	.3
318.15	.3	.02602	1022.38	.3
318.15	.3	.03758	1022.93	.3
318.15	.3	.04912	1023.5	.3
318.15	.3	.06119	1024.17	.3

System: 1,3-dioxolane + ammonium thiocyanate + water; phases: Liquid
Fixed: Pressure, kPa = 101
Property: Viscosity, Pa*s (Liquid); method: Capillary tube (Ostwald; Ubbelohde) method
Temperature, K	Solvent: Mass fraction of 1,3-dioxolane	Amount concentration (molarity), mol/dm3 of ammonium thiocyanate	Viscosity, Pa*s	uncertainty
298.15	.1	.00198	.0010046	.000003
298.15	.1	.01388	.0010212	.000003
298.15	.1	.02578	.0010333	.000003
298.15	.1	.03767	.0010438	.000003
298.15	.1	.04957	.001054	.000003
298.15	.1	.06147	.001063	.000003
308.15	.1	.00197	.0008399	.000003
308.15	.1	.01379	.0008522	.000003
308.15	.1	.02561	.0008613	.000003
308.15	.1	.03742	.0008699	.000003
308.15	.1	.04923	.0008782	.000003
308.15	.1	.06104	.0008855	.000003
318.15	.1	.00196	.0007485	.000003
318.15	.1	.01374	.000758	.000003
318.15	.1	.02551	.0007654	.000003
318.15	.1	.03728	.0007727	.000003
318.15	.1	.04903	.0007795	.000003
318.15	.1	.06078	.0007867	.000003
298.15	.2	.00199	.0011343	.000003
298.15	.2	.01391	.0011551	.000003
298.15	.2	.02583	.0011692	.000003
298.15	.2	.03775	.0011821	.000003
298.15	.2	.04967	.0011939	.000003
298.15	.2	.06158	.0012038	.000003
308.15	.2	.00198	.0009721	.000003
308.15	.2	.01382	.0009876	.000003
308.15	.2	.02566	.0009989	.000003
308.15	.2	.0375	.0010089	.000003
308.15	.2	.04933	.0010179	.000003
308.15	.2	.06116	.0010277	.000003
318.15	.2	.00197	.0008591	.000003
318.15	.2	.01375	.0008708	.000003
318.15	.2	.02553	.0008801	.000003
318.15	.2	.03731	.0008886	.000003
318.15	.2	.04907	.0008965	.000003
318.15	.2	.06084	.0009041	.000003
298.15	.3	.00206	.0012578	.000003
298.15	.3	.01406	.0012809	.000003
298.15	.3	.02636	.0012968	.000003
298.15	.3	.03809	.00131	.000003
298.15	.3	.0498	.0013225	.000003
298.15	.3	.06205	.0013341	.000003
308.15	.3	.00205	.0010697	.000003
308.15	.3	.01397	.0010862	.000003
308.15	.3	.02619	.0010982	.000003
308.15	.3	.03783	.0011089	.000003
308.15	.3	.04945	.001118	.000003
308.15	.3	.06161	.0011269	.000003
318.15	.3	.00204	.0009428	.000003
318.15	.3	.01388	.0009545	.000003
318.15	.3	.02602	.0009636	.000003
318.15	.3	.03758	.0009718	.000003
318.15	.3	.04912	.0009799	.000003
318.15	.3	.06119	.0009881	.000003

System: 1,3-dioxolane + ammonium thiocyanate + water; phases: Liquid
Fixed: Pressure, kPa = 101
Fixed: Temperature, K = 298.15
Property: Speed of sound, m/s (Liquid); method: Linear variable-path acoustic interferometer
Solvent: Mass fraction of 1,3-dioxolane	Molality, mol/kg of ammonium thiocyanate	Speed of sound, m/s	uncertainty
.1	.00196	1473.7	.2
.1	.0137	1490.9	.2
.1	.02545	1505.1	.2
.1	.0372	1513.8	.2
.1	.04896	1525.8	.2
.1	.06072	1531.2	.2
.2	.00194	1485.7	.2
.2	.01358	1510.7	.2
.2	.02522	1529.2	.2
.2	.03686	1545.8	.2
.2	.04851	1554.2	.2
.2	.06016	1558.5	.2
.3	.002	1496.7	.2
.3	.0136	1524.6	.2
.3	.02551	1540.9	.2
.3	.03685	1557.8	.2
.3	.04819	1564.7	.2
.3	.06006	1566.5	.2

System: sodium thiocyanate + 1,3-dioxolane + water; phases: Liquid
Fixed: Pressure, kPa = 101
Property: Mass density, kg/m3 (Liquid); method: Pycnometric method
Temperature, K	Solvent: Mass fraction of 1,3-dioxolane	Amount concentration (molarity), mol/dm3 of sodium thiocyanate	Mass density, kg/m3	uncertainty
298.15	.1	.00199	1013.5	.3
298.15	.1	.0139	1014.19	.3
298.15	.1	.02581	1014.92	.3
298.15	.1	.03773	1015.69	.3
298.15	.1	.04964	1016.49	.3
298.15	.1	.06156	1017.31	.3
308.15	.1	.00197	1007.47	.3
308.15	.1	.01381	1008	.3
308.15	.1	.02565	1008.61	.3
308.15	.1	.03749	1009.25	.3
308.15	.1	.04932	1009.91	.3
308.15	.1	.06115	1010.64	.3
318.15	.1	.00197	1003.95	.3
318.15	.1	.01376	1004.31	.3
318.15	.1	.02556	1004.78	.3
318.15	.1	.03734	1005.29	.3
318.15	.1	.04912	1005.85	.3
318.15	.1	.0609	1006.46	.3
298.15	.2	.00201	1024.81	.3
298.15	.2	.01409	1025.5	.3
298.15	.2	.02617	1026.26	.3
298.15	.2	.03825	1027.03	.3
298.15	.2	.05033	1027.85	.3
298.15	.2	.0624	1028.67	.3
308.15	.2	.002	1018.78	.3
308.15	.2	.01401	1019.35	.3
308.15	.2	.02601	1019.99	.3
308.15	.2	.038	1020.68	.3
308.15	.2	.05	1021.39	.3
308.15	.2	.06199	1022.16	.3
318.15	.2	.00199	1013.86	.3
318.15	.2	.01394	1014.35	.3
318.15	.2	.02588	1014.86	.3
318.15	.2	.03781	1015.44	.3
318.15	.2	.04974	1016.08	.3
318.15	.2	.06167	1016.73	.3
298.15	.3	.00215	1034.32	.3
298.15	.3	.01497	1035.09	.3
298.15	.3	.0278	1035.89	.3
298.15	.3	.04051	1036.72	.3
298.15	.3	.05182	1037.47	.3
298.15	.3	.06662	1038.5	.3
308.15	.3	.00213	1027.91	.3
308.15	.3	.01487	1028.6	.3
308.15	.3	.02762	1029.37	.3
308.15	.3	.04024	1030.16	.3
308.15	.3	.05148	1030.9	.3
308.15	.3	.06617	1031.89	.3
318.15	.3	.00212	1021.38	.3
318.15	.3	.01478	1021.9	.3
318.15	.3	.02744	1022.5	.3
318.15	.3	.03997	1023.15	.3
318.15	.3	.05112	1023.75	.3
318.15	.3	.0657	1024.58	.3

System: sodium thiocyanate + 1,3-dioxolane + water; phases: Liquid
Fixed: Pressure, kPa = 101
Property: Viscosity, Pa*s (Liquid); method: Capillary tube (Ostwald; Ubbelohde) method
Temperature, K	Solvent: Mass fraction of 1,3-dioxolane	Amount concentration (molarity), mol/dm3 of sodium thiocyanate	Viscosity, Pa*s	uncertainty
298.15	.1	.00199	.0010047	.000003
298.15	.1	.0139	.0010216	.000003
298.15	.1	.02581	.0010343	.000003
298.15	.1	.03773	.0010446	.000003
298.15	.1	.04964	.0010554	.000003
298.15	.1	.06156	.0010655	.000003
308.15	.1	.00197	.00084	.000003
308.15	.1	.01381	.0008523	.000003
308.15	.1	.02565	.0008619	.000003
308.15	.1	.03749	.0008711	.000003
308.15	.1	.04932	.0008799	.000003
308.15	.1	.06115	.0008879	.000003
318.15	.1	.00197	.0007487	.000003
318.15	.1	.01376	.0007577	.000003
318.15	.1	.02556	.0007659	.000003
318.15	.1	.03734	.000774	.000003
318.15	.1	.04912	.0007814	.000003
318.15	.1	.0609	.0007884	.000003
298.15	.2	.00201	.0011344	.000003
298.15	.2	.01409	.0011558	.000003
298.15	.2	.02617	.0011708	.000003
298.15	.2	.03825	.0011835	.000003
298.15	.2	.05033	.0011956	.000003
298.15	.2	.0624	.0012066	.000003
308.15	.2	.002	.0009722	.000003
308.15	.2	.01401	.0009877	.000003
308.15	.2	.02601	.0009998	.000003
308.15	.2	.038	.0010105	.000003
308.15	.2	.05	.0010207	.000003
308.15	.2	.06199	.00103	.000003
318.15	.2	.00199	.0008592	.000003
318.15	.2	.01394	.0008709	.000003
318.15	.2	.02588	.0008806	.000003
318.15	.2	.03781	.00089	.000003
318.15	.2	.04974	.0008994	.000003
318.15	.2	.06167	.0009076	.000003
298.15	.3	.00215	.0012579	.000003
298.15	.3	.01497	.0012818	.000003
298.15	.3	.0278	.0012984	.000003
298.15	.3	.04051	.0013125	.000003
298.15	.3	.05182	.0013246	.000003
298.15	.3	.06662	.0013383	.000003
308.15	.3	.00213	.0010699	.000003
308.15	.3	.01487	.0010869	.000003
308.15	.3	.02762	.0011003	.000003
308.15	.3	.04024	.0011112	.000003
308.15	.3	.05148	.0011206	.000003
308.15	.3	.06617	.0011328	.000003
318.15	.3	.00212	.0009429	.000003
318.15	.3	.01478	.0009553	.000003
318.15	.3	.02744	.0009652	.000003
318.15	.3	.03997	.0009753	.000003
318.15	.3	.05112	.0009833	.000003
318.15	.3	.0657	.0009926	.000003

System: sodium thiocyanate + 1,3-dioxolane + water; phases: Liquid
Fixed: Pressure, kPa = 101
Fixed: Temperature, K = 298.15
Property: Speed of sound, m/s (Liquid); method: Linear variable-path acoustic interferometer
Solvent: Mass fraction of 1,3-dioxolane	Molality, mol/kg of sodium thiocyanate	Speed of sound, m/s	uncertainty
.1	.00196	1475.1	.2
.1	.01372	1499.6	.2
.1	.02549	1517	.2
.1	.03726	1532.7	.2
.1	.04903	1548.4	.2
.1	.06081	1552.4	.2
.2	.00196	1486.2	.2
.2	.01376	1515.6	.2
.2	.02555	1537.5	.2
.2	.03735	1550.7	.2
.2	.04916	1566.2	.2
.2	.06097	1568.4	.2
.3	.00208	1498.2	.2
.3	.01448	1531.8	.2
.3	.02689	1553.8	.2
.3	.0392	1569.2	.2
.3	.05015	1571.2	.2
.3	.06448	1573.4	.2

System: potassium thiocyanate + 1,3-dioxolane + water; phases: Liquid
Fixed: Pressure, kPa = 101
Property: Mass density, kg/m3 (Liquid); method: Pycnometric method
Temperature, K	Solvent: Mass fraction of 1,3-dioxolane	Amount concentration (molarity), mol/dm3 of potassium thiocyanate	Mass density, kg/m3	uncertainty
298.15	.1	.00199	1013.53	.3
298.15	.1	.01391	1014.37	.3
298.15	.1	.02583	1015.25	.3
298.15	.1	.03776	1016.19	.3
298.15	.1	.04968	1017.15	.3
298.15	.1	.0616	1018.18	.3
308.15	.1	.00197	1007.5	.3
308.15	.1	.01382	1008.17	.3
308.15	.1	.02566	1008.89	.3
308.15	.1	.03752	1009.69	.3
308.15	.1	.04939	1010.53	.3
308.15	.1	.06127	1011.4	.3
318.15	.1	.00197	1003.96	.3
318.15	.1	.01377	1004.46	.3
318.15	.1	.02556	1005.04	.3
318.15	.1	.03737	1005.69	.3
318.15	.1	.04919	1006.39	.3
318.15	.1	.06101	1007.15	.3
298.15	.2	.00209	1024.84	.3
298.15	.2	.01465	1025.73	.3
298.15	.2	.02721	1026.68	.3
298.15	.2	.03977	1027.67	.3
298.15	.2	.05234	1028.69	.3
298.15	.2	.0649	1029.75	.3
308.15	.2	.00208	1018.81	.3
308.15	.2	.01457	1019.54	.3
308.15	.2	.02705	1020.34	.3
308.15	.2	.03952	1021.2	.3
308.15	.2	.052	1022.1	.3
308.15	.2	.06447	1023.03	.3
318.15	.2	.00207	1013.88	.3
318.15	.2	.01449	1014.49	.3
318.15	.2	.02691	1015.19	.3
318.15	.2	.03932	1015.96	.3
318.15	.2	.05173	1016.79	.3
318.15	.2	.06413	1017.66	.3
298.15	.3	.00215	1034.35	.3
298.15	.3	.01497	1035.27	.3
298.15	.3	.0278	1036.29	.3
298.15	.3	.04051	1037.28	.3
298.15	.3	.05182	1038.3	.3
298.15	.3	.06662	1039.41	.3
308.15	.3	.00213	1027.92	.3
308.15	.3	.01487	1028.71	.3
308.15	.3	.02762	1029.59	.3
308.15	.3	.04024	1030.48	.3
308.15	.3	.05148	1031.42	.3
308.15	.3	.06617	1032.43	.3
318.15	.3	.00212	1021.4	.3
318.15	.3	.01478	1022.07	.3
318.15	.3	.02744	1022.86	.3
318.15	.3	.03997	1023.65	.3
318.15	.3	.05113	1024.5	.3
318.15	.3	.06572	1025.44	.3

System: potassium thiocyanate + 1,3-dioxolane + water; phases: Liquid
Fixed: Pressure, kPa = 101
Property: Viscosity, Pa*s (Liquid); method: Capillary tube (Ostwald; Ubbelohde) method
Temperature, K	Solvent: Mass fraction of 1,3-dioxolane	Amount concentration (molarity), mol/dm3 of potassium thiocyanate	Viscosity, Pa*s	uncertainty
298.15	.1	.00199	.0010048	.000003
298.15	.1	.01391	.0010242	.000003
298.15	.1	.02583	.0010393	.000003
298.15	.1	.03776	.0010528	.000003
298.15	.1	.04968	.0010659	.000003
298.15	.1	.0616	.0010782	.000003
308.15	.1	.00197	.0008401	.000003
308.15	.1	.01382	.000854	.000003
308.15	.1	.02566	.0008652	.000003
308.15	.1	.03752	.0008758	.000003
308.15	.1	.04939	.0008866	.000003
308.15	.1	.06127	.0008958	.000003
318.15	.1	.00197	.0007487	.000003
318.15	.1	.01377	.0007591	.000003
318.15	.1	.02556	.000768	.000003
318.15	.1	.03737	.0007772	.000003
318.15	.1	.04919	.0007855	.000003
318.15	.1	.06101	.0007949	.000003
298.15	.2	.00209	.0011345	.000003
298.15	.2	.01465	.0011562	.000003
298.15	.2	.02721	.0011722	.000003
298.15	.2	.03977	.0011863	.000003
298.15	.2	.05234	.0011988	.000003
298.15	.2	.0649	.0012113	.000003
308.15	.2	.00208	.0009724	.000003
308.15	.2	.01457	.000988	.000003
308.15	.2	.02705	.0010001	.000003
308.15	.2	.03952	.0010111	.000003
308.15	.2	.052	.0010222	.000003
308.15	.2	.06447	.0010328	.000003
318.15	.2	.00207	.0008593	.000003
318.15	.2	.01449	.0008712	.000003
318.15	.2	.02691	.000881	.000003
318.15	.2	.03932	.0008909	.000003
318.15	.2	.05173	.0009008	.000003
318.15	.2	.06413	.0009098	.000003
298.15	.3	.00215	.0012581	.000003
298.15	.3	.01497	.0012818	.000003
298.15	.3	.0278	.0012996	.000003
298.15	.3	.04051	.001316	.000003
298.15	.3	.05182	.0013288	.000003
298.15	.3	.06662	.0013444	.000003
308.15	.3	.00213	.00107	.000003
308.15	.3	.01487	.0010874	.000003
308.15	.3	.02762	.0011006	.000003
308.15	.3	.04024	.0011125	.000003
308.15	.3	.05148	.0011227	.000003
308.15	.3	.06617	.0011358	.000003
318.15	.3	.00212	.000943	.000003
318.15	.3	.01478	.0009568	.000003
318.15	.3	.02744	.0009676	.000003
318.15	.3	.03997	.0009791	.000003
318.15	.3	.05113	.0009877	.000003
318.15	.3	.06572	.0009993	.000003

System: potassium thiocyanate + 1,3-dioxolane + water; phases: Liquid
Fixed: Pressure, kPa = 101
Fixed: Temperature, K = 298.15
Property: Speed of sound, m/s (Liquid); method: Linear variable-path acoustic interferometer
Solvent: Mass fraction of 1,3-dioxolane	Molality, mol/kg of potassium thiocyanate	Speed of sound, m/s	uncertainty
.1	.00196	1477.3	.2
.1	.01373	1508.7	.2
.1	.02551	1529	.2
.1	.03729	1545.7	.2
.1	.04908	1549.8	.2
.1	.06086	1554.5	.2
.2	.00204	1488.1	.2
.2	.01431	1523.1	.2
.2	.02658	1547.6	.2
.2	.03885	1559.8	.2
.2	.05113	1568.7	.2
.2	.06341	1572.6	.2
.3	.00208	1499.2	.2
.3	.01448	1537.1	.2
.3	.0269	1559.8	.2
.3	.0392	1573.3	.2
.3	.05015	1574.3	.2
.3	.06449	1578.9	.2
