Measured thermophysical data. Binary Liquid-Liquid Equilibrium (LLE) for Methyl tert-Amyl Ether (TAME) + Water from (288.15 to 313.15) K and Ternary LLE for Systems of TAME + C1-C4 Alcohols + Water at 298.15 K
Source: J. Chem. Eng. Data, 2008, 10.1021/je8006698
Compound 1: tert-amyl methyl ether, C6H14O, purity 99.9%
Compound 2: methanol, CH4O, purity 99.9%
Compound 3: ethanol, C2H6O, purity 99.9%
Compound 4: 1-propanol, C3H8O, purity 99.9%
Compound 5: 2-propanol, C3H8O, purity 99.9%
Compound 6: 1-butanol, C4H10O, purity 99.9%
Compound 7: 2-butanol, dl-, C4H10O, purity 99.9%
Compound 8: water, H2O, purity 99.9%

System: tert-amyl methyl ether; phases: Liquid
Fixed: Pressure, kPa = 101.325
Property: Mass density, kg/m3 (Liquid); method: Pycnometric method
Temperature, K	Mass density, kg/m3	uncertainty
298.15	765.68	

System: methanol; phases: Liquid
Fixed: Pressure, kPa = 101.325
Property: Mass density, kg/m3 (Liquid); method: Pycnometric method
Temperature, K	Mass density, kg/m3	uncertainty
298.15	786.64	

System: ethanol; phases: Liquid
Fixed: Pressure, kPa = 101.325
Property: Mass density, kg/m3 (Liquid); method: Pycnometric method
Temperature, K	Mass density, kg/m3	uncertainty
298.15	785.29	

System: 1-propanol; phases: Liquid
Fixed: Pressure, kPa = 101.325
Property: Mass density, kg/m3 (Liquid); method: Pycnometric method
Temperature, K	Mass density, kg/m3	uncertainty
298.15	799.89	

System: 2-propanol; phases: Liquid
Fixed: Pressure, kPa = 101.325
Property: Mass density, kg/m3 (Liquid); method: Pycnometric method
Temperature, K	Mass density, kg/m3	uncertainty
298.15	781.34	

System: 1-butanol; phases: Liquid
Fixed: Pressure, kPa = 101.325
Property: Mass density, kg/m3 (Liquid); method: Pycnometric method
Temperature, K	Mass density, kg/m3	uncertainty
298.15	805.87	

System: 2-butanol, dl-; phases: Liquid
Fixed: Pressure, kPa = 101.325
Property: Mass density, kg/m3 (Liquid); method: Pycnometric method
Temperature, K	Mass density, kg/m3	uncertainty
298.15	802.73	

System: water; phases: Liquid
Fixed: Pressure, kPa = 101.325
Property: Mass density, kg/m3 (Liquid); method: Pycnometric method
Temperature, K	Mass density, kg/m3	uncertainty
298.15	997.17	

System: tert-amyl methyl ether + water; phases: Liquid mixture 1, Liquid mixture 2
Fixed: Pressure, kPa = 101
Property: Mole fraction of tert-amyl methyl ether (Liquid mixture 1); method: Chromatography
Temperature, K	Mole fraction of tert-amyl methyl ether	uncertainty
288.15	.9833	.001
293.15	.9706	.001
298.15	.9573	.001
303.15	.9306	.001
308.15	.9144	.001
313.15	.8884	.001

System: tert-amyl methyl ether + water; phases: Liquid mixture 2, Liquid mixture 1
Fixed: Pressure, kPa = 101
Property: Mole fraction of tert-amyl methyl ether (Liquid mixture 2); method: Chromatography
Temperature, K	Mole fraction of tert-amyl methyl ether	uncertainty
288.15	.0014	.001
293.15	.0013	.001
298.15	.0016	.001
303.15	.0021	.001
308.15	.0024	.001
313.15	.006	.001

System: methanol + tert-amyl methyl ether + water; phases: Liquid mixture 1, Liquid mixture 2
Fixed: Temperature, K = 298.15
Fixed: Pressure, kPa = 101
Property: Mole fraction of methanol (Liquid mixture 1); method: Chromatography
Property: Mole fraction of methanol (Liquid mixture 2); method: Chromatography
Property: Mole fraction of tert-amyl methyl ether (Liquid mixture 2); method: Chromatography
Mole fraction of tert-amyl methyl ether	Mole fraction of methanol	uncertainty	Mole fraction of methanol	uncertainty	Mole fraction of tert-amyl methyl ether	uncertainty
.9169	.0185	.001	.068	.001	.0028	.001
.8086	.103	.001	.1722	.001	.0052	.001
.7009	.1788	.001	.2415	.001	.0096	.001
.5577	.2632	.001	.3111	.001	.0297	.001
.4555	.3204	.001	.3479	.001	.036	.001
.4021	.3375	.001	.3601	.001	.0398	.001
.276	.3787	.001	.3921	.001	.0705	.001

System: ethanol + tert-amyl methyl ether + water; phases: Liquid mixture 1, Liquid mixture 2
Fixed: Temperature, K = 298.15
Fixed: Pressure, kPa = 101
Property: Mole fraction of ethanol (Liquid mixture 1); method: Chromatography
Property: Mole fraction of ethanol (Liquid mixture 2); method: Chromatography
Property: Mole fraction of tert-amyl methyl ether (Liquid mixture 2); method: Chromatography
Mole fraction of tert-amyl methyl ether	Mole fraction of ethanol	uncertainty	Mole fraction of ethanol	uncertainty	Mole fraction of tert-amyl methyl ether	uncertainty
.848	.0683	.001	.0492	.001	.0027	.001
.6206	.1971	.001	.1024	.001	.0045	.001
.4266	.291	.001	.1549	.001	.0106	.001
.1194	.2823	.001	.2291	.001	.0525	.001

System: 1-propanol + tert-amyl methyl ether + water; phases: Liquid mixture 1, Liquid mixture 2
Fixed: Temperature, K = 298.15
Fixed: Pressure, kPa = 101
Property: Mole fraction of 1-propanol (Liquid mixture 1); method: Chromatography
Property: Mole fraction of 1-propanol (Liquid mixture 2); method: Chromatography
Property: Mole fraction of tert-amyl methyl ether (Liquid mixture 2); method: Chromatography
Mole fraction of tert-amyl methyl ether	Mole fraction of 1-propanol	uncertainty	Mole fraction of 1-propanol	uncertainty	Mole fraction of tert-amyl methyl ether	uncertainty
.8091	.1028	.001	.0151	.001	.0021	.001
.563	.2296	.001	.0289	.001	.0069	.001
.4305	.2937	.001	.0332	.001	.0032	.001
.2459	.3526	.001	.0428	.001	.0026	.001
.1559	.3568	.001	.0501	.001	.0027	.001

System: 2-propanol + tert-amyl methyl ether + water; phases: Liquid mixture 1, Liquid mixture 2
Fixed: Temperature, K = 298.15
Fixed: Pressure, kPa = 101
Property: Mole fraction of 2-propanol (Liquid mixture 1); method: Chromatography
Property: Mole fraction of 2-propanol (Liquid mixture 2); method: Chromatography
Property: Mole fraction of tert-amyl methyl ether (Liquid mixture 2); method: Chromatography
Mole fraction of tert-amyl methyl ether	Mole fraction of 2-propanol	uncertainty	Mole fraction of 2-propanol	uncertainty	Mole fraction of tert-amyl methyl ether	uncertainty
.853	.059	.001	.017	.001	.0022	.001
.6652	.1787	.001	.0383	.001	.0033	.001
.4195	.2758	.001	.0572	.001	.0031	.001
.2848	.3178	.001	.0691	.001	.0043	.001
.203	.322	.001	.0776	.001	.0049	.001
.1385	.2991	.001	.0972	.001	.0094	.001
.0976	.2685	.001	.1112	.001	.0118	.001

System: 1-butanol + tert-amyl methyl ether + water; phases: Liquid mixture 1, Liquid mixture 2
Fixed: Temperature, K = 298.15
Fixed: Pressure, kPa = 101
Property: Mole fraction of 1-butanol (Liquid mixture 1); method: Chromatography
Property: Mole fraction of 1-butanol (Liquid mixture 2); method: Chromatography
Property: Mole fraction of tert-amyl methyl ether (Liquid mixture 2); method: Chromatography
Mole fraction of tert-amyl methyl ether	Mole fraction of 1-butanol	uncertainty	Mole fraction of 1-butanol	uncertainty	Mole fraction of tert-amyl methyl ether	uncertainty
.7861	.1084	.001	.0032	.001	.0023	.001
.5958	.2226	.001	.0056	.001	.0018	.001
.4431	.3081	.001	.0077	.001	.0016	.001
.3449	.3599	.001	.0092	.001	.0015	.001
.2124	.4294	.001	.0113	.001	.0012	.001
.1164	.4672	.001	.026	.001	.0038	.001
0	.5015	.001	.0198	.001	0	.001

System: 2-butanol, dl- + tert-amyl methyl ether + water; phases: Liquid mixture 1, Liquid mixture 2
Fixed: Temperature, K = 298.15
Fixed: Pressure, kPa = 101
Property: Mole fraction of 2-butanol, dl- (Liquid mixture 1); method: Chromatography
Property: Mole fraction of 2-butanol, dl- (Liquid mixture 2); method: Chromatography
Property: Mole fraction of tert-amyl methyl ether (Liquid mixture 2); method: Chromatography
Mole fraction of tert-amyl methyl ether	Mole fraction of 2-butanol, dl-	uncertainty	Mole fraction of 2-butanol, dl-	uncertainty	Mole fraction of tert-amyl methyl ether	uncertainty
.8128	.0818	.001	.0058	.001	.0048	.001
.5974	.2069	.001	.0115	.001	.002	.001
.4355	.3126	.001	.019	.001	.0049	.001
.2679	.387	.001	.022	.001	.0018	.001
.1685	.4165	.001	.024	.001	.0013	.001
.0964	.42	.001	.032	.001	.0016	.001
0	.3228	.001	.0524	.001	0	.001
