Measured thermophysical data. Effect of Dissolved Salts on the Enthalpy of Mixing of the Methanol + Formic  Acid System at 303.15 K
Source: J. Chem. Eng. Data, 2009, 10.1021/je800568m
Compound 1: methanol, CH4O
Compound 2: methanoic acid, CH2O2
Compound 3: sodium chloride, ClNa
Compound 4: cadmium chloride, CdCl2
Compound 5: zinc chloride, Cl2Zn
Compound 6: ammonium chloride, ClH4N

System: methanol; phases: Liquid, Gas
Property: Normal boiling temperature, K (Liquid); method: Ebulliometric method (Recirculating still)
Normal boiling temperature, K	uncertainty
337.8	.2

System: methanol; phases: Liquid
Fixed: Pressure, kPa = 101.325
Property: Mass density, kg/m3 (Liquid); method: Pycnometric method
Temperature, K	Mass density, kg/m3	uncertainty
298.15	782	

System: methanoic acid; phases: Liquid, Gas
Property: Normal boiling temperature, K (Liquid); method: Ebulliometric method (Recirculating still)
Normal boiling temperature, K	uncertainty
373.6	.2

System: methanoic acid; phases: Liquid
Fixed: Pressure, kPa = 101.325
Property: Mass density, kg/m3 (Liquid); method: Pycnometric method
Temperature, K	Mass density, kg/m3	uncertainty
298.15	1221	

System: methanoic acid + methanol; phases: Liquid
Fixed: Temperature, K = 303.15
Fixed: Pressure, kPa = 101
Property: Excess molar enthalpy (molar enthalpy of mixing), kJ/mol (Liquid); method: Calvet calorimetry
Mole fraction of methanol	Excess molar enthalpy (molar enthalpy of mixing), kJ/mol	uncertainty
.068	-.0193	-.000386
.116	-.0314	-.000628
.187	-.0504	-.001008
.305	-.0779	-.001558
.355	-.0858	-.001716
.415	-.0953	-.001906
.475	-.1009	-.002018
.55	-.1047	-.002094
.655	-.0946	-.001892
.745	-.0762	-.001524
.795	-.0624	-.001248

System: methanoic acid + methanol + sodium chloride; phases: Liquid
Fixed: Temperature, K = 303.15
Fixed: Pressure, kPa = 101
Property: Excess molar enthalpy (molar enthalpy of mixing), kJ/mol (Liquid); method: Calvet calorimetry
Mole fraction of methanol	Mole fraction of sodium chloride	Excess molar enthalpy (molar enthalpy of mixing), kJ/mol	uncertainty
.06	.0379	-.0182	-.000364
.114	.0334	-.0319	-.000638
.186	.0287	-.0536	-.001072
.305	.0231	-.0791	-.001582
.354	.0195	-.0901	-.001802
.414	.0158	-.0961	-.001922
.47	.0125	-.1019	-.002038
.549	.00917	-.1003	-.002006
.605	.00659	-.0942	-.001884
.675	.00417	-.08	-.0016
.72	.00244	-.0703	-.001406

System: methanoic acid + methanol + cadmium chloride; phases: Liquid
Fixed: Temperature, K = 303.15
Fixed: Pressure, kPa = 101
Property: Excess molar enthalpy (molar enthalpy of mixing), kJ/mol (Liquid); method: Calvet calorimetry
Mole fraction of methanol	Mole fraction of cadmium chloride	Excess molar enthalpy (molar enthalpy of mixing), kJ/mol	uncertainty
.057	.0384	-.0415	-.00083
.113	.0332	-.0836	-.001672
.18	.028	-.1243	-.002486
.301	.0219	-.2013	-.004026
.352	.0178	-.2269	-.004538
.413	.0138	-.2513	-.005026
.468	.0102	-.2643	-.005286
.55	.00842	-.266	-.00532
.602	.00669	-.2553	-.005106
.675	.00403	-.219	-.00438
.782	.00169	-.1579	-.003158
.86	.000734	-.1095	-.00219

System: methanoic acid + methanol + zinc chloride; phases: Liquid
Fixed: Temperature, K = 303.15
Fixed: Pressure, kPa = 101
Property: Excess molar enthalpy (molar enthalpy of mixing), kJ/mol (Liquid); method: Calvet calorimetry
Mole fraction of methanol	Mole fraction of zinc chloride	Excess molar enthalpy (molar enthalpy of mixing), kJ/mol	uncertainty
.056	.038	-.0182	-.000364
.107	.0336	-.0322	-.000644
.189	.0286	-.0562	-.001124
.307	.0231	-.0812	-.001624
.427	.0177	-.1013	-.002026
.465	.0147	-.1068	-.002136
.547	.011	-.1089	-.002178
.602	.00826	-.1052	-.002104
.675	.00557	-.0911	-.001822
.712	.00376	-.0821	-.001642
.82	.00162	-.0502	-.001004
.961	.000245	-.00432	-.0000864

System: methanoic acid + methanol + ammonium chloride; phases: Liquid
Fixed: Temperature, K = 303.15
Fixed: Pressure, kPa = 101
Property: Excess molar enthalpy (molar enthalpy of mixing), kJ/mol (Liquid); method: Calvet calorimetry
Mole fraction of methanol	Mole fraction of ammonium chloride	Excess molar enthalpy (molar enthalpy of mixing), kJ/mol	uncertainty
.051	.0385	-.0152	-.000304
.105	.0334	-.0296	-.000592
.19	.0278	-.0501	-.001002
.305	.0218	-.0696	-.001392
.401	.0163	-.0896	-.001792
.517	.0112	-.0986	-.001972
.622	.00802	-.0923	-.001846
.701	.00455	-.0776	-.001552
.801	.00199	-.0508	-.001016
.921	.000113	-.0202	-.000404
.054	.074	-.0152	-.000304
.102	.0648	-.0269	-.000538
.19	.0541	-.0416	-.000832
.302	.0423	-.0556	-.001112
.421	.032	-.0725	-.00145
.547	.0221	-.0775	-.00155
.602	.00159	-.0781	-.001562
.715	.00901	-.0692	-.001384
.82	.00398	-.0476	-.000952
.901	.00135	-.0278	-.000556
