Measured thermophysical data. Phase Equilibrium of Hydrogen, Carbon Dioxide, Squalene, and Squalane
Source: J. Chem. Eng. Data, 2009, 10.1021/je800926z
Compound 1: carbon dioxide, CO2, purity 99.99%
Compound 2: hydrogen, H2, purity 99.993%
Compound 3: 2,6,10,15,19,23-hexamethyltetracosane, C30H62, purity 99%
Compound 4: squalene, C30H50, purity 99%

System: 2,6,10,15,19,23-hexamethyltetracosane + carbon dioxide; phases: Gas, Liquid
Property: Vapor or sublimation pressure, kPa (Gas); method: Closed cell (Static) method
Mole fraction of 2,6,10,15,19,23-hexamethyltetracosane	Temperature, K	Vapor or sublimation pressure, kPa	uncertainty
.828	313.15	15000	10
.831	313.15	20000	10
.843	313.15	25000	10
.846	313.15	30000	10
.846	313.15	35000	10
.797	343.15	15000	10
.838	343.15	20000	10
.869	343.15	25000	10
.878	343.15	30000	10
.871	343.15	35000	10
.651	343.15	3500	10
.495	343.15	5650	10
.418	343.15	7200	10
.342	343.15	9300	10
.295	343.15	10900	10
.245	343.15	13100	10
.203	343.15	16750	10
.206	343.15	19500	10
.153	343.15	23600	10
.169	343.15	24800	10
.124	343.15	28400	10
.13	343.15	30100	10
.306	373.1	13900	10
.386	373.7	10100	10
.215	373.7	19600	10
.116	373.7	30400	10
.12	373.8	30050	10
.315	422.9	18000	10
.377	423.1	14100	10
.564	423.1	7900	10
.447	426	10750	10
.27	426	19350	10
.144	426	30300	10

System: 2,6,10,15,19,23-hexamethyltetracosane + carbon dioxide; phases: Gas, Liquid
Property: Mole fraction of 2,6,10,15,19,23-hexamethyltetracosane (Gas); method: Chromatography
Mole fraction of 2,6,10,15,19,23-hexamethyltetracosane	Temperature, K	Mole fraction of 2,6,10,15,19,23-hexamethyltetracosane	uncertainty
.828	313.15	.0015	.000045
.831	313.15	.0045	.000135
.843	313.15	.0041	.000123
.846	313.15	.0024	.000072
.846	313.15	.0028	.000084
.797	343.15	.0005	.000015
.838	343.15	.0026	.000078
.869	343.15	.0062	.000186
.878	343.15	.0075	.000225
.871	343.15	.0081	.000243
.651	343.15	.0001	.000003
.495	343.15	.0001	.000003
.418	343.15	.0001	.000003
.342	343.15	.0001	.000003
.295	343.15	.0001	.000003
.245	343.15	.0003	.000009
.203	343.15	.0008	.000024
.206	343.15	.0023	.000069
.153	343.15	.0036	.000108
.169	343.15	.0045	.000135
.124	343.15	.0066	.000198
.13	343.15	.0068	.000204
.306	373.1	.0001	.000003
.386	373.7	0	0
.215	373.7	.0006	.000018
.116	373.7	.0071	.000213
.564	423.1	.0002	.000006
.377	423.1	.0003	.000009
.447	426	.0002	.000006
.27	426	.0007	.000021
.144	426	.005	.00015

System: 2,6,10,15,19,23-hexamethyltetracosane + hydrogen; phases: Liquid, Gas
Property: Mole fraction of hydrogen (Liquid); method: Chromatography
Temperature, K	Pressure, kPa	Mole fraction of hydrogen	uncertainty
327.35	87200	.5075	.015225
327.35	30800	.3015	.009045
344.15	62300	.468	.01404
344.15	50200	.4145	.012435
344.15	30500	.3145	.009435
375.05	24500	.292	.00876
375.05	50800	.4535	.013605
423.65	81200	.6205	.018615
423.65	51000	.512	.01536
423.65	30400	.3885	.011655

System: carbon dioxide + hydrogen + squalene; phases: Liquid, Gas
Property: Mole fraction of carbon dioxide (Liquid); method: Chromatography
Property: Mole fraction of carbon dioxide (Gas); method: Chromatography
Property: Mole fraction of squalene (Gas); method: Chromatography
Temperature, K	Pressure, kPa	Mole fraction of squalene	Mole fraction of carbon dioxide	uncertainty	Mole fraction of carbon dioxide	uncertainty	Mole fraction of squalene	uncertainty
310.15	15000	.6175	.2764	.008292	.2651	.007953	0	0
310.15	25000	.3768	.5133	.015399	.4529	.013587	0	0
310.15	35000	.2758	.6065	.018195	.587	.01761	0	0
310.15	15000	.2898	.6806	.020418	.7722	.023166	0	0
310.15	25000	.2389	.7138	.021414	.8901	.026703	.0009	.000027
310.15	35000	.1994	.7455	.022365	.8947	.026841	.0023	.000069
330.15	15000	.389	.5433	.016299	.504	.01512	0	0
330.15	20000	.3708	.5462	.016386	.504	.01512	0	0
330.15	25000	.3462	.5674	.017022	.525	.01575	0	0
330.15	30000	.3223	.5702	.017106	.5383	.016149	0	0
330.15	35000	.3058	.5653	.016959	.534	.01602	0	0
330.15	15000	.293	.6737	.020211	.7608	.022824	.0001	.000003
330.15	20000	.2735	.6845	.020535	.8156	.024468	0	0
330.15	25000	.2374	.7112	.021336	.8387	.025161	.0002	.000006
330.15	30000	.2163	.7248	.021744	.8569	.025707	.0006	.000018
330.15	35000	.2021	.7292	.021876	.8425	.025275	.001	.00003
330.15	15000	.6155	.276	.00828	.2541	.007623	0	0
330.15	20000	.5116	.3758	.011274	.3004	.009012	0	0
330.15	25000	.487	.3953	.011859	.3348	.010044	0	0
330.15	30000	.4871	.3595	.010785	.3001	.009003	0	0
330.15	35000	.497	.3064	.009192	.2617	.007851	0	0
350.15	15000	.2662	.7134	.021402	.9252	.027756	0	0
350.15	25000	.2315	.7175	.021525	.8876	.026628	.0019	.000057
350.15	35000	.1898	.7467	.022401	.8862	.026586	.0017	.000051
350.15	15000	.5984	.2729	.008187	.2575	.007725	0	0
350.15	25000	.4562	.4116	.012348	.3522	.010566	0	0
350.15	35000	.3596	.4897	.014691	.4261	.012783	0	0

System: 2,6,10,15,19,23-hexamethyltetracosane + carbon dioxide + hydrogen; phases: Liquid, Gas
Property: Mole fraction of carbon dioxide (Liquid); method: Chromatography
Property: Mole fraction of carbon dioxide (Gas); method: Chromatography
Property: Mole fraction of 2,6,10,15,19,23-hexamethyltetracosane (Gas); method: Chromatography
Temperature, K	Pressure, kPa	Mole fraction of 2,6,10,15,19,23-hexamethyltetracosane	Mole fraction of carbon dioxide	uncertainty	Mole fraction of carbon dioxide	uncertainty	Mole fraction of 2,6,10,15,19,23-hexamethyltetracosane	uncertainty
343.15	31800	.447	.327	.00981	.201	.00603	0	0
343.15	57400	.397	.229	.00687	.147	.00441	0	0
343.15	55300	.382	.286	.00858	.125	.00375	0	0
343.15	30400	.286	.538	.01614	.5569	.016707	.0002	.000006
343.15	65200	.261	.472	.01416	.416	.01248	0	0
343.15	65100	.15	.539	.01617	.3432	.010296	.0024	.000072
373.15	67900	.263	.371	.01113	.312	.00936	0	0
423.15	49500	.329	.356	.01068	.3109	.009327	.0001	.000003
423.15	66500	.293	.322	.00966	.228	.00684	.0001	.000003
