Measured thermophysical data. Density, Viscosity, and Electrical Conductivity in the Potassium Sulfate + Water  + 1-Propanol System at Different Temperatures
Source: J. Chem. Eng. Data, 2009, 10.1021/je800673j
Compound 1: sulfuric acid, potassium salt, K2O4S
Compound 2: 1-propanol, C3H8O
Compound 3: water, H2O

System: 1-propanol + water + sulfuric acid, potassium salt; phases: Liquid
Fixed: Pressure, kPa = 101
Property: Mass density, kg/m3 (Liquid); method: Vibrating tube method
Temperature, K	Molality, mol/kg of sulfuric acid, potassium salt	Solvent: Mass fraction of 1-propanol	Mass density, kg/m3	uncertainty
298.15	.6981	0	1085.9	.05
298.15	.1817	.1689	995.5	.05
298.15	.0967	.2858	961.2	.05
298.15	.0594	.3739	938.1	.05
298.15	.038	.4443	921.1	.05
298.15	.025	.4999	908	.05
298.15	.0168	.5456	897.9	.05
303.15	.6981	0	1084.4	.05
303.15	.1816	.1616	992.8	.05
303.15	.0967	.281	958.1	.05
303.15	.0594	.3715	933.9	.05
303.15	.038	.4415	917.5	.05
303.15	.025	.4978	903.8	.05
303.15	.0168	.5439	893	.05
308.15	.6982	0	1082.5	.05
308.15	.1817	.1616	990.3	.05
308.15	.0967	.281	954.7	.05
308.15	.0594	.3715	930.8	.05
308.15	.0381	.4415	913.4	.05
308.15	.025	.4978	900.1	.05
308.15	.0168	.5438	889.5	.05
313.15	.698	0	1080.2	.05
313.15	.1816	.1616	987.4	.05
313.15	.0967	.2809	951.6	.05
313.15	.0592	.3712	927.4	.05
313.15	.038	.4415	909.9	.05
313.15	.025	.4978	896.5	.05
313.15	.0168	.5439	885.8	.05
318.15	.698	0	1078.3	.05
318.15	.1816	.1616	985	.05
318.15	.0967	.2809	948.8	.05
318.15	.0592	.3712	924.7	.05
318.15	.038	.4415	907.1	.05
318.15	.025	.4978	893.7	.05
318.15	.0168	.5439	882.9	.05

System: 1-propanol + water + sulfuric acid, potassium salt; phases: Liquid
Fixed: Pressure, kPa = 101
Property: Viscosity, Pa*s (Liquid); method: Capillary tube (Ostwald; Ubbelohde) method
Temperature, K	Molality, mol/kg of sulfuric acid, potassium salt	Solvent: Mass fraction of 1-propanol	Viscosity, Pa*s	uncertainty
298.15	.6981	0	.0010388	.000005
298.15	.1817	.1689	.0017233	.000005
298.15	.0967	.2858	.0021917	.000005
298.15	.0594	.3739	.002458	.000005
298.15	.038	.4443	.0025826	.000005
298.15	.025	.4999	.0026536	.000005
298.15	.0168	.5456	.0026666	.000005
303.15	.6981	0	.0009548	.000005
303.15	.1816	.1616	.0014898	.000005
303.15	.0967	.281	.0018981	.000005
303.15	.0594	.3715	.0020849	.000005
303.15	.038	.4415	.0022587	.000005
303.15	.025	.4978	.0022805	.000005
303.15	.0168	.5439	.002319	.000005
308.15	.6982	0	.0008705	.000005
308.15	.1817	.1616	.0012989	.000005
308.15	.0967	.281	.001629	.000005
308.15	.0594	.3715	.0018321	.000005
308.15	.0381	.4415	.0019022	.000005
308.15	.025	.4978	.0019707	.000005
308.15	.0168	.5438	.0019728	.000005
313.15	.698	0	.0007905	.000005
313.15	.1816	.1616	.0011377	.000005
313.15	.0967	.2809	.0014328	.000005
313.15	.0592	.3712	.0015806	.000005
313.15	.038	.4415	.0016615	.000005
313.15	.025	.4978	.0017089	.000005
313.15	.0168	.5439	.0017167	.000005
318.15	.698	0	.0007249	.000005
318.15	.1816	.1616	.0009672	.000005
318.15	.0967	.2809	.0012481	.000005
318.15	.0592	.3712	.0013945	.000005
318.15	.038	.4415	.0014549	.000005
318.15	.025	.4978	.0014904	.000005
318.15	.0168	.5439	.0015107	.000005

System: 1-propanol + water + sulfuric acid, potassium salt; phases: Liquid
Fixed: Pressure, kPa = 101
Property: Electrical conductivity, S/m (Liquid); method: Orion model 170 conductimeter
Temperature, K	Molality, mol/kg of sulfuric acid, potassium salt	Solvent: Mass fraction of 1-propanol	Electrical conductivity, S/m	uncertainty
298.15	.6981	0	10.45	.07315
298.15	.1817	.1689	1.69	.01183
298.15	.0967	.2858	.65	.00455
298.15	.0594	.3739	.31	.00217
298.15	.038	.4443	.16	.00112
298.15	.025	.4999	.09	.00063
298.15	.0168	.5456	.05	.00035
303.15	.6981	0	11.54	.08078
303.15	.1816	.1616	1.93	.01351
303.15	.0967	.281	.75	.00525
303.15	.0594	.3715	.32	.00224
303.15	.038	.4415	.18	.00126
303.15	.025	.4978	.1	.0007
303.15	.0168	.5439	.06	.00042
308.15	.6982	0	12.51	.08757
308.15	.1817	.1616	2.18	.01526
308.15	.0967	.281	.85	.00595
308.15	.0594	.3715	.37	.00259
308.15	.0381	.4415	.2	.0014
308.15	.025	.4978	.11	.00077
308.15	.0168	.5438	.06	.00042
313.15	.698	0	13.48	.09436
313.15	.1816	.1616	2.42	.01694
313.15	.0967	.2809	.94	.00658
313.15	.0592	.3712	.44	.00308
313.15	.038	.4415	.23	.00161
313.15	.025	.4978	.13	.00091
313.15	.0168	.5439	.07	.00049
318.15	.698	0	14.41	.10087
318.15	.1816	.1616	2.65	.01855
318.15	.0967	.2809	1.03	.00721
318.15	.0592	.3712	.49	.00343
318.15	.038	.4415	.25	.00175
318.15	.025	.4978	.14	.00098
318.15	.0168	.5439	.08	.00056

System: water + sulfuric acid, potassium salt; phases: Liquid
Property: Mass density, kg/m3 (Liquid); method: Vibrating tube method
Temperature, K	Molality, mol/kg of sulfuric acid, potassium salt	Pressure, kPa	Mass density, kg/m3	uncertainty
298.15	.6981	101	1085.9	.05
303.15	.6981	101	1084.4	.05
308.15	.6982	101	1082.5	.05
313.15	.698	101	1080.2	.05
318.15	.698	101	1078.3	.05

System: water + sulfuric acid, potassium salt; phases: Liquid
Property: Viscosity, Pa*s (Liquid); method: Capillary tube (Ostwald; Ubbelohde) method
Temperature, K	Molality, mol/kg of sulfuric acid, potassium salt	Pressure, kPa	Viscosity, Pa*s	uncertainty
298.15	.6981	101	.0010388	.000005
303.15	.6981	101	.0009548	.000005
308.15	.6982	101	.0008705	.000005
313.15	.698	101	.0007905	.000005
318.15	.698	101	.0007249	.000005

System: water + sulfuric acid, potassium salt; phases: Liquid
Property: Electrical conductivity, S/m (Liquid); method: Orion model 170 conductimeter
Temperature, K	Molality, mol/kg of sulfuric acid, potassium salt	Pressure, kPa	Electrical conductivity, S/m	uncertainty
298.15	.6981	101	10.45	.07315
303.15	.6981	101	11.54	.08078
308.15	.6982	101	12.51	.08757
313.15	.698	101	13.48	.09436
318.15	.698	101	14.41	.10087
