Measured thermophysical data. Density and Speed of Sound Measurements on Five Fatty Acid Methyl Esters at 83 kPa and Temperatures from (278.15 to 338.15) K
Source: J. Chem. Eng. Data, 2008, 10.1021/je8003854
Compound 1: methyl hexadecanoate, C17H34O2
Compound 2: methyl octadecanoate, C19H38O2
Compound 3: methyl cis-9-octadecenoate, C19H36O2
Compound 4: methyl (Z,Z)-9,12-octadecadienate, C19H34O2
Compound 5: 9,12,15-octadecatrienoic acid, methyl ester, (Z,Z,Z)-, C19H32O2

System: methyl hexadecanoate; phases: Liquid
Property: Mass density, kg/m3 (Liquid); method: Vibrating tube method
Pressure, kPa	Temperature, K	Mass density, kg/m3	uncertainty
83	308.15	856.1	.9
83	313.15	852.4	.9
83	318.15	848.7	.8
83	323.15	845	.8
83	328.15	841.4	.8
83	333.15	837.9	.8
83	338.15	834	.8

System: methyl hexadecanoate; phases: Liquid
Property: Speed of sound, m/s (Liquid); method: Pulse-echo method
Pressure, kPa	Temperature, K	Speed of sound, m/s	uncertainty
83	308.15	1338	1
83	313.15	1320	1
83	318.15	1303	1
83	323.15	1285	1
83	328.15	1268	1
83	333.15	1250	1
83	338.15	1233	1

System: methyl octadecanoate; phases: Liquid
Property: Mass density, kg/m3 (Liquid); method: Vibrating tube method
Pressure, kPa	Temperature, K	Mass density, kg/m3	uncertainty
83	318.15	846.2	.8
83	323.15	842.6	.8
83	328.15	839	.8
83	333.15	835.4	.8
83	338.15	831.8	.8

System: methyl octadecanoate; phases: Liquid
Property: Speed of sound, m/s (Liquid); method: Pulse-echo method
Pressure, kPa	Temperature, K	Speed of sound, m/s	uncertainty
83	318.15	1317	1
83	323.15	1299	1
83	328.15	1282	1
83	333.15	1265	1
83	338.15	1248	1

System: methyl cis-9-octadecenoate; phases: Liquid
Property: Mass density, kg/m3 (Liquid); method: Vibrating tube method
Pressure, kPa	Temperature, K	Mass density, kg/m3	uncertainty
83	278.15	884.8	.9
83	288.15	877.6	.9
83	298.15	870.3	.9
83	308.15	863	.9
83	318.15	855.8	.9
83	328.15	848.5	.8
83	338.15	841.3	.8

System: methyl cis-9-octadecenoate; phases: Liquid
Property: Speed of sound, m/s (Liquid); method: Pulse-echo method
Pressure, kPa	Temperature, K	Speed of sound, m/s	uncertainty
83	278.15	1462	1
83	288.15	1425	1
83	298.15	1389	1
83	308.15	1353	1
83	318.15	1318	1
83	328.15	1284	2
83	338.15	1250	2

System: methyl (Z,Z)-9,12-octadecadienate; phases: Liquid
Property: Mass density, kg/m3 (Liquid); method: Vibrating tube method
Pressure, kPa	Temperature, K	Mass density, kg/m3	uncertainty
83	278.15	896.7	.9
83	288.15	889.3	.9
83	298.15	881.9	.9
83	308.15	875	1
83	318.15	867.5	.9
83	328.15	860.2	.9
83	338.15	853	.9

System: methyl (Z,Z)-9,12-octadecadienate; phases: Liquid
Property: Speed of sound, m/s (Liquid); method: Pulse-echo method
Pressure, kPa	Temperature, K	Speed of sound, m/s	uncertainty
83	278.15	1472	2
83	288.15	1434	2
83	298.15	1398	1
83	308.15	1362	1
83	318.15	1327	1
83	328.15	1293	1
83	338.15	1260	1

System: 9,12,15-octadecatrienoic acid, methyl ester, (Z,Z,Z)-; phases: Liquid
Property: Mass density, kg/m3 (Liquid); method: Vibrating tube method
Pressure, kPa	Temperature, K	Mass density, kg/m3	uncertainty
83	278.15	910.7	.9
83	288.15	903.3	.9
83	298.15	895.8	.9
83	308.15	888.4	.9
83	318.15	881	.9
83	328.15	873.5	.9
83	338.15	866.1	.9

System: 9,12,15-octadecatrienoic acid, methyl ester, (Z,Z,Z)-; phases: Liquid
Property: Speed of sound, m/s (Liquid); method: Pulse-echo method
Pressure, kPa	Temperature, K	Speed of sound, m/s	uncertainty
83	278.15	1485	2
83	288.15	1448	1
83	298.15	1411	1
83	308.15	1375	1
83	318.15	1340	1
83	328.15	1306	1
83	338.15	1272	1
