Measured thermophysical data. Density and Viscosity of (4-Picoline + Water) Binary Mixtures from T ) (298.15  to 338.15) K
Source: J. Chem. Eng. Data, 2009, 10.1021/je8008182
Compound 1: water, H2O
Compound 2: sulfuric acid, H2O4S, purity 99%
Compound 3: 4-methylpyridine, C6H7N
Compound 4: 4-pyridinecarboxylic acid, C6H5NO2

System: water; phases: Liquid
Property: Mass density, kg/m3 (Liquid); method: Pycnometric method
Temperature, K	Pressure, kPa	Mass density, kg/m3	uncertainty
298.15	101	997.1	
303.15	101	995.7	
308.15	101	994	
313.15	101	992.2	
318.15	101	990.2	
323.15	101	988	
328.15	101	985.7	
333.15	101	983.2	
338.15	101	980.6	

System: water; phases: Liquid
Property: Viscosity, Pa*s (Liquid); method: Capillary tube (Ostwald; Ubbelohde) method
Temperature, K	Pressure, kPa	Viscosity, Pa*s	uncertainty
298.15	101	.0008903	
303.15	101	.0007973	
308.15	101	.000719	
313.15	101	.0006526	
318.15	101	.0005972	
323.15	101	.0005468	
328.15	101	.0005042	
333.15	101	.0004669	
338.15	101	.0004341	

System: 4-methylpyridine; phases: Liquid
Fixed: Pressure, kPa = 101.325
Property: Mass density, kg/m3 (Liquid); method: Pycnometric method
Temperature, K	Mass density, kg/m3	uncertainty
283.15	958.2	
293.15	955.1	
298.15	951.1	

System: 4-methylpyridine; phases: Liquid
Fixed: Pressure, kPa = 101.325
Property: Viscosity, Pa*s (Liquid); method: Capillary tube (Ostwald; Ubbelohde) method
Temperature, K	Viscosity, Pa*s	uncertainty
298.15	.0008723	

System: 4-methylpyridine; phases: Liquid
Property: Mass density, kg/m3 (Liquid); method: Pycnometric method
Temperature, K	Pressure, kPa	Mass density, kg/m3	uncertainty
308.15	101	941.3	
333.15	101	918.5	
318.15	101	932.1	
303.15	101	951.1	
323.15	101	927.7	
298.15	101	955.4	
313.15	101	936.6	
328.15	101	923.2	
338.15	101	914	
283.15	101	958.2	
293.15	101	955.1	
298.15	101	951.1	

System: 4-methylpyridine; phases: Liquid
Property: Viscosity, Pa*s (Liquid); method: Capillary tube (Ostwald; Ubbelohde) method
Temperature, K	Pressure, kPa	Viscosity, Pa*s	uncertainty
303.15	101	.0008175	
308.15	101	.0007774	
313.15	101	.0007368	
318.15	101	.0006855	
323.15	101	.0006505	
328.15	101	.0005905	
333.15	101	.0005329	
338.15	101	.0004815	

System: sulfuric acid + water; phases: Liquid
Fixed: Pressure, kPa = 101
Fixed: Mass fraction of sulfuric acid = .2
Property: Mass density, kg/m3 (Liquid); method: Pycnometric method
Temperature, K	Mass density, kg/m3	uncertainty
283.15	1145	
293.15	1139.6	
298.15	1136.4	
303.15	1133.7	
313.15	1127.8	
323.15	1121.9	
333.15	1115.7	
343.15	1108.9	

System: sulfuric acid + water; phases: Liquid
Fixed: Pressure, kPa = 101
Fixed: Mass fraction of sulfuric acid = .2
Property: Viscosity, Pa*s (Liquid); method: Capillary tube (Ostwald; Ubbelohde) method
Temperature, K	Viscosity, Pa*s	uncertainty
293.15	.001543	
303.15	.00121	
313.15	.000987	
323.15	.000824	
333.15	.000716	
343.15	.000638	

System: 4-methylpyridine + water; phases: Liquid
Fixed: Pressure, kPa = 101
Property: Mass density, kg/m3 (Liquid); method: Pycnometric method
Temperature, K	Mole fraction of 4-methylpyridine	Mass density, kg/m3	uncertainty
298.15	0	997.1	
303.15	0	995.7	
308.15	0	994	
313.15	0	992.2	
318.15	0	990.2	
323.15	0	988	
328.15	0	985.7	
333.15	0	983.2	
338.15	0	980.6	
298.15	.0211	996.2	
303.15	.0211	994.2	
308.15	.0211	992.1	
313.15	.0211	990	
318.15	.0211	987.5	
323.15	.0211	985	
328.15	.0211	983	
333.15	.0211	979.3	
338.15	.0211	976.3	
298.15	.0489	993.6	
308.15	.0489	988.3	
313.15	.0489	986	
318.15	.0489	983.3	
303.15	.0489	991.2	
323.15	.0489	980.3	
328.15	.0489	977.3	
333.15	.0489	974.1	
338.15	.0489	970.8	
308.15	.1143	984.5	
298.15	.1143	991.3	
313.15	.1143	980.9	
318.15	.1143	977.1	
323.15	.1143	973.4	
303.15	.1143	987.9	
328.15	.1143	969.5	
333.15	.1143	965.8	
338.15	.1143	961.7	
308.15	.225	977.6	
313.15	.225	973.2	
298.15	.225	984.8	
318.15	.225	969	
323.15	.225	964.8	
328.15	.225	960.4	
303.15	.225	981.2	
333.15	.225	956.4	
338.15	.225	952.2	
308.15	.3111	974.2	
318.15	.3111	965	
298.15	.3111	983	
323.15	.3111	960.7	
313.15	.3111	969.5	
328.15	.3111	956	
333.15	.3111	951.4	
303.15	.3111	978.7	
338.15	.3111	946.9	
318.15	.4	961.2	
323.15	.4	956.5	
298.15	.4	978.9	
303.15	.4	972.1	
328.15	.4	952	
313.15	.4	965.9	
308.15	.4	970.7	
333.15	.4	947.5	
338.15	.4	942.8	
308.15	.5	964.9	
318.15	.5	955.7	
323.15	.5	951	
328.15	.5	946.3	
298.15	.5	970.4	
313.15	.5	960.5	
333.15	.5	941.6	
303.15	.5	965.4	
338.15	.5	936.7	
318.15	.6353	945.9	
308.15	.6353	955.3	
328.15	.6353	936.7	
303.15	.6353	959.8	
323.15	.6353	941.4	
333.15	.6353	931.9	
298.15	.6353	964.1	
313.15	.6353	950.5	
338.15	.6353	927.5	
328.15	.75	932.1	
308.15	.75	950.5	
323.15	.75	936.7	
303.15	.75	956.4	
333.15	.75	927.3	
313.15	.75	945.9	
298.15	.75	961.4	
318.15	.75	941.4	
338.15	.75	922.6	
303.15	.9	953.8	
328.15	.9	927.8	
333.15	.9	923	
318.15	.9	937	
323.15	.9	932.5	
308.15	.9	946	
313.15	.9	941.6	
298.15	.9	958.7	
338.15	.9	918.5	
308.15	1	941.3	
333.15	1	918.5	
318.15	1	932.1	
303.15	1	951.1	
323.15	1	927.7	
298.15	1	955.4	
313.15	1	936.6	
328.15	1	923.2	
338.15	1	914	

System: 4-methylpyridine + water; phases: Liquid
Fixed: Pressure, kPa = 101
Property: Viscosity, Pa*s (Liquid); method: Capillary tube (Ostwald; Ubbelohde) method
Temperature, K	Mole fraction of 4-methylpyridine	Viscosity, Pa*s	uncertainty
298.15	0	.0008903	
298.15	.0211	.0011717	
298.15	.0489	.0014987	
298.15	.1143	.0021412	
298.15	.225	.0026024	
298.15	.3111	.0025206	
298.15	.4	.0022017	
298.15	.5	.0018796	
298.15	.6353	.001539	
298.15	.75	.0013791	
298.15	.9	.0010896	
298.15	1	.0008723	
303.15	0	.0007973	
303.15	.0211	.0010371	
303.15	.0489	.001325	
303.15	.1143	.0018443	
303.15	.225	.0022376	
303.15	.3111	.002164	
303.15	.4	.001904	
303.15	.5	.001657	
303.15	.6353	.0013807	
303.15	.75	.0011597	
303.15	.9	.0009871	
303.15	1	.0008175	
308.15	0	.000719	
308.15	.0211	.0009037	
308.15	.0489	.0011651	
308.15	.1143	.00158	
308.15	.225	.0019237	
308.15	.3111	.0019003	
308.15	.4	.0017891	
308.15	.5	.0015952	
308.15	.6353	.0012473	
308.15	.75	.0010684	
308.15	.9	.0007846	
308.15	1	.0007774	
313.15	0	.0006526	
313.15	.0211	.0008272	
313.15	.0489	.0010445	
313.15	.1143	.0013997	
313.15	.225	.0016825	
313.15	.3111	.0016494	
313.15	.4	.0015608	
313.15	.5	.001419	
313.15	.6353	.0011287	
313.15	.75	.0009708	
313.15	.9	.0007395	
313.15	1	.0007368	
318.15	0	.0005972	
318.15	.0211	.0007494	
318.15	.0489	.0009363	
318.15	.1143	.0012341	
318.15	.225	.0014671	
318.15	.3111	.0014414	
318.15	.4	.0013654	
318.15	.5	.0012627	
318.15	.6353	.0010193	
318.15	.75	.0008874	
318.15	.9	.0006952	
318.15	1	.0006855	
323.15	0	.0005468	
323.15	.0211	.0006775	
323.15	.0489	.0008486	
323.15	.1143	.0010989	
323.15	.225	.0013043	
323.15	.3111	.0012789	
323.15	.4	.0012069	
323.15	.5	.0011358	
323.15	.6353	.0009623	
323.15	.75	.0008112	
323.15	.9	.0006516	
323.15	1	.0006505	
328.15	0	.0005042	
328.15	.0211	.0006136	
328.15	.0489	.000762	
328.15	.1143	.0009781	
328.15	.225	.0011471	
328.15	.3111	.0011188	
328.15	.4	.0010693	
328.15	.5	.0010072	
328.15	.6353	.0008648	
328.15	.75	.0007423	
328.15	.9	.0006014	
328.15	1	.0005905	
333.15	0	.0004669	
333.15	.0211	.0005649	
333.15	.0489	.0006555	
333.15	.1143	.0008941	
333.15	.225	.0010365	
333.15	.3111	.0010078	
333.15	.4	.0009636	
333.15	.5	.0009199	
333.15	.6353	.0007522	
333.15	.75	.0006899	
333.15	.9	.0005378	
333.15	1	.0005329	
338.15	0	.0004341	
338.15	.0211	.0005403	
338.15	.0489	.0006149	
338.15	.1143	.0008036	
338.15	.225	.0009466	
338.15	.3111	.0009064	
338.15	.4	.0008656	
338.15	.5	.0008403	
338.15	.6353	.0006948	
338.15	.75	.000641	
338.15	.9	.0004964	
338.15	1	.0004815	
