Measured thermophysical data. Liquid-Liquid Coexistence Curves of Dimethyl Carbonate + n-Decane and  Dimethyl Carbonate + n-Tetradecane in the Critical Region
Source: J. Chem. Eng. Data, 2009, 10.1021/je800787t
Compound 1: dimethyl carbonate, C3H6O3, purity 99%
Compound 2: decane, C10H22, purity 99%
Compound 3: tetradecane, C14H30, purity 99%

System: dimethyl carbonate; phases: Liquid
Fixed: Pressure, kPa = 101.325
Property: Refractive index (other wavelength) (Liquid); method: Standard Abbe refractometry
Temperature, K	Wavelength, nm	Refractive index (other wavelength)	uncertainty
277.336	632.8	1.3749	.0001
278.704	632.8	1.3743	.0001
280.058	632.8	1.3737	.0001
281.535	632.8	1.373	.0001
282.921	632.8	1.3724	.0001
284.24	632.8	1.3718	.0001
285.534	632.8	1.3712	.0001
286.927	632.8	1.3706	.0001
299.638	632.8	1.3647	.0001
300.685	632.8	1.3642	.0001
301.768	632.8	1.3637	.0001
302.822	632.8	1.3632	.0001
303.91	632.8	1.3627	.0001
304.986	632.8	1.3622	.0001
306.043	632.8	1.3617	.0001
307.113	632.8	1.3612	.0001
308.136	632.8	1.3607	.0001

System: decane; phases: Liquid
Fixed: Pressure, kPa = 101.325
Property: Refractive index (other wavelength) (Liquid); method: Standard Abbe refractometry
Wavelength, nm	Temperature, K	Refractive index (other wavelength)	uncertainty
632.8	278.874	1.4169	.0001
632.8	280.096	1.4163	.0001
632.8	281.303	1.4158	.0001
632.8	282.481	1.4153	.0001
632.8	283.616	1.4148	.0001
632.8	284.818	1.4142	.0001
632.8	286.064	1.4137	.0001
632.8	287.228	1.4132	.0001

System: tetradecane; phases: Liquid
Fixed: Pressure, kPa = 101.325
Property: Refractive index (other wavelength) (Liquid); method: Standard Abbe refractometry
Wavelength, nm	Temperature, K	Refractive index (other wavelength)	uncertainty
632.8	299.637	1.4248	.0001
632.8	300.669	1.4244	.0001
632.8	307.907	1.4213	.0001
632.8	301.681	1.424	.0001
632.8	302.713	1.4235	.0001
632.8	303.746	1.4231	.0001
632.8	304.75	1.4226	.0001
632.8	305.78	1.4222	.0001
632.8	306.857	1.4218	.0001

System: decane + dimethyl carbonate; phases: Liquid mixture 1, Liquid mixture 2, Air at 1 atmosphere
Property: Upper consolute temperature, K (Liquid mixture 1); method: derived from index of refraction measurements
Upper consolute temperature, K	uncertainty
287.1	.1

System: decane + dimethyl carbonate; phases: Liquid mixture 1, Liquid mixture 2, Air at 1 atmosphere
Property: Upper consolute composition: mole fraction of dimethyl carbonate (Liquid mixture 1); method: derived from index of refraction measurements
Upper consolute composition: mole fraction of dimethyl carbonate	uncertainty
.691	.001

System: decane + dimethyl carbonate; phases: Liquid mixture 1, Liquid mixture 2
Fixed: Wavelength, nm = 632.8
Property: Refractive index (other wavelength) (Liquid mixture 1); method: Standard Abbe refractometry
Temperature, K	Refractive index (other wavelength)	uncertainty
287.096	1.3895	.0001
287.088	1.3897	.0001
287.076	1.3901	.0001
287.066	1.3904	.0001
287.054	1.3906	.0001
287.037	1.3908	.0001
287.015	1.3911	.0001
286.992	1.3913	.0001
286.969	1.3915	.0001
286.941	1.3917	.0001
286.909	1.392	.0001
286.867	1.3922	.0001
286.824	1.3925	.0001
286.776	1.3927	.0001
286.719	1.393	.0001
286.654	1.3933	.0001
286.581	1.3936	.0001
286.501	1.3938	.0001
286.415	1.3942	.0001
286.322	1.3944	.0001
286.217	1.3947	.0001
286.108	1.3949	.0001
285.921	1.3954	.0001
285.636	1.396	.0001
285.233	1.3968	.0001
284.655	1.3978	.0001
284.007	1.3989	.0001
283.308	1.3999	.0001
282.444	1.4009	.0001
281.436	1.4021	.0001
280.775	1.4029	.0001
279.174	1.4045	.0001
277.61	1.406	.0001

System: decane + dimethyl carbonate; phases: Liquid mixture 2, Liquid mixture 1
Fixed: Wavelength, nm = 632.8
Property: Refractive index (other wavelength) (Liquid mixture 2); method: Standard Abbe refractometry
Temperature, K	Refractive index (other wavelength)	uncertainty
287.096	1.3871	.0001
287.088	1.3868	.0001
287.076	1.3865	.0001
287.066	1.3862	.0001
287.054	1.386	.0001
287.037	1.3859	.0001
287.015	1.3856	.0001
286.992	1.3854	.0001
286.969	1.3852	.0001
286.941	1.385	.0001
286.909	1.3848	.0001
286.867	1.3847	.0001
286.824	1.3844	.0001
286.776	1.3843	.0001
286.719	1.3841	.0001
286.654	1.3839	.0001
286.581	1.3836	.0001
286.501	1.3835	.0001
286.415	1.3833	.0001
286.322	1.3831	.0001
286.217	1.3829	.0001
286.108	1.3827	.0001
285.921	1.3825	.0001
285.636	1.3822	.0001
285.233	1.3819	.0001
284.655	1.3815	.0001
284.007	1.3813	.0001
283.308	1.3811	.0001
282.444	1.3809	.0001
281.436	1.3809	.0001
280.775	1.3809	.0001
279.174	1.3809	.0001
277.61	1.3811	.0001

System: decane + dimethyl carbonate; phases: Liquid mixture 1, Liquid mixture 2
Fixed: Temperature, K = 287.95
Property: Refractive index (other wavelength) (Liquid mixture 1); method: Standard Abbe refractometry
Mole fraction of dimethyl carbonate	Refractive index (other wavelength)	uncertainty
.101	1.4095	
.204	1.4062	
.903	1.3762	
.3	1.403	
.401	1.3995	
.501	1.3958	
.605	1.3917	
.686	1.388	
.8	1.3821	

System: decane + dimethyl carbonate; phases: Liquid mixture 1, Liquid mixture 2
Fixed: Pressure, kPa = 101
Property: Mole fraction of dimethyl carbonate (Liquid mixture 1); method: Index of refraction calibration data
Temperature, K	Mole fraction of dimethyl carbonate	uncertainty
287.096	.662	.002
287.088	.658	.002
287.076	.649	.002
287.066	.642	.002
287.054	.638	.002
287.037	.634	.002
287.015	.627	.002
286.992	.623	.002
286.969	.619	.002
286.941	.614	.002
286.909	.608	.002
286.867	.603	.002
286.824	.597	.002
286.776	.593	.002
286.719	.586	.002
286.654	.58	.002
286.581	.573	.002
286.501	.569	.002
286.415	.56	.002
286.322	.557	.002
286.217	.55	.002
286.108	.547	.002
285.921	.536	.002
285.636	.524	.002
285.233	.508	.002
284.655	.489	.002
284.007	.468	.002
283.308	.449	.002
282.444	.432	.002
281.436	.411	.002
280.775	.397	.002
279.174	.371	.002
277.61	.348	.002

System: decane + dimethyl carbonate; phases: Liquid mixture 2, Liquid mixture 1
Fixed: Pressure, kPa = 101
Property: Mole fraction of dimethyl carbonate (Liquid mixture 2); method: Index of refraction calibration data
Temperature, K	Mole fraction of dimethyl carbonate	uncertainty
287.096	.713	.002
287.088	.719	.002
287.076	.725	.002
287.066	.731	.002
287.054	.735	.002
287.037	.737	.002
287.015	.743	.002
286.992	.748	.002
286.969	.752	.002
286.941	.756	.002
286.909	.76	.002
286.867	.762	.002
286.824	.768	.002
286.776	.771	.002
286.719	.775	.002
286.654	.779	.002
286.581	.786	.002
286.501	.788	.002
286.415	.792	.002
286.322	.797	.002
286.217	.801	.002
286.108	.806	.002
285.921	.811	.002
285.636	.819	.002
285.233	.827	.002
284.655	.839	.002
284.007	.848	.002
283.308	.856	.002
282.444	.866	.002
281.436	.874	.002
280.775	.879	.002
279.174	.891	.002
277.61	.899	.002

System: dimethyl carbonate + tetradecane; phases: Liquid mixture 1, Liquid mixture 2, Air at 1 atmosphere
Property: Upper consolute temperature, K (Liquid mixture 1); method: derived from index of refraction measurements
Upper consolute temperature, K	uncertainty
307.8	.1

System: dimethyl carbonate + tetradecane; phases: Liquid mixture 1, Liquid mixture 2, Air at 1 atmosphere
Property: Upper consolute composition: mole fraction of dimethyl carbonate (Liquid mixture 1); method: derived from index of refraction measurements
Upper consolute composition: mole fraction of dimethyl carbonate	uncertainty
.775	.001

System: dimethyl carbonate + tetradecane; phases: Liquid mixture 1, Liquid mixture 2
Fixed: Wavelength, nm = 632.8
Property: Refractive index (other wavelength) (Liquid mixture 1); method: Standard Abbe refractometry
Temperature, K	Refractive index (other wavelength)	uncertainty
307.751	1.3863	.0002
307.741	1.387	.0002
307.737	1.3872	.0002
307.731	1.3874	.0002
307.722	1.3877	.0002
307.711	1.388	.0002
307.697	1.3882	.0002
307.68	1.3887	.0002
307.661	1.3889	.0002
307.639	1.3892	.0002
307.613	1.3896	.0002
307.585	1.3898	.0002
307.554	1.3901	.0002
307.514	1.3904	.0002
307.468	1.3907	.0002
307.411	1.3911	.0002
307.347	1.3915	.0002
307.271	1.392	.0002
307.188	1.3923	.0002
307.075	1.3928	.0002
306.924	1.3934	.0002
306.765	1.3941	.0002
306.559	1.3947	.0002
306.259	1.3956	.0002
305.857	1.3966	.0002
305.256	1.3979	.0002
304.602	1.3992	.0002
303.811	1.4005	.0002
302.799	1.4021	.0002
301.595	1.4038	.0002
300.39	1.4053	.0002
299.162	1.4068	.0002
297.965	1.4081	.0002

System: dimethyl carbonate + tetradecane; phases: Liquid mixture 2, Liquid mixture 1
Fixed: Wavelength, nm = 632.8
Property: Refractive index (other wavelength) (Liquid mixture 2); method: Standard Abbe refractometry
Temperature, K	Refractive index (other wavelength)	uncertainty
307.751	1.3836	.0001
307.741	1.3829	.0001
307.737	1.3828	.0001
307.731	1.3825	.0001
307.722	1.3823	.0001
307.711	1.382	.0001
307.697	1.3818	.0001
307.68	1.3814	.0001
307.661	1.3811	.0001
307.639	1.3809	.0001
307.613	1.3806	.0001
307.585	1.3803	.0001
307.554	1.3801	.0001
307.514	1.3798	.0001
307.468	1.3795	.0001
307.411	1.3791	.0001
307.347	1.3789	.0001
307.271	1.3785	.0001
307.188	1.3782	.0001
307.075	1.3779	.0001
306.924	1.3775	.0001
306.765	1.3771	.0001
306.559	1.3767	.0001
306.259	1.3762	.0001
305.857	1.3756	.0001
305.256	1.3751	.0001
304.602	1.3746	.0001
303.811	1.3742	.0001
302.799	1.3739	.0001
301.595	1.3735	.0001
300.39	1.3734	.0001
299.162	1.3733	.0001
297.965	1.3734	.0001

System: dimethyl carbonate + tetradecane; phases: Liquid mixture 1, Liquid mixture 2
Fixed: Temperature, K = 308.14
Property: Refractive index (other wavelength) (Liquid mixture 1); method: Standard Abbe refractometry
Mole fraction of dimethyl carbonate	Refractive index (other wavelength)	uncertainty
0	1.4235	
.1	1.4179	
.201	1.4145	
.3	1.4107	
.399	1.4067	
.5	1.4019	
.6	1.3966	
.708	1.3898	
.801	1.3826	
.899	1.3729	
1	1.3632	

System: dimethyl carbonate + tetradecane; phases: Liquid mixture 1, Liquid mixture 2
Fixed: Pressure, kPa = 101
Property: Mole fraction of dimethyl carbonate (Liquid mixture 1); method: Index of refraction calibration data
Temperature, K	Mole fraction of dimethyl carbonate	uncertainty
307.751	.757	.002
307.741	.748	.002
307.737	.746	.002
307.731	.743	.002
307.722	.739	.002
307.711	.735	.002
307.697	.732	.002
307.68	.726	.002
307.661	.723	.002
307.639	.719	.002
307.613	.714	.002
307.585	.711	.002
307.554	.707	.002
307.514	.703	.002
307.468	.699	.002
307.411	.694	.002
307.347	.688	.002
307.271	.681	.002
307.188	.678	.002
307.075	.671	.002
306.924	.663	.002
306.765	.653	.002
306.559	.645	.002
306.259	.632	.002
305.857	.619	.002
305.256	.601	.002
304.602	.584	.002
303.811	.566	.002
302.799	.545	.002
301.595	.522	.002
300.39	.503	.002
299.162	.483	.002
297.965	.467	.002

System: dimethyl carbonate + tetradecane; phases: Liquid mixture 2, Liquid mixture 1
Fixed: Pressure, kPa = 101
Property: Mole fraction of dimethyl carbonate (Liquid mixture 2); method: Index of refraction calibration data
Temperature, K	Mole fraction of dimethyl carbonate	uncertainty
307.751	.79	.002
307.741	.799	.002
307.737	.8	.002
307.731	.803	.002
307.722	.806	.002
307.711	.809	.002
307.697	.812	.002
307.68	.816	.002
307.661	.82	.002
307.639	.822	.002
307.613	.825	.002
307.585	.829	.002
307.554	.831	.002
307.514	.835	.002
307.468	.838	.002
307.411	.843	.002
307.347	.845	.002
307.271	.849	.002
307.188	.853	.002
307.075	.857	.002
306.924	.861	.002
306.765	.866	.002
306.559	.871	.002
306.259	.877	.002
305.857	.885	.002
305.256	.892	.002
304.602	.9	.002
303.811	.907	.002
302.799	.914	.002
301.595	.922	.002
300.39	.928	.002
299.162	.934	.002
297.965	.938	.002
