Measured thermophysical data. Densities and Viscosities of Binary Mixtures of Cyclopropanecarboxylic Acid with  Methanol, Ethanol, Propan-1-ol, and Butan-1-ol at Different Temperatures
Source: J. Chem. Eng. Data, 2009, 10.1021/je800930v
Compound 1: methanol, CH4O
Compound 2: ethanol, C2H6O
Compound 3: 1-propanol, C3H8O
Compound 4: 1-butanol, C4H10O
Compound 5: cyclopropanecarboxylic acid, C4H6O2

System: methanol; phases: Liquid
Property: Mass density, kg/m3 (Liquid); method: Vibrating tube method
Temperature, K	Pressure, kPa	Mass density, kg/m3	uncertainty
298.15	101	787.01	.05
308.15	101	777.54	.05
318.15	101	767.98	.05
328.15	101	758.28	.05

System: methanol; phases: Liquid
Property: Viscosity, Pa*s (Liquid); method: Capillary tube (Ostwald; Ubbelohde) method
Temperature, K	Pressure, kPa	Viscosity, Pa*s	uncertainty
298.15	101	.000556	.000003
308.15	101	.000484	.000003
318.15	101	.000424	.000003
328.15	101	.000372	.000003

System: ethanol; phases: Liquid
Property: Mass density, kg/m3 (Liquid); method: Vibrating tube method
Temperature, K	Pressure, kPa	Mass density, kg/m3	uncertainty
298.15	101	785.44	.05
308.15	101	776.78	.05
318.15	101	767.94	.05
328.15	101	758.92	.05

System: ethanol; phases: Liquid
Property: Viscosity, Pa*s (Liquid); method: Capillary tube (Ostwald; Ubbelohde) method
Temperature, K	Pressure, kPa	Viscosity, Pa*s	uncertainty
298.15	101	.001097	.000003
308.15	101	.000908	.000003
318.15	101	.000756	.000003
328.15	101	.000634	.000003

System: 1-propanol; phases: Liquid
Property: Mass density, kg/m3 (Liquid); method: Vibrating tube method
Temperature, K	Pressure, kPa	Mass density, kg/m3	uncertainty
298.15	101	799.6	.05
308.15	101	791.49	.05
318.15	101	783.22	.05
328.15	101	774.73	.05
338.15	101	765.98	.05

System: 1-propanol; phases: Liquid
Property: Viscosity, Pa*s (Liquid); method: Capillary tube (Ostwald; Ubbelohde) method
Temperature, K	Pressure, kPa	Viscosity, Pa*s	uncertainty
298.15	101	.001955	.000003
308.15	101	.001538	.000003
318.15	101	.001224	.000003
328.15	101	.000986	.000003
338.15	101	.000801	.000003

System: 1-butanol; phases: Liquid
Property: Mass density, kg/m3 (Liquid); method: Vibrating tube method
Temperature, K	Pressure, kPa	Mass density, kg/m3	uncertainty
298.15	101	805.8	.05
308.15	101	798.08	.05
318.15	101	790.22	.05
328.15	101	782.17	.05
338.15	101	773.88	.05

System: 1-butanol; phases: Liquid
Property: Viscosity, Pa*s (Liquid); method: Capillary tube (Ostwald; Ubbelohde) method
Temperature, K	Pressure, kPa	Viscosity, Pa*s	uncertainty
298.15	101	.002588	.000003
308.15	101	.001991	.000003
318.15	101	.001555	.000003
328.15	101	.001228	.000003
338.15	101	.000981	.000003

System: cyclopropanecarboxylic acid; phases: Liquid
Property: Mass density, kg/m3 (Liquid); method: Vibrating tube method
Temperature, K	Pressure, kPa	Mass density, kg/m3	uncertainty
298.15	101	1082.92	.05
308.15	101	1072.97	.05
318.15	101	1063.04	.05
328.15	101	1053.12	.05
338.15	101	1043.2	.05

System: cyclopropanecarboxylic acid; phases: Liquid
Property: Viscosity, Pa*s (Liquid); method: Capillary tube (Ostwald; Ubbelohde) method
Temperature, K	Pressure, kPa	Viscosity, Pa*s	uncertainty
298.15	101	.003306	.000003
308.15	101	.002603	.000003
318.15	101	.002102	.000003
328.15	101	.001739	.000003
338.15	101	.001459	.000003

System: methanol + cyclopropanecarboxylic acid; phases: Liquid
Fixed: Pressure, kPa = 101
Property: Mass density, kg/m3 (Liquid); method: Vibrating tube method
Temperature, K	Mole fraction of cyclopropanecarboxylic acid	Mass density, kg/m3	uncertainty
298.15	0	787.01	.05
298.15	.1	846.5	.05
298.15	.2	895.02	.05
298.15	.3	935.16	.05
298.15	.3999	968.42	.05
298.15	.4994	996.21	.05
298.15	.5989	1019.49	.05
298.15	.7001	1039.41	.05
298.15	.8001	1056.17	.05
298.15	.9	1070.57	.05
298.15	1	1082.92	.05
308.15	0	777.54	.05
308.15	.1	837.02	.05
308.15	.2	885.53	.05
308.15	.3	925.62	.05
308.15	.3999	958.83	.05
308.15	.4994	986.56	.05
308.15	.5989	1009.79	.05
308.15	.7001	1029.65	.05
308.15	.8001	1046.35	.05
308.15	.9	1060.68	.05
308.15	1	1072.97	.05
318.15	0	767.98	.05
318.15	.1	827.45	.05
318.15	.2	875.84	.05
318.15	.3	916	.05
318.15	.3999	949.18	.05
318.15	.4994	976.86	.05
318.15	.5989	1000.06	.05
318.15	.7001	1019.87	.05
318.15	.8001	1036.53	.05
318.15	.9	1050.81	.05
318.15	1	1063.04	.05
328.15	0	758.28	.05
328.15	.1	817.74	.05
328.15	.2	866.23	.05
328.15	.3	906.25	.05
328.15	.3999	939.42	.05
328.15	.4994	967.07	.05
328.15	.5989	990.24	.05
328.15	.7001	1010.04	.05
328.15	.8001	1026.65	.05
328.15	.9	1040.92	.05
328.15	1	1053.12	.05

System: methanol + cyclopropanecarboxylic acid; phases: Liquid
Fixed: Pressure, kPa = 101
Property: Viscosity, Pa*s (Liquid); method: Capillary tube (Ostwald; Ubbelohde) method
Temperature, K	Mole fraction of cyclopropanecarboxylic acid	Viscosity, Pa*s	uncertainty
298.15	0	.000556	.000003
298.15	.1	.000773	.000003
298.15	.2	.001052	.000003
298.15	.3	.001392	.000003
298.15	.3999	.001778	.000003
298.15	.4994	.002189	.000003
298.15	.5989	.002557	.000003
298.15	.7001	.002887	.000003
298.15	.8001	.003139	.000003
298.15	.9	.003298	.000003
298.15	1	.003306	.000003
308.15	0	.000484	.000003
308.15	.1	.000651	.000003
308.15	.2	.000886	.000003
308.15	.3	.001151	.000003
308.15	.3999	.001451	.000003
308.15	.4994	.001765	.000003
308.15	.5989	.002029	.000003
308.15	.7001	.002227	.000003
308.15	.8001	.002449	.000003
308.15	.9	.002553	.000003
308.15	1	.002603	.000003
318.15	0	.000424	.000003
318.15	.1	.000572	.000003
318.15	.2	.000753	.000003
318.15	.3	.000965	.000003
318.15	.3999	.001199	.000003
318.15	.4994	.00144	.000003
318.15	.5989	.001641	.000003
318.15	.7001	.001825	.000003
318.15	.8001	.001963	.000003
318.15	.9	.002047	.000003
318.15	1	.002102	.000003
328.15	0	.000372	.000003
328.15	.1	.000499	.000003
328.15	.2	.000645	.000003
328.15	.3	.000816	.000003
328.15	.3999	.001	.000003
328.15	.4994	.001191	.000003
328.15	.5989	.001349	.000003
328.15	.7001	.001494	.000003
328.15	.8001	.001604	.000003
328.15	.9	.001678	.000003
328.15	1	.001739	.000003

System: ethanol + cyclopropanecarboxylic acid; phases: Liquid
Fixed: Pressure, kPa = 101
Property: Mass density, kg/m3 (Liquid); method: Vibrating tube method
Temperature, K	Mole fraction of cyclopropanecarboxylic acid	Mass density, kg/m3	uncertainty
298.15	0	785.44	.05
298.15	.0787	820.26	.05
298.15	.161	853.87	.05
298.15	.2475	886.51	.05
298.15	.3384	917.74	.05
298.15	.4341	947.8	.05
298.15	.535	976.75	.05
298.15	.6415	1004.67	.05
298.15	.7542	1031.56	.05
298.15	.8734	1057.73	.05
298.15	1	1082.92	.05
308.15	0	776.78	.05
308.15	.0787	811.57	.05
308.15	.161	844.96	.05
308.15	.2475	877.38	.05
308.15	.3384	908.48	.05
308.15	.4341	938.44	.05
308.15	.535	967.28	.05
308.15	.6415	995.1	.05
308.15	.7542	1021.89	.05
308.15	.8734	1047.94	.05
308.15	1	1072.97	.05
318.15	0	767.94	.05
318.15	.0787	802.61	.05
318.15	.161	835.92	.05
318.15	.2475	868.1	.05
318.15	.3384	899.1	.05
318.15	.4341	928.98	.05
318.15	.535	957.74	.05
318.15	.6415	985.47	.05
318.15	.7542	1012.17	.05
318.15	.8734	1038.12	.05
318.15	1	1063.04	.05
328.15	0	758.92	.05
328.15	.0787	793.34	.05
328.15	.161	826.69	.05
328.15	.2475	858.68	.05
328.15	.3384	889.59	.05
328.15	.4341	919.39	.05
328.15	.535	948.09	.05
328.15	.6415	975.77	.05
328.15	.7542	1002.41	.05
328.15	.8734	1028.3	.05
328.15	1	1053.12	.05

System: ethanol + cyclopropanecarboxylic acid; phases: Liquid
Fixed: Pressure, kPa = 101
Property: Viscosity, Pa*s (Liquid); method: Capillary tube (Ostwald; Ubbelohde) method
Temperature, K	Mole fraction of cyclopropanecarboxylic acid	Viscosity, Pa*s	uncertainty
298.15	0	.001097	.000003
298.15	.0787	.001272	.000003
298.15	.161	.001469	.000003
298.15	.2475	.001711	.000003
298.15	.3384	.001985	.000003
298.15	.4341	.002279	.000003
298.15	.535	.002562	.000003
298.15	.6415	.002818	.000003
298.15	.7542	.003035	.000003
298.15	.8734	.003204	.000003
298.15	1	.003306	.000003
308.15	0	.000908	.000003
308.15	.0787	.001043	.000003
308.15	.161	.001201	.000003
308.15	.2475	.001388	.000003
308.15	.3384	.001596	.000003
308.15	.4341	.001814	.000003
308.15	.535	.002029	.000003
308.15	.6415	.002225	.000003
308.15	.7542	.002391	.000003
308.15	.8734	.002532	.000003
308.15	1	.002603	.000003
318.15	0	.000756	.000003
318.15	.0787	.000865	.000003
318.15	.161	.00099	.000003
318.15	.2475	.001136	.000003
318.15	.3384	.001299	.000003
318.15	.4341	.00147	.000003
318.15	.535	.001636	.000003
318.15	.6415	.001789	.000003
318.15	.7542	.001895	.000003
318.15	.8734	.002024	.000003
318.15	1	.002102	.000003
328.15	0	.000634	.000003
328.15	.0787	.000723	.000003
328.15	.161	.000825	.000003
328.15	.2475	.000947	.000003
328.15	.3384	.001073	.000003
328.15	.4341	.001208	.000003
328.15	.535	.001342	.000003
328.15	.6415	.001467	.000003
328.15	.7542	.001557	.000003
328.15	.8734	.001674	.000003
328.15	1	.001739	.000003

System: 1-propanol + cyclopropanecarboxylic acid; phases: Liquid
Fixed: Pressure, kPa = 101
Property: Mass density, kg/m3 (Liquid); method: Vibrating tube method
Temperature, K	Mole fraction of cyclopropanecarboxylic acid	Mass density, kg/m3	uncertainty
298.15	0	799.6	.05
298.15	.1	832.12	.05
298.15	.2	863.75	.05
298.15	.3	894.25	.05
298.15	.4138	927.62	.05
298.15	.5001	952.13	.05
298.15	.6	979.77	.05
298.15	.7	1006.34	.05
298.15	.8	1032.24	.05
298.15	.9	1057.82	.05
298.15	1	1082.92	.05
308.15	0	791.49	.05
308.15	.1	823.73	.05
308.15	.2	855.12	.05
308.15	.3	885.41	.05
308.15	.4138	918.58	.05
308.15	.5001	942.95	.05
308.15	.6	970.45	.05
308.15	.7	996.88	.05
308.15	.8	1022.8	.05
308.15	.9	1048.15	.05
308.15	1	1072.97	.05
318.15	0	783.22	.05
318.15	.1	815.19	.05
318.15	.2	846.35	.05
318.15	.3	876.46	.05
318.15	.4138	909.45	.05
318.15	.5001	933.7	.05
318.15	.6	961.07	.05
318.15	.7	987.37	.05
318.15	.9	1038.38	.05
318.15	1	1063.04	.05
328.15	0	774.73	.05
328.15	.1	806.46	.05
328.15	.2	837.42	.05
328.15	.3	867.36	.05
328.15	.4138	900.17	.05
328.15	.5001	924.34	.05
328.15	.6	951.61	.05
328.15	.7	977.81	.05
328.15	.8	1003.51	.05
328.15	.9	1028.6	.05
328.15	1	1053.12	.05
338.15	0	765.98	.05
338.15	.1	797.48	.05
338.15	.2	828.26	.05
338.15	.3	858.07	.05
338.15	.4138	890.75	.05
338.15	.5001	914.85	.05
338.15	.6	942.03	.05
338.15	.7	968.16	.05
338.15	.8	993.78	.05
338.15	.9	1018.78	.05
338.15	1	1043.2	.05

System: 1-propanol + cyclopropanecarboxylic acid; phases: Liquid
Fixed: Pressure, kPa = 101
Property: Viscosity, Pa*s (Liquid); method: Capillary tube (Ostwald; Ubbelohde) method
Temperature, K	Mole fraction of cyclopropanecarboxylic acid	Viscosity, Pa*s	uncertainty
298.15	0	.001955	.000003
298.15	.1	.002118	.000003
298.15	.2	.00233	.000003
298.15	.3	.002568	.000003
298.15	.4138	.00282	.000003
298.15	.5001	.002988	.000003
298.15	.6	.00314	.000003
298.15	.7	.003235	.000003
298.15	.8	.003299	.000003
298.15	.9	.003316	.000003
298.15	1	.003306	.000003
308.15	0	.001538	.000003
308.15	.1	.001667	.000003
308.15	.2	.001833	.000003
308.15	.3	.002002	.000003
308.15	.4138	.00219	.000003
308.15	.5001	.002317	.000003
308.15	.6	.002437	.000003
308.15	.7	.002517	.000003
308.15	.8	.002574	.000003
308.15	.9	.002617	.000003
308.15	1	.002603	.000003
318.15	0	.001224	.000003
318.15	.1	.001325	.000003
318.15	.2	.001451	.000003
318.15	.3	.001583	.000003
318.15	.4138	.001733	.000003
318.15	.5001	.001834	.000003
318.15	.6	.001929	.000003
318.15	.7	.002002	.000003
318.15	.8	.00206	.000003
318.15	.9	.002092	.000003
318.15	1	.002102	.000003
328.15	0	.000986	.000003
328.15	.1	.001068	.000003
328.15	.2	.001169	.000003
328.15	.3	.001276	.000003
328.15	.4138	.001396	.000003
328.15	.5001	.001481	.000003
328.15	.6	.00156	.000003
328.15	.7	.001626	.000003
328.15	.8	.001678	.000003
328.15	.9	.001713	.000003
328.15	1	.001739	.000003
338.15	0	.000801	.000003
338.15	.1	.00087	.000003
338.15	.2	.000953	.000003
338.15	.3	.001041	.000003
338.15	.4138	.001141	.000003
338.15	.5001	.001211	.000003
338.15	.6	.001282	.000003
338.15	.7	.001342	.000003
338.15	.8	.001392	.000003
338.15	.9	.001429	.000003
338.15	1	.001459	.000003

System: 1-butanol + cyclopropanecarboxylic acid; phases: Liquid
Fixed: Pressure, kPa = 101
Property: Mass density, kg/m3 (Liquid); method: Vibrating tube method
Temperature, K	Mole fraction of cyclopropanecarboxylic acid	Mass density, kg/m3	uncertainty
298.15	0	805.8	.05
298.15	.1	831.84	.05
298.15	.2	858.24	.05
298.15	.3	884.97	.05
298.15	.4	912.03	.05
298.15	.5	939.3	.05
298.15	.6	966.97	.05
298.15	.6987	994.72	.05
298.15	.7996	1023.6	.05
298.15	.9	1053	.05
298.15	1	1082.92	.05
308.15	0	798.08	.05
308.15	.1	823.84	.05
308.15	.2	850.01	.05
308.15	.3	876.51	.05
308.15	.4	903.36	.05
308.15	.5	930.44	.05
308.15	.6	957.92	.05
308.15	.6987	985.5	.05
308.15	.7996	1014.15	.05
308.15	.9	1043.31	.05
308.15	1	1072.97	.05
318.15	0	790.22	.05
318.15	.1	815.72	.05
318.15	.2	841.64	.05
318.15	.3	867.95	.05
318.15	.4	894.6	.05
318.15	.5	921.51	.05
318.15	.6	948.81	.05
318.15	.6987	976.22	.05
318.15	.7996	1004.68	.05
318.15	.9	1033.63	.05
318.15	1	1063.04	.05
328.15	0	782.17	.05
328.15	.1	807.43	.05
328.15	.2	833.15	.05
328.15	.3	859.26	.05
328.15	.4	885.74	.05
328.15	.5	912.47	.05
328.15	.6	939.61	.05
328.15	.6987	966.86	.05
328.15	.7996	995.17	.05
328.15	.9	1023.94	.05
328.15	1	1053.12	.05
338.15	0	773.88	.05
338.15	.1	798.92	.05
338.15	.2	824.46	.05
338.15	.3	850.39	.05
338.15	.4	876.73	.05
338.15	.5	903.33	.05
338.15	.6	930.34	.05
338.15	.6987	957.46	.05
338.15	.7996	985.6	.05
338.15	.9	1014.21	.05
338.15	1	1043.2	.05

System: 1-butanol + cyclopropanecarboxylic acid; phases: Liquid
Fixed: Pressure, kPa = 101
Property: Viscosity, Pa*s (Liquid); method: Capillary tube (Ostwald; Ubbelohde) method
Temperature, K	Mole fraction of cyclopropanecarboxylic acid	Viscosity, Pa*s	uncertainty
298.15	0	.002588	.000003
298.15	.1	.002672	.000003
298.15	.2	.002782	.000003
298.15	.3	.002936	.000003
298.15	.4	.003091	.000003
298.15	.5	.003217	.000003
298.15	.6	.003319	.000003
298.15	.6987	.003386	.000003
298.15	.7996	.003401	.000003
298.15	.9	.003362	.000003
298.15	1	.003306	.000003
308.15	0	.001991	.000003
308.15	.1	.002064	.000003
308.15	.2	.002145	.000003
308.15	.3	.00226	.000003
308.15	.4	.002374	.000003
308.15	.5	.002475	.000003
308.15	.6	.002558	.000003
308.15	.6987	.002616	.000003
308.15	.7996	.002634	.000003
308.15	.9	.002628	.000003
308.15	1	.002603	.000003
318.15	0	.001555	.000003
318.15	.1	.001615	.000003
318.15	.2	.001689	.000003
318.15	.3	.001779	.000003
318.15	.4	.001863	.000003
318.15	.5	.001944	.000003
318.15	.6	.002016	.000003
318.15	.6987	.002079	.000003
318.15	.7996	.00211	.000003
318.15	.9	.002109	.000003
318.15	1	.002102	.000003
328.15	0	.001228	.000003
328.15	.1	.001289	.000003
328.15	.2	.001339	.000003
328.15	.3	.001416	.000003
328.15	.4	.001488	.000003
328.15	.5	.001556	.000003
328.15	.6	.00162	.000003
328.15	.6987	.001671	.000003
328.15	.7996	.001708	.000003
328.15	.9	.001723	.000003
328.15	1	.001739	.000003
338.15	0	.000981	.000003
338.15	.1	.001031	.000003
338.15	.2	.001081	.000003
338.15	.3	.001145	.000003
338.15	.4	.001207	.000003
338.15	.5	.001266	.000003
338.15	.6	.001324	.000003
338.15	.6987	.00137	.000003
338.15	.7996	.00141	.000003
338.15	.9	.001432	.000003
338.15	1	.001459	.000003
