Measured thermophysical data. Solubility of Carbon Dioxide in Water and Hexadecane: Experimental  Measurement and Thermodynamic Modeling
Source: J. Chem. Eng. Data, 2009, 10.1021/je800966f
Compound 1: water, H2O, purity 99.9%
Compound 2: carbon dioxide, CO2
Compound 3: hexadecane, C16H34

System: carbon dioxide + water; phases: Liquid, Gas
Property: Mole fraction of carbon dioxide (Liquid); method: Pressure Drop
Temperature, K	Pressure, kPa	Mole fraction of carbon dioxide	uncertainty
303.2	63.8	.00031	.00002
303.2	124	.00067	.00003
303.2	187.5	.00104	.00004
303.2	280.7	.00161	.00005
303.2	391.8	.00229	.00007
303.2	511	.00307	.00016
313.2	68.3	.00025	.00001
313.2	129	.00054	.00001
313.2	192.6	.00084	.00001
313.2	288	.00131	.00002
313.2	401.2	.00186	.00003
313.2	524.3	.00246	.00004
323.2	74.7	.0002	.00001
323.2	135.8	.00045	.00001
323.2	199.4	.00071	.00002
323.2	296.8	.00111	.00003
323.2	411.7	.00158	.00004
323.2	535.4	.0021	.00006

System: carbon dioxide + hexadecane; phases: Liquid, Gas
Property: Mole fraction of carbon dioxide (Liquid); method: Pressure Drop
Temperature, K	Pressure, kPa	Mole fraction of carbon dioxide	uncertainty
303.2	51.7	.0066	.0008
303.2	106.5	.0157	.001
303.2	165.4	.0259	.0012
303.2	252.1	.0417	.0012
303.2	355.7	.0622	.0012
303.2	470.8	.0867	.001
313.2	55	.0049	.001
313.2	110.2	.0126	.002
313.2	169.6	.0213	.0036
313.2	257	.0353	.0058
313.2	361.2	.0535	.0076
313.2	476.3	.0756	.009
323.2	58.6	.0039	.0008
323.2	115	.0109	.0014
323.2	175	.0189	.0026
323.2	263.7	.0319	.004
323.2	369.9	.0487	.0056
323.2	486.4	.0692	.0072
