Measured thermophysical data. Solubilities of Menadione Sodium Bisulfite in Water + (Methanol, Ethanol,  1-Propanol, 2-Propanol, 1,2-Propanediol, and Glycerin, Respectively) from (297.67  to 337.76) K
Source: J. Chem. Eng. Data, 2008, 10.1021/je800022j
Compound 1: menadione sodium bisulfite, C11H9NaO5S
Compound 2: methanol, CH4O, purity 99.5%
Compound 3: ethanol, C2H6O, purity 99.7%
Compound 4: 1-propanol, C3H8O, purity 99.5%
Compound 5: 2-propanol, C3H8O, purity 99.7%
Compound 6: 1,2-propanediol, C3H8O2, purity 99%
Compound 7: glycerol, C3H8O3, purity 99%
Compound 8: water, H2O

System: methanol + menadione sodium bisulfite + water; phases: Liquid, Crystal
Fixed: Solvent: Mass fraction of methanol = .75
Fixed: Pressure, kPa = 101
Property: Solid-liquid equilibrium temperature, K (Liquid); method: laser monitoring observation technique
Mole fraction of menadione sodium bisulfite	Solid-liquid equilibrium temperature, K	uncertainty
.02509	300.07	.01
.03066	304.23	.01
.03667	308.3	.01
.04504	312.83	.01
.05399	317.34	.01
.06381	321.42	.01
.07433	325.57	.01
.08616	329.8	.01

System: ethanol + menadione sodium bisulfite + water; phases: Liquid, Crystal
Fixed: Solvent: Mass fraction of ethanol = .75
Fixed: Pressure, kPa = 101
Property: Solid-liquid equilibrium temperature, K (Liquid); method: laser monitoring observation technique
Mole fraction of menadione sodium bisulfite	Solid-liquid equilibrium temperature, K	uncertainty
.01095	297.67	.01
.01456	302.25	.01
.0192	307.31	.01
.02378	311.63	.01
.02875	316.05	.01
.03507	321.4	.01
.04019	325.63	.01
.04523	329.74	.01

System: 1-propanol + menadione sodium bisulfite + water; phases: Liquid, Crystal
Fixed: Solvent: Mass fraction of 1-propanol = .75
Fixed: Pressure, kPa = 101
Property: Solid-liquid equilibrium temperature, K (Liquid); method: laser monitoring observation technique
Mole fraction of menadione sodium bisulfite	Solid-liquid equilibrium temperature, K	uncertainty
.01051	303.17	.01
.01467	308.95	.01
.01945	314.22	.01
.02421	318.85	.01
.03042	324.2	.01
.03713	329.47	.01
.04278	333.67	.01
.04874	337.76	.01

System: 2-propanol + menadione sodium bisulfite + water; phases: Liquid, Crystal
Fixed: Solvent: Mass fraction of 2-propanol = .75
Fixed: Pressure, kPa = 101
Property: Solid-liquid equilibrium temperature, K (Liquid); method: laser monitoring observation technique
Mole fraction of menadione sodium bisulfite	Solid-liquid equilibrium temperature, K	uncertainty
.00637	302.04	.01
.0082	306.34	.01
.01047	310.45	.01
.01314	315.11	.01
.01616	319.82	.01
.01946	323.59	.01
.02328	327.71	.01
.02772	331.83	.01

System: 1,2-propanediol + menadione sodium bisulfite + water; phases: Liquid, Crystal
Fixed: Solvent: Mass fraction of 1,2-propanediol = .75
Fixed: Pressure, kPa = 101
Property: Solid-liquid equilibrium temperature, K (Liquid); method: laser monitoring observation technique
Mole fraction of menadione sodium bisulfite	Solid-liquid equilibrium temperature, K	uncertainty
.03224	299.95	.01
.03783	304.45	.01
.04381	308.76	.01
.0504	312.57	.01
.05899	317.09	.01
.06907	321.29	.01
.07995	325.5	.01
.09531	330.53	.01

System: glycerol + menadione sodium bisulfite + water; phases: Liquid, Crystal
Fixed: Solvent: Mass fraction of glycerol = .75
Fixed: Pressure, kPa = 101
Property: Solid-liquid equilibrium temperature, K (Liquid); method: laser monitoring observation technique
Mole fraction of menadione sodium bisulfite	Solid-liquid equilibrium temperature, K	uncertainty
.05295	304.48	.01
.06152	309.25	.01
.07044	313.65	.01
.08046	318.15	.01
.092	323.37	.01
.1017	327.25	.01
.1127	331.37	.01
.1248	336.31	.01
