Measured thermophysical data. Solubility of Acenaphthene in Different Solvents from (283.00 to 323.00) K
Source: J. Chem. Eng. Data, 2009, 10.1021/je8006869
Compound 1: acenaphthene, C12H10
Compound 2: propanone, C3H6O
Compound 3: 2-methyl-1-propanol, C4H10O
Compound 4: benzene, C6H6
Compound 5: 1,3-dimethylbenzene, C8H10
Compound 6: 1-propanol, C3H8O

System: propanone + acenaphthene; phases: Liquid, Crystal
Fixed: Pressure, kPa = 101
Property: Mole fraction of acenaphthene (Liquid); method: glass cell apparatus
Temperature, K	Mole fraction of acenaphthene	uncertainty
283	.04168	
288	.04911	
293	.05867	
298	.0692	
303	.07881	
308.1	.09545	
313	.1132	
318	.1358	
323	.1726	

System: 2-methyl-1-propanol + acenaphthene; phases: Liquid, Crystal
Fixed: Pressure, kPa = 101
Property: Mole fraction of acenaphthene (Liquid); method: glass cell apparatus
Temperature, K	Mole fraction of acenaphthene	uncertainty
283	.00926	
288.1	.01282	
293.2	.01618	
298	.02046	
303.3	.02529	
308	.02975	
313.1	.03533	
318	.04345	
323	.0565	

System: benzene + acenaphthene; phases: Liquid, Crystal
Fixed: Pressure, kPa = 101
Property: Mole fraction of acenaphthene (Liquid); method: glass cell apparatus
Temperature, K	Mole fraction of acenaphthene	uncertainty
283	.118	
288	.1312	
293.2	.1424	
298	.1623	
303	.1873	
308.3	.2148	
313	.2437	
318	.2769	
323	.3121	

System: acenaphthene + 1,3-dimethylbenzene; phases: Liquid, Crystal
Fixed: Pressure, kPa = 101
Property: Mole fraction of acenaphthene (Liquid); method: glass cell apparatus
Temperature, K	Mole fraction of acenaphthene	uncertainty
283	.1086	
288	.1291	
293	.1432	
298	.1628	
303.1	.1883	
308.2	.2164	
313	.2454	
318	.2805	
323	.321	

System: 1-propanol + acenaphthene; phases: Liquid, Crystal
Fixed: Pressure, kPa = 101
Property: Mole fraction of acenaphthene (Liquid); method: glass cell apparatus
Temperature, K	Mole fraction of acenaphthene	uncertainty
283	.00879	
288.1	.01198	
293.2	.01443	
298	.01752	
303.3	.02075	
308	.02457	
313.1	.02951	
318	.0364	
323	.04643	
