Measured thermophysical data. Solubility, Density, Viscosity, Refractive Index, and Electrical Conductivity for  Potassium Nitrate-Water-2-Propanol at (298.15 and 313.15) K
Source: J. Chem. Eng. Data, 2009, 10.1021/je800637t
Compound 1: potassium nitrate, KNO3
Compound 2: 2-propanol, C3H8O
Compound 3: water, H2O

System: water + potassium nitrate; phases: Liquid
Fixed: Pressure, kPa = 100.8
Property: Mass density, kg/m3 (Liquid); method: Vibrating tube method
Temperature, K	Molality, mol/kg of potassium nitrate	Mass density, kg/m3	uncertainty
298.15	0	997	.02
298.15	.3799	1020.03	.04
298.15	.76	1041.91	.02
298.15	1.14	1062.91	.03
298.15	1.52	1083.04	.05
298.15	1.9	1102.4	.05
298.15	2.28	1121.03	.01
298.15	2.66	1139.02	.02
298.15	3.0399	1156.32	.04
298.15	3.42	1173.06	.03
298.15	3.821	1189.24	.02
313.15	0	992.15	.02
313.15	.3799	1014.52	.03
313.15	.76	1035.85	.01
313.15	1.14	1056.36	.04
313.15	1.52	1076.08	.02
313.15	1.9	1095.07	.03
313.15	2.28	1113.37	.05
313.15	2.66	1131.04	.01
313.15	3.0399	1148.05	.04
313.15	3.42	1164.53	.05
313.15	3.7999	1180.49	.01
313.15	4.5809	1211.11	.02
313.15	5.341	1239.46	.02
313.15	6.273	1271.3	.03

System: water + potassium nitrate; phases: Liquid
Fixed: Pressure, kPa = 100.8
Property: Viscosity, Pa*s (Liquid); method: Cone and plate viscometry
Temperature, K	Molality, mol/kg of potassium nitrate	Viscosity, Pa*s	uncertainty
298.15	0	.000891	.000003
298.15	.3799	.000879	.000002
298.15	.76	.00087	.000004
298.15	1.14	.000869	.000002
298.15	1.52	.000872	.000005
298.15	1.9	.000881	.000002
298.15	2.28	.000889	.000001
298.15	2.66	.000901	.000004
298.15	3.0399	.000914	.000006
298.15	3.42	.000931	.000001
298.15	3.821	.00095	.000002
313.15	0	.000653	.000002
313.15	.3799	.000652	.000004
313.15	.76	.000654	.000001
313.15	1.14	.000657	.000002
313.15	1.52	.000665	.000005
313.15	1.9	.000673	.000002
313.15	2.28	.000682	.000003
313.15	2.66	.000693	.000004
313.15	3.0399	.000703	.000002
313.15	3.42	.000716	.000004
313.15	3.7999	.000733	.000006
313.15	4.5809	.00076	.000001
313.15	5.341	.000803	.000003
313.15	6.273	.000844	.000004

System: water + potassium nitrate; phases: Liquid
Fixed: Pressure, kPa = 100.8
Property: Refractive index (Na D-line) (Liquid); method: Standard Abbe refractometry
Temperature, K	Molality, mol/kg of potassium nitrate	Refractive index (Na D-line)	uncertainty
298.15	0	1.33277	
298.15	.3799	1.33593	
298.15	.76	1.33907	
298.15	1.14	1.34205	
298.15	1.52	1.34488	
298.15	1.9	1.34751	
298.15	2.28	1.35009	
298.15	2.66	1.35253	
298.15	3.0399	1.35479	
298.15	3.42	1.35704	
298.15	3.821	1.35915	
313.15	0	1.3306	
313.15	.3799	1.33384	
313.15	.76	1.33687	
313.15	1.14	1.33975	
313.15	1.52	1.34248	
313.15	1.9	1.345	
313.15	2.28	1.34761	
313.15	2.66	1.34991	
313.15	3.0399	1.35227	
313.15	3.42	1.35443	
313.15	3.7999	1.35643	
313.15	4.5809	1.36051	
313.15	5.341	1.36426	
313.15	6.273	1.36812	

System: water + potassium nitrate; phases: Liquid
Fixed: Pressure, kPa = 100.8
Property: Electrical conductivity, S/m (Liquid); method: Kyoto model CM-117 conductivity meter
Temperature, K	Molality, mol/kg of potassium nitrate	Electrical conductivity, S/m	uncertainty
298.15	0	.000125	.00000075
298.15	.3799	.000381	.000002286
298.15	.76	.000705	.00000423
298.15	1.14	.000985	.00000591
298.15	1.52	.00122	.00000732
298.15	1.9	.00144	.00000864
298.15	2.28	.00162	.00000972
298.15	2.66	.00179	.00001074
298.15	3.0399	.00194	.00001164
298.15	3.42	.00211	.00001266
298.15	3.821	.00223	.00001338
313.15	0	.000164	.000000984
313.15	.3799	.000528	.000003168
313.15	.76	.000954	.000005724
313.15	1.14	.00129	.00000774
313.15	1.52	.00159	.00000954
313.15	1.9	.00184	.00001104
313.15	2.28	.00208	.00001248
313.15	2.66	.00227	.00001362
313.15	3.0399	.00248	.00001488
313.15	3.42	.00263	.00001578
313.15	3.7999	.00278	.00001668
313.15	4.5809	.00308	.00001848
313.15	5.341	.0033	.0000198
313.15	6.273	.00357	.00002142

System: 2-propanol + water + potassium nitrate; phases: Liquid, Crystal
Fixed: Pressure, kPa = 100.8
Property: Mass ratio of solute to solvent of potassium nitrate (Liquid); method: gravimetric
Temperature, K	Solvent: Mass fraction of 2-propanol	Mass ratio of solute to solvent of potassium nitrate	uncertainty
298.15	0	.3905	.00009
298.15	.1	.24498	.00009
298.15	.2	.16544	.00009
298.15	.3	.11685	.00009
298.15	.4	.08113	.00009
298.15	.4999	.05303	.00009
298.15	.6	.03232	.00009
298.15	.7	.01433	.00009
298.15	.8002	.00464	.00009
298.15	.9	.00159	.00009
298.15	1	.00062	.00009
313.15	0	.64638	.00009
313.15	.1001	.4296	.00009
313.15	.2	.29543	.00009
313.15	.3	.2117	.00009
313.15	.4	.14314	.00009
313.15	.5	.09543	.00009
313.15	.6	.05453	.00009
313.15	.7002	.02832	.00009
313.15	.8	.00936	.00009
313.15	.9002	.00295	.00009
313.15	1	.00098	.00009

System: 2-propanol + water + potassium nitrate; phases: Liquid, Crystal
Fixed: Pressure, kPa = 100.8
Property: Mass density, kg/m3 (Liquid); method: Vibrating tube method
Temperature, K	Solvent: Mass fraction of 2-propanol	Mass density, kg/m3	uncertainty
298.15	0	1190.82	.05
298.15	.1	1108.97	.05
298.15	.2	1053.26	.05
298.15	.3	1008.46	.05
298.15	.4	967.01	.05
298.15	.4999	929.76	.05
298.15	.6	895.75	.05
298.15	.7	862.63	.05
298.15	.8002	834.12	.05
298.15	.9	807.58	.05
298.15	1	781.64	.05
313.15	0	1274.23	.05
313.15	.1001	1178.02	.05
313.15	.2	1101.89	.05
313.15	.3	1041.16	.05
313.15	.4	984.87	.05
313.15	.5	938.24	.05
313.15	.6	893.33	.05
313.15	.7002	856.1	.05
313.15	.8	821.16	.05
313.15	.9002	793.63	.05
313.15	1	768.05	.05

System: 2-propanol + water + potassium nitrate; phases: Liquid, Crystal
Fixed: Pressure, kPa = 100.8
Property: Viscosity, Pa*s (Liquid); method: Automatic microviscometer
Temperature, K	Solvent: Mass fraction of 2-propanol	Viscosity, Pa*s	uncertainty
298.15	0	.000966	.0000006
298.15	.1	.001276	.0000006
298.15	.2	.001783	.0000006
298.15	.3	.002267	.0000006
298.15	.4	.002664	.0000006
298.15	.4999	.002883	.0000006
298.15	.6	.002951	.0000006
298.15	.7	.002856	.0000006
298.15	.8002	.002581	.0000006
298.15	.9	.002186	.0000006
298.15	1	.001667	.0000006
313.15	0	.000807	.0000006
313.15	.1001	.000998	.0000006
313.15	.2	.00122	.0000006
313.15	.3	.001492	.0000006
313.15	.4	.001708	.0000006
313.15	.5	.00184	.0000006
313.15	.6	.001858	.0000006
313.15	.7002	.001778	.0000006
313.15	.8	.001625	.0000006
313.15	.9002	.001435	.0000006
313.15	1	.001235	.0000006

System: 2-propanol + water + potassium nitrate; phases: Liquid, Crystal
Fixed: Pressure, kPa = 100.8
Property: Refractive index (Na D-line) (Liquid); method: Automatic Anton Paar RXA-156 refractometer
Temperature, K	Solvent: Mass fraction of 2-propanol	Refractive index (Na D-line)	uncertainty
298.15	0	1.35952	.00008
298.15	.1	1.35818	.00008
298.15	.2	1.36044	.00008
298.15	.3	1.36352	.00008
298.15	.4	1.36664	.00008
298.15	.4999	1.36927	.00008
298.15	.6	1.37157	.00008
298.15	.7	1.37336	.00008
298.15	.8002	1.3748	.00008
298.15	.9	1.37554	.00008
298.15	1	1.37569	.00008
313.15	0	1.36851	.00008
313.15	.1001	1.36427	.00008
313.15	.2	1.36324	.00008
313.15	.3	1.36365	.00008
313.15	.4	1.36447	.00008
313.15	.5	1.36561	.00008
313.15	.6	1.36684	.00008
313.15	.7002	1.36791	.00008
313.15	.8	1.3686	.00008
313.15	.9002	1.3688	.00008
313.15	1	1.36909	.00008

System: 2-propanol + water + potassium nitrate; phases: Liquid, Crystal
Fixed: Pressure, kPa = 100.8
Property: Electrical conductivity, S/m (Liquid); method: Kyoto model CM-117 conductivity meter
Temperature, K	Solvent: Mass fraction of 2-propanol	Electrical conductivity, S/m	uncertainty
298.15	0	22.4	.1344
298.15	.1	12.8	.0768
298.15	.2	7.1	.0426
298.15	.3	4	.024
298.15	.4	2.12	.01272
298.15	.4999	1.16	.00696
298.15	.6	.662	.003972
298.15	.7	.367	.002202
298.15	.8002	.102	.000612
298.15	.9	.0442	.0002652
298.15	1	.0044	.0000264
313.15	0	32.5	.195
313.15	.1001	23.1	.1386
313.15	.2	15.4	.0924
313.15	.3	9.68	.05808
313.15	.4	5.57	.03342
313.15	.5	2.8	.0168
313.15	.6	1.34	.00804
313.15	.7002	.638	.003828
313.15	.8	.195	.00117
313.15	.9002	.0601	.0003606
313.15	1	.00653	.00003918
