Measured thermophysical data. Solubility Data in the System KCl + K2CrO4 + H2O
Source: J. Chem. Eng. Data, 2009, 10.1021/je800855p
Compound 1: potassium chloride, ClK, purity 99.8%
Compound 2: chromic acid (H2CrO4), dipotassium salt, CrK2O4, purity 99.5%
Compound 3: water, H2O, purity 99.5%

System: potassium chloride + water + chromic acid (H2CrO4), dipotassium salt; phases: Liquid, Crystal
Fixed: Pressure, kPa = 101
Property: Mass fraction of chromic acid (H2CrO4), dipotassium salt (Liquid); method: Titration method
Temperature, K	Mass fraction of potassium chloride	Mass fraction of chromic acid (H2CrO4), dipotassium salt	uncertainty
303.15	.2711	0	0
303.15	.2535	.0314	.000157
303.15	.2455	.0589	.0002945
303.15	.2364	.0781	.0003905
303.15	.2091	.1222	.000611
303.15	.1863	.1718	.000859
333.15	.3141	0	0
333.15	.2973	.0325	.0001625
333.15	.2774	.057	.000285
333.15	.2668	.0791	.0003955
333.15	.2527	.1065	.0005325
333.15	.2331	.1404	.000702
333.15	.217	.1688	.000844
333.15	.2004	.2032	.001016
363.15	.3506	0	0
363.15	.3219	.0357	.0001785
363.15	.3085	.0664	.000332
363.15	.293	.0946	.000473
363.15	.2635	.1486	.000743
363.15	.2414	.1698	.000849
363.15	.2336	.1889	.0009445
363.15	.2312	.19	.00095
363.15	.2296	.1932	.000966

System: potassium chloride + water + chromic acid (H2CrO4), dipotassium salt; phases: Liquid, Crystal
Fixed: Pressure, kPa = 101
Property: Mass fraction of chromic acid (H2CrO4), dipotassium salt (Liquid); method: Titration method
Temperature, K	Mass fraction of potassium chloride	Mass fraction of chromic acid (H2CrO4), dipotassium salt	uncertainty
303.15	.1499	.2324	.001162
303.15	.1046	.2798	.001399
303.15	.0737	.3154	.001577
303.15	.0535	.3401	.0017005
303.15	.0318	.3674	.001837
303.15	.0028	.3984	.001992
303.15	0	.4001	.0020005
333.15	.1961	.2119	.0010595
333.15	.1506	.2615	.0013075
333.15	.1017	.3097	.0015485
333.15	.0767	.3365	.0016825
333.15	.0531	.3588	.001794
333.15	.0272	.3872	.001936
333.15	0	.4121	.0020605
363.15	.228	.1991	.0009955
363.15	.1905	.2384	.001192
363.15	.15	.28	.0014
363.15	.0967	.334	.00167
363.15	.0769	.3535	.0017675
363.15	.0507	.3787	.0018935
363.15	.0254	.4094	.002047
363.15	0	.4269	.0021345

System: potassium chloride + water + chromic acid (H2CrO4), dipotassium salt; phases: Liquid, Crystal, Crystal
Fixed: Pressure, kPa = 101
Property: Mass fraction of chromic acid (H2CrO4), dipotassium salt (Liquid); method: Titration method
Temperature, K	Mass fraction of chromic acid (H2CrO4), dipotassium salt	uncertainty
303.15	.2265	.0011325
333.15	.2119	.0010595
363.15	.1963	.0009815

System: potassium chloride + water + chromic acid (H2CrO4), dipotassium salt; phases: Liquid, Crystal, Crystal
Fixed: Pressure, kPa = 101
Property: Mass fraction of potassium chloride (Liquid); method: Titration method
Temperature, K	Mass fraction of potassium chloride	uncertainty
303.15	.1582	.000791
333.15	.1967	.0009835
363.15	.2289	.0011445

System: potassium chloride + water + chromic acid (H2CrO4), dipotassium salt; phases: Liquid, Crystal
Fixed: Pressure, kPa = 101
Property: Mass density, kg/m3 (Liquid); method: Pycnometric method
Temperature, K	Mass fraction of potassium chloride	Mass density, kg/m3	uncertainty
303.15	.2535	119.7	
303.15	.2455	117.3	
303.15	.2364	118.2	
303.15	.2091	127	
303.15	.1863	128.1	
333.15	.2973	120.5	
333.15	.2774	122.3	
333.15	.2668	124.4	
333.15	.2527	125.6	
333.15	.2331	127.8	
333.15	.217	131.2	
333.15	.2004	132.9	
363.15	.3219	123	
363.15	.3085	124.6	
363.15	.293	126.2	
363.15	.2635	130	
363.15	.2414	132.7	
363.15	.2336	133.4	
363.15	.2312	134.2	
363.15	.2296	133.2	

System: potassium chloride + water + chromic acid (H2CrO4), dipotassium salt; phases: Liquid, Crystal
Fixed: Pressure, kPa = 101
Property: Mass density, kg/m3 (Liquid); method: Pycnometric method
Temperature, K	Mass fraction of potassium chloride	Mass density, kg/m3	uncertainty
303.15	.1499	132.4	
303.15	.1046	133.5	
303.15	.0737	134.6	
303.15	.0535	135.5	
303.15	.0318	135.4	
303.15	.0028	138.2	
333.15	.1506	133.5	
333.15	.1017	135	
333.15	.0767	134.8	
333.15	.0531	136.8	
333.15	.0272	137.4	
363.15	.228	133.2	
363.15	.1905	134.7	
363.15	.15	137	
363.15	.0967	137.4	
363.15	.0769	137.4	
363.15	.0507	138.4	
363.15	.0254	139.4	

System: potassium chloride + water + chromic acid (H2CrO4), dipotassium salt; phases: Liquid, Crystal, Crystal
Fixed: Pressure, kPa = 101
Property: Mass density, kg/m3 (Liquid); method: Pycnometric method
Temperature, K	Mass density, kg/m3	uncertainty
303.15	132.5	
333.15	132.5	
363.15	134.5	
