Measured thermophysical data. Solubility of Valsartan in Different Organic Solvents and Ethanol + Water  Binary Mixtures from (278.15 to 313.15) K
Source: J. Chem. Eng. Data, 2009, 10.1021/je8007815
Compound 1: valsartan, C24H29N5O3, purity 95%
Compound 2: methyl ethanoate, C3H6O2, purity 99.5%
Compound 3: N,N-dimethylformamide, C3H7NO, purity 99.5%
Compound 4: dichloromethane, CH2Cl2, purity 99.5%
Compound 5: butyl ethanoate, C6H12O2, purity 99.5%
Compound 6: acetonitrile, C2H3N, purity 99.5%
Compound 7: chloroform, CHCl3, purity 99.5%
Compound 8: ethanol, C2H6O, purity 99.5%
Compound 9: water, H2O, purity 99.5%

System: methyl ethanoate + valsartan; phases: Liquid, Crystal
Fixed: Pressure, kPa = 101.3
Property: Mole fraction of valsartan (Liquid); method: laser monitoring
Temperature, K	Mole fraction of valsartan	uncertainty
278.15	.003075	.000015375
283.15	.00446	.0000223
288.15	.0061	.0000305
293.15	.00857	.00004285
298.15	.01186	.0000593
303.15	.01586	.0000793
308.15	.02173	.00010865
313.15	.02897	.00014485

System: N,N-dimethylformamide + valsartan; phases: Liquid, Crystal
Fixed: Pressure, kPa = 101.3
Property: Mole fraction of valsartan (Liquid); method: laser monitoring
Temperature, K	Mole fraction of valsartan	uncertainty
278.15	.00687	.00003435
283.15	.00862	.0000431
288.15	.01153	.00005765
293.15	.01547	.00007735
298.15	.01963	.00009815
303.15	.0253	.0001265
308.15	.03245	.00016225
313.15	.04165	.00020825

System: dichloromethane + valsartan; phases: Liquid, Crystal
Fixed: Pressure, kPa = 101.3
Property: Mole fraction of valsartan (Liquid); method: laser monitoring
Temperature, K	Mole fraction of valsartan	uncertainty
278.15	.000873	.000004365
283.15	.00128	.0000064
288.15	.0019	.0000095
293.15	.0026	.000013
298.15	.00381	.00001905
303.15	.00524	.0000262
308.15	.00743	.00003715
313.15	.0103	.0000515

System: butyl ethanoate + valsartan; phases: Liquid, Crystal
Fixed: Pressure, kPa = 101.3
Property: Mole fraction of valsartan (Liquid); method: laser monitoring
Temperature, K	Mole fraction of valsartan	uncertainty
278.15	.00149	.00000745
283.15	.002035	.000010175
288.15	.00273	.00001365
293.15	.00367	.00001835
298.15	.00473	.00002365
303.15	.0064	.000032
308.15	.008305	.000041525
313.15	.01142	.0000571

System: acetonitrile + valsartan; phases: Liquid, Crystal
Fixed: Pressure, kPa = 101.3
Property: Mole fraction of valsartan (Liquid); method: laser monitoring
Temperature, K	Mole fraction of valsartan	uncertainty
278.15	.00396	.0000198
283.15	.00542	.0000271
288.15	.00762	.0000381
293.15	.01073	.00005365
298.15	.01455	.00007275
303.15	.0197	.0000985
308.15	.02635	.00013175
313.15	.03488	.0001744

System: chloroform + valsartan; phases: Liquid, Crystal
Fixed: Pressure, kPa = 101.3
Property: Mole fraction of valsartan (Liquid); method: laser monitoring
Temperature, K	Mole fraction of valsartan	uncertainty
278.15	.00059	.00000295
283.15	.00108	.0000054
288.15	.00154	.0000077
293.15	.00256	.0000128
298.15	.00424	.0000212
303.15	.006275	.000031375
308.15	.00978	.0000489
313.15	.01456	.0000728

System: ethanol + water + valsartan; phases: Liquid, Crystal
Fixed: Pressure, kPa = 101.3
Property: Mole fraction of valsartan (Liquid); method: laser monitoring
Solvent: Mole fraction of ethanol	Temperature, K	Mole fraction of valsartan	uncertainty
.6991	278.15	.003	.000015
.6991	283.15	.0048	.000024
.6991	288.15	.00785	.00003925
.6991	293.15	.01136	.0000568
.6991	298.15	.01699	.00008495
.6991	303.15	.02484	.0001242
.6991	308.15	.03618	.0001809
.6991	313.15	.05172	.0002586
.6006	278.15	.00174	.0000087
.6006	283.15	.00263	.00001315
.6006	288.15	.00365	.00001825
.6006	293.15	.00554	.0000277
.6006	298.15	.00778	.0000389
.6006	303.15	.01076	.0000538
.6006	308.15	.01499	.00007495
.6006	313.15	.02055	.00010275
.4992	278.15	.00138	.0000069
.4992	283.15	.00208	.0000104
.4992	288.15	.00279	.00001395
.4992	293.15	.00403	.00002015
.4992	298.15	.0057	.0000285
.4992	303.15	.00788	.0000394
.4992	308.15	.01085	.00005425
.4992	313.15	.01488	.0000744
.4	278.15	.00105	.00000525
.4	283.15	.001635	.000008175
.4	288.15	.00227	.00001135
.4	293.15	.003225	.000016125
.4	298.15	.00461	.00002305
.4	303.15	.006365	.000031825
.4	308.15	.00876	.0000438
.4	313.15	.01188	.0000594
.2991	278.15	.00083	.00000415
.2991	283.15	.0013	.0000065
.2991	288.15	.00193	.00000965
.2991	293.15	.00279	.00001395
.2991	298.15	.00393	.00001965
.2991	303.15	.005605	.000028025
.2991	308.15	.00781	.00003905
.2991	313.15	.01077	.00005385
.1998	278.15	.0000505	.0000002525
.1998	283.15	.0001	.0000005
.1998	288.15	.00017	.00000085
.1998	293.15	.00031	.00000155
.1998	298.15	.00051	.00000255
.1998	303.15	.00092	.0000046
.1998	308.15	.00159	.00000795
.1998	313.15	.00263	.00001315
