Measured thermophysical data. Solubility of Isonicotinic Acid in 4-Methylpyridine + Water from (287.65 to 361.15) K
Source: J. Chem. Eng. Data, 2008, 10.1021/je800352u
Compound 1: 4-pyridinecarboxylic acid, C6H5NO2
Compound 2: 4-methylpyridine, C6H7N
Compound 3: water, H2O

System: 4-pyridinecarboxylic acid + 4-methylpyridine + water; phases: Liquid mixture 1, Liquid mixture 2
Fixed: Pressure, kPa = 101
Property: Mole fraction of 4-pyridinecarboxylic acid (Liquid mixture 1); method: Chromatography
Mass fraction of 4-methylpyridine	Temperature, K	Mole fraction of 4-pyridinecarboxylic acid	uncertainty
0	290.45	.0006648	
0	295.65	.0007914	
0	300.75	.0009214	
0	305.45	.001049	
0	309.85	.001185	
0	313.65	.001311	
0	318.45	.001482	
0	320.15	.001572	
0	326.55	.00182	
0	330.65	.002006	
0	335.55	.002234	
0	341.05	.002512	
0	347.25	.002881	
0	353.55	.0033	
.1	287.95	.01414	
.1	295.25	.01491	
.1	305.75	.01551	
.1	311.45	.01584	
.1	317.05	.01618	
.1	322.35	.01653	
.1	327.75	.01687	
.1	333.45	.01724	
.1	338.55	.0176	
.1	343.05	.01795	
.1	348.45	.0184	
.1	353.55	.01887	
.1	361.55	.01967	
.2	292.85	.02491	
.2	302.95	.02573	
.2	309.15	.0262	
.2	314.25	.02659	
.2	318.65	.02698	
.2	324.85	.02757	
.2	332.55	.02825	
.2	338.85	.02886	
.2	344.45	.02947	
.2	350.05	.03018	
.2	356.05	.03091	
.2	361.35	.03158	
.4	292.65	.03705	
.4	299.15	.03786	
.4	306.25	.03859	
.4	311.55	.03921	
.4	316.95	.03999	
.4	323.05	.04087	
.4	329.75	.04179	
.4	335.85	.04283	
.4	341.75	.0439	
.4	347.25	.04501	
.4	352.95	.04625	
.4	357.85	.04736	
.6	287.65	.03419	
.6	290.55	.03497	
.6	296.35	.03638	
.6	302.55	.03767	
.6	310.15	.03891	
.6	314.25	.03996	
.6	320.25	.04124	
.6	325.65	.0426	
.6	330.75	.04399	
.6	336.05	.04554	
.6	341.15	.04726	
.6	346.05	.04897	
.6	350.95	.05083	
.6	355.35	.0526	
.8	294.05	.02468	
.8	297.35	.02603	
.8	302.15	.02752	
.8	306.75	.0292	
.8	311.55	.03116	
.8	317.75	.03365	
.8	322.15	.03545	
.8	328.25	.03838	
.8	334.35	.04159	
.8	340.45	.04483	
.8	346.05	.04845	
.8	352.35	.05254	
.8	358.55	.05689	
1	299.65	.02326	
1	303.55	.02479	
1	306.65	.02682	
1	311.65	.02955	
1	316.25	.03248	
1	322.25	.03627	
1	327.45	.0401	
1	333.45	.0441	
1	338.25	.0482	
1	343.85	.05286	
1	349.35	.05782	
1	354.65	.06305	
1	359.35	.06791	
