Measured thermophysical data. High-Pressure Densities of 1-Alkyl-3-methylimidazolium Hexafluorophosphates  and 1-Alkyl-3-methylimidazolium Tetrafluoroborates at Temperatures from (313  to 473) K and at Pressures up to 200 MPa
Source: J. Chem. Eng. Data, 2009, 10.1021/je800224k
Compound 1: 1-ethyl-3-methylimidazolium hexafluorophosphate, C6H11F6N2P
Compound 2: 1-hexyl-3-methylimidazolium hexafluorophosphate, C10H19F6N2P
Compound 3: 1-ethyl-3-methylimidazolium tetrafluoroborate, C6H11BF4N2
Compound 4: 1-hexyl-3-methylimidazolium tetrafluoroborate, C10H19BF4N2
Compound 5: 1-octyl-3-methylimidazolium hexafluorophosphate, C12H23F6N2P

System: 1-ethyl-3-methylimidazolium hexafluorophosphate; phases: Liquid
Fixed: Pressure, kPa = 101.325
Property: Mass density, kg/m3 (Liquid); method: Vibrating tube method
Temperature, K	Mass density, kg/m3	uncertainty
353.15	1421.8	
373.15	1404.9	

System: 1-ethyl-3-methylimidazolium hexafluorophosphate; phases: Liquid
Property: Mass density, kg/m3 (Liquid); method: Bellows volumetry
Pressure, kPa	Temperature, K	Mass density, kg/m3	uncertainty
10000	472.4	1327	
20000	472.4	1336	
10000	452.5	1344	
30000	472.4	1344	
20000	452.5	1351	
40000	472.4	1351	
50000	472.4	1358	
30000	452.5	1359	
10000	432.6	1360	
60000	472.4	1364	
40000	452.5	1366	
20000	432.6	1367	
70000	472.4	1371	
50000	452.5	1372	
30000	432.6	1374	
10000	412.9	1377	
80000	472.4	1377	
60000	452.5	1379	
40000	432.6	1381	
90000	472.4	1383	
20000	412.9	1384	
70000	452.5	1385	
50000	432.6	1387	
100000	472.4	1389	
30000	412.9	1390	
80000	452.5	1391	
10000	392.9	1393	
60000	432.6	1393	
110000	472.4	1395	
40000	412.9	1397	
90000	452.5	1397	
70000	432.6	1399	
20000	392.9	1400	
120000	472.4	1400	
100000	452.5	1402	
50000	412.9	1403	
80000	432.6	1405	
130000	472.4	1405	
30000	392.9	1406	
60000	412.9	1408	
110000	452.5	1408	
10000	372.8	1410	
90000	432.6	1411	
140000	472.4	1411	
40000	392.9	1412	
70000	412.9	1414	
120000	452.5	1414	
20000	372.8	1416	
150000	472.4	1416	
100000	432.6	1417	
50000	392.9	1418	
130000	452.5	1419	
80000	412.9	1420	
160000	472.4	1421	
110000	432.6	1422	
30000	372.8	1423	
140000	452.5	1423	
60000	392.9	1424	
90000	412.9	1425	
170000	472.4	1426	
120000	432.6	1427	
40000	372.8	1428	
10000	352.7	1428	
70000	392.9	1429	
150000	452.5	1429	
100000	412.9	1431	
180000	472.4	1431	
130000	432.6	1432	
20000	352.7	1434	
50000	372.8	1434	
160000	452.5	1434	
80000	392.9	1435	
110000	412.9	1436	
190000	472.4	1436	
140000	432.6	1437	
60000	372.8	1439	
170000	452.5	1439	
90000	392.9	1440	
30000	352.7	1440	
200000	472.4	1440	
120000	412.9	1441	
150000	432.6	1442	
180000	452.5	1444	
100000	392.9	1445	
70000	372.8	1445	
130000	412.9	1446	
40000	352.7	1446	
160000	432.6	1447	
190000	452.5	1448	
110000	392.9	1450	
80000	372.8	1450	
140000	412.9	1451	
50000	352.7	1451	
170000	432.6	1451	
200000	452.5	1453	
120000	392.9	1455	
90000	372.8	1455	
60000	352.7	1456	
150000	412.9	1456	
180000	432.6	1456	
160000	412.9	1460	
130000	392.9	1460	
100000	372.8	1460	
190000	432.6	1461	
70000	352.7	1461	
140000	392.9	1464	
170000	412.9	1465	
200000	432.6	1465	
110000	372.8	1465	
80000	352.7	1466	
180000	412.9	1469	
150000	392.9	1469	
120000	372.8	1470	
90000	352.7	1471	
130000	372.8	1474	
190000	412.9	1474	
160000	392.9	1474	
200000	412.9	1478	
170000	392.9	1478	
140000	372.8	1479	
150000	372.8	1483	
180000	392.9	1483	
190000	392.9	1487	
160000	372.8	1488	
200000	392.9	1491	
170000	372.8	1492	
180000	372.8	1497	
190000	372.8	1501	
200000	372.8	1505	

System: 1-ethyl-3-methylimidazolium hexafluorophosphate; phases: Crystal
Property: Mass density, kg/m3 (Crystal); method: Bellows volumetry
Temperature, K	Pressure, kPa	Mass density, kg/m3	uncertainty
332.7	10000	1546	4.638
332.7	20000	1550	4.65
332.7	30000	1554	4.662
332.7	40000	1557	4.671
332.7	50000	1561	4.683
312.8	10000	1562	4.686
352.7	100000	1562	4.686
332.7	60000	1564	4.692
312.8	20000	1565	4.695
352.7	110000	1566	4.698
332.7	70000	1567	4.701
312.8	30000	1569	4.707
352.7	120000	1570	4.71
332.7	80000	1571	4.713
312.8	40000	1572	4.716
352.7	130000	1573	4.719
332.7	90000	1574	4.722
312.8	50000	1576	4.728
352.7	140000	1576	4.728
332.7	100000	1577	4.731
312.8	60000	1579	4.737
352.7	150000	1580	4.74
332.7	110000	1581	4.743
312.8	70000	1582	4.746
352.7	160000	1583	4.749
332.7	120000	1584	4.752
312.8	80000	1585	4.755
352.7	170000	1586	4.758
332.7	130000	1587	4.761
312.8	90000	1588	4.764
352.7	180000	1589	4.767
332.7	140000	1590	4.77
312.8	100000	1591	4.773
352.7	190000	1592	4.776
332.7	150000	1593	4.779
312.8	110000	1594	4.782
352.7	200000	1595	4.785
332.7	160000	1596	4.788
312.8	120000	1597	4.791
332.7	170000	1599	4.797
312.8	130000	1600	4.8
332.7	180000	1602	4.806
312.8	140000	1603	4.809
332.7	190000	1605	4.815
312.8	150000	1606	4.818
332.7	200000	1608	4.824
312.8	160000	1609	4.827
312.8	170000	1612	4.836
312.8	180000	1615	4.845
312.8	190000	1617	4.851
312.8	200000	1620	4.86

System: 1-hexyl-3-methylimidazolium hexafluorophosphate; phases: Liquid
Fixed: Pressure, kPa = 101.325
Property: Mass density, kg/m3 (Liquid); method: Vibrating tube method
Temperature, K	Mass density, kg/m3	uncertainty
293.15	1297	
313.15	1280.7	
333.15	1265.1	
353.15	1249.8	

System: 1-hexyl-3-methylimidazolium hexafluorophosphate; phases: Liquid
Property: Mass density, kg/m3 (Liquid); method: Bellows volumetry
Pressure, kPa	Temperature, K	Mass density, kg/m3	uncertainty
10000	312.9	1287	
20000	312.9	1292	
30000	312.9	1298	
40000	312.9	1303	
50000	312.9	1308	
60000	312.9	1313	
70000	312.9	1318	
80000	312.9	1322	
90000	312.9	1327	
100000	312.9	1331	
110000	312.9	1335	
120000	312.9	1339	
130000	312.9	1343	
140000	312.9	1347	
150000	312.9	1351	
160000	312.9	1355	
170000	312.9	1358	
180000	312.9	1362	
190000	312.9	1366	
200000	312.9	1369	
10000	332.6	1271	
20000	332.6	1277	
30000	332.6	1283	
40000	332.6	1289	
50000	332.6	1294	
60000	332.6	1299	
70000	332.6	1304	
80000	332.6	1309	
90000	332.6	1313	
100000	332.6	1318	
110000	332.6	1322	
120000	332.6	1326	
130000	332.6	1330	
140000	332.6	1334	
150000	332.6	1338	
160000	332.6	1342	
170000	332.6	1346	
180000	332.6	1350	
190000	332.6	1353	
200000	332.6	1357	
10000	352.7	1256	
20000	352.7	1262	
30000	352.7	1268	
40000	352.7	1274	
50000	352.7	1280	
60000	352.7	1285	
70000	352.7	1290	
80000	352.7	1295	
90000	352.7	1300	
100000	352.7	1305	
110000	352.7	1309	
120000	352.7	1314	
130000	352.7	1318	
140000	352.7	1322	
150000	352.7	1326	
160000	352.7	1330	
170000	352.7	1334	
180000	352.7	1338	
190000	352.7	1342	
200000	352.7	1345	
10000	372.9	1241	
20000	372.9	1248	
30000	372.9	1254	
40000	372.9	1260	
50000	372.9	1266	
60000	372.9	1271	
70000	372.9	1277	
80000	372.9	1282	
90000	372.9	1287	
100000	372.9	1292	
110000	372.9	1296	
120000	372.9	1301	
130000	372.9	1306	
140000	372.9	1310	
150000	372.9	1314	
160000	372.9	1318	
170000	372.9	1322	
180000	372.9	1326	
190000	372.9	1330	
200000	372.9	1334	
10000	393	1226	
20000	393	1233	
30000	393	1240	
40000	393	1246	
50000	393	1252	
60000	393	1258	
70000	393	1264	
80000	393	1269	
90000	393	1274	
100000	393	1279	
110000	393	1284	
120000	393	1289	
130000	393	1293	
140000	393	1298	
150000	393	1302	
160000	393	1306	
170000	393	1310	
180000	393	1314	
190000	393	1318	
200000	393	1322	
10000	412.9	1211	
20000	412.9	1219	
30000	412.9	1226	
40000	412.9	1232	
50000	412.9	1239	
60000	412.9	1245	
70000	412.9	1251	
80000	412.9	1256	
90000	412.9	1262	
100000	412.9	1267	
110000	412.9	1272	
120000	412.9	1277	
130000	412.9	1282	
140000	412.9	1286	
150000	412.9	1291	
160000	412.9	1295	
170000	412.9	1299	
180000	412.9	1303	
190000	412.9	1307	
200000	412.9	1311	
10000	432.8	1197	
20000	432.8	1205	
30000	432.8	1212	
40000	432.8	1219	
50000	432.8	1226	
60000	432.8	1232	
70000	432.8	1238	
80000	432.8	1244	
90000	432.8	1250	
100000	432.8	1255	
110000	432.8	1260	
120000	432.8	1265	
130000	432.8	1270	
140000	432.8	1275	
150000	432.8	1279	
160000	432.8	1284	
170000	432.8	1288	
180000	432.8	1292	
190000	432.8	1297	
200000	432.8	1301	
10000	452.5	1183	
20000	452.5	1191	
30000	452.5	1199	
40000	452.5	1206	
50000	452.5	1213	
60000	452.5	1219	
70000	452.5	1226	
80000	452.5	1232	
90000	452.5	1237	
100000	452.5	1243	
110000	452.5	1248	
120000	452.5	1254	
130000	452.5	1259	
140000	452.5	1263	
150000	452.5	1268	
160000	452.5	1273	
170000	452.5	1277	
180000	452.5	1282	
190000	452.5	1286	
200000	452.5	1290	
10000	472.3	1169	
20000	472.3	1177	
30000	472.3	1185	
40000	472.3	1193	
50000	472.3	1200	
60000	472.3	1207	
70000	472.3	1213	
80000	472.3	1220	
90000	472.3	1226	
100000	472.3	1231	
110000	472.3	1237	
120000	472.3	1242	
130000	472.3	1247	
140000	472.3	1253	
150000	472.3	1257	
160000	472.3	1262	
170000	472.3	1267	
180000	472.3	1271	
190000	472.3	1276	
200000	472.3	1280	

System: 1-ethyl-3-methylimidazolium tetrafluoroborate; phases: Liquid
Fixed: Pressure, kPa = 101.325
Property: Mass density, kg/m3 (Liquid); method: Vibrating tube method
Temperature, K	Mass density, kg/m3	uncertainty
293.15	1284.4	
313.15	1269.1	
333.15	1254	
353.15	1239.3	

System: 1-ethyl-3-methylimidazolium tetrafluoroborate; phases: Liquid
Property: Mass density, kg/m3 (Liquid); method: Bellows volumetry
Pressure, kPa	Temperature, K	Mass density, kg/m3	uncertainty
10000	313.2	1274	
20000	313.2	1278	
30000	313.2	1282	
40000	313.2	1287	
50000	313.2	1291	
60000	313.2	1295	
70000	313.2	1299	
80000	313.2	1302	
90000	313.2	1306	
100000	313.2	1310	
110000	313.2	1313	
120000	313.2	1317	
130000	313.2	1320	
140000	313.2	1323	
150000	313.2	1327	
160000	313.2	1330	
170000	313.2	1333	
180000	313.2	1336	
190000	313.2	1339	
200000	313.2	1342	
10000	332.6	1259	
20000	332.6	1264	
30000	332.6	1268	
40000	332.6	1273	
50000	332.6	1277	
60000	332.6	1281	
70000	332.6	1285	
80000	332.6	1289	
90000	332.6	1293	
100000	332.6	1297	
110000	332.6	1300	
120000	332.6	1304	
130000	332.6	1307	
140000	332.6	1311	
150000	332.6	1314	
160000	332.6	1317	
170000	332.6	1321	
180000	332.6	1324	
190000	332.6	1327	
200000	332.6	1330	
10000	352.7	1244	
20000	352.7	1249	
30000	352.7	1254	
40000	352.7	1259	
50000	352.7	1263	
60000	352.7	1267	
70000	352.7	1272	
80000	352.7	1276	
90000	352.7	1280	
100000	352.7	1284	
110000	352.7	1287	
120000	352.7	1291	
130000	352.7	1295	
140000	352.7	1298	
150000	352.7	1302	
160000	352.7	1305	
170000	352.7	1309	
180000	352.7	1312	
190000	352.7	1315	
200000	352.7	1318	
10000	372.8	1230	
20000	372.8	1235	
30000	372.8	1240	
40000	372.8	1245	
50000	372.8	1250	
60000	372.8	1254	
70000	372.8	1258	
80000	372.8	1263	
90000	372.8	1267	
100000	372.8	1271	
110000	372.8	1275	
120000	372.8	1279	
130000	372.8	1282	
140000	372.8	1286	
150000	372.8	1290	
160000	372.8	1293	
170000	372.8	1297	
180000	372.8	1300	
190000	372.8	1303	
200000	372.8	1307	
10000	392.9	1216	
20000	392.9	1221	
30000	392.9	1227	
40000	392.9	1232	
50000	392.9	1237	
60000	392.9	1241	
70000	392.9	1246	
80000	392.9	1250	
90000	392.9	1254	
100000	392.9	1259	
110000	392.9	1263	
120000	392.9	1267	
130000	392.9	1270	
140000	392.9	1274	
150000	392.9	1278	
160000	392.9	1282	
170000	392.9	1285	
180000	392.9	1289	
190000	392.9	1292	
200000	392.9	1295	
10000	413	1202	
20000	413	1208	
30000	413	1213	
40000	413	1219	
50000	413	1224	
60000	413	1229	
70000	413	1233	
80000	413	1238	
90000	413	1242	
100000	413	1247	
110000	413	1251	
120000	413	1255	
130000	413	1259	
140000	413	1263	
150000	413	1267	
160000	413	1270	
170000	413	1274	
180000	413	1278	
190000	413	1281	
200000	413	1285	
10000	432.9	1189	
20000	432.9	1195	
30000	432.9	1200	
40000	432.9	1206	
50000	432.9	1211	
60000	432.9	1216	
70000	432.9	1221	
80000	432.9	1226	
90000	432.9	1230	
100000	432.9	1235	
110000	432.9	1239	
120000	432.9	1243	
130000	432.9	1247	
140000	432.9	1252	
150000	432.9	1255	
160000	432.9	1259	
170000	432.9	1263	
180000	432.9	1267	
190000	432.9	1270	
200000	432.9	1274	
10000	452.6	1176	
20000	452.6	1182	
30000	452.6	1188	
40000	452.6	1193	
50000	452.6	1199	
60000	452.6	1204	
70000	452.6	1209	
80000	452.6	1214	
90000	452.6	1219	
100000	452.6	1223	
110000	452.6	1228	
120000	452.6	1232	
130000	452.6	1236	
140000	452.6	1240	
150000	452.6	1245	
160000	452.6	1248	
170000	452.6	1252	
180000	452.6	1256	
190000	452.6	1260	
200000	452.6	1264	
10000	472.4	1163	
20000	472.4	1169	
30000	472.4	1175	
40000	472.4	1181	
50000	472.4	1187	
60000	472.4	1192	
70000	472.4	1197	
80000	472.4	1202	
90000	472.4	1207	
100000	472.4	1212	
110000	472.4	1217	
120000	472.4	1221	
130000	472.4	1226	
140000	472.4	1230	
150000	472.4	1234	
160000	472.4	1238	
170000	472.4	1242	
180000	472.4	1246	
190000	472.4	1250	
200000	472.4	1253	

System: 1-hexyl-3-methylimidazolium tetrafluoroborate; phases: Liquid
Fixed: Pressure, kPa = 101.325
Property: Mass density, kg/m3 (Liquid); method: Vibrating tube method
Temperature, K	Mass density, kg/m3	uncertainty
293.15	1148.5	
313.15	1134.7	
333.15	1121	
353.15	1107.6	

System: 1-hexyl-3-methylimidazolium tetrafluoroborate; phases: Liquid
Property: Mass density, kg/m3 (Liquid); method: Bellows volumetry
Pressure, kPa	Temperature, K	Mass density, kg/m3	uncertainty
10000	313.3	1139	
20000	313.3	1144	
30000	313.3	1149	
40000	313.3	1154	
50000	313.3	1158	
60000	313.3	1162	
70000	313.3	1167	
80000	313.3	1171	
90000	313.3	1174	
100000	313.3	1178	
110000	313.3	1182	
120000	313.3	1186	
130000	313.3	1189	
140000	313.3	1193	
150000	313.3	1196	
160000	313.3	1199	
170000	313.3	1202	
180000	313.3	1206	
190000	313.3	1209	
200000	313.3	1212	
10000	332.5	1126	
20000	332.5	1131	
30000	332.5	1136	
40000	332.5	1141	
50000	332.5	1146	
60000	332.5	1150	
70000	332.5	1154	
80000	332.5	1159	
90000	332.5	1163	
100000	332.5	1167	
110000	332.5	1170	
120000	332.5	1174	
130000	332.5	1178	
140000	332.5	1181	
150000	332.5	1185	
160000	332.5	1188	
170000	332.5	1192	
180000	332.5	1195	
190000	332.5	1198	
200000	332.5	1201	
10000	352.6	1113	
20000	352.6	1118	
30000	352.6	1123	
40000	352.6	1128	
50000	352.6	1133	
60000	352.6	1138	
70000	352.6	1142	
80000	352.6	1147	
90000	352.6	1151	
100000	352.6	1155	
110000	352.6	1159	
120000	352.6	1163	
130000	352.6	1167	
140000	352.6	1170	
150000	352.6	1174	
160000	352.6	1177	
170000	352.6	1181	
180000	352.6	1184	
190000	352.6	1187	
200000	352.6	1191	
10000	372.7	1099	
20000	372.7	1105	
30000	372.7	1111	
40000	372.7	1116	
50000	372.7	1121	
60000	372.7	1126	
70000	372.7	1131	
80000	372.7	1135	
90000	372.7	1139	
100000	372.7	1144	
110000	372.7	1148	
120000	372.7	1152	
130000	372.7	1156	
140000	372.7	1160	
150000	372.7	1163	
160000	372.7	1167	
170000	372.7	1170	
180000	372.7	1174	
190000	372.7	1177	
200000	372.7	1180	
10000	393	1087	
20000	393	1093	
30000	393	1098	
40000	393	1104	
50000	393	1109	
60000	393	1114	
70000	393	1119	
80000	393	1124	
90000	393	1128	
100000	393	1133	
110000	393	1137	
120000	393	1141	
130000	393	1145	
140000	393	1149	
150000	393	1153	
160000	393	1157	
170000	393	1160	
180000	393	1164	
190000	393	1167	
200000	393	1171	
10000	413	1074	
20000	413	1080	
30000	413	1086	
40000	413	1092	
50000	413	1098	
60000	413	1103	
70000	413	1108	
80000	413	1113	
90000	413	1118	
100000	413	1122	
110000	413	1126	
120000	413	1131	
130000	413	1135	
140000	413	1139	
150000	413	1143	
160000	413	1147	
170000	413	1150	
180000	413	1154	
190000	413	1158	
200000	413	1161	
10000	432.9	1062	
20000	432.9	1068	
30000	432.9	1075	
40000	432.9	1081	
50000	432.9	1086	
60000	432.9	1092	
70000	432.9	1097	
80000	432.9	1102	
90000	432.9	1107	
100000	432.9	1112	
110000	432.9	1116	
120000	432.9	1121	
130000	432.9	1125	
140000	432.9	1129	
150000	432.9	1133	
160000	432.9	1137	
170000	432.9	1141	
180000	432.9	1145	
190000	432.9	1148	
200000	432.9	1152	
10000	452.6	1049	
20000	452.6	1056	
30000	452.6	1063	
40000	452.6	1069	
50000	452.6	1075	
60000	452.6	1081	
70000	452.6	1086	
80000	452.6	1092	
90000	452.6	1097	
100000	452.6	1101	
110000	452.6	1106	
120000	452.6	1111	
130000	452.6	1115	
140000	452.6	1119	
150000	452.6	1123	
160000	452.6	1128	
170000	452.6	1131	
180000	452.6	1135	
190000	452.6	1139	
200000	452.6	1143	
10000	472.5	1037	
20000	472.5	1045	
30000	472.5	1052	
40000	472.5	1058	
50000	472.5	1064	
60000	472.5	1070	
70000	472.5	1076	
80000	472.5	1081	
90000	472.5	1087	
100000	472.5	1092	
110000	472.5	1096	
120000	472.5	1101	
130000	472.5	1105	
140000	472.5	1110	
150000	472.5	1114	
160000	472.5	1118	
170000	472.5	1122	
180000	472.5	1126	
190000	472.5	1130	
200000	472.5	1134	

System: 1-octyl-3-methylimidazolium hexafluorophosphate; phases: Liquid
Fixed: Pressure, kPa = 101.325
Property: Mass density, kg/m3 (Liquid); method: Vibrating tube method
Temperature, K	Mass density, kg/m3	uncertainty
293.15	1240.8	
313.15	1225	
333.15	1210	
353.15	1195.2	

System: 1-octyl-3-methylimidazolium hexafluorophosphate; phases: Liquid
Property: Mass density, kg/m3 (Liquid); method: Bellows volumetry
Pressure, kPa	Temperature, K	Mass density, kg/m3	uncertainty
10000	312.8	1230	
20000	312.8	1236	
30000	312.8	1241	
40000	312.8	1247	
50000	312.8	1252	
60000	312.8	1257	
70000	312.8	1261	
80000	312.8	1266	
90000	312.8	1270	
100000	312.8	1275	
110000	312.8	1279	
120000	312.8	1283	
130000	312.8	1287	
140000	312.8	1291	
150000	312.8	1294	
160000	312.8	1298	
170000	312.8	1302	
180000	312.8	1305	
190000	312.8	1309	
200000	312.8	1312	
10000	332.6	1215	
20000	332.6	1221	
30000	332.6	1227	
40000	332.6	1233	
50000	332.6	1238	
60000	332.6	1243	
70000	332.6	1248	
80000	332.6	1253	
90000	332.6	1257	
100000	332.6	1262	
110000	332.6	1266	
120000	332.6	1270	
130000	332.6	1274	
140000	332.6	1278	
150000	332.6	1282	
160000	332.6	1286	
170000	332.6	1290	
180000	332.6	1293	
190000	332.6	1297	
200000	332.6	1300	
10000	352.6	1200	
20000	352.6	1207	
30000	352.6	1213	
40000	352.6	1219	
50000	352.6	1224	
60000	352.6	1230	
70000	352.6	1235	
80000	352.6	1240	
90000	352.6	1245	
100000	352.6	1249	
110000	352.6	1254	
120000	352.6	1258	
130000	352.6	1262	
140000	352.6	1266	
150000	352.6	1270	
160000	352.6	1274	
170000	352.6	1278	
180000	352.6	1282	
190000	352.6	1286	
200000	352.6	1289	
10000	372.8	1186	
20000	372.8	1193	
30000	372.8	1199	
40000	372.8	1205	
50000	372.8	1211	
60000	372.8	1217	
70000	372.8	1222	
80000	372.8	1227	
90000	372.8	1232	
100000	372.8	1237	
110000	372.8	1242	
120000	372.8	1246	
130000	372.8	1250	
140000	372.8	1255	
150000	372.8	1259	
160000	372.8	1263	
170000	372.8	1267	
180000	372.8	1271	
190000	372.8	1274	
200000	372.8	1278	
10000	392.8	1171	
20000	392.8	1179	
30000	392.8	1186	
40000	392.8	1192	
50000	392.8	1198	
60000	392.8	1204	
70000	392.8	1209	
80000	392.8	1215	
90000	392.8	1220	
100000	392.8	1225	
110000	392.8	1230	
120000	392.8	1235	
130000	392.8	1239	
140000	392.8	1243	
150000	392.8	1248	
160000	392.8	1252	
170000	392.8	1256	
180000	392.8	1260	
190000	392.8	1264	
200000	392.8	1268	
10000	413	1157	
20000	413	1165	
30000	413	1172	
40000	413	1179	
50000	413	1185	
60000	413	1191	
70000	413	1197	
80000	413	1203	
90000	413	1208	
100000	413	1213	
110000	413	1218	
120000	413	1223	
130000	413	1228	
140000	413	1232	
150000	413	1237	
160000	413	1241	
170000	413	1245	
180000	413	1249	
190000	413	1253	
200000	413	1257	
10000	432.7	1144	
20000	432.7	1152	
30000	432.7	1159	
40000	432.7	1166	
50000	432.7	1173	
60000	432.7	1179	
70000	432.7	1185	
80000	432.7	1191	
90000	432.7	1197	
100000	432.7	1202	
110000	432.7	1207	
120000	432.7	1212	
130000	432.7	1217	
140000	432.7	1222	
150000	432.7	1226	
160000	432.7	1231	
170000	432.7	1235	
180000	432.7	1239	
190000	432.7	1243	
200000	432.7	1247	
10000	452.5	1130	
20000	452.5	1138	
30000	452.5	1146	
40000	452.5	1153	
50000	452.5	1160	
60000	452.5	1167	
70000	452.5	1173	
80000	452.5	1179	
90000	452.5	1185	
100000	452.5	1191	
110000	452.5	1196	
120000	452.5	1201	
130000	452.5	1206	
140000	452.5	1211	
150000	452.5	1216	
160000	452.5	1220	
170000	452.5	1225	
180000	452.5	1229	
190000	452.5	1233	
200000	452.5	1237	
10000	472.3	1116	
20000	472.3	1125	
30000	472.3	1133	
40000	472.3	1141	
50000	472.3	1148	
60000	472.3	1155	
70000	472.3	1162	
80000	472.3	1168	
90000	472.3	1174	
100000	472.3	1180	
110000	472.3	1185	
120000	472.3	1191	
130000	472.3	1196	
140000	472.3	1201	
150000	472.3	1205	
160000	472.3	1210	
170000	472.3	1215	
180000	472.3	1219	
190000	472.3	1223	
200000	472.3	1228	
