Measured thermophysical data. Experimental Vapor Pressures of 2-Phenylethylamine, Benzylamine, Triethylamine, and cis-2,6-Dimethylpiperidine  in the Range between 0.2 Pa and 75 kPa
Source: J. Chem. Eng. Data, 2009, 10.1021/je800603z
Compound 1: benzylamine, C7H9N
Compound 2: triethylamine, C6H15N
Compound 3: 2-phenylethylamine, C8H11N
Compound 4: piperidine, 2,6-dimethyl-, cis-, C7H15N

System: benzylamine; phases: Liquid, Gas
Property: Vapor or sublimation pressure, kPa (Liquid); method: Closed cell (Static) method
Temperature, K	Vapor or sublimation pressure, kPa	uncertainty
292.74	.0622	.003
302.68	.13	.003
312.69	.259	.003
322.67	.494	.003
332.7	.878	.001
342.68	1.523	.0003
352.67	2.512	.0003
362.67	4.071	.0003

System: triethylamine; phases: Liquid, Gas
Property: Vapor or sublimation pressure, kPa (Liquid); method: Closed cell (Static) method
Temperature, K	Vapor or sublimation pressure, kPa	uncertainty
273.04	2.456	.0003
292.87	7.014	.0003
312.82	17.433	.0003
332.78	38.045	.0003
352.77	74.941	.0003

System: 2-phenylethylamine; phases: Liquid, Gas
Property: Vapor or sublimation pressure, kPa (Liquid); method: Closed cell (Static) method
Temperature, K	Vapor or sublimation pressure, kPa	uncertainty
273.26	.00557	.003
283.18	.0135	.003
293.12	.031	.003
303.06	.0657	.003
313.07	.133	.003
323.06	.257	.003
333.11	.476	.003
343.08	.839	.001
351.79	1.333	.0003

System: piperidine, 2,6-dimethyl-, cis-; phases: Liquid, Gas
Property: Vapor or sublimation pressure, kPa (Liquid); method: Closed cell (Static) method
Temperature, K	Vapor or sublimation pressure, kPa	uncertainty
294.8	1.558	.0003
304.79	2.68	.0003
314.76	4.415	.0003
324.78	7.037	.0003
334.94	10.916	.0003
344.96	16.773	.0003
354.98	24.532	.0003
365	34.944	.0003
