Measured thermophysical data. Densities, Viscosities, Refractive Indices, and Surface Tensions for the Mixtures of  1,3-Dioxolane + 2-Propanol or + 2,2,4-Trimethylpentane at (288.15, 298.15, and  308.15) K and 1,3-Dioxolane + 2-Propanol + 2,2,4-Trimethylpentane at 298.15 K
Source: J. Chem. Eng. Data, 2009, 10.1021/je800664z
Compound 1: 1,3-dioxolane, C3H6O2, purity 99.5%
Compound 2: 2-propanol, C3H8O, purity 99.5%
Compound 3: 2,2,4-trimethylpentane, C8H18, purity 99.7%

System: 1,3-dioxolane; phases: Liquid
Property: Mass density, kg/m3 (Liquid); method: Vibrating tube method
Temperature, K	Pressure, kPa	Mass density, kg/m3	uncertainty
288.15	101	1071.24	.03
298.15	101	1059.29	.03
308.15	101	1046.85	.03

System: 1,3-dioxolane; phases: Liquid
Property: Viscosity, Pa*s (Liquid); method: Falling or rolling sphere viscometry
Temperature, K	Pressure, kPa	Viscosity, Pa*s	uncertainty
288.15	101	.000667	.000004
298.15	101	.000596	.000004
308.15	101	.000535	.000004

System: 1,3-dioxolane; phases: Liquid
Fixed: Pressure, kPa = 101.325
Property: Refractive index (Na D-line) (Liquid); method: Standard Abbe refractometry
Temperature, K	Refractive index (Na D-line)	uncertainty
288.15	1.40252	.00005
298.15	1.39795	.00005
308.15	1.39322	.00005

System: 1,3-dioxolane; phases: Liquid, Air at 1 atmosphere
Property: Surface tension liquid-gas, N/m (Liquid); method: Capillary rise
Temperature, K	Surface tension liquid-gas, N/m	uncertainty
288.15	.03437	.00005
298.15	.03255	.00005
308.15	.03067	.00005

System: 2-propanol; phases: Liquid
Property: Mass density, kg/m3 (Liquid); method: Vibrating tube method
Temperature, K	Pressure, kPa	Mass density, kg/m3	uncertainty
288.15	101	789.53	.03
298.15	101	781.16	.03
308.15	101	772.52	.03

System: 2-propanol; phases: Liquid
Property: Viscosity, Pa*s (Liquid); method: Falling or rolling sphere viscometry
Temperature, K	Pressure, kPa	Viscosity, Pa*s	uncertainty
288.15	101	.002849	.000004
298.15	101	.002043	.000004
308.15	101	.001541	.000004

System: 2-propanol; phases: Liquid
Fixed: Pressure, kPa = 101.325
Property: Refractive index (Na D-line) (Liquid); method: Standard Abbe refractometry
Temperature, K	Refractive index (Na D-line)	uncertainty
288.15	1.37933	.00005
298.15	1.37515	.00005
308.15	1.37061	.00005

System: 2-propanol; phases: Liquid, Air at 1 atmosphere
Property: Surface tension liquid-gas, N/m (Liquid); method: Capillary rise
Temperature, K	Surface tension liquid-gas, N/m	uncertainty
288.15	.02175	.00005
298.15	.0209	.00005
308.15	.02017	.00005

System: 2,2,4-trimethylpentane; phases: Liquid
Property: Mass density, kg/m3 (Liquid); method: Vibrating tube method
Temperature, K	Pressure, kPa	Mass density, kg/m3	uncertainty
288.15	101	696.1	.03
298.15	101	687.95	.03
308.15	101	679.62	.03

System: 2,2,4-trimethylpentane; phases: Liquid
Property: Viscosity, Pa*s (Liquid); method: Falling or rolling sphere viscometry
Temperature, K	Pressure, kPa	Viscosity, Pa*s	uncertainty
288.15	101	.000537	.000004
298.15	101	.000481	.000004
308.15	101	.000434	.000004

System: 2,2,4-trimethylpentane; phases: Liquid
Fixed: Pressure, kPa = 101.325
Property: Refractive index (Na D-line) (Liquid); method: Standard Abbe refractometry
Temperature, K	Refractive index (Na D-line)	uncertainty
288.15	1.39408	.00005
298.15	1.38916	.00005
308.15	1.38497	.00005

System: 2,2,4-trimethylpentane; phases: Liquid, Air at 1 atmosphere
Property: Surface tension liquid-gas, N/m (Liquid); method: Capillary rise
Temperature, K	Surface tension liquid-gas, N/m	uncertainty
288.15	.01918	.00005
298.15	.01833	.00005
308.15	.01735	.00005

System: 2-propanol + 1,3-dioxolane; phases: Liquid
Fixed: Pressure, kPa = 101
Property: Mass density, kg/m3 (Liquid); method: Vibrating tube method
Temperature, K	Mole fraction of 1,3-dioxolane	Mass density, kg/m3	uncertainty
288.15	0	789.53	.03
288.15	.05	802.01	.03
288.15	.1	814.65	.03
288.15	.15	827.45	.03
288.15	.2	840.43	.03
288.15	.25	853.56	.03
288.15	.3001	866.86	.03
288.15	.35	880.33	.03
288.15	.4	893.96	.03
288.15	.45	907.75	.03
288.15	.5	921.7	.03
288.15	.55	935.82	.03
288.15	.6	950.11	.03
288.15	.65	964.58	.03
288.15	.7001	979.2	.03
288.15	.75	994.01	.03
288.15	.8	1009	.03
288.15	.85	1024.2	.03
288.15	.9	1039.61	.03
288.15	.95	1055.25	.03
288.15	1	1071.24	.03
298.15	0	781.16	.03
298.15	.05	793.33	.03
298.15	.1	805.66	.03
298.15	.15	818.26	.03
298.15	.2	831.03	.03
298.15	.25	843.97	.03
298.15	.3001	857.09	.03
298.15	.35	870.34	.03
298.15	.4	883.74	.03
298.15	.45	897.31	.03
298.15	.5	911.08	.03
298.15	.55	925.02	.03
298.15	.6	939.14	.03
298.15	.65	953.43	.03
298.15	.7001	967.87	.03
298.15	.75	982.51	.03
298.15	.8	997.36	.03
298.15	.85	1012.38	.03
298.15	.9	1027.67	.03
298.15	.95	1043.29	.03
298.15	1	1059.29	.03
308.15	0	772.52	.03
308.15	.05	784.33	.03
308.15	.1	796.38	.03
308.15	.15	808.69	.03
308.15	.2	821.18	.03
308.15	.25	833.89	.03
308.15	.3001	846.77	.03
308.15	.35	859.8	.03
308.15	.4	873.01	.03
308.15	.45	886.41	.03
308.15	.5	899.98	.03
308.15	.55	913.73	.03
308.15	.6	927.66	.03
308.15	.65	941.79	.03
308.15	.7001	956.09	.03
308.15	.75	970.57	.03
308.15	.8	985.26	.03
308.15	.85	1000.13	.03
308.15	.9	1015.21	.03
308.15	.95	1030.71	.03
308.15	1	1046.85	.03

System: 2-propanol + 1,3-dioxolane; phases: Liquid
Fixed: Pressure, kPa = 101
Property: Viscosity, Pa*s (Liquid); method: Falling or rolling sphere viscometry
Temperature, K	Mole fraction of 1,3-dioxolane	Viscosity, Pa*s	uncertainty
288.15	0	.002849	.000004
288.15	.05	.002285	.000004
288.15	.1	.001846	.000004
288.15	.15	.001564	.000004
288.15	.2	.001371	.000004
288.15	.25	.001221	.000004
288.15	.3001	.001105	.000004
288.15	.35	.001012	.000004
288.15	.4	.000934	.000004
288.15	.45	.000874	.000004
288.15	.5	.000823	.000004
288.15	.55	.000779	.000004
288.15	.6	.000745	.000004
288.15	.65	.000719	.000004
288.15	.7001	.000697	.000004
288.15	.75	.000682	.000004
288.15	.8	.000671	.000004
288.15	.85	.000657	.000004
288.15	.9	.000636	.000004
288.15	.95	.000635	.000004
288.15	1	.000667	.000004
298.15	0	.002043	.000004
298.15	.05	.00169	.000004
298.15	.1	.001429	.000004
298.15	.15	.001237	.000004
298.15	.2	.001099	.000004
298.15	.25	.000992	.000004
298.15	.3001	.000908	.000004
298.15	.35	.00084	.000004
298.15	.4	.000784	.000004
298.15	.45	.00074	.000004
298.15	.5	.00072	.000004
298.15	.55	.000671	.000004
298.15	.6	.000645	.000004
298.15	.65	.000626	.000004
298.15	.7001	.000611	.000004
298.15	.75	.000599	.000004
298.15	.8	.000592	.000004
298.15	.85	.000587	.000004
298.15	.9	.000585	.000004
298.15	.95	.000587	.000004
298.15	1	.000596	.000004
308.15	0	.001541	.000004
308.15	.05	.001299	.000004
308.15	.1	.001126	.000004
308.15	.15	.000999	.000004
308.15	.2	.000895	.000004
308.15	.25	.000817	.000004
308.15	.3001	.000756	.000004
308.15	.35	.000706	.000004
308.15	.4	.000667	.000004
308.15	.45	.000637	.000004
308.15	.5	.000609	.000004
308.15	.55	.000586	.000004
308.15	.6	.000568	.000004
308.15	.65	.000555	.000004
308.15	.7001	.000542	.000004
308.15	.75	.000531	.000004
308.15	.8	.000525	.000004
308.15	.85	.00052	.000004
308.15	.9	.000519	.000004
308.15	.95	.000523	.000004
308.15	1	.000535	.000004

System: 2-propanol + 1,3-dioxolane; phases: Liquid
Fixed: Pressure, kPa = 101
Property: Refractive index (Na D-line) (Liquid); method: Standard Abbe refractometry
Temperature, K	Mole fraction of 1,3-dioxolane	Refractive index (Na D-line)	uncertainty
288.15	0	1.37933	.00005
288.15	.05	1.38037	.00005
288.15	.1	1.38139	.00005
288.15	.15	1.38242	.00005
288.15	.2	1.38343	.00005
288.15	.25	1.38447	.00005
288.15	.3001	1.3855	.00005
288.15	.35	1.38655	.00005
288.15	.4	1.38763	.00005
288.15	.45	1.38875	.00005
288.15	.5	1.3899	.00005
288.15	.55	1.39107	.00005
288.15	.6	1.39227	.00005
288.15	.65	1.39348	.00005
288.15	.7001	1.39473	.00005
288.15	.75	1.396	.00005
288.15	.8	1.39731	.00005
288.15	.85	1.39862	.00005
288.15	.9	1.39993	.00005
288.15	.95	1.40123	.00005
288.15	1	1.40252	.00005
298.15	0	1.37515	.00005
298.15	.05	1.37601	.00005
298.15	.1	1.37686	.00005
298.15	.15	1.37776	.00005
298.15	.2	1.37869	.00005
298.15	.25	1.37966	.00005
298.15	.3001	1.38065	.00005
298.15	.35	1.38168	.00005
298.15	.4	1.38274	.00005
298.15	.45	1.38384	.00005
298.15	.5	1.38496	.00005
298.15	.55	1.38611	.00005
298.15	.6	1.38729	.00005
298.15	.65	1.3885	.00005
298.15	.7001	1.38975	.00005
298.15	.75	1.39103	.00005
298.15	.8	1.39234	.00005
298.15	.85	1.39368	.00005
298.15	.9	1.39509	.00005
298.15	.95	1.39653	.00005
298.15	1	1.39795	.00005
308.15	0	1.37061	.00005
308.15	.05	1.37126	.00005
308.15	.1	1.37207	.00005
308.15	.15	1.37295	.00005
308.15	.2	1.37388	.00005
308.15	.25	1.37483	.00005
308.15	.3001	1.37579	.00005
308.15	.35	1.3768	.00005
308.15	.4	1.37785	.00005
308.15	.45	1.37894	.00005
308.15	.5	1.38006	.00005
308.15	.55	1.38121	.00005
308.15	.6	1.38238	.00005
308.15	.65	1.38359	.00005
308.15	.7001	1.38483	.00005
308.15	.75	1.38608	.00005
308.15	.8	1.38737	.00005
308.15	.85	1.38872	.00005
308.15	.9	1.39013	.00005
308.15	.95	1.39165	.00005
308.15	1	1.39322	.00005

System: 2-propanol + 1,3-dioxolane; phases: Liquid, Air at 1 atmosphere
Property: Surface tension liquid-gas, N/m (Liquid); method: Capillary rise
Temperature, K	Mole fraction of 1,3-dioxolane	Surface tension liquid-gas, N/m	uncertainty
288.15	0	.02175	.00005
288.15	.05	.02198	.00005
288.15	.1	.02223	.00005
288.15	.15	.02253	.00005
288.15	.2	.02285	.00005
288.15	.25	.0232	.00005
288.15	.3001	.02357	.00005
288.15	.35	.02395	.00005
288.15	.4	.02438	.00005
288.15	.45	.02483	.00005
288.15	.5	.02532	.00005
288.15	.55	.02585	.00005
288.15	.6	.02643	.00005
288.15	.65	.02705	.00005
288.15	.7001	.02775	.00005
288.15	.75	.02857	.00005
288.15	.8	.02947	.00005
288.15	.85	.0305	.00005
288.15	.9	.03163	.00005
288.15	.95	.03295	.00005
288.15	1	.03437	.00005
298.15	0	.0209	.00005
298.15	.05	.02122	.00005
298.15	.1	.02152	.00005
298.15	.15	.0218	.00005
298.15	.2	.0221	.00005
298.15	.25	.0224	.00005
298.15	.3001	.02275	.00005
298.15	.35	.02312	.00005
298.15	.4	.0235	.00005
298.15	.45	.02393	.00005
298.15	.5	.02442	.00005
298.15	.55	.02492	.00005
298.15	.6	.02548	.00005
298.15	.65	.0261	.00005
298.15	.7001	.02677	.00005
298.15	.75	.02753	.00005
298.15	.8	.02838	.00005
298.15	.85	.02933	.00005
298.15	.9	.03037	.00005
298.15	.95	.03143	.00005
298.15	1	.03255	.00005
308.15	0	.02017	.00005
308.15	.05	.02048	.00005
308.15	.1	.0208	.00005
308.15	.15	.0211	.00005
308.15	.2	.02142	.00005
308.15	.25	.0217	.00005
308.15	.3001	.022	.00005
308.15	.35	.02233	.00005
308.15	.4	.0227	.00005
308.15	.45	.02312	.00005
308.15	.5	.02355	.00005
308.15	.55	.02403	.00005
308.15	.6	.02455	.00005
308.15	.65	.02515	.00005
308.15	.7001	.0258	.00005
308.15	.75	.0265	.00005
308.15	.8	.02728	.00005
308.15	.85	.0281	.00005
308.15	.9	.02895	.00005
308.15	.95	.02982	.00005
308.15	1	.03067	.00005

System: 2,2,4-trimethylpentane + 1,3-dioxolane; phases: Liquid
Fixed: Pressure, kPa = 101
Property: Mass density, kg/m3 (Liquid); method: Vibrating tube method
Temperature, K	Mole fraction of 1,3-dioxolane	Mass density, kg/m3	uncertainty
288.15	0	696.1	.03
288.15	.0501	704.03	.03
288.15	.1	712.38	.03
288.15	.15	721.22	.03
288.15	.2	730.61	.03
288.15	.25	740.66	.03
288.15	.3	751.51	.03
288.15	.35	763.25	.03
288.15	.4	775.92	.03
288.15	.45	789.66	.03
288.15	.5	804.59	.03
288.15	.55	820.88	.03
288.15	.6	838.7	.03
288.15	.65	858.32	.03
288.15	.7	879.84	.03
288.15	.75	903.63	.03
288.15	.8	929.95	.03
288.15	.85	959.26	.03
288.15	.9	992.11	.03
288.15	.95	1029.19	.03
288.15	1	1071.24	.03
298.15	0	687.95	.03
298.15	.0501	695.41	.03
298.15	.1	703.47	.03
298.15	.15	712.11	.03
298.15	.2	721.42	.03
298.15	.25	731.37	.03
298.15	.3	742.15	.03
298.15	.35	753.76	.03
298.15	.4	766.31	.03
298.15	.45	779.89	.03
298.15	.5	794.63	.03
298.15	.55	810.69	.03
298.15	.6	828.25	.03
298.15	.65	847.56	.03
298.15	.7	868.87	.03
298.15	.75	892.42	.03
298.15	.8	918.53	.03
298.15	.85	947.66	.03
298.15	.9	980.35	.03
298.15	.95	1017.39	.03
298.15	1	1059.29	.03
308.15	0	679.62	.03
308.15	.0501	686.72	.03
308.15	.1	694.59	.03
308.15	.15	703.08	.03
308.15	.2	712.28	.03
308.15	.25	722.16	.03
308.15	.3	732.81	.03
308.15	.35	744.31	.03
308.15	.4	756.72	.03
308.15	.45	770.11	.03
308.15	.5	784.66	.03
308.15	.55	800.5	.03
308.15	.6	817.8	.03
308.15	.65	836.8	.03
308.15	.7	857.72	.03
308.15	.75	880.96	.03
308.15	.8	906.76	.03
308.15	.85	935.7	.03
308.15	.9	968.03	.03
308.15	.95	1004.78	.03
308.15	1	1046.85	.03

System: 2,2,4-trimethylpentane + 1,3-dioxolane; phases: Liquid
Fixed: Pressure, kPa = 101
Property: Viscosity, Pa*s (Liquid); method: Falling or rolling sphere viscometry
Temperature, K	Mole fraction of 1,3-dioxolane	Viscosity, Pa*s	uncertainty
288.15	0	.000537	.000004
288.15	.0501	.000529	.000004
288.15	.1	.000528	.000004
288.15	.15	.000527	.000004
288.15	.2	.000527	.000004
288.15	.25	.000528	.000004
288.15	.3	.000532	.000004
288.15	.35	.000536	.000004
288.15	.4	.000541	.000004
288.15	.45	.000547	.000004
288.15	.5	.000554	.000004
288.15	.55	.000561	.000004
288.15	.6	.000568	.000004
288.15	.65	.000576	.000004
288.15	.7	.000585	.000004
288.15	.75	.000595	.000004
288.15	.8	.000605	.000004
288.15	.85	.000617	.000004
288.15	.9	.000632	.000004
288.15	.95	.000651	.000004
288.15	1	.000667	.000004
298.15	0	.000481	.000004
298.15	.0501	.00048	.000004
298.15	.1	.000478	.000004
298.15	.15	.000478	.000004
298.15	.2	.000479	.000004
298.15	.25	.000479	.000004
298.15	.3	.00048	.000004
298.15	.35	.000483	.000004
298.15	.4	.000487	.000004
298.15	.45	.000492	.000004
298.15	.5	.000498	.000004
298.15	.55	.000504	.000004
298.15	.6	.000511	.000004
298.15	.65	.000519	.000004
298.15	.7	.000527	.000004
298.15	.75	.000536	.000004
298.15	.8	.000546	.000004
298.15	.85	.000557	.000004
298.15	.9	.000571	.000004
298.15	.95	.000584	.000004
298.15	1	.000596	.000004
308.15	0	.000434	.000004
308.15	.0501	.000431	.000004
308.15	.1	.000432	.000004
308.15	.15	.000432	.000004
308.15	.2	.000433	.000004
308.15	.25	.000433	.000004
308.15	.3	.000433	.000004
308.15	.35	.000434	.000004
308.15	.4	.000438	.000004
308.15	.45	.000442	.000004
308.15	.5	.000447	.000004
308.15	.55	.000453	.000004
308.15	.6	.00046	.000004
308.15	.65	.000467	.000004
308.15	.7	.000475	.000004
308.15	.75	.000484	.000004
308.15	.8	.000494	.000004
308.15	.85	.000505	.000004
308.15	.9	.000515	.000004
308.15	.95	.000526	.000004
308.15	1	.000535	.000004

System: 2,2,4-trimethylpentane + 1,3-dioxolane; phases: Liquid
Fixed: Pressure, kPa = 101
Property: Refractive index (Na D-line) (Liquid); method: Standard Abbe refractometry
Temperature, K	Mole fraction of 1,3-dioxolane	Refractive index (Na D-line)	uncertainty
288.15	0	1.39408	.00005
288.15	.0501	1.39395	.00005
288.15	.1	1.39385	.00005
288.15	.15	1.39377	.00005
288.15	.2	1.39374	.00005
288.15	.25	1.39378	.00005
288.15	.3	1.39389	.00005
288.15	.35	1.39411	.00005
288.15	.4	1.3944	.00005
288.15	.45	1.39473	.00005
288.15	.5	1.39512	.00005
288.15	.55	1.39558	.00005
288.15	.6	1.3961	.00005
288.15	.65	1.39668	.00005
288.15	.7	1.39734	.00005
288.15	.75	1.39807	.00005
288.15	.8	1.39883	.00005
288.15	.85	1.39966	.00005
288.15	.9	1.40055	.00005
288.15	.95	1.40152	.00005
288.15	1	1.40252	.00005
298.15	0	1.38916	.00005
298.15	.0501	1.38898	.00005
298.15	.1	1.38885	.00005
298.15	.15	1.38876	.00005
298.15	.2	1.38876	.00005
298.15	.25	1.38883	.00005
298.15	.3	1.38897	.00005
298.15	.35	1.3892	.00005
298.15	.4	1.38948	.00005
298.15	.45	1.38982	.00005
298.15	.5	1.39022	.00005
298.15	.55	1.39068	.00005
298.15	.6	1.3912	.00005
298.15	.65	1.39178	.00005
298.15	.7	1.39243	.00005
298.15	.75	1.39318	.00005
298.15	.8	1.39399	.00005
298.15	.85	1.39487	.00005
298.15	.9	1.39581	.00005
298.15	.95	1.39683	.00005
298.15	1	1.39795	.00005
308.15	0	1.38497	.00005
308.15	.0501	1.38381	.00005
308.15	.1	1.38367	.00005
308.15	.15	1.38361	.00005
308.15	.2	1.3836	.00005
308.15	.25	1.3837	.00005
308.15	.3	1.38387	.00005
308.15	.35	1.3841	.00005
308.15	.4	1.3844	.00005
308.15	.45	1.38476	.00005
308.15	.5	1.38517	.00005
308.15	.55	1.38563	.00005
308.15	.6	1.38614	.00005
308.15	.65	1.38672	.00005
308.15	.7	1.38739	.00005
308.15	.75	1.38814	.00005
308.15	.8	1.38895	.00005
308.15	.85	1.38987	.00005
308.15	.9	1.3909	.00005
308.15	.95	1.39199	.00005
308.15	1	1.39322	.00005

System: 2,2,4-trimethylpentane + 1,3-dioxolane; phases: Liquid, Air at 1 atmosphere
Property: Surface tension liquid-gas, N/m (Liquid); method: Capillary rise
Temperature, K	Mole fraction of 1,3-dioxolane	Surface tension liquid-gas, N/m	uncertainty
288.15	0	.01918	.00005
288.15	.0501	.01937	.00005
288.15	.1	.01955	.00005
288.15	.15	.0197	.00005
288.15	.2	.01983	.00005
288.15	.25	.01997	.00005
288.15	.3	.02008	.00005
288.15	.35	.02022	.00005
288.15	.4	.02038	.00005
288.15	.45	.02057	.00005
288.15	.5	.02078	.00005
288.15	.55	.02102	.00005
288.15	.6	.02132	.00005
288.15	.65	.02163	.00005
288.15	.7	.022	.00005
288.15	.75	.02243	.00005
288.15	.8	.023	.00005
288.15	.85	.02385	.00005
288.15	.9	.02535	.00005
288.15	.95	.02833	.00005
288.15	1	.03437	.00005
298.15	0	.01833	.00005
298.15	.0501	.01857	.00005
298.15	.1	.01875	.00005
298.15	.15	.01892	.00005
298.15	.2	.01907	.00005
298.15	.25	.0192	.00005
298.15	.3	.01933	.00005
298.15	.35	.01947	.00005
298.15	.4	.01963	.00005
298.15	.45	.01982	.00005
298.15	.5	.02003	.00005
298.15	.55	.0203	.00005
298.15	.6	.0206	.00005
298.15	.65	.02093	.00005
298.15	.7	.02132	.00005
298.15	.75	.0218	.00005
298.15	.8	.0224	.00005
298.15	.85	.02332	.00005
298.15	.9	.0249	.00005
298.15	.95	.0276	.00005
298.15	1	.03255	.00005
308.15	0	.01735	.00005
308.15	.0501	.01758	.00005
308.15	.1	.01778	.00005
308.15	.15	.01793	.00005
308.15	.2	.01808	.00005
308.15	.25	.01823	.00005
308.15	.3	.01837	.00005
308.15	.35	.01853	.00005
308.15	.4	.01872	.00005
308.15	.45	.01893	.00005
308.15	.5	.01915	.00005
308.15	.55	.01942	.00005
308.15	.6	.01972	.00005
308.15	.65	.02005	.00005
308.15	.7	.02047	.00005
308.15	.75	.02095	.00005
308.15	.8	.02157	.00005
308.15	.85	.0226	.00005
308.15	.9	.02422	.00005
308.15	.95	.02678	.00005
308.15	1	.03067	.00005

System: 2-propanol + 2,2,4-trimethylpentane + 1,3-dioxolane; phases: Liquid
Fixed: Pressure, kPa = 101
Fixed: Temperature, K = 298.15
Property: Mass density, kg/m3 (Liquid); method: Vibrating tube method
Mole fraction of 1,3-dioxolane	Mole fraction of 2-propanol	Mass density, kg/m3	uncertainty
.05	.8999	782.29	.03
.05	.8	763.5	.03
.05	.7	748.62	.03
.05	.6	736.48	.03
.05	.5	725.98	.03
.05	.4	717.45	.03
.05	.3	710.1	.03
.05	.2	704.13	.03
.05	.1	699.2	.03
.05	.05	697.2	.03
.1	.85	793.8	.03
.1	.75	773.81	.03
.1	.65	757.8	.03
.1	.55	744.73	.03
.1	.4501	733.78	.03
.1	.35	724.61	.03
.1	.2501	716.96	.03
.1	.15	710.62	.03
.1	.05	705.5	.03
.2	.75	817.62	.03
.2	.65	794.95	.03
.2	.55	776.54	.03
.2	.45	762.11	.03
.2	.35	749.92	.03
.2	.25	739.66	.03
.2	.15	731.08	.03
.2	.05	724.3	.03
.3	.65	841.81	.03
.3	.55	816.8	.03
.3	.45	796.66	.03
.3	.35	780.2	.03
.3	.25	766.51	.03
.3	.15	755.13	.03
.3	.05	746.1	.03
.4	.55	867.1	.03
.4	.45	839.13	.03
.4001	.35	816.87	.03
.4	.25	798.72	.03
.4	.15	783.87	.03
.4	.0501	771.3	.03
.5	.45	892.8	.03
.5	.35	862.2	.03
.5	.25	837.68	.03
.5	.1501	817.84	.03
.5	.05	801.59	.03
.6	.35	919.2	.03
.6	.25	885.74	.03
.6	.15	859.2	.03
.6	.05	837.72	.03
.7	.25	946.08	.03
.7	.15	910.04	.03
.7	.05	881.26	.03
.8	.15	974	.03
.7999	.0501	935.09	.03
.8999	.05	1002.5	.03

System: 2-propanol + 2,2,4-trimethylpentane + 1,3-dioxolane; phases: Liquid
Fixed: Pressure, kPa = 101
Fixed: Temperature, K = 298.15
Property: Viscosity, Pa*s (Liquid); method: Falling or rolling sphere viscometry
Mole fraction of 1,3-dioxolane	Mole fraction of 2-propanol	Viscosity, Pa*s	uncertainty
.05	.8999	.001146	.000004
.05	.8	.001106	.000004
.05	.7	.000894	.000004
.05	.6	.00075	.000004
.05	.5	.000647	.000004
.05	.4	.000579	.000004
.05	.3	.000534	.000004
.05	.2	.000504	.000004
.05	.1	.000486	.000004
.05	.05	.00048	.000004
.1	.85	.001229	.000004
.1	.75	.000983	.000004
.1	.65	.000813	.000004
.1	.55	.000693	.000004
.1	.4501	.000611	.000004
.1	.35	.000556	.000004
.1	.2501	.000518	.000004
.1	.15	.000494	.000004
.1	.05	.000479	.000004
.2	.75	.000988	.000004
.2	.65	.000817	.000004
.2	.55	.000695	.000004
.2	.45	.000615	.000004
.2	.35	.000556	.000004
.2	.15	.000491	.000004
.2	.05	.000475	.000004
.3	.65	.000826	.000004
.3	.55	.000707	.000004
.3	.45	.000624	.000004
.3	.35	.000565	.000004
.3	.25	.000524	.000004
.3	.15	.000498	.000004
.3	.05	.00048	.000004
.4	.55	.000732	.000004
.4	.45	.000642	.000004
.4001	.35	.00058	.000004
.4	.25	.000536	.000004
.4	.15	.000505	.000004
.4	.0501	.000486	.000004
.5	.45	.000664	.000004
.5	.35	.000596	.000004
.5	.25	.000549	.000004
.5	.1501	.000518	.000004
.5	.05	.000496	.000004
.6	.35	.000617	.000004
.6	.25	.000567	.000004
.6	.15	.000531	.000004
.6	.05	.000509	.000004
.7	.25	.000588	.000004
.7	.15	.000549	.000004
.7	.05	.000527	.000004
.8	.15	.000574	.000004
.7999	.0501	.000547	.000004
.8999	.05	.000573	.000004

System: 2-propanol + 2,2,4-trimethylpentane + 1,3-dioxolane; phases: Liquid
Fixed: Pressure, kPa = 101
Fixed: Temperature, K = 298.15
Property: Refractive index (Na D-line) (Liquid); method: Standard Abbe refractometry
Mole fraction of 1,3-dioxolane	Mole fraction of 2-propanol	Refractive index (Na D-line)	uncertainty
.05	.8999	1.37685	.00005
.05	.8	1.37813	.00005
.05	.7	1.37941	.00005
.05	.6	1.38111	.00005
.05	.5	1.38223	.00005
.05	.4	1.38341	.00005
.05	.3	1.38475	.00005
.05	.2	1.38608	.00005
.05	.1	1.38729	.00005
.05	.05	1.38811	.00005
.1	.85	1.37716	.00005
.1	.75	1.37847	.00005
.1	.65	1.37991	.00005
.1	.55	1.38125	.00005
.1	.4501	1.38247	.00005
.1	.35	1.38365	.00005
.1	.2501	1.38481	.00005
.1	.15	1.38635	.00005
.1	.05	1.38791	.00005
.2	.75	1.37896	.00005
.2	.65	1.38002	.00005
.2	.55	1.38137	.00005
.2	.45	1.38236	.00005
.2	.35	1.38358	.00005
.2	.25	1.38493	.00005
.2	.15	1.38642	.00005
.2	.05	1.38753	.00005
.3	.65	1.38071	.00005
.3	.55	1.38195	.00005
.3	.45	1.38214	.00005
.3	.35	1.38393	.00005
.3	.25	1.38513	.00005
.3	.15	1.38624	.00005
.3	.05	1.38786	.00005
.4	.55	1.38232	.00005
.4	.45	1.38346	.00005
.4001	.35	1.38459	.00005
.4	.25	1.38574	.00005
.4	.15	1.38685	.00005
.4	.0501	1.38911	.00005
.5	.45	1.38457	.00005
.5	.35	1.38563	.00005
.5	.25	1.38665	.00005
.5	.1501	1.38772	.00005
.5	.05	1.38884	.00005
.6	.35	1.38691	.00005
.6	.25	1.38785	.00005
.6	.15	1.38885	.00005
.6	.05	1.38991	.00005
.7	.25	1.38936	.00005
.7	.15	1.39024	.00005
.7	.05	1.39123	.00005
.8	.15	1.39287	.00005
.7999	.0501	1.39285	.00005
.8999	.05	1.39523	.00005

System: 2-propanol + 2,2,4-trimethylpentane + 1,3-dioxolane; phases: Liquid, Air at 1 atmosphere
Fixed: Temperature, K = 298.15
Property: Surface tension liquid-gas, N/m (Liquid); method: Capillary rise
Mole fraction of 1,3-dioxolane	Mole fraction of 2-propanol	Surface tension liquid-gas, N/m	uncertainty
.05	.8999	.02075	.00005
.05	.8	.02015	.00005
.05	.7	.01967	.00005
.05	.6	.01933	.00005
.05	.5	.01905	.00005
.05	.4	.01889	.00005
.05	.3	.01875	.00005
.05	.2	.01867	.00005
.05	.1	.0186	.00005
.05	.05	.01855	.00005
.1	.85	.0213	.00005
.1	.75	.0202	.00005
.1	.65	.0196	.00005
.1	.55	.01933	.00005
.1	.4501	.01912	.00005
.1	.35	.01897	.00005
.1	.2501	.01885	.00005
.1	.15	.01875	.00005
.1	.05	.01865	.00005
.2	.75	.02175	.00005
.2	.65	.02075	.00005
.2	.55	.02005	.00005
.2	.45	.0197	.00005
.2	.35	.01945	.00005
.2	.25	.01925	.00005
.2	.15	.01905	.00005
.2	.05	.01887	.00005
.3	.65	.02225	.00005
.3	.55	.02135	.00005
.3	.45	.0205	.00005
.3	.35	.0199	.00005
.3	.25	.01945	.00005
.3	.15	.01925	.00005
.3	.05	.01915	.00005
.4	.55	.02275	.00005
.4	.45	.02163	.00005
.4001	.35	.0207	.00005
.4	.25	.02015	.00005
.4	.15	.01985	.00005
.4	.0501	.01975	.00005
.5	.45	.02355	.00005
.5	.35	.0222	.00005
.5	.25	.0212	.00005
.5	.1501	.02045	.00005
.5	.05	.0201	.00005
.6	.35	.0244	.00005
.6	.25	.02265	.00005
.6	.15	.02125	.00005
.6	.05	.0207	.00005
.7	.25	.02535	.00005
.7	.15	.02285	.00005
.7	.05	.02145	.00005
.8	.15	.02665	.00005
.7999	.0501	.02325	.00005
.8999	.05	.02785	.00005
