Measured thermophysical data. Viscosity and Density Measurements of Diisopropyl Ether and Dibutyl Ether at  Different Temperatures and Pressures
Source: J. Chem. Eng. Data, 2009, 10.1021/je8005369
Compound 1: isopropyl ether, C6H14O
Compound 2: dibutyl ether, C8H18O

System: isopropyl ether; phases: Liquid
Property: Mass density, kg/m3 (Liquid); method: Vibrating Wire Viscometer
Temperature, K	Pressure, kPa	Mass density, kg/m3	uncertainty
243.15	100	772.385	1.54477
243.15	4660	776.195	1.55239
243.15	10070	780.42	1.56084
243.15	15370	784.377	1.568754
243.15	20860	788.392	1.576784
253.15	100	762.804	1.525608
253.15	4720	766.842	1.533684
253.15	9990	771.35	1.5427
253.15	15400	775.704	1.551408
253.15	20740	779.692	1.559384
263.15	100	753.037	1.506074
263.15	4470	757.298	1.514596
263.15	9490	761.805	1.52361
263.15	14490	766.126	1.532252
263.15	19640	770.142	1.540284
273.15	100	743.309	1.486618
273.15	4690	748.026	1.496052
273.15	10010	753.179	1.506358
273.15	15290	757.99	1.51598
273.15	20420	762.359	1.524718
283.15	100	733.393	1.466786
283.15	4700	738.525	1.47705
283.15	10100	744.147	1.488294
283.15	15460	749.321	1.498642
283.15	21360	754.612	1.509224
293.15	100	723.318	1.446636
293.15	4470	728.638	1.457276
293.15	9590	734.393	1.468786
293.15	14750	739.779	1.479558
293.15	20450	745.301	1.490602
303.15	100	713.113	1.426226
303.15	4440	718.817	1.437634
303.15	9500	725.014	1.450028
303.15	14650	730.787	1.461574
303.15	19650	735.942	1.471884
313.15	100	702.804	1.405608
313.15	4840	709.502	1.419004
313.15	10140	716.438	1.432876
313.15	15550	722.843	1.445686
313.15	21490	729.298	1.458596
323.15	100	692.225	1.38445
323.15	4760	699.461	1.398922
323.15	10370	707.408	1.414816
323.15	15480	713.832	1.427664
323.15	20780	720.04	1.44008
333.15	100	681.435	1.36287
333.15	4750	689.427	1.378854
333.15	10360	697.963	1.395926
333.15	15670	705.137	1.410274
333.15	20890	711.63	1.42326
343.15	130	670.401	1.340802
343.15	4390	678.519	1.357038
343.15	9530	687.069	1.374138
343.15	14740	694.891	1.389782
343.15	21230	703.496	1.406992
353.15	200	659.151	1.318302
353.15	4830	668.72	1.33744
353.15	10320	678.629	1.357258
353.15	15760	687.163	1.374326
353.15	21100	694.71	1.38942
363.15	230	647.498	1.294996
363.15	4730	657.763	1.315526
363.15	10170	668.51	1.33702
363.15	15830	678.192	1.356384
363.15	20860	685.734	1.371468
373.15	310	635.452	1.270904
373.15	4730	646.883	1.293766
373.15	9630	657.52	1.31504
373.15	15600	668.559	1.337118
373.15	21680	678.358	1.356716

System: isopropyl ether; phases: Liquid
Property: Viscosity, Pa*s (Liquid); method: Vibrating wire viscometry
Temperature, K	Pressure, kPa	Viscosity, Pa*s	uncertainty
243.15	100	.0006191	.000012382
243.15	4660	.0006466	.000012932
243.15	10070	.0006826	.000013652
243.15	15370	.0007177	.000014354
243.15	20860	.0007529	.000015058
253.15	100	.0005343	.000010686
253.15	4720	.0005601	.000011202
253.15	9990	.0005898	.000011796
253.15	15400	.0006187	.000012374
253.15	20740	.00065	.000013
263.15	100	.0004687	.000009374
263.15	4470	.0004896	.000009792
263.15	9490	.0005141	.000010282
263.15	14490	.0005388	.000010776
263.15	19640	.0005638	.000011276
273.15	100	.0004142	.000008284
273.15	4690	.0004344	.000008688
273.15	10010	.0004579	.000009158
273.15	15290	.0004815	.00000963
273.15	20420	.0005042	.000010084
283.15	100	.0003689	.000007378
283.15	4700	.0003877	.000007754
283.15	10100	.0004088	.000008176
283.15	15460	.0004306	.000008612
283.15	21360	.000456	.00000912
293.15	100	.0003311	.000006622
293.15	4470	.0003474	.000006948
293.15	9590	.0003671	.000007342
293.15	14750	.0003855	.00000771
293.15	20450	.0004079	.000008158
303.15	100	.000299	.00000598
303.15	4440	.0003124	.000006248
303.15	9500	.000331	.00000662
303.15	14650	.0003496	.000006992
303.15	19650	.0003668	.000007336
313.15	100	.0002703	.000005406
313.15	4840	.0002869	.000005738
313.15	10140	.0003038	.000006076
313.15	15550	.0003213	.000006426
313.15	21490	.0003414	.000006828
323.15	100	.0002468	.000004936
323.15	4760	.0002615	.00000523
323.15	10370	.0002776	.000005552
323.15	15480	.0002946	.000005892
323.15	20780	.000311	.00000622
333.15	100	.0002254	.000004508
333.15	4750	.0002389	.000004778
333.15	10360	.0002554	.000005108
333.15	15670	.0002716	.000005432
333.15	20890	.0002848	.000005696
343.15	130	.0002064	.000004128
343.15	4390	.0002183	.000004366
343.15	9530	.0002335	.00000467
343.15	14740	.0002471	.000004942
343.15	21230	.0002649	.000005298
353.15	200	.0001889	.000003778
353.15	4830	.000203	.00000406
353.15	10320	.0002176	.000004352
353.15	15760	.0002324	.000004648
353.15	21100	.0002466	.000004932
363.15	230	.0001736	.000003472
363.15	4730	.0001871	.000003742
363.15	10170	.0002014	.000004028
363.15	15830	.0002152	.000004304
363.15	20860	.0002294	.000004588
373.15	310	.0001602	.000003204
373.15	4730	.0001721	.000003442
373.15	9630	.0001854	.000003708
373.15	15600	.0002008	.000004016
373.15	21680	.0002152	.000004304

System: dibutyl ether; phases: Liquid
Property: Mass density, kg/m3 (Liquid); method: Vibrating Wire Viscometer
Temperature, K	Pressure, kPa	Mass density, kg/m3	uncertainty
243.15	100	809.772	1.619544
243.15	4800	812.717	1.625434
243.15	10290	816.304	1.632608
243.15	15700	819.465	1.63893
243.15	21120	822.606	1.645212
253.15	100	801.37	1.60274
253.15	4550	804.548	1.609096
253.15	9650	807.789	1.615578
253.15	14760	811.186	1.622372
253.15	19760	814.14	1.62828
263.15	100	793.117	1.586234
263.15	4650	796.489	1.592978
263.15	10000	800.232	1.600464
263.15	15290	803.649	1.607298
263.15	20520	807.105	1.61421
273.15	100	784.503	1.569006
273.15	4810	788.298	1.576596
273.15	10200	792.324	1.584648
273.15	15570	796.106	1.592212
273.15	20870	799.664	1.599328
283.15	100	776.314	1.552628
283.15	4780	780.133	1.560266
283.15	10150	784.429	1.568858
283.15	15580	788.422	1.576844
283.15	20830	792.172	1.584344
293.15	100	767.938	1.535876
293.15	4750	772.058	1.544116
293.15	10180	776.552	1.553104
293.15	15470	780.608	1.561216
293.15	20760	784.626	1.569252
303.15	100	759.934	1.519868
303.15	4500	763.973	1.527946
303.15	9570	768.455	1.53691
303.15	14530	772.612	1.545224
303.15	19670	776.718	1.553436
313.15	100	751.438	1.502876
313.15	4510	755.825	1.51165
313.15	9600	760.621	1.521242
313.15	14650	765.058	1.530116
313.15	19640	769.315	1.53863
323.15	100	743.119	1.486238
323.15	4510	747.707	1.495414
323.15	9570	752.915	1.50583
323.15	14630	757.591	1.515182
323.15	19600	761.898	1.523796
333.15	100	734.484	1.468968
333.15	4490	739.443	1.478886
333.15	9580	744.884	1.489768
333.15	14630	749.942	1.499884
333.15	19620	754.541	1.509082
343.15	100	725.879	1.451758
343.15	4640	731.433	1.462866
343.15	9640	737.137	1.474274
343.15	14730	742.477	1.484954
343.15	19730	747.369	1.494738
353.15	100	717.116	1.434232
353.15	4510	722.869	1.445738
353.15	9570	729.12	1.45824
353.15	14640	734.754	1.469508
353.15	19630	740.012	1.480024
363.15	100	708.168	1.416336
363.15	4510	714.412	1.428824
363.15	9720	721.185	1.44237
363.15	15300	727.703	1.455406
363.15	21100	733.972	1.467944
373.15	100	699.123	1.398246
373.15	4900	706.359	1.412718
373.15	10170	713.653	1.427306
373.15	15630	720.422	1.440844
373.15	20590	726.094	1.452188

System: dibutyl ether; phases: Liquid
Property: Viscosity, Pa*s (Liquid); method: Vibrating wire viscometry
Temperature, K	Pressure, kPa	Viscosity, Pa*s	uncertainty
243.15	100	.0017336	.000034672
243.15	4800	.0018358	.000036716
243.15	10290	.001954	.00003908
243.15	15700	.0020834	.000041668
243.15	21120	.0022209	.000044418
253.15	100	.0013786	.000027572
253.15	4550	.0014481	.000028962
253.15	9650	.0015396	.000030792
253.15	14760	.0016238	.000032476
253.15	19760	.001716	.00003432
263.15	100	.0011256	.000022512
263.15	4650	.0011828	.000023656
263.15	10000	.001256	.00002512
263.15	15290	.0013321	.000026642
263.15	20520	.0014037	.000028074
273.15	100	.000942	.00001884
273.15	4810	.0009913	.000019826
273.15	10200	.0010492	.000020984
273.15	15570	.0011091	.000022182
273.15	20870	.0011706	.000023412
283.15	100	.0008032	.000016064
283.15	4780	.0008437	.000016874
283.15	10150	.0008898	.000017796
283.15	15580	.0009423	.000018846
283.15	20830	.0009923	.000019846
293.15	100	.0006906	.000013812
293.15	4750	.0007263	.000014526
293.15	10180	.0007684	.000015368
293.15	15470	.000812	.00001624
293.15	20760	.0008546	.000017092
303.15	100	.000608	.00001216
303.15	4500	.0006386	.000012772
303.15	9570	.0006735	.00001347
303.15	14530	.0007081	.000014162
303.15	19670	.0007436	.000014872
313.15	100	.0005388	.000010776
313.15	4510	.0005648	.000011296
313.15	9600	.0005966	.000011932
313.15	14650	.0006282	.000012564
313.15	19640	.0006571	.000013142
323.15	100	.0004805	.00000961
323.15	4510	.0005061	.000010122
323.15	9570	.0005306	.000010612
323.15	14630	.0005608	.000011216
323.15	19600	.00059	.0000118
333.15	100	.0004326	.000008652
333.15	4490	.0004553	.000009106
333.15	9580	.0004806	.000009612
333.15	14630	.0005061	.000010122
333.15	19620	.0005317	.000010634
343.15	100	.0003914	.000007828
343.15	4640	.000412	.00000824
343.15	9640	.0004352	.000008704
343.15	14730	.0004581	.000009162
343.15	19730	.0004822	.000009644
353.15	100	.0003538	.000007076
353.15	4510	.0003738	.000007476
353.15	9570	.0003945	.00000789
353.15	14640	.0004166	.000008332
353.15	19630	.0004373	.000008746
363.15	100	.0003236	.000006472
363.15	4510	.0003413	.000006826
363.15	9720	.0003622	.000007244
363.15	15300	.0003835	.00000767
363.15	21100	.000407	.00000814
373.15	100	.0002954	.000005908
373.15	4900	.0003145	.00000629
373.15	10170	.0003337	.000006674
373.15	15630	.0003536	.000007072
373.15	20590	.0003733	.000007466
