Measured thermophysical data. Densities, Viscosities, and Speeds of Sound of Binary Liquid Mixtures of Sulfolane  with Ethyl Acetate, n-Propyl Acetate, and n-Butyl Acetate at Temperature of  (303.15, 308.15, and 313.15) K
Source: J. Chem. Eng. Data, 2009, 10.1021/je800653d
Compound 1: sulfolane, C4H8O2S
Compound 2: ethyl ethanoate, C4H8O2
Compound 3: propyl ethanoate, C5H10O2
Compound 4: butyl ethanoate, C6H12O2

System: sulfolane; phases: Liquid
Property: Mass density, kg/m3 (Liquid); method: Pycnometric method
Temperature, K	Pressure, kPa	Mass density, kg/m3	uncertainty
298.15	101	1263.9	
303.15	101	1261.8	
308.15	101	1257	
313.15	101	1251.6	

System: sulfolane; phases: Liquid
Property: Viscosity, Pa*s (Liquid); method: Capillary tube (Ostwald; Ubbelohde) method
Temperature, K	Pressure, kPa	Viscosity, Pa*s	uncertainty
303.15	101	.0100304	
308.15	101	.0087947	
313.15	101	.0078365	

System: sulfolane; phases: Liquid
Property: Speed of sound, m/s (Liquid); method: Linear variable-path acoustic interferometer
Temperature, K	Pressure, kPa	Speed of sound, m/s	uncertainty
298.15	101	1601	3.202
303.15	101	1588	3.176
308.15	101	1576	3.152
313.15	101	1558	3.116

System: ethyl ethanoate; phases: Liquid
Property: Mass density, kg/m3 (Liquid); method: Pycnometric method
Temperature, K	Pressure, kPa	Mass density, kg/m3	uncertainty
298.15	101	895.1	
303.15	101	889.4	
308.15	101	883.9	
313.15	101	875.8	

System: ethyl ethanoate; phases: Liquid
Property: Viscosity, Pa*s (Liquid); method: Capillary tube (Ostwald; Ubbelohde) method
Temperature, K	Pressure, kPa	Viscosity, Pa*s	uncertainty
303.15	101	.0003806	
308.15	101	.0003622	
313.15	101	.0003426	

System: ethyl ethanoate; phases: Liquid
Property: Speed of sound, m/s (Liquid); method: Linear variable-path acoustic interferometer
Temperature, K	Pressure, kPa	Speed of sound, m/s	uncertainty
298.15	101	1142	2.284
303.15	101	1122	2.244
308.15	101	1101	2.202
313.15	101	1082	2.164

System: propyl ethanoate; phases: Liquid
Property: Mass density, kg/m3 (Liquid); method: Pycnometric method
Temperature, K	Pressure, kPa	Mass density, kg/m3	uncertainty
298.15	101	883.7	
303.15	101	877.7	
308.15	101	873.1	
313.15	101	866.7	

System: propyl ethanoate; phases: Liquid
Property: Viscosity, Pa*s (Liquid); method: Capillary tube (Ostwald; Ubbelohde) method
Temperature, K	Pressure, kPa	Viscosity, Pa*s	uncertainty
303.15	101	.0004878	
308.15	101	.0004595	
313.15	101	.0004329	

System: propyl ethanoate; phases: Liquid
Property: Speed of sound, m/s (Liquid); method: Linear variable-path acoustic interferometer
Temperature, K	Pressure, kPa	Speed of sound, m/s	uncertainty
298.15	101	1156	2.312
303.15	101	1149	2.298
308.15	101	1139	2.278
313.15	101	1126	2.252

System: butyl ethanoate; phases: Liquid
Property: Mass density, kg/m3 (Liquid); method: Pycnometric method
Temperature, K	Pressure, kPa	Mass density, kg/m3	uncertainty
298.15	101	875.6	
303.15	101	871.6	
308.15	101	867.1	
313.15	101	862	

System: butyl ethanoate; phases: Liquid
Property: Viscosity, Pa*s (Liquid); method: Capillary tube (Ostwald; Ubbelohde) method
Temperature, K	Pressure, kPa	Viscosity, Pa*s	uncertainty
303.15	101	.0006072	
308.15	101	.0005687	
313.15	101	.000534	

System: butyl ethanoate; phases: Liquid
Property: Speed of sound, m/s (Liquid); method: Linear variable-path acoustic interferometer
Temperature, K	Pressure, kPa	Speed of sound, m/s	uncertainty
298.15	101	1203	2.406
303.15	101	1176	2.352
308.15	101	1155	2.31
313.15	101	1135	2.27

System: sulfolane + ethyl ethanoate; phases: Liquid
Fixed: Pressure, kPa = 101
Property: Mass density, kg/m3 (Liquid); method: Pycnometric method
Temperature, K	Mole fraction of sulfolane	Mass density, kg/m3	uncertainty
298.15	1	1263.9	
298.15	0	895.1	
303.15	0	889.4	
303.15	.0218	897.8	
303.15	.1511	950.7	
303.15	.2748	1001.1	
303.15	.4012	1052.3	
303.15	.5068	1094	
303.15	.598	1127.6	
303.15	.7331	1175.4	
303.15	.8548	1215.5	
303.15	.9799	1255.5	
303.15	1	1261.8	
308.15	0	883.9	
308.15	.0218	893.2	
308.15	.1511	947.1	
308.15	.2748	997.7	
308.15	.4012	1048.8	
308.15	.5068	1090.3	
308.15	.598	1123.9	
308.15	.7331	1171.5	
308.15	.8548	1211.6	
308.15	.9799	1251.9	
308.15	1	1257	
313.15	0	875.8	
313.15	.0218	885.1	
313.15	.1511	939.5	
313.15	.2748	989.9	
313.15	.4012	1040.5	
313.15	.5068	1082.1	
313.15	.598	1116.7	
313.15	.7331	1164.7	
313.15	.8548	1205.5	
313.15	.9799	1245.8	
313.15	1	1251.6	

System: sulfolane + ethyl ethanoate; phases: Liquid
Fixed: Pressure, kPa = 101
Property: Viscosity, Pa*s (Liquid); method: Capillary tube (Ostwald; Ubbelohde) method
Temperature, K	Mole fraction of sulfolane	Viscosity, Pa*s	uncertainty
303.15	0	.0003806	
303.15	.0218	.0004006	
303.15	.1511	.0005566	
303.15	.2748	.0007832	
303.15	.4012	.0011179	
303.15	.5068	.0014995	
303.15	.598	.0020539	
303.15	.7331	.0032106	
303.15	.8548	.0052851	
303.15	.9799	.0092053	
303.15	1	.0100304	
308.15	.0218	.0003819	
308.15	.4012	.0010424	
308.15	.5068	.0013942	
308.15	.598	.0018819	
308.15	0	.0003622	
308.15	.7331	.002923	
308.15	.8548	.0047555	
308.15	.1511	.0005275	
308.15	.9799	.0080778	
308.15	.2748	.00073	
308.15	1	.0087947	
313.15	.7331	.0026995	
313.15	.1511	.0004961	
313.15	.4012	.0009781	
313.15	.8548	.0042809	
313.15	.0218	.0003633	
313.15	.598	.0017516	
313.15	.9799	.007092	
313.15	0	.0003426	
313.15	.5068	.0012925	
313.15	1	.0078365	
313.15	.2748	.0006874	

System: sulfolane + ethyl ethanoate; phases: Liquid
Fixed: Pressure, kPa = 101
Property: Speed of sound, m/s (Liquid); method: Linear variable-path acoustic interferometer
Temperature, K	Mole fraction of sulfolane	Speed of sound, m/s	uncertainty
298.15	1	1601	3.202
298.15	0	1142	2.284
303.15	0	1122	2.244
303.15	.0218	1134	2.268
303.15	.1511	1196	2.392
303.15	.2748	1251	2.502
303.15	.4012	1313	2.626
303.15	.5068	1366	2.732
303.15	.598	1408	2.816
303.15	.7331	1472	2.944
303.15	.8548	1524	3.048
303.15	.9799	1579	3.158
303.15	1	1588	3.176
308.15	0	1101	2.202
308.15	.0218	1121	2.242
308.15	.1511	1185	2.37
308.15	.2748	1241	2.482
308.15	.4012	1301	2.602
308.15	.5068	1355	2.71
308.15	.598	1398	2.796
308.15	.7331	1465	2.93
308.15	.8548	1515	3.03
308.15	.9799	1569	3.138
308.15	1	1576	3.152
313.15	0	1082	2.164
313.15	.0218	1092	2.184
313.15	.1511	1154	2.308
313.15	.2748	1216	2.432
313.15	.4012	1283	2.566
313.15	.5068	1346	2.692
313.15	.598	1397	2.794
313.15	.7331	1464	2.928
313.15	.8548	1513	3.026
313.15	.9799	1555	3.11
313.15	1	1558	3.116

System: propyl ethanoate + sulfolane; phases: Liquid
Fixed: Pressure, kPa = 101
Property: Mass density, kg/m3 (Liquid); method: Pycnometric method
Temperature, K	Mole fraction of sulfolane	Mass density, kg/m3	uncertainty
298.15	0	883.7	
303.15	0	877.7	
303.15	.0247	886.9	
303.15	.1746	941.4	
303.15	.311	992.9	
303.15	.4416	1043.1	
303.15	.5468	1084.6	
303.15	.6489	1124.9	
303.15	.7639	1169.5	
303.15	.8733	1212.3	
303.15	.9823	1255.4	
303.15	1	1261.8	
308.15	0	873.1	
308.15	.0247	881.9	
308.15	.1746	935.8	
308.15	.311	986.9	
308.15	.4416	1037.9	
308.15	.5468	1079.6	
308.15	.6489	1120.1	
308.15	.7639	1164.7	
308.15	.8733	1207.6	
308.15	.9823	1251	
308.15	1	1257	
313.15	0	866.7	
313.15	.0247	875.7	
313.15	.1746	929.8	
313.15	.311	981.3	
313.15	.4416	1032.4	
313.15	.5468	1074	
313.15	.6489	1114.1	
313.15	.7639	1159.4	
313.15	.8733	1202.2	
313.15	.9823	1245.4	
313.15	1	1251.6	

System: propyl ethanoate + sulfolane; phases: Liquid
Fixed: Pressure, kPa = 101
Property: Viscosity, Pa*s (Liquid); method: Capillary tube (Ostwald; Ubbelohde) method
Temperature, K	Mole fraction of sulfolane	Viscosity, Pa*s	uncertainty
303.15	0	.0004878	
303.15	.0247	.0005146	
303.15	.1746	.000726	
303.15	.311	.0010193	
303.15	.4416	.0014384	
303.15	.5468	.0019225	
303.15	.6489	.0026244	
303.15	.7639	.0039199	
303.15	.8733	.0058629	
303.15	.9823	.0093047	
303.15	1	.0100304	
308.15	0	.0004595	
308.15	.0247	.0004827	
308.15	.1746	.0006764	
308.15	.311	.0009439	
308.15	.4416	.001325	
308.15	.5468	.0017617	
308.15	.6489	.0023752	
308.15	.7639	.0035015	
308.15	.8733	.0052167	
308.15	.9823	.0081319	
308.15	1	.0087947	
313.15	0	.0004329	
313.15	.0247	.0004554	
313.15	.1746	.0006342	
313.15	.311	.0008781	
313.15	.4416	.001222	
313.15	.5468	.0016173	
313.15	.6489	.0021758	
313.15	.7639	.0031853	
313.15	.8733	.0046616	
313.15	.9823	.0072221	
313.15	1	.0078365	

System: propyl ethanoate + sulfolane; phases: Liquid
Fixed: Pressure, kPa = 101
Property: Speed of sound, m/s (Liquid); method: Linear variable-path acoustic interferometer
Temperature, K	Mole fraction of sulfolane	Speed of sound, m/s	uncertainty
298.15	0	1156	2.312
303.15	0	1149	2.298
303.15	.0247	1154	2.308
303.15	.1746	1214	2.428
303.15	.311	1266	2.532
303.15	.4416	1322	2.644
303.15	.5468	1368	2.736
303.15	.6489	1419	2.838
303.15	.7639	1474	2.948
303.15	.8733	1530	3.06
303.15	.9823	1579	3.158
303.15	1	1588	3.176
308.15	0	1139	2.278
308.15	.0247	1147	2.294
308.15	.1746	1203	2.406
308.15	.311	1257	2.514
308.15	.4416	1312	2.624
308.15	.5468	1359	2.718
308.15	.6489	1410	2.82
308.15	.7639	1469	2.938
308.15	.8733	1521	3.042
308.15	.9823	1573	3.146
308.15	1	1576	3.152
313.15	0	1126	2.252
313.15	.0247	1134	2.268
313.15	.1746	1189	2.378
313.15	.311	1243	2.486
313.15	.4416	1301	2.602
313.15	.5468	1352	2.704
313.15	.6489	1401	2.802
313.15	.7639	1458	2.916
313.15	.8733	1510	3.02
313.15	.9823	1555	3.11
313.15	1	1558	3.116

System: butyl ethanoate + sulfolane; phases: Liquid
Fixed: Pressure, kPa = 101
Property: Mass density, kg/m3 (Liquid); method: Pycnometric method
Temperature, K	Mole fraction of sulfolane	Mass density, kg/m3	uncertainty
298.15	0	875.6	
303.15	0	871.6	
303.15	.0311	880.8	
303.15	.1903	932.3	
303.15	.3402	985.2	
303.15	.474	1036.1	
303.15	.5789	1078.5	
303.15	.6793	1120.5	
303.15	.7887	1168.2	
303.15	.8876	1212.2	
303.15	.9836	1254.2	
303.15	1	1261.8	
308.15	0	867.1	
308.15	.0311	876.9	
308.15	.1903	928.6	
308.15	.3402	980.9	
308.15	.474	1030.9	
308.15	.5789	1072.7	
308.15	.6793	1114.4	
308.15	.7887	1162.1	
308.15	.8876	1207.1	
308.15	.9836	1250.1	
308.15	1	1257	
313.15	0	862	
313.15	.0311	871.8	
313.15	.1903	923.5	
313.15	.3402	975.4	
313.15	.474	1025.4	
313.15	.5789	1067.1	
313.15	.6793	1108.8	
313.15	.7887	1156.6	
313.15	.8876	1201.5	
313.15	.9836	1244.8	
313.15	1	1251.6	

System: butyl ethanoate + sulfolane; phases: Liquid
Fixed: Pressure, kPa = 101
Property: Viscosity, Pa*s (Liquid); method: Capillary tube (Ostwald; Ubbelohde) method
Temperature, K	Mole fraction of sulfolane	Viscosity, Pa*s	uncertainty
303.15	0	.0006072	
303.15	.0311	.0006426	
303.15	.1903	.000895	
303.15	.3402	.0012425	
303.15	.474	.001722	
303.15	.5789	.0022995	
303.15	.6793	.0030273	
303.15	.7887	.0042748	
303.15	.8876	.0061997	
303.15	.9836	.0090492	
303.15	1	.0100304	
308.15	0	.0005687	
308.15	.0311	.0006016	
308.15	.1903	.0008248	
308.15	.3402	.0011452	
308.15	.474	.001577	
308.15	.5789	.0020816	
308.15	.6793	.0027172	
308.15	.7887	.0038367	
308.15	.8876	.0054987	
308.15	.9836	.0079251	
308.15	1	.0087947	
313.15	0	.000534	
313.15	.0311	.0005637	
313.15	.1903	.0007699	
313.15	.3402	.0010664	
313.15	.474	.0014573	
313.15	.5789	.0019028	
313.15	.6793	.0024714	
313.15	.7887	.0034359	
313.15	.8876	.004902	
313.15	.9836	.0069875	
313.15	1	.0078365	

System: butyl ethanoate + sulfolane; phases: Liquid
Fixed: Pressure, kPa = 101
Property: Speed of sound, m/s (Liquid); method: Linear variable-path acoustic interferometer
Temperature, K	Mole fraction of sulfolane	Speed of sound, m/s	uncertainty
298.15	0	1203	2.406
303.15	0	1176	2.352
303.15	.0311	1182	2.364
303.15	.1903	1232	2.464
303.15	.3402	1280	2.56
303.15	.474	1327	2.654
303.15	.5789	1372	2.744
303.15	.6793	1424	2.848
303.15	.7887	1477	2.954
303.15	.8876	1528	3.056
303.15	.9836	1577	3.154
303.15	1	1588	3.176
308.15	0	1155	2.31
308.15	.0311	1164	2.328
308.15	.1903	1212	2.424
308.15	.3402	1261	2.522
308.15	.474	1316	2.632
308.15	.5789	1366	2.732
308.15	.6793	1418	2.836
308.15	.7887	1468	2.936
308.15	.8876	1520	3.04
308.15	.9836	1572	3.144
308.15	1	1576	3.152
313.15	0	1135	2.27
313.15	.0311	1146	2.292
313.15	.1903	1193	2.386
313.15	.3402	1245	2.49
313.15	.474	1301	2.602
313.15	.5789	1354	2.708
313.15	.6793	1408	2.816
313.15	.7887	1466	2.932
313.15	.8876	1510	3.02
313.15	.9836	1556	3.112
313.15	1	1558	3.116
