Measured thermophysical data. Liquid-Liquid Equilibria of Ternary Systems Sulfide + Octane + Solvents at  Different Temperatures
Source: J. Chem. Eng. Data, 2008, 10.1021/je800340v
Compound 1: octane, C8H18
Compound 2: 1-butanethiol, C4H10S
Compound 3: 5-thianonane, C8H18S
Compound 4: thiophene, C4H4S
Compound 5: methyl sulfoxide, C2H6OS
Compound 6: sulfolane, C4H8O2S
Compound 7: tetraethylene glycol, C8H18O5

System: methyl sulfoxide + thiophene + octane; phases: Liquid mixture 1, Liquid mixture 2
Fixed: Pressure, kPa = 101
Property: Mass fraction of octane (Liquid mixture 1); method: Chromatography
Property: Mass fraction of thiophene (Liquid mixture 2); method: Chromatography
Property: Mass fraction of octane (Liquid mixture 2); method: Chromatography
Temperature, K	Mass fraction of thiophene	Mass fraction of octane	uncertainty	Mass fraction of thiophene	uncertainty	Mass fraction of octane	uncertainty
313.15	.0104	.9875	.0001	.0144	.0001	.0009	.0001
313.15	.0065	.9901	.0001	.0093	.0001	.0014	.0001
313.15	.0057	.9901	.0001	.0089	.0001	.0017	.0001
313.15	.0045	.991	.0001	.0075	.0001	.0019	.0001
313.15	.0036	.9916	.0001	.0066	.0001	.002	.0001
313.15	.0034	.9917	.0001	.0056	.0001	.002	.0001
313.15	.0027	.9923	.0001	.0053	.0001	.002	.0001
313.15	.0026	.9923	.0001	.0044	.0001	.0021	.0001
323.15	.0084	.9895	.0001	.0136	.0001	.0009	.0001
323.15	.0065	.9901	.0001	.0101	.0001	.0014	.0001
323.15	.0052	.9907	.0001	.0082	.0001	.0017	.0001
323.15	.0042	.9912	.0001	.0066	.0001	.0019	.0001
323.15	.0035	.9917	.0001	.0054	.0001	.002	.0001
323.15	.0035	.9916	.0001	.0041	.0001	.002	.0001
323.15	.003	.992	.0001	.0045	.0001	.0021	.0001
323.15	.0019	.993	.0001	.0042	.0001	.0021	.0001
333.15	.0078	.99	.0001	.0121	.0001	.0009	.0001
333.15	.0081	.9885	.0001	.0099	.0001	.0014	.0001
333.15	.0059	.99	.0001	.0088	.0001	.0017	.0001
333.15	.0051	.9904	.0001	.0064	.0001	.0019	.0001
333.15	.0042	.991	.0001	.0054	.0001	.002	.0001
333.15	.0043	.9908	.0001	.0047	.0001	.002	.0001
333.15	.0039	.9911	.0001	.0043	.0001	.0021	.0001
333.15	.003	.9919	.0001	.0039	.0001	.0021	.0001

System: thiophene + octane + sulfolane; phases: Liquid mixture 1, Liquid mixture 2
Fixed: Pressure, kPa = 101
Property: Mass fraction of octane (Liquid mixture 1); method: Chromatography
Property: Mass fraction of thiophene (Liquid mixture 2); method: Chromatography
Property: Mass fraction of octane (Liquid mixture 2); method: Chromatography
Temperature, K	Mass fraction of thiophene	Mass fraction of octane	uncertainty	Mass fraction of thiophene	uncertainty	Mass fraction of octane	uncertainty
313.15	.0085	.9884	.0001	.008	.0001	.001	.0001
313.15	.0071	.9882	.0001	.007	.0001	.0014	.0001
313.15	.006	.9885	.0001	.0054	.0001	.0017	.0001
313.15	.0051	.9891	.0001	.0053	.0001	.0018	.0001
313.15	.0047	.9893	.0001	.0047	.0001	.0018	.0001
313.15	.0043	.9897	.0001	.0042	.0001	.0019	.0001
313.15	.004	.99	.0001	.0038	.0001	.0019	.0001
313.15	.0034	.9905	.0001	.0036	.0001	.0019	.0001
323.15	.0079	.9889	.0001	.0084	.0001	.001	.0001
323.15	.0079	.9874	.0001	.0071	.0001	.0015	.0001
323.15	.0064	.9882	.0001	.0054	.0001	.0017	.0001
323.15	.0058	.9884	.0001	.0049	.0001	.0018	.0001
323.15	.0054	.9886	.0001	.0043	.0001	.0018	.0001
323.15	.0043	.9897	.0001	.0042	.0001	.0019	.0001
323.15	.0034	.9905	.0001	.0038	.0001	.0019	.0001
323.15	.0028	.9911	.0001	.0035	.0001	.0019	.0001
333.15	.0083	.9885	.0001	.0075	.0001	.001	.0001
333.15	.007	.9883	.0001	.0062	.0001	.0015	.0001
333.15	.0052	.9894	.0001	.0054	.0001	.0017	.0001
333.15	.0048	.9894	.0001	.0043	.0001	.0018	.0001
333.15	.0042	.9898	.0001	.0042	.0001	.0018	.0001
333.15	.0043	.9897	.0001	.0041	.0001	.0019	.0001
333.15	.0035	.9904	.0001	.003	.0001	.0019	.0001
333.15	.0035	.9904	.0001	.0031	.0001	.0019	.0001

System: thiophene + octane + tetraethylene glycol; phases: Liquid mixture 1, Liquid mixture 2
Fixed: Pressure, kPa = 101
Property: Mass fraction of thiophene (Liquid mixture 1); method: Chromatography
Property: Mass fraction of octane (Liquid mixture 2); method: Chromatography
Property: Mass fraction of thiophene (Liquid mixture 2); method: Chromatography
Temperature, K	Mass fraction of octane	Mass fraction of thiophene	uncertainty	Mass fraction of octane	uncertainty	Mass fraction of thiophene	uncertainty
313.15	.783	.1287	.0001	.2947	.0001	.0872	.0001
313.15	.6029	.1112	.0001	.027	.0001	.0722	.0001
313.15	.6604	.0925	.0001	.1098	.0001	.0628	.0001
313.15	.672	.0779	.0001	.2964	.0001	.0574	.0001
313.15	.608	.0145	.0001	.3637	.0001	.0114	.0001
313.15	.6247	.0132	.0001	.4012	.0001	.0048	.0001
313.15	.6704	.0128	.0001	.2888	.0001	.0128	.0001
313.15	.6836	.0115	.0001	.3151	.0001	.0071	.0001
323.15	.802	.1037	.0001	.0224	.0001	.0715	.0001
323.15	.8233	.0907	.0001	.0634	.0001	.0577	.0001
323.15	.8838	.0936	.0001	.0237	.0001	.0623	.0001
323.15	.8895	.0789	.0001	.0127	.0001	.0515	.0001
323.15	.9041	.0677	.0001	.235	.0001	.0457	.0001
323.15	.6764	.0556	.0001	.3072	.0001	.0414	.0001
323.15	.6653	.0471	.0001	.1654	.0001	.0324	.0001
323.15	.5493	.0403	.0001	.3939	.0001	.0279	.0001
333.15	.6706	.1335	.0001	.4643	.0001	.0874	.0001
333.15	.6208	.1188	.0001	.4035	.0001	.0695	.0001
333.15	.4927	.1026	.0001	.3727	.0001	.062	.0001
333.15	.4681	.0885	.0001	.3963	.0001	.0547	.0001
333.15	.7591	.0327	.0001	.2389	.0001	.0226	.0001
333.15	.7244	.0246	.0001	.3355	.0001	.008	.0001
333.15	.7926	.0285	.0001	.3185	.0001	.0068	.0001
333.15	.7826	.0207	.0001	.3331	.0001	.0061	.0001

System: 1-butanethiol + octane + sulfolane; phases: Liquid mixture 1, Liquid mixture 2
Fixed: Pressure, kPa = 101
Property: Mass fraction of 1-butanethiol (Liquid mixture 1); method: Chromatography
Property: Mass fraction of octane (Liquid mixture 2); method: Chromatography
Property: Mass fraction of 1-butanethiol (Liquid mixture 2); method: Chromatography
Temperature, K	Mass fraction of octane	Mass fraction of 1-butanethiol	uncertainty	Mass fraction of octane	uncertainty	Mass fraction of 1-butanethiol	uncertainty
313.15	.8749	.08	.0001	.0808	.0001	.0196	.0001
313.15	.903	.0709	.0001	.0783	.0001	.0169	.0001
313.15	.7026	.0622	.0001	.0791	.0001	.0147	.0001
313.15	.8446	.0418	.0001	.1502	.0001	.0129	.0001
313.15	.8797	.0282	.0001	.1778	.0001	.0073	.0001
313.15	.9186	.0283	.0001	.3031	.0001	.0043	.0001
313.15	.7725	.0151	.0001	.2184	.0001	.0061	.0001
313.15	.7645	.0262	.0001	.2487	.0001	.0071	.0001
323.15	.646	.0746	.0001	.045	.0001	.0349	.0001
323.15	.5159	.061	.0001	.2933	.0001	.0056	.0001
323.15	.4724	.0523	.0001	.3714	.0001	.0032	.0001
323.15	.4341	.038	.0001	.346	.0001	.0033	.0001
323.15	.8616	.0264	.0001	.3223	.0001	.0039	.0001
323.15	.7868	.0262	.0001	.2777	.0001	.0053	.0001
323.15	.7486	.0286	.0001	.2905	.0001	.0046	.0001
323.15	.6628	.0363	.0001	.3157	.0001	.0044	.0001
333.15	.763	.0626	.0001	.2176	.0001	.0099	.0001
333.15	.7992	.0535	.0001	.2713	.0001	.0062	.0001
333.15	.6944	.0392	.0001	.2254	.0001	.0061	.0001
333.15	.6786	.0351	.0001	.1987	.0001	.0066	.0001
333.15	.8046	.0271	.0001	.0315	.0001	.0126	.0001
333.15	.7043	.0262	.0001	.1149	.0001	.0091	.0001
333.15	.6171	.0278	.0001	.2022	.0001	.0082	.0001
333.15	.5378	.0319	.0001	.0447	.0001	.0101	.0001

System: octane + sulfolane + 5-thianonane; phases: Liquid mixture 1, Liquid mixture 2
Fixed: Pressure, kPa = 101
Property: Mass fraction of octane (Liquid mixture 1); method: Chromatography
Property: Mass fraction of 5-thianonane (Liquid mixture 2); method: Chromatography
Property: Mass fraction of octane (Liquid mixture 2); method: Chromatography
Temperature, K	Mass fraction of 5-thianonane	Mass fraction of octane	uncertainty	Mass fraction of 5-thianonane	uncertainty	Mass fraction of octane	uncertainty
313.15	.087	.9098	.0001	.0035	.0001	.001	.0001
313.15	.091	.9043	.0001	.0042	.0001	.0015	.0001
313.15	.0791	.9154	.0001	.0036	.0001	.0017	.0001
313.15	.0803	.9139	.0001	.0028	.0001	.0018	.0001
313.15	.0765	.9175	.0001	.0034	.0001	.0018	.0001
313.15	.0751	.9188	.0001	.0031	.0001	.0019	.0001
313.15	.0718	.9221	.0001	.003	.0001	.0019	.0001
313.15	.0644	.9295	.0001	.0026	.0001	.0019	.0001
323.15	.067	.9268	.0001	.003	.0001	.001	.0001
323.15	.0795	.9158	.0001	.0044	.0001	.0015	.0001
323.15	.0755	.9193	.0001	.0031	.0001	.0017	.0001
323.15	.0721	.9221	.0001	.0032	.0001	.0018	.0001
323.15	.0721	.9219	.0001	.0035	.0001	.0018	.0001
323.15	.0719	.9221	.0001	.0031	.0001	.0019	.0001
323.15	.0692	.9247	.0001	.0032	.0001	.0019	.0001
323.15	.0694	.9245	.0001	.003	.0001	.0019	.0001
333.15	.0678	.9291	.0001	.0063	.0001	.001	.0001
333.15	.0683	.927	.0001	.0034	.0001	.0015	.0001
333.15	.0625	.9321	.0001	.0033	.0001	.0017	.0001
333.15	.067	.9272	.0001	.0034	.0001	.0018	.0001
333.15	.0657	.9284	.0001	.0036	.0001	.0018	.0001
333.15	.057	.937	.0001	.0031	.0001	.0019	.0001
333.15	.0602	.9337	.0001	.0032	.0001	.0019	.0001
333.15	.0587	.9352	.0001	.0025	.0001	.0019	.0001
