Measured thermophysical data. Solubility of  -Artemether in Methanol + Water and Ethanol + Water from  (288.85 to 331.95) K
Source: J. Chem. Eng. Data, 2009, 10.1021/je800946x
Compound 1: artemether, C16H26O5, purity 99.5%
Compound 2: methanol, CH4O
Compound 3: ethanol, C2H6O
Compound 4: water, H2O, purity 99.9%

System: methanol + water + artemether; phases: Liquid, Crystal
Fixed: Pressure, kPa = 101
Property: Mole fraction of artemether (Liquid); method: Gravimetric
Solvent: Mole fraction of methanol	Temperature, K	Mole fraction of artemether	uncertainty
1	289.45	.02634	.0007902
1	291.15	.02947	.0008841
1	294.05	.03428	.0010284
1	296.95	.04049	.0012147
1	299.05	.0463	.001389
1	300.75	.05188	.0015564
1	303.55	.06491	.0019473
1	306.35	.08243	.0024729
1	308.25	.09879	.0029637
1	310.15	.11623	.0034869
1	312.95	.1492	.004476
1	315.65	.18654	.0055962
1	317.35	.22244	.0066732
1	319.45	.29735	.0089205
1	322.05	.3552	.010656
.7973	288.85	.0066	.000198
.7973	290.85	.00658	.0001974
.7973	293.85	.00695	.0002085
.7973	296.25	.00788	.0002364
.7973	298.65	.00866	.0002598
.7973	300.15	.00872	.0002616
.7973	303.55	.00987	.0002961
.7973	306.25	.01153	.0003459
.7973	312.75	.01747	.0005241
.7973	315.55	.0213	.000639
.7973	317.75	.02465	.0007395
.7973	319.55	.03131	.0009393
.6001	289.35	.00097	.0000291
.6001	291.05	.0011	.000033
.6001	293.95	.00115	.0000345
.6001	296.95	.00126	.0000378
.6001	298.95	.00135	.0000405
.6001	300.75	.00145	.0000435
.6001	303.65	.0016	.000048
.6001	306.55	.0018	.000054
.6001	308.45	.00202	.0000606
.6001	310.35	.00223	.0000669
.6001	313.25	.00255	.0000765
.6001	315.95	.0028	.000084
.6001	317.75	.00319	.0000957
.6001	319.55	.00348	.0001044
.6001	322.05	.00389	.0001167

System: ethanol + water + artemether; phases: Liquid, Crystal
Fixed: Pressure, kPa = 101
Property: Mole fraction of artemether (Liquid); method: Gravimetric
Solvent: Mole fraction of ethanol	Temperature, K	Mole fraction of artemether	uncertainty
1	289.05	.03954	.0011862
1	290.85	.04261	.0012783
1	293.95	.04922	.0014766
1	296.95	.05925	.0017775
1	299.05	.06816	.0020448
1	301.05	.0764	.002292
1	303.95	.09027	.0027081
1	306.95	.10999	.0032997
1	308.45	.11651	.0034953
1	310.45	.13285	.0039855
1	313.2	.16443	.0049329
1	316.25	.1995	.005985
1	318.95	.25143	.0075429
1	322.65	.31532	.0094596
1	326.05	.38692	.0116076
1	328.65	.44177	.0132531
.8012	288.95	.01531	.0004593
.8012	290.85	.0174	.000522
.8012	294.05	.01994	.0005982
.8012	296.95	.02369	.0007107
.8012	298.95	.026	.00078
.8012	303.95	.0451	.001353
.8012	308.95	.05856	.0017568
.8012	312.85	.06677	.0020031
.8012	315.65	.0882	.002646
.8012	317.75	.10419	.0031257
.8012	320.35	.1437	.004311
.8012	322.75	.18575	.0055725
.8012	325.65	.23517	.0070551
.8012	327.55	.28779	.0086337
.8012	329.25	.33993	.0101979
.8012	331.95	.44224	.0132672
.6005	288.95	.00348	.0001044
.6005	290.85	.00367	.0001101
.6005	293.85	.0043	.000129
.6005	296.95	.00504	.0001512
.6005	298.95	.00548	.0001644
.6005	301.95	.00641	.0001923
.6005	303.85	.00705	.0002115
.6005	306.85	.00829	.0002487
.6005	310.65	.01048	.0003144
.6005	313.75	.0128	.000384
.6005	316.65	.01576	.0004728
.6005	318.55	.0183	.000549
.6005	321.45	.02417	.0007251
.6005	323.35	.03071	.0009213

System: methanol + artemether; phases: Liquid, Crystal
Property: Mole fraction of artemether (Liquid); method: Gravimetric
Temperature, K	Pressure, kPa	Mole fraction of artemether	uncertainty
289.45	101	.02634	.0007902
291.15	101	.02947	.0008841
294.05	101	.03428	.0010284
296.95	101	.04049	.0012147
299.05	101	.0463	.001389
300.75	101	.05188	.0015564
303.55	101	.06491	.0019473
306.35	101	.08243	.0024729
308.25	101	.09879	.0029637
310.15	101	.11623	.0034869
312.95	101	.1492	.004476
315.65	101	.18654	.0055962
317.35	101	.22244	.0066732
319.45	101	.29735	.0089205
322.05	101	.3552	.010656

System: ethanol + artemether; phases: Liquid, Crystal
Property: Mole fraction of artemether (Liquid); method: Gravimetric
Temperature, K	Pressure, kPa	Mole fraction of artemether	uncertainty
289.05	101	.03954	.0011862
290.85	101	.04261	.0012783
293.95	101	.04922	.0014766
296.95	101	.05925	.0017775
299.05	101	.06816	.0020448
301.05	101	.0764	.002292
303.95	101	.09027	.0027081
306.95	101	.10999	.0032997
308.45	101	.11651	.0034953
310.45	101	.13285	.0039855
313.2	101	.16443	.0049329
316.25	101	.1995	.005985
318.95	101	.25143	.0075429
322.65	101	.31532	.0094596
326.05	101	.38692	.0116076
328.65	101	.44177	.0132531
