Measured thermophysical data. Vapor Pressure of Silicon Monoxide
Source: J. Chem. Eng. Data, 2008, 10.1021/je800560b
Compound 1: silicon monoxide, OSi, purity 99.9%

System: silicon monoxide; phases: Liquid, Gas
Property: Vapor or sublimation pressure, kPa (Liquid); method: Knudsen effusion method
Temperature, K	Vapor or sublimation pressure, kPa	uncertainty
1301	.00029	
1301	.00029	
1301	.00016	
1315	.0004	
1315	.0004	
1315	.00024	
1325	.0005	
1325	.0005	
1325	.00032	
1335	.00064	
1335	.00064	
1335	.0004	
1350	.00088	
1350	.00089	
1350	.00057	
1364	.00123	
1364	.00123	
1364	.00082	
1374	.00155	
1374	.00152	
1374	.00103	
1399	.0026	
1399	.0026	
1399	.00175	
1421	.0042	
1421	.0042	
1421	.00287	
1433	.0054	
1433	.0054	
1433	.0037	
1446	.0071	
1446	.0071	
1446	.0048	
1470	.0116	
1470	.0114	
1470	.0079	
1495	.0185	
1495	.0177	
1495	.0127	
1519	.029	
1519	.027	
1519	.0201	
