Measured thermophysical data. Solubility of p-Toluenesulfonamide in Pure and Modified Supercritical Carbon  Dioxide
Source: J. Chem. Eng. Data, 2009, 10.1021/je8008842
Compound 1: p-toluenesulfonamide, C7H9NO2S
Compound 2: carbon dioxide, CO2
Compound 3: ethanol, C2H6O
Compound 4: 1,2-ethanediol, C2H6O2

System: p-toluenesulfonamide + carbon dioxide; phases: Fluid (supercritical or subcritical phases), Crystal
Property: Mole fraction of p-toluenesulfonamide (Fluid (supercritical or subcritical phases)); method: Spectrophotometry
Temperature, K	Pressure, kPa	Mole fraction of p-toluenesulfonamide	uncertainty
308.15	8000	.0000097	
308.15	11000	.0000254	
308.15	13000	.0000281	
308.15	17000	.0000309	
308.15	21000	.0000364	
318.15	8000	.0000056	
318.15	11000	.0000242	
318.15	13000	.0000314	
318.15	17000	.0000369	
318.15	21000	.0000438	
328.15	8000	.0000054	
328.15	11000	.0000222	
328.15	13000	.0000324	
328.15	17000	.0000445	
328.15	21000	.0000512	

System: ethanol + p-toluenesulfonamide + carbon dioxide; phases: Fluid (supercritical or subcritical phases), Crystal
Fixed: Solvent: Mole fraction of ethanol = .035
Property: Mole fraction of p-toluenesulfonamide (Fluid (supercritical or subcritical phases)); method: Spectrophotometry
Temperature, K	Pressure, kPa	Mole fraction of p-toluenesulfonamide	uncertainty
308.15	8000	.0000169	
308.15	11000	.0000465	
308.15	13000	.0000598	
308.15	17000	.0000841	
308.15	21000	.0000989	
318.15	8000	.0000094	
318.15	11000	.0000396	
318.15	13000	.0000587	
318.15	17000	.0000978	
318.15	21000	.0001317	
328.15	8000	.0000078	
328.15	11000	.0000334	
328.15	13000	.0000544	
328.15	17000	.0001051	
328.15	21000	.0001515	

System: p-toluenesulfonamide + 1,2-ethanediol + carbon dioxide; phases: Fluid (supercritical or subcritical phases), Crystal
Fixed: Solvent: Mole fraction of 1,2-ethanediol = .035
Property: Mole fraction of p-toluenesulfonamide (Fluid (supercritical or subcritical phases)); method: Spectrophotometry
Temperature, K	Pressure, kPa	Mole fraction of p-toluenesulfonamide	uncertainty
308.15	8000	.0000107	
308.15	11000	.0000291	
308.15	13000	.0000344	
308.15	17000	.0000465	
308.15	21000	.0000622	
