Measured thermophysical data. Solubilities of L-Proline in Subcritical HFC-134a and Supercritical CO2 Fluids
Source: J. Chem. Eng. Data, 2009, 10.1021/je801009z
Compound 1: carbon dioxide, CO2
Compound 2: ethane, 1,1,1,2-tetrafluoro-, C2H2F4
Compound 3: L-proline, C5H9NO2

System: carbon dioxide; phases: Fluid (supercritical or subcritical phases)
Property: Mass density, kg/m3 (Fluid (supercritical or subcritical phases)); method: Vibrating tube method
Pressure, kPa	Temperature, K	Mass density, kg/m3	uncertainty
20000	308	870	60
20000	313	850	40
20000	318	820	10
20000	323	790	10
20000	328	760	40
20000	333	730	70
10000	313	570	220
15000	313	780	10
20000	313	830	30
25000	313	890	90
36000	313	900	100

System: ethane, 1,1,1,2-tetrafluoro-; phases: Liquid
Property: Mass density, kg/m3 (Liquid); method: Vibrating tube method
Pressure, kPa	Temperature, K	Mass density, kg/m3	uncertainty
19600	288	1290	60
19600	298	1270	30
19600	308	1240	2
19600	318	1210	30
19600	328	1180	60
5000	308	1150	50
10100	308	1180	30
15400	308	1210	2
19600	308	1240	30
23700	308	1260	50

System: carbon dioxide + L-proline; phases: Fluid (supercritical or subcritical phases), Crystal
Fixed: Pressure, kPa = 20000
Property: Mass concentration, kg/m3 of L-proline (Fluid (supercritical or subcritical phases)); method: gravimetric analysis
Temperature, K	Mass concentration, kg/m3 of L-proline	uncertainty
308	.279	.01395
318	.76	.038
328	1.074	.0537

System: L-proline + ethane, 1,1,1,2-tetrafluoro-; phases: Liquid, Crystal
Fixed: Pressure, kPa = 20000
Property: Mass concentration, kg/m3 of L-proline (Liquid); method: gravimetric analysis
Temperature, K	Mass concentration, kg/m3 of L-proline	uncertainty
308	5.19	.2595
318	7.47	.3735
328	9.62	.481
