Measured thermophysical data. Viscosity and Density of the System NaCl + LaCl3 + H2O and Its Binary  Subsystems at Different Temperatures
Source: J. Chem. Eng. Data, 2009, 10.1021/je8004062
Compound 1: sodium chloride, ClNa
Compound 2: lanthanum chloride (LaCl3), Cl3La
Compound 3: water, H2O

System: sodium chloride + water; phases: Liquid
Fixed: Pressure, kPa = 101
Property: Mass density, kg/m3 (Liquid); method: Vibrating tube method
Temperature, K	Molality, mol/kg of sodium chloride	Mass density, kg/m3	uncertainty
293.15	.2076	1006.3	.05
293.15	.3959	1014	.05
293.15	.5997	1022	.05
293.15	.7817	1029	.05
293.15	1.0102	1037.6	.05
293.15	1.1987	1044.5	.05
293.15	1.5018	1055.4	.05
293.15	1.7945	1065.7	.05
293.15	2.0038	1073.1	.05
293.15	2.4085	1086.9	.05
293.15	2.9996	1106.5	.05
293.15	3.5952	1125.5	.05
293.15	4.1858	1143.5	.05
293.15	4.8125	1162.1	.05
298.15	.2076	1005.7	.05
298.15	.3959	1013.2	.05
298.15	.5997	1021.2	.05
298.15	.7817	1028.1	.05
298.15	1.0102	1036.6	.05
298.15	1.1987	1043.4	.05
298.15	1.5018	1054.3	.05
298.15	1.7945	1064.5	.05
298.15	2.0038	1071.8	.05
298.15	2.4085	1085.5	.05
298.15	2.9996	1105	.05
298.15	3.5952	1123.8	.05
298.15	4.1858	1141.7	.05
298.15	4.8125	1160	.05
303.15	.2076	1004	.05
303.15	.3959	1011.7	.05
303.15	.5997	1019.6	.05
303.15	.7817	1026.4	.05
303.15	1.0102	1034.8	.05
303.15	1.1987	1041.4	.05
303.15	1.5018	1052.3	.05
303.15	1.7945	1062.5	.05
303.15	2.0038	1069.7	.05
303.15	2.4085	1083.4	.05
303.15	2.9996	1102.7	.05
303.15	3.5952	1121.4	.05
303.15	4.1858	1139.2	.05
303.15	4.8125	1157.5	.05

System: sodium chloride + water; phases: Liquid
Fixed: Pressure, kPa = 101
Property: Viscosity, Pa*s (Liquid); method: Capillary tube (Ostwald; Ubbelohde) method
Temperature, K	Molality, mol/kg of sodium chloride	Viscosity, Pa*s	uncertainty
293.15	.2076	.001012	
293.15	.3959	.0010312	
293.15	.5997	.0010536	
293.15	.7817	.0010726	
293.15	1.0102	.0010977	
293.15	1.1987	.0011168	
293.15	1.5018	.0011508	
293.15	1.7945	.0011836	
293.15	2.0038	.0012082	
293.15	2.4085	.001256	
293.15	2.9996	.0013316	
293.15	3.5952	.001412	
293.15	4.1858	.0014962	
293.15	4.8125	.0015918	
298.15	.2076	.0009082	
298.15	.3959	.0009237	
298.15	.5997	.0009408	
298.15	.7817	.0009565	
298.15	1.0102	.0009769	
298.15	1.1987	.0009944	
298.15	1.5018	.0010239	
298.15	1.7945	.0010541	
298.15	2.0038	.0010769	
298.15	2.4085	.001124	
298.15	2.9996	.0012005	
298.15	3.5952	.0012878	
298.15	4.1858	.0013855	
298.15	4.8125	.0015021	
303.15	.2076	.0008115	
303.15	.3959	.0008306	
303.15	.5997	.0008489	
303.15	.7817	.0008638	
303.15	1.0102	.0008825	
303.15	1.1987	.000898	
303.15	1.5018	.0009236	
303.15	1.7945	.0009496	
303.15	2.0038	.0009695	
303.15	2.4085	.0010108	
303.15	2.9996	.0010802	
303.15	3.5952	.0011618	
303.15	4.1858	.0012562	
303.15	4.8125	.0013726	

System: water + lanthanum chloride (LaCl3); phases: Liquid
Fixed: Pressure, kPa = 101
Property: Mass density, kg/m3 (Liquid); method: Vibrating tube method
Temperature, K	Molality, mol/kg of lanthanum chloride (LaCl3)	Mass density, kg/m3	uncertainty
293.15	.0996	1020.8	.05
293.15	.1997	1043.7	.05
293.15	.2997	1065.6	.05
293.15	.3994	1086.9	.05
293.15	.4984	1107.7	.05
293.15	.6	1128.9	.05
293.15	.6981	1149.1	.05
293.15	.7983	1169.6	.05
293.15	.9256	1195.5	.05
293.15	1.2011	1251.1	.05
298.15	.0996	1019.4	.05
298.15	.1997	1042.1	.05
298.15	.2997	1063.8	.05
298.15	.3994	1085	.05
298.15	.4984	1105.8	.05
298.15	.6	1126.9	.05
298.15	.6981	1147.2	.05
298.15	.7983	1167.7	.05
298.15	.9256	1193.7	.05
298.15	1.2011	1249.5	.05
303.15	.0996	1018	.05
303.15	.1997	1040.4	.05
303.15	.2997	1062	.05
303.15	.3994	1083.2	.05
303.15	.4984	1103.9	.05
303.15	.6	1125	.05
303.15	.6981	1145.3	.05
303.15	.7983	1165.8	.05
303.15	.9256	1191.8	.05
303.15	1.2011	1247.8	.05

System: water + lanthanum chloride (LaCl3); phases: Liquid
Fixed: Pressure, kPa = 101
Property: Viscosity, Pa*s (Liquid); method: Capillary tube (Ostwald; Ubbelohde) method
Temperature, K	Molality, mol/kg of lanthanum chloride (LaCl3)	Viscosity, Pa*s	uncertainty
293.15	.0996	.0010678	
293.15	.1997	.0011089	
293.15	.2997	.0011762	
293.15	.3994	.0012552	
293.15	.4984	.0013405	
293.15	.6	.0014325	
293.15	.6981	.0015244	
293.15	.7983	.0016205	
293.15	.9256	.001745	
293.15	1.2011	.0020204	
298.15	.0996	.0009503	
298.15	.1997	.0009881	
298.15	.2997	.0010488	
298.15	.3994	.0011198	
298.15	.4984	.0011963	
298.15	.6	.0012787	
298.15	.6981	.0013609	
298.15	.7983	.0014468	
298.15	.9256	.001558	
298.15	1.2011	.0018039	
303.15	.0996	.0008517	
303.15	.1997	.0008863	
303.15	.2997	.0009414	
303.15	.3994	.0010056	
303.15	.4984	.0010748	
303.15	.6	.0011493	
303.15	.6981	.0012236	
303.15	.7983	.0013012	
303.15	.9256	.0014016	
303.15	1.2011	.0016236	

System: sodium chloride + water + lanthanum chloride (LaCl3); phases: Liquid
Fixed: Pressure, kPa = 101
Property: Mass density, kg/m3 (Liquid); method: Vibrating tube method
Temperature, K	Molality, mol/kg of sodium chloride	Molality, mol/kg of lanthanum chloride (LaCl3)	Mass density, kg/m3	uncertainty
293.15	.0306	.0945	1020.3	.05
293.15	.0681	.0883	1020.7	.05
293.15	.1325	.0776	1020.7	.05
293.15	.2706	.0547	1021.5	.05
293.15	.1312	.178	1042.9	.05
293.15	.2661	.1554	1042.9	.05
293.15	.0869	.2852	1064.3	.05
293.15	.1901	.2679	1064.6	.05
293.15	.3898	.2346	1065.1	.05
293.15	.7867	.1683	1065.7	.05
293.15	.1212	.3793	1085.7	.05
293.15	.2613	.356	1085.9	.05
293.15	.523	.3126	1085.9	.05
293.15	1.0507	.2251	1087	.05
293.15	.1391	.4753	1106.9	.05
293.15	.6485	.3907	1106.3	.05
293.15	1.2936	.2835	1107.8	.05
293.15	.1672	.5721	1127.5	.05
293.15	.3804	.5365	1128	.05
293.15	.7709	.4713	1127.6	.05
293.15	1.5503	.3413	1127.7	.05
293.15	.1891	.6666	1148.2	.05
293.15	.4483	.6233	1147.6	.05
293.15	.8962	.5486	1146.9	.05
293.15	1.8036	.3973	1147.7	.05
293.15	.2226	.7612	1168.7	.05
293.15	.508	.7137	1167.4	.05
293.15	1.015	.6292	1166.7	.05
298.15	.0306	.0945	1019.3	.05
298.15	.0681	.0883	1020	.05
298.15	.1325	.0776	1019.8	.05
298.15	.2706	.0547	1020.7	.05
298.15	.0586	.19	1041.4	.05
298.15	.1312	.1779	1042	.05
298.15	.2661	.1554	1042.1	.05
298.15	.0869	.2852	1063.4	.05
298.15	.1901	.2679	1063.7	.05
298.15	.3898	.2346	1063.9	.05
298.15	.7867	.1683	1064.5	.05
298.15	.1212	.3793	1084.1	.05
298.15	.2613	.356	1084	.05
298.15	.523	.3126	1084.7	.05
298.15	1.0507	.2251	1085.7	.05
298.15	.1391	.4753	1104.3	.05
298.15	.3331	.4431	1105.1	.05
298.15	1.2936	.2835	1106.2	.05
298.15	.1672	.5721	1126.3	.05
298.15	.3804	.5365	1126.5	.05
298.15	.7709	.4713	1125.9	.05
298.15	1.5503	.3413	1126.1	.05
298.15	.4483	.6233	1145.8	.05
298.15	.8962	.5486	1144.7	.05
298.15	1.8036	.3972	1146	.05
298.15	.2226	.7612	1166	.05
298.15	.508	.7137	1166.1	.05
298.15	1.015	.6292	1164.7	.05
303.15	.0306	.0945	1017.6	.05
303.15	.0681	.0883	1017.4	.05
303.15	.1325	.0776	1017.9	.05
303.15	.2706	.0547	1018	.05
303.15	.0586	.19	1039.7	.05
303.15	.1312	.178	1039.9	.05
303.15	.2661	.1554	1039.9	.05
303.15	.0869	.2852	1061.3	.05
303.15	.1901	.268	1061.5	.05
303.15	.3898	.2346	1061.2	.05
303.15	.7867	.1683	1061.4	.05
303.15	.1212	.3793	1082.6	.05
303.15	.2613	.356	1082.3	.05
303.15	.523	.3126	1082.4	.05
303.15	1.0507	.2251	1082.5	.05
303.15	.1391	.4753	1103.3	.05
303.15	.3331	.4431	1103.1	.05
303.15	.6485	.3907	1102.8	.05
303.15	1.2936	.2835	1102.5	.05
303.15	.1672	.5721	1124.2	.05
303.15	.3804	.5365	1123.8	.05
303.15	.7709	.4713	1123.3	.05
303.15	1.5503	.3413	1122.5	.05
303.15	.1891	.6666	1144.5	.05
303.15	.4483	.6233	1143.9	.05
303.15	.8962	.5486	1143.1	.05
303.15	1.8036	.3972	1141.5	.05
303.15	.2226	.7612	1164.8	.05
303.15	.508	.7137	1163.8	.05
303.15	1.015	.6292	1162.7	.05

System: sodium chloride + water + lanthanum chloride (LaCl3); phases: Liquid
Fixed: Pressure, kPa = 101
Property: Viscosity, Pa*s (Liquid); method: Capillary tube (Ostwald; Ubbelohde) method
Temperature, K	Molality, mol/kg of sodium chloride	Molality, mol/kg of lanthanum chloride (LaCl3)	Viscosity, Pa*s	uncertainty
293.15	.0306	.0945	.001061	
293.15	.0681	.0883	.0010563	
293.15	.2706	.0547	.0010585	
293.15	.0586	.19	.0011095	
293.15	.1312	.1779	.0011096	
293.15	.2661	.1554	.0011119	
293.15	.0869	.2852	.0011784	
293.15	.1901	.2679	.0011808	
293.15	.3898	.2346	.0011822	
293.15	.1212	.3793	.0012561	
293.15	.2613	.356	.0012597	
293.15	1.0507	.2251	.0012515	
293.15	.1391	.4753	.0013419	
293.15	.3331	.4431	.0013435	
293.15	.6485	.3907	.001338	
293.15	1.2936	.2835	.0013236	
293.15	.1672	.5721	.0014245	
293.15	.3804	.5365	.0014228	
293.15	.7709	.4713	.0014176	
293.15	1.5503	.3413	.0014056	
293.15	.1891	.6666	.0015125	
293.15	.4483	.6233	.0015001	
293.15	.8962	.5486	.0014911	
293.15	1.8036	.3973	.0014778	
293.15	.2226	.7612	.0016097	
293.15	.508	.7137	.001589	
293.15	1.015	.6292	.0015798	
298.15	.0306	.0945	.0009463	
298.15	.0681	.0883	.0009436	
298.15	.1325	.0776	.0009412	
298.15	.2706	.0547	.0009408	
298.15	.0586	.19	.0009895	
298.15	.1312	.1779	.0009903	
298.15	.2661	.1554	.0009934	
298.15	.0869	.2852	.0010518	
298.15	.1901	.2679	.0010536	
298.15	.3898	.2346	.0010581	
298.15	.1212	.3793	.0011205	
298.15	.2613	.356	.0011229	
298.15	.523	.3126	.0011232	
298.15	1.0507	.2251	.00112	
298.15	.1391	.4753	.0011972	
298.15	.3331	.4431	.0011976	
298.15	.6485	.3907	.0011925	
298.15	1.2936	.2835	.0011872	
298.15	.1672	.5721	.0012707	
298.15	.3804	.5365	.0012677	
298.15	.7709	.4713	.001264	
298.15	.1891	.6666	.0013483	
298.15	.4483	.6233	.0013419	
298.15	.8962	.5486	.0013293	
298.15	1.8036	.3973	.0013225	
298.15	.2226	.7612	.0014355	
298.15	.508	.7137	.0014255	
298.15	1.015	.6292	.0014118	
303.15	.0306	.0945	.0008475	
303.15	.0681	.0883	.000844	
303.15	.1325	.0776	.0008426	
303.15	.2706	.0547	.0008444	
303.15	.0586	.19	.0008877	
303.15	.1312	.1779	.0008905	
303.15	.2661	.1554	.0008938	
303.15	.0869	.2852	.0009445	
303.15	.1901	.2679	.0009475	
303.15	.1212	.3793	.0010078	
303.15	.2613	.356	.0010105	
303.15	.523	.3126	.0010082	
303.15	1.0507	.2251	.0010069	
303.15	.1391	.4753	.0010766	
303.15	.3331	.4431	.0010775	
303.15	.6485	.3907	.0010715	
303.15	1.2936	.2835	.0010609	
303.15	.1672	.5721	.0011421	
303.15	.3804	.5365	.0011399	
303.15	.7709	.4713	.0011366	
303.15	1.5503	.3413	.0011282	
303.15	.1891	.6666	.0012127	
303.15	.4483	.6233	.0012016	
303.15	.8962	.5486	.0011945	
303.15	1.8036	.3973	.0011887	
303.15	.2226	.7612	.0012919	
303.15	.508	.7137	.0012882	
303.15	1.015	.6292	.0012681	
