Measured thermophysical data. Measurements of the Vapor-Liquid Equilibrium for the CO2 + R290 Mixture
Source: J. Chem. Eng. Data, 2009, 10.1021/je800938s
Compound 1: carbon dioxide, CO2
Compound 2: propane, C3H8, purity 99.99%

System: propane + carbon dioxide; phases: Liquid, Gas
Property: Vapor or sublimation pressure, kPa (Liquid); method: Ebulliometric method (Recirculating still)
Mole fraction of carbon dioxide	Temperature, K	Vapor or sublimation pressure, kPa	uncertainty
.028	260	409	3
.049	260	496	3
.071	260	600	3
.111	260	757	3
.175	260	1025	3
.329	260	1420	3
.126	265	863	3
.217	265	1209	3
.334	265	1585	3
.482	265	1940	3
.631	265	2241	3
.065	270	702	3
.146	270	1091	3
.236	270	1457	3
.37	270	1918	3
.574	270	2426	3
.85	270	2964	3
.09	280	1042	3
.177	280	1491	3
.278	280	1967	3
.399	280	2452	3
.538	280	2902	3
.657	280	3278	3
.061	283.15	961	3
.206	283.15	1757	3
.352	283.15	2398	3
.449	283.15	2794	3
.781	283.15	3921	3
.045	290	1009	3
.214	290	2002	3
.399	290	2961	3
.608	290	3865	3
.823	290	4710	3

System: propane + carbon dioxide; phases: Gas, Liquid
Property: Mole fraction of carbon dioxide (Gas); method: Chromatography
Mole fraction of carbon dioxide	Temperature, K	Mole fraction of carbon dioxide	uncertainty
.028	260	.215	.0002365
.049	260	.378	.0004158
.071	260	.464	.0005104
.111	260	.562	.0006182
.175	260	.68	.000748
.329	260	.774	.0008514
.126	265	.57	.000627
.217	265	.692	.0007612
.334	265	.78	.000858
.482	265	.831	.0009141
.631	265	.873	.0009603
.065	270	.378	.0004158
.146	270	.59	.000649
.236	270	.712	.0007832
.37	270	.787	.0008657
.574	270	.85	.000935
.85	270	.906	.0009966
.09	280	.427	.0004697
.177	280	.588	.0006468
.278	280	.703	.0007733
.399	280	.753	.0008283
.538	280	.813	.0008943
.657	280	.853	.0009383
.061	283.15	.325	.0003575
.206	283.15	.63	.000693
.352	283.15	.728	.0008008
.449	283.15	.773	.0008503
.781	283.15	.891	.0009801
.045	290	.227	.0002497
.214	290	.607	.0006677
.399	290	.734	.0008074
.608	290	.815	.0008965
.823	290	.881	.0009691
