Measured thermophysical data. Solubilities of Lauric Acid in n-Hexane, Acetone, Propanol, 2-Propanol,  1-Bromopropane, and Trichloroethylene from (279.0 to 315.3) K
Source: J. Chem. Eng. Data, 2009, 10.1021/je800739y
Compound 1: dodecanoic acid, C12H24O2, purity 97%
Compound 2: hexane, C6H14
Compound 3: propanone, C3H6O
Compound 4: 2-propanol, C3H8O
Compound 5: 1-propanol, C3H8O
Compound 6: trichloroethylene, C2HCl3
Compound 7: 1-bromopropane, C3H7Br

System: hexane + dodecanoic acid; phases: Liquid, Crystal
Fixed: Pressure, kPa = 101
Property: Mole fraction of dodecanoic acid (Liquid); method: dynamic method
Temperature, K	Mole fraction of dodecanoic acid	uncertainty
279.9	.0292	.0005
282.5	.0408	.0005
283.6	.0502	.0005
286.9	.0736	.0005
289.7	.1078	.0005
291.7	.1339	.0005
293.9	.1712	.0005
296.4	.2231	.0005
297.5	.2516	.0005
300.1	.3221	.0005
301.8	.3795	.0005
303.8	.4424	.0005
305.9	.5188	.0005
308	.5926	.0005
311	.7107	.0005
312.5	.7775	.0005
314.2	.8583	.0005

System: propanone + dodecanoic acid; phases: Liquid, Crystal
Fixed: Pressure, kPa = 101
Property: Mole fraction of dodecanoic acid (Liquid); method: dynamic method
Temperature, K	Mole fraction of dodecanoic acid	uncertainty
286.6	.0794	.0005
290.1	.1075	.0005
293.1	.1457	.0005
293.3	.1465	.0005
298	.2242	.0005
299.9	.2835	.0005
301.9	.3395	.0005
303.4	.389	.0005
305.1	.4489	.0005
306.7	.5123	.0005
308.1	.5679	.0005
309.1	.6138	.0005
310.9	.678	.0005
312	.7349	.0005
313	.795	.0005
314.4	.8571	.0005
315.2	.8955	.0005

System: 2-propanol + dodecanoic acid; phases: Liquid, Crystal
Fixed: Pressure, kPa = 101
Property: Mole fraction of dodecanoic acid (Liquid); method: dynamic method
Temperature, K	Mole fraction of dodecanoic acid	uncertainty
279.2	.0797	.0005
282.7	.1041	.0005
285.9	.1301	.0005
289.1	.1638	.0005
293.1	.2199	.0005
297.1	.2832	.0005
301	.361	.0005
303	.4089	.0005
304.4	.4581	.0005
306.1	.5135	.0005
308.1	.5857	.0005
309.8	.6477	.0005
311.2	.7116	.0005
312.6	.7774	.0005
314.1	.8417	.0005
314.9	.8959	.0005

System: 1-propanol + dodecanoic acid; phases: Liquid, Crystal
Fixed: Pressure, kPa = 101
Property: Mole fraction of dodecanoic acid (Liquid); method: dynamic method
Temperature, K	Mole fraction of dodecanoic acid	uncertainty
287.1	.1298	.0005
289.6	.1533	.0005
292.8	.192	.0005
295.1	.2254	.0005
297.9	.2747	.0005
299.9	.3175	.0005
301.5	.3527	.0005
303.5	.4057	.0005
304.7	.4403	.0005
306.5	.5088	.0005
307.4	.5406	.0005
308.7	.5969	.0005
309.9	.6444	.0005
310.7	.6903	.0005
312.1	.7491	.0005
313.4	.8178	.0005
314.2	.873	.0005

System: trichloroethylene + dodecanoic acid; phases: Liquid, Crystal
Fixed: Pressure, kPa = 101
Property: Mole fraction of dodecanoic acid (Liquid); method: dynamic method
Temperature, K	Mole fraction of dodecanoic acid	uncertainty
282	.1436	.0005
283.1	.1568	.0005
284.6	.1713	.0005
288.4	.2162	.0005
291	.2582	.0005
293	.2947	.0005
296	.3372	.0005
298.2	.3885	.0005
301.2	.4407	.0005
303.3	.5156	.0005
306.7	.591	.0005
308.6	.6662	.0005
310.5	.7246	.0005
312.5	.8058	.0005
313.5	.8547	.0005

System: 1-bromopropane + dodecanoic acid; phases: Liquid, Crystal
Fixed: Pressure, kPa = 101
Property: Mole fraction of dodecanoic acid (Liquid); method: dynamic method
Temperature, K	Mole fraction of dodecanoic acid	uncertainty
280.6	.0756	.0005
283.8	.0997	.0005
287.8	.1504	.0005
289.9	.1847	.0005
293.1	.2386	.0005
295.2	.2753	.0005
298.8	.3399	.0005
301.4	.4041	.0005
304.3	.4732	.0005
305.3	.5281	.0005
307.3	.5734	.0005
309.3	.6453	.0005
310.5	.709	.0005
312.5	.7748	.0005
313.8	.8591	.0005
