Measured thermophysical data. Gas-Liquid Equilibrium Data for a Mixture Gas of Sulfur Dioxide + Nitrogen  with Ethylene Glycol Aqueous Solutions at 298.15 K and 123.15 kPa
Source: J. Chem. Eng. Data, 2008, 10.1021/je800271e
Compound 1: sulfur dioxide, O2S
Compound 2: nitrogen, N2
Compound 3: 1,2-ethanediol, C2H6O2
Compound 4: water, H2O

System: 1,2-ethanediol; phases: Liquid, Gas
Property: Surface tension liquid-gas, N/m (Liquid); method: Drop volume
Temperature, K	Surface tension liquid-gas, N/m	uncertainty
308.15	.050114	
313.15	.048732	
318.15	.047254	
323.15	.046406	

System: 1,2-ethanediol; phases: Liquid, Gas
Property: Viscosity, Pa*s (Liquid); method: Capillary tube (Ostwald; Ubbelohde) method
Temperature, K	Viscosity, Pa*s	uncertainty
308.15	.0092122	
313.15	.0079605	
318.15	.0062933	
323.15	.0054468	

System: sulfur dioxide + nitrogen + water; phases: Liquid, Gas
Fixed: Pressure, kPa = 123.15
Fixed: Temperature, K = 298.15
Property: Mass concentration, kg/m3 of sulfur dioxide (Liquid); method: Chromatography
Mole fraction of sulfur dioxide	Mass concentration, kg/m3 of sulfur dioxide	uncertainty
.0000064	.0618	.006
.0000256	.0703	.006
.0000538	.0776	.006
.0000791	.0849	.006
.000137	.0946	.006
.000234	.115	.006
.000381	.153	.006
.000502	.176	.006
.00058	.2	.006
.000627	.219	.006

System: 1,2-ethanediol + sulfur dioxide + nitrogen; phases: Liquid, Gas
Fixed: Pressure, kPa = 123.15
Fixed: Temperature, K = 298.15
Property: Mass concentration, kg/m3 of sulfur dioxide (Liquid); method: Chromatography
Mole fraction of sulfur dioxide	Mass concentration, kg/m3 of sulfur dioxide	uncertainty
.0000276	.0201	.006
.0000428	.0211	.006
.0000916	.0342	.006
.000138	.043	.006
.000141	.0438	.006
.000186	.0596	.006
.000199	.0562	.006
.000246	.0696	.006
.000288	.0773	.006
.000319	.0878	.006
.000357	.0983	.006
.000363	.0986	.006
.000394	.107	.006
.000458	.119	.006
.000501	.128	.006
.000538	.131	.006
.000587	.147	.006

System: 1,2-ethanediol + water; phases: Liquid, Gas
Property: Surface tension liquid-gas, N/m (Liquid); method: Drop volume
Temperature, K	Mole fraction of 1,2-ethanediol	Surface tension liquid-gas, N/m	uncertainty
308.15	0	.071023	
308.15	.0145	.069732	
308.15	.0312	.067829	
308.15	.0484	.066131	
308.15	.0686	.064568	
308.15	.0883	.063274	
308.15	.1107	.062145	
308.15	.1621	.060017	
308.15	.2247	.057515	
308.15	.3032	.056034	
308.15	.4035	.054026	
308.15	.5366	.05247	
308.15	1	.050114	
313.15	0	.069687	
313.15	.0145	.066552	
313.15	.0312	.065577	
313.15	.0484	.064095	
313.15	.0686	.062512	
313.15	.0883	.061325	
313.15	.1107	.060324	
313.15	.1621	.058103	
313.15	.2247	.055923	
313.15	.3032	.054446	
313.15	.4035	.052412	
313.15	.5366	.050701	
313.15	1	.048732	
318.15	0	.067676	
318.15	.0145	.065925	
318.15	.0312	.063916	
318.15	.0484	.062244	
318.15	.0686	.060569	
318.15	.0883	.059211	
318.15	.1107	.058412	
318.15	.1621	.056253	
318.15	.2247	.054356	
318.15	.3032	.052663	
318.15	.4035	.050648	
318.15	.5366	.049336	
318.15	1	.047254	
323.15	0	.066125	
323.15	.0145	.063244	
323.15	.0312	.060584	
323.15	.0484	.059621	
323.15	.0686	.057964	
323.15	.0883	.056767	
323.15	.1107	.055754	
323.15	.1621	.054153	
323.15	.2247	.052152	
323.15	.3032	.050524	
323.15	.4035	.049124	
323.15	.5366	.047875	
323.15	1	.046406	

System: 1,2-ethanediol + water; phases: Liquid, Gas
Property: Viscosity, Pa*s (Liquid); method: Capillary tube (Ostwald; Ubbelohde) method
Temperature, K	Mole fraction of 1,2-ethanediol	Viscosity, Pa*s	uncertainty
308.15	0	.000721	
308.15	.0145	.0007543	
308.15	.0312	.0008381	
308.15	.0484	.0009241	
308.15	.0686	.0010212	
308.15	.0883	.0011333	
308.15	.1107	.0012665	
308.15	.1621	.0015744	
308.15	.2247	.0020363	
308.15	.3032	.0026616	
308.15	.4035	.0035116	
308.15	.5366	.0046996	
308.15	1	.0092122	
313.15	0	.0006532	
313.15	.0145	.0007037	
313.15	.0312	.000764	
313.15	.0484	.0008372	
313.15	.0686	.0009256	
313.15	.0883	.0010174	
313.15	.1107	.0011266	
313.15	.1621	.0014047	
313.15	.2247	.0017717	
313.15	.3032	.0022976	
313.15	.4035	.0030166	
313.15	.5366	.0040541	
313.15	1	.0079605	
318.15	0	.00059	
318.15	.0145	.0006336	
318.15	.0312	.0006785	
318.15	.0484	.0007424	
318.15	.0686	.0007995	
318.15	.0883	.0008755	
318.15	.1107	.0009589	
318.15	.1621	.0011838	
318.15	.2247	.00148	
318.15	.3032	.0018883	
318.15	.4035	.0024683	
318.15	.5366	.003283	
318.15	1	.0062933	
323.15	0	.00055	
323.15	.0145	.0005878	
323.15	.0312	.0006321	
323.15	.0484	.0006876	
323.15	.0686	.0007433	
323.15	.0883	.0008133	
323.15	.1107	.0008853	
323.15	.1621	.0010818	
323.15	.2247	.0013388	
323.15	.3032	.0016786	
323.15	.4035	.0021786	
323.15	.5366	.0028736	
323.15	1	.0054468	
