Measured thermophysical data. Viscosities of Ammonium Sulfate, Potassium Sulfate, and Aluminum Sulfate in  Water and Water + N,N-Dimethylformamide Mixtures at Different Temperatures
Source: J. Chem. Eng. Data, 2008, 10.1021/je800330d
Compound 1: sulfuric acid, potassium salt, K2O4S
Compound 2: ammonium sulfate, H8N2O4S
Compound 3: aluminum sulfate, Al2O12S3
Compound 4: water, H2O
Compound 5: N,N-dimethylformamide, C3H7NO

System: water; phases: Liquid
Property: Viscosity, Pa*s (Liquid); method: Capillary tube (Ostwald; Ubbelohde) method
Temperature, K	Pressure, kPa	Viscosity, Pa*s	uncertainty
298.15	101	.00089	
308.15	101	.000719	

System: N,N-dimethylformamide + water + sulfuric acid, potassium salt; phases: Liquid
Fixed: Pressure, kPa = 101
Property: Viscosity, Pa*s (Liquid); method: Capillary tube (Ostwald; Ubbelohde) method
Temperature, K	Solvent: Mole fraction of N,N-dimethylformamide	Molality, mol/kg of sulfuric acid, potassium salt	Viscosity, Pa*s	uncertainty
298.15	0	0	.00089	
298.15	0	.0081	.000895	
298.15	0	.0099	.000896	
298.15	0	.0201	.000899	
298.15	0	.0402	.000905	
298.15	0	.0599	.000909	
298.15	0	.0802	.000914	
298.15	0	.1	.000918	
298.15	.05	0	.001002	
298.15	.05	.0081	.001007	
298.15	.05	.0099	.001008	
298.15	.05	.0201	.001012	
298.15	.05	.0402	.001017	
298.15	.05	.0599	.001023	
298.15	.05	.0802	.001028	
298.15	.05	.1	.001033	
298.15	.1	0	.001126	
298.15	.1	.0081	.001123	
298.15	.1	.0099	.001133	
298.15	.1	.0201	.001137	
298.15	.1	.0402	.001144	
298.15	.1	.0599	.001151	
298.15	.1	.0802	.001157	
298.15	.1	.1	.001163	
298.15	.15	0	.001258	
298.15	.15	.0081	.001263	
298.15	.15	.0099	.001264	
298.15	.15	.0201	.001268	
298.15	.15	.0402	.001276	
298.15	.15	.0599	.001283	
298.15	.15	.0802	.00129	
298.15	.15	.1	.001296	
298.15	.2	0	.001391	
298.15	.2	.0081	.001397	
298.15	.2	.0099	.001398	
298.15	.2	.0201	.001403	
298.15	.2	.0402	.001411	
298.15	.2	.0599	.001419	
298.15	.2	.0802	.001427	
298.15	.2	.1	.001435	
308.15	0	0	.000719	
308.15	0	.0081	.000723	
308.15	0	.0099	.000724	
308.15	0	.0201	.000727	
308.15	0	.0402	.000732	
308.15	0	.0599	.000737	
308.15	0	.0802	.000742	
308.15	0	.1	.000746	
308.15	.05	0	.000797	
308.15	.05	.0081	.000801	
308.15	.05	.0099	.000802	
308.15	.05	.0201	.000805	
308.15	.05	.0402	.000811	
308.15	.05	.0599	.000816	
308.15	.05	.0802	.000821	
308.15	.05	.1	.000826	
308.15	.1	0	.000891	
308.15	.1	.0081	.000892	
308.15	.1	.0099	.000893	
308.15	.1	.0201	.000895	
308.15	.1	.0402	.000899	
308.15	.1	.0599	.000904	
308.15	.1	.0802	.000908	
308.15	.1	.1	.000913	
308.15	.15	0	.000984	
308.15	.15	.0081	.000988	
308.15	.15	.0099	.000989	
308.15	.15	.0201	.000993	
308.15	.15	.0402	.001	
308.15	.15	.0599	.001007	
308.15	.15	.0802	.001014	
308.15	.15	.1	.00102	
308.15	.2	0	.00108	
308.15	.2	.0081	.001081	
308.15	.2	.0099	.001082	
308.15	.2	.0201	.001085	
308.15	.2	.0402	.001092	
308.15	.2	.0599	.001099	
308.15	.2	.0802	.001106	
308.15	.2	.1	.001113	

System: N,N-dimethylformamide + water + ammonium sulfate; phases: Liquid
Fixed: Pressure, kPa = 101
Property: Viscosity, Pa*s (Liquid); method: Capillary tube (Ostwald; Ubbelohde) method
Temperature, K	Solvent: Mole fraction of N,N-dimethylformamide	Molality, mol/kg of ammonium sulfate	Viscosity, Pa*s	uncertainty
298.15	0	0	.00089	
298.15	0	.0081	.000897	
298.15	0	.0099	.000898	
298.15	0	.0201	.000902	
298.15	0	.0402	.000908	
298.15	0	.0599	.000913	
298.15	0	.0802	.000918	
298.15	0	.1	.000922	
308.15	0	0	.000719	
308.15	0	.0081	.000725	
308.15	0	.0099	.000726	
308.15	0	.0201	.000729	
308.15	0	.0402	.000735	
308.15	0	.0599	.00074	
308.15	0	.0802	.000744	
308.15	0	.1	.000748	
298.15	.1	0	.001126	
298.15	.1	.0081	.001134	
298.15	.1	.0099	.001135	
298.15	.1	.0201	.00114	
298.15	.1	.0402	.001148	
298.15	.1	.0599	.001155	
298.15	.1	.0802	.001162	
298.15	.1	.1	.001168	
298.15	.2	0	.001391	
298.15	.2	.0081	.001399	
298.15	.2	.0099	.0014	
298.15	.2	.0201	.001406	
298.15	.2	.0402	.001415	
298.15	.2	.0599	.001424	
298.15	.2	.0802	.001432	
298.15	.2	.1	.00144	
308.15	.1	0	.000891	
308.15	.1	.0081	.000893	
308.15	.1	.0099	.000894	
308.15	.1	.0201	.000896	
308.15	.1	.0402	.000901	
308.15	.1	.0599	.000905	
308.15	.1	.0802	.000911	
308.15	.1	.1	.000914	
308.15	.2	0	.00108	
308.15	.2	.0081	.001083	
308.15	.2	.0099	.001084	
308.15	.2	.0201	.001087	
308.15	.2	.0402	.001094	
308.15	.2	.0599	.001101	
308.15	.2	.0802	.001108	
308.15	.2	.1	.001115	
298.15	.05	0	.001002	
298.15	.05	.0081	.001011	
298.15	.05	.0099	.001012	
298.15	.05	.0201	.001017	
298.15	.05	.0402	.001025	
298.15	.05	.0599	.001032	
298.15	.05	.0802	.001038	
298.15	.05	.1	.001044	
298.15	.15	0	.001258	
298.15	.15	.0081	.001265	
298.15	.15	.0099	.001266	
298.15	.15	.0201	.001271	
298.15	.15	.0402	.001279	
298.15	.15	.0599	.001286	
298.15	.15	.0802	.001293	
298.15	.15	.1	.001299	
308.15	.05	0	.000797	
308.15	.05	.0081	.000803	
308.15	.05	.0099	.000804	
308.15	.05	.0201	.000808	
308.15	.05	.0402	.000814	
308.15	.05	.0599	.00082	
308.15	.05	.0802	.000825	
308.15	.05	.1	.00083	
308.15	.15	0	.000984	
308.15	.15	.0081	.00099	
308.15	.15	.0099	.000991	
308.15	.15	.0201	.000996	
308.15	.15	.0402	.001004	
308.15	.15	.0599	.001011	
308.15	.15	.0802	.001019	
308.15	.15	.1	.001026	

System: N,N-dimethylformamide + water + aluminum sulfate; phases: Liquid
Fixed: Pressure, kPa = 101
Property: Viscosity, Pa*s (Liquid); method: Capillary tube (Ostwald; Ubbelohde) method
Temperature, K	Solvent: Mole fraction of N,N-dimethylformamide	Molality, mol/kg of aluminum sulfate	Viscosity, Pa*s	uncertainty
298.15	0	0	.00089	
298.15	0	.0081	.000904	
298.15	0	.0099	.000908	
298.15	0	.0201	.000927	
298.15	0	.0402	.000967	
298.15	0	.0599	.001008	
298.15	0	.0802	.00105	
298.15	0	.1	.001093	
298.15	.05	0	.001002	
298.15	.05	.0081	.001021	
298.15	.05	.0099	.001025	
298.15	.05	.0201	.00105	
298.15	.05	.0402	.001098	
298.15	.05	.0599	.001147	
298.15	.05	.0802	.001195	
298.15	.05	.1	.001244	
298.15	.1	0	.001126	
298.15	.1	.0081	.001146	
298.15	.1	.0099	.00115	
298.15	.1	.0201	.001178	
298.15	.1	.0402	.001234	
298.15	.1	.0599	.001287	
298.15	.1	.0802	.001347	
298.15	.1	.1	.001408	
298.15	.15	0	.001258	
298.15	.15	.0081	.001277	
298.15	.15	.0099	.001283	
298.15	.15	.0201	.001313	
298.15	.15	.0402	.001377	
298.15	.15	.0599	.001442	
298.15	.15	.0802	.001508	
298.15	.15	.1	.001575	
298.15	.2	0	.001391	
298.15	.2	.0081	.001434	
298.15	.2	.0099	.001443	
298.15	.2	.0201	.001487	
298.15	.2	.0402	.001574	
298.15	.2	.0599	.001658	
298.15	.2	.0802	.001742	
298.15	.2	.1	.001825	
308.15	0	.0402	.000777	
308.15	0	0	.000719	
308.15	.05	.0402	.000869	
308.15	.05	0	.000797	
308.15	.1	.0402	.001002	
308.15	0	.0099	.000732	
308.15	.05	.0099	.000815	
308.15	.15	.0402	.001082	
308.15	.1	.0099	.000925	
308.15	.2	.0402	.001171	
308.15	.1	0	.000891	
308.15	.05	.0599	.000906	
308.15	0	.0081	.000729	
308.15	.15	.0099	.001006	
308.15	.1	.0599	.001052	
308.15	0	.0599	.000807	
308.15	.05	.0081	.000811	
308.15	.15	.0599	.00113	
308.15	.2	.0099	.001095	
308.15	.2	.0599	.001224	
308.15	.05	.0802	.000942	
308.15	.1	.0802	.0011	
308.15	.1	.0081	.00092	
308.15	0	.0802	.000839	
308.15	.15	.0802	.001182	
308.15	0	.0201	.000747	
308.15	.05	.0201	.000833	
308.15	.15	0	.000984	
308.15	.1	.0201	.000952	
308.15	.2	.0802	.001277	
308.15	.15	.0081	.001002	
308.15	.15	.1	.001229	
308.15	.05	.1	.000979	
308.15	.1	.1	.001148	
308.15	.2	0	.00108	
308.15	.15	.0201	.001032	
308.15	.2	.0081	.001091	
308.15	0	.1	.00087	
308.15	.2	.0201	.00112	
308.15	.2	.1	.001331	

System: water + sulfuric acid, potassium salt; phases: Liquid
Property: Viscosity, Pa*s (Liquid); method: Capillary tube (Ostwald; Ubbelohde) method
Temperature, K	Molality, mol/kg of sulfuric acid, potassium salt	Pressure, kPa	Viscosity, Pa*s	uncertainty
298.15	.0081	101	.000895	
298.15	.0099	101	.000896	
298.15	.0201	101	.000899	
298.15	.0402	101	.000905	
298.15	.0599	101	.000909	
298.15	.0802	101	.000914	
298.15	.1	101	.000918	
308.15	.0081	101	.000723	
308.15	.0099	101	.000724	
308.15	.0201	101	.000727	
308.15	.0402	101	.000732	
308.15	.0599	101	.000737	
308.15	.0802	101	.000742	
308.15	.1	101	.000746	

System: N,N-dimethylformamide + water; phases: Liquid
Property: Viscosity, Pa*s (Liquid); method: Capillary tube (Ostwald; Ubbelohde) method
Temperature, K	Mole fraction of N,N-dimethylformamide	Pressure, kPa	Viscosity, Pa*s	uncertainty
298.15	.05	101	.001002	
298.15	.1	101	.001126	
298.15	.15	101	.001258	
298.15	.2	101	.001391	
308.15	.05	101	.000797	
308.15	.1	101	.000891	
308.15	.15	101	.000984	
308.15	.2	101	.00108	

System: water + ammonium sulfate; phases: Liquid
Property: Viscosity, Pa*s (Liquid); method: Capillary tube (Ostwald; Ubbelohde) method
Temperature, K	Molality, mol/kg of ammonium sulfate	Pressure, kPa	Viscosity, Pa*s	uncertainty
298.15	.0081	101	.000897	
298.15	.0099	101	.000898	
298.15	.0201	101	.000902	
298.15	.0402	101	.000908	
298.15	.0599	101	.000913	
298.15	.0802	101	.000918	
298.15	.1	101	.000922	
308.15	.0081	101	.000725	
308.15	.0099	101	.000726	
308.15	.0201	101	.000729	
308.15	.0402	101	.000735	
308.15	.0599	101	.00074	
308.15	.0802	101	.000744	
308.15	.1	101	.000748	

System: water + aluminum sulfate; phases: Liquid
Property: Viscosity, Pa*s (Liquid); method: Capillary tube (Ostwald; Ubbelohde) method
Temperature, K	Molality, mol/kg of aluminum sulfate	Pressure, kPa	Viscosity, Pa*s	uncertainty
298.15	.0081	101	.000904	
298.15	.0099	101	.000908	
298.15	.0201	101	.000927	
298.15	.0402	101	.000967	
298.15	.0599	101	.001008	
298.15	.0802	101	.00105	
298.15	.1	101	.001093	
308.15	.0402	101	.000777	
308.15	.0099	101	.000732	
308.15	.0081	101	.000729	
308.15	.0599	101	.000807	
308.15	.0802	101	.000839	
308.15	.0201	101	.000747	
308.15	.1	101	.00087	
