Measured thermophysical data. Electrical Conductivity and Viscosity of Aqueous Binary Mixtures of 1-Alkyl-3-methyl Imidazolium Tetrafluoroborate at Four Temperatures
Source: J. Chem. Eng. Data, 2010, 10.1021/je900600c
Compound 1: 1-ethyl-3-methylimidazolium tetrafluoroborate, C6H11BF4N2
Compound 2: 1-butyl-3-methylimidazolium tetrafluoroborate, C8H15BF4N2
Compound 3: 1-hexyl-3-methylimidazolium tetrafluoroborate, C10H19BF4N2
Compound 4: water, H2O

System: 1-ethyl-3-methylimidazolium tetrafluoroborate; phases: Liquid, Air at 1 atmosphere
Property: Viscosity, Pa*s (Liquid); method: Concentric cylinders viscometry
Temperature, K	Viscosity, Pa*s	uncertainty
288.15	.05549	
298.15	.03693	
308.15	.02602	
318.15	.019166	

System: 1-ethyl-3-methylimidazolium tetrafluoroborate; phases: Liquid, Air at 1 atmosphere
Property: Electrical conductivity, S/m (Liquid); method: crison conductivimeter
Temperature, K	Electrical conductivity, S/m	uncertainty
298.15	.163	.00163

System: 1-butyl-3-methylimidazolium tetrafluoroborate; phases: Liquid, Air at 1 atmosphere
Property: Viscosity, Pa*s (Liquid); method: Concentric cylinders viscometry
Temperature, K	Viscosity, Pa*s	uncertainty
288.15	.17349	
298.15	.0992	
308.15	.06133	
318.15	.04041	

System: 1-butyl-3-methylimidazolium tetrafluoroborate; phases: Liquid, Air at 1 atmosphere
Property: Electrical conductivity, S/m (Liquid); method: crison conductivimeter
Temperature, K	Electrical conductivity, S/m	uncertainty
298.15	.0352	.000352

System: 1-hexyl-3-methylimidazolium tetrafluoroborate; phases: Liquid, Air at 1 atmosphere
Property: Viscosity, Pa*s (Liquid); method: Concentric cylinders viscometry
Temperature, K	Viscosity, Pa*s	uncertainty
288.15	.3575	
298.15	.19092	
308.15	.11034	
318.15	.06846	

System: 1-hexyl-3-methylimidazolium tetrafluoroborate; phases: Liquid, Air at 1 atmosphere
Property: Electrical conductivity, S/m (Liquid); method: crison conductivimeter
Temperature, K	Electrical conductivity, S/m	uncertainty
298.15	.01261	.0001261

System: water + 1-ethyl-3-methylimidazolium tetrafluoroborate; phases: Liquid, Air at 1 atmosphere
Property: Viscosity, Pa*s (Liquid); method: Concentric cylinders viscometry
Temperature, K	Mole fraction of 1-ethyl-3-methylimidazolium tetrafluoroborate	Viscosity, Pa*s	uncertainty
288.15	1	.05549	
288.15	.9015	.03615	
288.15	.7809	.02388	
288.15	.6947	.018261	
288.15	.6018	.013255	
288.15	.5084	.010288	
288.15	.4011	.007278	
288.15	.3009	.005431	
288.15	.1971	.003179	
288.15	.1009	.002315	
288.15	0	.0011374	
298.15	1	.03693	
298.15	.9015	.02523	
298.15	.7809	.016663	
298.15	.6947	.013514	
298.15	.6018	.010023	
298.15	.5084	.007907	
298.15	.4011	.005619	
298.15	.3009	.004232	
298.15	.1971	.002502	
298.15	.1009	.0018201	
298.15	0	.0008903	
308.15	1	.02602	
308.15	.9015	.018448	
308.15	.7809	.012635	
308.15	.6947	.010385	
308.15	.6018	.007851	
308.15	.5084	.006257	
308.15	.4011	.004486	
308.15	.3009	.003404	
308.15	.1971	.002034	
308.15	.1009	.001477	
308.15	0	.000719	
318.15	1	.019166	
318.15	.9015	.01401	
318.15	.7809	.009895	
318.15	.6947	.008228	
318.15	.6018	.006328	
318.15	.5084	.005086	
318.15	.4011	.003677	
318.15	.3009	.002811	
318.15	.1971	.001696	
318.15	.1009	.0012004	
318.15	0	.0005972	

System: water + 1-ethyl-3-methylimidazolium tetrafluoroborate; phases: Liquid, Air at 1 atmosphere
Fixed: Temperature, K = 298.15
Property: Electrical conductivity, S/m (Liquid); method: crison conductivimeter
Mole fraction of 1-ethyl-3-methylimidazolium tetrafluoroborate	Electrical conductivity, S/m	uncertainty
1	.163	.00163
.6335	.41	.0041
.5067	.52	.0052
.4502	.607	.00607
.3401	.764	.00764
.2668	.815	.00815
.2144	.844	.00844
.1751	.852	.00852
.1445	.847	.00847
.1201	.836	.00836
.1001	.818	.00818
.0834	.79	.0079
.0693	.743	.00743
.0572	.71	.0071
.0467	.656	.00656
.0375	.613	.00613
.0294	.543	.00543
.0222	.476	.00476
.0158	.403	.00403
.01	.295	.00295
.0048	.179	.00179

System: water + 1-butyl-3-methylimidazolium tetrafluoroborate; phases: Liquid, Air at 1 atmosphere
Property: Viscosity, Pa*s (Liquid); method: Concentric cylinders viscometry
Temperature, K	Mole fraction of 1-butyl-3-methylimidazolium tetrafluoroborate	Viscosity, Pa*s	uncertainty
288.15	1	.17349	
288.15	.9524	.1341	
288.15	.8909	.10835	
288.15	.857	.08927	
288.15	.7611	.05823	
288.15	.6922	.04559	
288.15	.6	.03252	
288.15	.4946	.02109	
288.15	.3734	.013767	
288.15	.3008	.0097749	
288.15	.2019	.006686	
288.15	.0968	.003829	
298.15	1	.0992	
298.15	.9524	.07868	
298.15	.8909	.06556	
298.15	.857	.0551	
298.15	.7611	.03768	
298.15	.6922	.03017	
298.15	.6	.02209	
298.15	.4946	.014724	
298.15	.3734	.009816	
298.15	.3008	.0070665	
298.15	.2019	.004893	
298.15	.0968	.00279	
308.15	1	.06133	
308.15	.9524	.04983	
308.15	.8909	.04244	
308.15	.857	.03632	
308.15	.7611	.02586	
308.15	.6922	.02112	
308.15	.6	.015811	
308.15	.4946	.010797	
308.15	.3734	.007326	
308.15	.3008	.005339	
308.15	.2019	.003746	
308.15	.0968	.002469	
318.15	1	.04041	
318.15	.9524	.03352	
318.15	.8909	.02909	
318.15	.857	.02526	
318.15	.7611	.018624	
318.15	.6922	.015472	
318.15	.6	.011811	
318.15	.4946	.008237	
318.15	.3734	.005677	
318.15	.3008	.0041831	
318.15	.2019	.002956	
318.15	.0968	.0017174	

System: water + 1-butyl-3-methylimidazolium tetrafluoroborate; phases: Liquid, Air at 1 atmosphere
Fixed: Temperature, K = 298.15
Property: Electrical conductivity, S/m (Liquid); method: crison conductivimeter
Mole fraction of 1-butyl-3-methylimidazolium tetrafluoroborate	Electrical conductivity, S/m	uncertainty
1	.0352	.000352
.7765	.0785	.000785
.6295	.13	.0013
.5165	.1863	.001863
.3827	.275	.00275
.2833	.364	.00364
.223	.42	.0042
.1832	.455	.00455
.1542	.484	.00484
.1316	.5	.005
.1121	.508	.00508
.0969	.509	.00509
.0849	.508	.00508
.0755	.505	.00505
.0678	.498	.00498
.0604	.484	.00484
.0543	.481	.00481
.048	.473	.00473
.0428	.465	.00465
.0385	.454	.00454
.0346	.441	.00441
.0287	.415	.00415
.0199	.364	.00364
.0139	.314	.00314
.0104	.268	.00268
.007	.211	.00211
.0049	.1642	.001642
.0039	.1431	.001431
.0026	.1053	.001053
.0018	.0788	.000788
.001	.0475	.000475
.0004	.02	.0002

System: water + 1-hexyl-3-methylimidazolium tetrafluoroborate; phases: Liquid, Air at 1 atmosphere
Property: Viscosity, Pa*s (Liquid); method: Concentric cylinders viscometry
Temperature, K	Mole fraction of 1-hexyl-3-methylimidazolium tetrafluoroborate	Viscosity, Pa*s	uncertainty
288.15	1	.3575	
288.15	.8899	.2006	
288.15	.8321	.15096	
288.15	.7188	.10032	
288.15	.6419	.06542	
288.15	.5013	.03866	
288.15	.4925	.03638	
288.15	.427	.02935	
288.15	.28	.01755	
298.15	1	.19092	
298.15	.8899	.11387	
298.15	.8321	.08906	
298.15	.7188	.06158	
298.15	.6419	.04163	
298.15	.5013	.02546	
298.15	.4925	.02402	
298.15	.427	.019602	
298.15	.28	.010815	
308.15	1	.11034	
308.15	.8899	.06941	
308.15	.8321	.05615	
308.15	.7188	.04027	
308.15	.6419	.02808	
308.15	.5013	.017721	
308.15	.4925	.016764	
308.15	.427	.013825	
308.15	.28	.007763	
318.15	1	.06846	
318.15	.8899	.04509	
318.15	.8321	.03749	
318.15	.7188	.02777	
318.15	.6419	.019894	
318.15	.5013	.012917	
318.15	.4925	.012248	
318.15	.427	.010194	
318.15	.28	.005852	

System: water + 1-hexyl-3-methylimidazolium tetrafluoroborate; phases: Liquid, Air at 1 atmosphere
Fixed: Temperature, K = 298.15
Property: Electrical conductivity, S/m (Liquid); method: crison conductivimeter
Mole fraction of 1-hexyl-3-methylimidazolium tetrafluoroborate	Electrical conductivity, S/m	uncertainty
1	.01261	.0001261
.8836	.0202	.000202
.7636	.0337	.000337
.6768	.0484	.000484
.6058	.0627	.000627
.5452	.0798	.000798
.4706	.1056	.001056
.4104	.1308	.001308
.348	.1617	.001617
.2816	.1991	.001991
