Measured thermophysical data. Gaseous Phase Heat Capacity of Benzoic Acid
Source: J. Chem. Eng. Data, 2010, 10.1021/je900999b
Compound 1: phenylcarboxylic acid, C7H6O2

System: phenylcarboxylic acid; phases: Gas
Fixed: Pressure, kPa = 101.325
Property: Molar enthalpy, kJ/mol (Gas); method: Calvet Microcalorimetry
Temperature, K	Molar enthalpy, kJ/mol	uncertainty
420	106.7	1.067
420	107.1	1.071
420	107.2	1.072
420	107.4	1.074
420	106.3	1.063
456	114.9	1.149
456	116	1.16
456	115.2	1.152
456	114.7	1.147
435.7	111	1.11
435.7	111.9	1.119
435.7	110.9	1.109
446.8	111.5	1.115
446.8	112.6	1.126
446.8	112.5	1.125
466.8	119	1.19
466.8	119	1.19
466.8	118	1.18
