Measured thermophysical data. Densities and Viscosities of Rubidium Bromide in Dimethyl Sulfoxide + Water Mixtures in the Temperature Range t = (25 to 45) deg C
Source: J. Chem. Eng. Data, 2010, 10.1021/je9001027
Compound 1: methyl sulfoxide, C2H6OS
Compound 2: rubidium bromide, BrRb
Compound 3: water, H2O

System: methyl sulfoxide; phases: Liquid
Property: Mass density, kg/m3 (Liquid); method: Pycnometric method
Temperature, K	Pressure, kPa	Mass density, kg/m3	uncertainty
298.15	101	1095.41	.01
303.15	101	1090.13	.01
308.15	101	1085.38	.01
313.15	101	1080.58	.01
318.15	101	1074.5	.01

System: methyl sulfoxide; phases: Liquid
Property: Viscosity, Pa*s (Liquid); method: Capillary tube (Ostwald; Ubbelohde) method
Temperature, K	Pressure, kPa	Viscosity, Pa*s	uncertainty
298.15	101	.001966	.00001
303.15	101	.001809	.00001
308.15	101	.0016523	.00001
313.15	101	.0015588	.00001
318.15	101	.0014875	.00001

System: methyl sulfoxide + water; phases: Liquid
Fixed: Pressure, kPa = 101
Property: Mass density, kg/m3 (Liquid); method: Pycnometric method
Temperature, K	Mass fraction of methyl sulfoxide	Mass density, kg/m3	uncertainty
298.15	1	1095.41	.01
298.15	.7	1087.32	.01
298.15	.6	1082.31	.01
298.15	.5	1067.81	.01
298.15	.4	1053.47	.01
298.15	.2	1024.2	.01
298.15	0	997.15	.01
303.15	1	1090.13	.01
303.15	.7	1084.92	.01
303.15	.6	1081.11	.01
303.15	.5	1062.43	.01
303.15	.4	1052.47	.01
303.15	.2	1019.7	.01
303.15	0	997	.01
308.15	1	1085.38	.01
308.15	.7	1080.83	.01
308.15	.6	1072.8	.01
308.15	.5	1056.4	.01
308.15	.4	1045.3	.01
308.15	.2	1015.2	.01
308.15	0	983.66	.01
313.15	1	1080.58	.01
313.15	.7	1075.23	.01
313.15	.6	1065.21	.01
313.15	.5	1048.28	.01
313.15	.4	1040.12	.01
313.15	.2	998.4	.01
313.15	0	968.41	.01
318.15	1	1074.5	.01
318.15	.7	1067.12	.01
318.15	.6	1057.1	.01
318.15	.5	1047.52	.01
318.15	.4	1038.01	.01
318.15	.2	979.2	.01
318.15	0	953.21	.01

System: methyl sulfoxide + water; phases: Liquid
Fixed: Pressure, kPa = 101
Property: Viscosity, Pa*s (Liquid); method: Capillary tube (Ostwald; Ubbelohde) method
Temperature, K	Mass fraction of methyl sulfoxide	Viscosity, Pa*s	uncertainty
298.15	1	.001966	.00001
298.15	.7	.0023568	.00001
298.15	.6	.003421	.00001
298.15	.5	.0028073	.00001
298.15	.4	.002221	.00001
298.15	.2	.00134	.00001
298.15	0	.00089	.00001
303.15	1	.001809	.00001
303.15	.7	.0028881	.00001
303.15	.6	.003421	.00001
303.15	.5	.002465	.00001
303.15	.4	.002221	.00001
303.15	.2	.0013117	.00001
303.15	0	.0008003	.00001
308.15	1	.0016523	.00001
308.15	.7	.0020813	.00001
308.15	.6	.003105	.00001
308.15	.5	.0022802	.00001
308.15	.4	.001921	.00001
308.15	.2	.0010537	.00001
308.15	0	.0007591	.00001
313.15	1	.0015588	.00001
313.15	.7	.0019272	.00001
313.15	.6	.0028461	.00001
313.15	.5	.0021398	.00001
313.15	.4	.0016182	.00001
313.15	.2	.0009572	.00001
313.15	0	.0006214	.00001
318.15	1	.0014875	.00001
318.15	.7	.001865	.00001
318.15	.6	.0027753	.00001
318.15	.5	.0019373	.00001
318.15	.4	.0014975	.00001
318.15	.2	.0008482	.00001
318.15	0	.0005346	.00001

System: methyl sulfoxide + water + rubidium bromide; phases: Liquid
Fixed: Pressure, kPa = 101
Property: Mass density, kg/m3 (Liquid); method: Pycnometric method
Temperature, K	Solvent: Mass fraction of methyl sulfoxide	Amount concentration (molarity), mol/dm3 of rubidium bromide	Mass density, kg/m3	uncertainty
298.15	1	.011	1096.9	.01
298.15	1	.02	1098.3	.01
298.15	1	.027	1100.1	.01
298.15	1	.03	1100.4	.01
298.15	1	.046	1102.5	.01
298.15	.7	.015	1088.35	.01
298.15	.7	.021	1088.47	.01
298.15	.7	.026	1088.59	.01
298.15	.7	.032	1088.71	.01
298.15	.7	.049	1088.86	.01
298.15	.6	.011	1082.55	.01
298.15	.6	.015	1082.78	.01
298.15	.6	.021	1083.01	.01
298.15	.6	.023	1083.2	.01
298.15	.6	.028	1083.45	.01
298.15	.5	.016	1064.53	.01
298.15	.5	.021	1064.7	.01
298.15	.5	.026	1064.89	.01
298.15	.5	.032	1064.95	.01
298.15	.5	.046	1065.08	.01
303.15	1	.011	1092.54	.01
303.15	1	.02	1097.71	.01
303.15	1	.026	1106.91	.01
303.15	1	.03	1110.93	.01
303.15	1	.056	1134.93	.01
303.15	.7	.016	1087.33	.01
303.15	.7	.023	1087.42	.01
303.15	.7	.038	1087.54	.01
303.15	.7	.045	1087.65	.01
303.15	.7	.056	1087.78	.01
303.15	.6	.011	1082.59	.01
303.15	.6	.015	1082.73	.01
303.15	.6	.021	1083	.01
303.15	.6	.023	1083.05	.01
303.15	.6	.028	1083.33	.01
303.15	.5	.016	1064.52	.01
303.15	.5	.023	1064.69	.01
303.15	.5	.038	1064.79	.01
303.15	.5	.045	1064.9	.01
303.15	.5	.056	1064.94	.01
308.15	1	.011	1087.75	.01
308.15	1	.024	1088.77	.01
308.15	1	.027	1088.97	.01
308.15	1	.03	1089.97	.01
308.15	1	.056	1091.97	.01
308.15	.7	.016	1084.85	.01
308.15	.7	.021	1084.9	.01
308.15	.7	.023	1084.98	.01
308.15	.7	.032	1085.12	.01
308.15	.7	.049	1085.33	.01
308.15	.6	.011	1074.85	.01
308.15	.6	.014	1074.95	.01
308.15	.6	.02	1075.05	.01
308.15	.6	.023	1075.14	.01
308.15	.6	.028	1075.14	.01
308.15	.5	.009	1054.61	.01
308.15	.5	.013	1054.78	.01
308.15	.5	.023	1054.82	.01
308.15	.5	.029	1054.99	.01
308.15	.5	.036	1055.35	.01
313.15	1	.011	1087.75	.01
313.15	1	.02	1088.77	.01
313.15	1	.028	1089.77	.01
313.15	1	.03	1089.97	.01
313.15	1	.046	1091.97	.01
313.15	.7	.016	1078.74	.01
313.15	.7	.021	1078.83	.01
313.15	.7	.024	1078.96	.01
313.15	.7	.032	1079.05	.01
313.15	.7	.049	1079.11	.01
313.15	.6	.011	1068.85	.01
313.15	.6	.014	1068.95	.01
313.15	.6	.02	1069.05	.01
313.15	.6	.023	1069.14	.01
313.15	.6	.028	1069.24	.01
313.15	.5	.016	1057.29	.01
313.15	.5	.021	1057.33	.01
313.15	.5	.024	1057.48	.01
313.15	.5	.032	1057.6	.01
313.15	.5	.049	1057.79	.01
318.15	1	.011	1096.42	.01
318.15	1	.02	1096.52	.01
318.15	1	.027	1096.58	.01
318.15	1	.03	1096.6	.01
318.15	1	.056	1096.9	.01
318.15	.7	.016	1078.6	.01
318.15	.7	.021	1078.62	.01
318.15	.7	.023	1078.63	.01
318.15	.7	.032	1078.65	.01
318.15	.7	.049	1078.67	.01
318.15	.6	.011	1060.11	.01
318.15	.6	.014	1060.31	.01
318.15	.6	.02	1060.51	.01
318.15	.6	.023	1060.71	.01
318.15	.6	.028	1060.91	.01
318.15	.5	.019	1049.54	.01
318.15	.5	.025	1049.59	.01
318.15	.5	.032	1049.61	.01
318.15	.5	.041	1049.64	.01
318.15	.5	.049	1049.67	.01
298.15	.4	.013	1054.41	.01
298.15	.4	.014	1054.53	.01
298.15	.4	.019	1054.78	.01
298.15	.4	.021	1054.92	.01
298.15	.4	.025	1055.08	.01
298.15	.2	.015	1024.22	.01
298.15	.2	.02	1024.26	.01
298.15	.2	.024	1024.28	.01
298.15	.2	.026	1024.29	.01
298.15	.2	.033	1024.33	.01
298.15	0	.01	996.69	.01
298.15	0	.013	996.84	.01
298.15	0	.02	997.03	.01
298.15	0	.025	997.28	.01
298.15	0	.038	997.79	.01
303.15	.4	.013	1054.49	.01
303.15	.4	.014	1054.53	.01
303.15	.4	.019	1054.78	.01
303.15	.4	.021	1054.82	.01
303.15	.4	.025	1055.02	.01
303.15	.2	.015	1019.94	.01
303.15	.2	.02	1020.07	.01
303.15	.2	.024	1020.18	.01
303.15	.2	.026	1020.28	.01
303.15	.2	.033	1020.36	.01
303.15	0	.01	996.08	.01
303.15	0	.013	996.08	.01
303.15	0	.02	996.14	.01
303.15	0	.025	996.17	.01
303.15	0	.038	996.24	.01
308.15	.4	.013	1046.1	.01
308.15	.4	.014	1046.13	.01
308.15	.4	.015	1046.2	.01
308.15	.4	.02	1046.34	.01
308.15	.4	.025	1046.52	.01
308.15	.2	.014	1015.46	.01
308.15	.2	.02	1015.58	.01
308.15	.2	.024	1015.66	.01
308.15	.2	.026	1015.74	.01
308.15	.2	.033	1015.78	.01
308.15	0	.01	989.87	.01
308.15	0	.013	989.89	.01
308.15	0	.02	989.99	.01
308.15	0	.024	990.03	.01
308.15	0	.035	990.13	.01
313.15	.4	.013	1040.16	.01
313.15	.4	.014	1040.23	.01
313.15	.4	.015	1040.31	.01
313.15	.4	.02	1040.53	.01
313.15	.4	.025	1040.72	.01
313.15	.2	.014	999.04	.01
313.15	.2	.02	1005.58	.01
313.15	.2	.024	1009.66	.01
313.15	.2	.026	1011.18	.01
313.15	.2	.033	1017.07	.01
313.15	0	.01	969.49	.01
313.15	0	.013	969.56	.01
313.15	0	.02	969.68	.01
313.15	0	.024	969.74	.01
313.15	0	.035	969.97	.01
318.15	.4	.013	1038.54	.01
318.15	.4	.014	1038.55	.01
318.15	.4	.015	1038.56	.01
318.15	.4	.02	1038.61	.01
318.15	.4	.025	1038.65	.01
318.15	.2	.014	979.7	.01
318.15	.2	.02	979.87	.01
318.15	.2	.024	980.02	.01
318.15	.2	.026	980.14	.01
318.15	.2	.033	980.28	.01
318.15	0	.01	956.83	.01
318.15	0	.013	956.95	.01
318.15	0	.02	957.64	.01
318.15	0	.024	958.31	.01
318.15	0	.034	959.44	.01

System: methyl sulfoxide + water + rubidium bromide; phases: Liquid
Fixed: Pressure, kPa = 101
Property: Viscosity, Pa*s (Liquid); method: Capillary tube (Ostwald; Ubbelohde) method
Temperature, K	Solvent: Mass fraction of methyl sulfoxide	Amount concentration (molarity), mol/dm3 of rubidium bromide	Viscosity, Pa*s	uncertainty
298.15	0	.01	.00089301	.00001
298.15	0	.013	.00089349	.00001
298.15	0	.02	.00089526	.00001
298.15	0	.025	.00089616	.00001
298.15	0	.038	.00089657	.00001
303.15	0	.01	.00089341	.00001
303.15	0	.013	.00089373	.00001
303.15	0	.02	.00089427	.00001
303.15	0	.025	.00089457	.00001
303.15	0	.038	.00089503	.00001
308.15	0	.01	.00076213	.00001
308.15	0	.013	.00076245	.00001
308.15	0	.02	.00076315	.00001
308.15	0	.024	.00076352	.00001
308.15	0	.035	.00076428	.00001
313.15	0	.01	.00076213	.00001
313.15	0	.013	.00076245	.00001
313.15	0	.02	.00076315	.00001
313.15	0	.024	.00076352	.00001
313.15	0	.035	.00076418	.00001
318.15	0	.01	.00053673	.00001
318.15	0	.013	.000537	.00001
318.15	0	.02	.00053751	.00001
318.15	0	.024	.00053777	.00001
318.15	0	.034	.00053832	.00001
298.15	.2	.015	.00134131	.00001
298.15	.2	.02	.00134172	.00001
298.15	.2	.024	.00134196	.00001
298.15	.2	.026	.00134204	.00001
298.15	.2	.033	.00134232	.00001
303.15	.2	.015	.00133214	.00001
303.15	.2	.02	.00133255	.00001
303.15	.2	.024	.00133278	.00001
303.15	.2	.026	.00133286	.00001
303.15	.2	.033	.00133315	.00001
308.15	.2	.014	.00105511	.00001
308.15	.2	.02	.00105539	.00001
308.15	.2	.024	.00105558	.00001
308.15	.2	.026	.00105568	.00001
308.15	.2	.033	.00105596	.00001
313.15	.2	.014	.00095836	.00001
313.15	.2	.02	.00095873	.00001
313.15	.2	.024	.00095891	.00001
313.15	.2	.026	.00095909	.00001
313.15	.2	.033	.00095942	.00001
318.15	.2	.014	.00085041	.00001
318.15	.2	.02	.00085114	.00001
318.15	.2	.024	.00085167	.00001
318.15	.2	.026	.00085222	.00001
318.15	.2	.033	.00085291	.00001
298.15	.4	.013	.00222435	.00001
298.15	.4	.014	.00222462	.00001
298.15	.4	.019	.0022261	.00001
298.15	.4	.021	.00222681	.00001
298.15	.4	.025	.00222784	.00001
303.15	.4	.013	.0022243	.00001
303.15	.4	.014	.00222462	.00001
303.15	.4	.019	.00222622	.00001
303.15	.4	.021	.00222681	.00001
303.15	.4	.025	.00222784	.00001
308.15	.4	.013	.00192616	.00001
308.15	.4	.014	.00192654	.00001
308.15	.4	.015	.00192695	.00001
308.15	.4	.02	.00192855	.00001
308.15	.4	.025	.00193027	.00001
313.15	.4	.013	.00161823	.00001
313.15	.4	.014	.00161824	.00001
313.15	.4	.015	.00161825	.00001
313.15	.4	.02	.00161826	.00001
313.15	.4	.025	.00161829	.00001
318.15	.4	.013	.00150158	.00001
318.15	.4	.014	.00150188	.00001
318.15	.4	.015	.00150219	.00001
318.15	.4	.02	.00150345	.00001
318.15	.4	.025	.00150495	.00001
318.15	.5	.019	.00197273	.00001
318.15	.5	.025	.00197938	.00001
318.15	.5	.032	.00198663	.00001
318.15	.5	.041	.00199464	.00001
318.15	.5	.049	.00200183	.00001
313.15	.5	.016	.00217601	.00001
313.15	.5	.021	.00218156	.00001
313.15	.5	.024	.00218565	.00001
313.15	.5	.032	.00219467	.00001
313.15	.5	.049	.0022119	.00001
298.15	.5	.016	.00290397	.00001
298.15	.5	.021	.00291691	.00001
298.15	.5	.026	.00293108	.00001
298.15	.5	.032	.0029453	.00001
298.15	.5	.046	.00297764	.00001
308.15	.5	.009	.00230925	.00001
308.15	.5	.013	.00231488	.00001
308.15	.5	.023	.0023294	.00001
308.15	.5	.029	.00238774	.00001
308.15	.5	.036	.00234538	.00001
303.15	.5	.016	.00254777	.00001
303.15	.5	.023	.00256633	.00001
303.15	.5	.038	.00259874	.00001
303.15	.5	.045	.00261117	.00001
303.15	.5	.056	.00263054	.00001
313.15	.6	.011	.00285583	.00001
313.15	.6	.014	.00285863	.00001
313.15	.6	.02	.00286214	.00001
313.15	.6	.023	.00286421	.00001
313.15	.6	.028	.00286792	.00001
298.15	.6	.011	.00342548	.00001
298.15	.6	.015	.00342954	.00001
298.15	.6	.021	.00343282	.00001
298.15	.6	.023	.00343559	.00001
298.15	.6	.028	.00343708	.00001
318.15	.6	.011	.0027848	.00001
318.15	.6	.014	.00278754	.00001
318.15	.6	.02	.00279096	.00001
318.15	.6	.023	.00279292	.00001
318.15	.6	.028	.00279686	.00001
308.15	.6	.011	.00311561	.00001
308.15	.6	.014	.00311866	.00001
308.15	.6	.02	.0031225	.00001
308.15	.6	.023	.00312469	.00001
308.15	.6	.028	.0031288	.00001
303.15	.6	.011	.00342753	.00001
303.15	.6	.015	.00342989	.00001
303.15	.6	.021	.00343381	.00001
303.15	.6	.023	.00343527	.00001
303.15	.6	.028	.00343849	.00001
308.15	.7	.016	.0021467	.00001
308.15	.7	.021	.0021566	.00001
308.15	.7	.023	.00216097	.00001
308.15	.7	.032	.00217779	.00001
308.15	.7	.049	.00220682	.00001
313.15	.7	.016	.0019905	.00001
313.15	.7	.021	.00200037	.00001
313.15	.7	.024	.00200653	.00001
313.15	.7	.032	.00204893	.00001
313.15	.7	.049	.00204751	.00001
303.15	.7	.016	.00236306	.00001
303.15	.7	.023	.00238082	.00001
303.15	.7	.038	.00241079	.00001
303.15	.7	.045	.00242317	.00001
303.15	.7	.056	.00244225	.00001
298.15	.7	.015	.0023992	.00001
298.15	.7	.021	.0024086	.00001
298.15	.7	.026	.0024159	.00001
298.15	.7	.032	.0024242	.00001
298.15	.7	.049	.002446	.00001
318.15	.7	.016	.00192492	.00001
318.15	.7	.021	.00193375	.00001
318.15	.7	.023	.00193786	.00001
318.15	.7	.032	.00195301	.00001
318.15	.7	.049	.00198003	.00001
303.15	1	.011	.0018392	.00001
303.15	1	.02	.00186052	.00001
303.15	1	.026	.00187657	.00001
303.15	1	.03	.00188439	.00001
303.15	1	.056	.00192274	.00001
318.15	1	.011	.00151502	.00001
318.15	1	.02	.00153091	.00001
318.15	1	.027	.00154152	.00001
318.15	1	.03	.00154934	.00001
318.15	1	.056	.00158094	.00001
308.15	1	.011	.00168165	.00001
308.15	1	.024	.00170051	.00001
308.15	1	.027	.0017123	.00001
308.15	1	.03	.00172189	.00001
308.15	1	.056	.00175852	.00001
313.15	1	.011	.00158693	.00001
313.15	1	.02	.00160428	.00001
313.15	1	.028	.00161541	.00001
313.15	1	.03	.00161986	.00001
313.15	1	.046	.001659	.00001
298.15	1	.011	.0019969	.00001
298.15	1	.02	.0020192	.00001
298.15	1	.027	.0020394	.00001
298.15	1	.03	.0020472	.00001
298.15	1	.046	.0020851	.00001

System: methyl sulfoxide + rubidium bromide; phases: Liquid
Property: Mass density, kg/m3 (Liquid); method: Pycnometric method
Temperature, K	Amount concentration (molarity), mol/dm3 of rubidium bromide	Pressure, kPa	Mass density, kg/m3	uncertainty
298.15	.011	101	1096.9	.01
298.15	.02	101	1098.3	.01
298.15	.027	101	1100.1	.01
298.15	.03	101	1100.4	.01
298.15	.046	101	1102.5	.01
303.15	.011	101	1092.54	.01
303.15	.02	101	1097.71	.01
303.15	.026	101	1106.91	.01
303.15	.03	101	1110.93	.01
303.15	.056	101	1134.93	.01
308.15	.011	101	1087.75	.01
308.15	.024	101	1088.77	.01
308.15	.027	101	1088.97	.01
308.15	.03	101	1089.97	.01
308.15	.056	101	1091.97	.01
313.15	.011	101	1087.75	.01
313.15	.02	101	1088.77	.01
313.15	.028	101	1089.77	.01
313.15	.03	101	1089.97	.01
313.15	.046	101	1091.97	.01
318.15	.011	101	1096.42	.01
318.15	.02	101	1096.52	.01
318.15	.027	101	1096.58	.01
318.15	.03	101	1096.6	.01
318.15	.056	101	1096.9	.01

System: methyl sulfoxide + rubidium bromide; phases: Liquid
Property: Viscosity, Pa*s (Liquid); method: Capillary tube (Ostwald; Ubbelohde) method
Temperature, K	Amount concentration (molarity), mol/dm3 of rubidium bromide	Pressure, kPa	Viscosity, Pa*s	uncertainty
303.15	.011	101	.0018392	.00001
303.15	.02	101	.00186052	.00001
303.15	.026	101	.00187657	.00001
303.15	.03	101	.00188439	.00001
303.15	.056	101	.00192274	.00001
318.15	.011	101	.00151502	.00001
318.15	.02	101	.00153091	.00001
318.15	.027	101	.00154152	.00001
318.15	.03	101	.00154934	.00001
318.15	.056	101	.00158094	.00001
308.15	.011	101	.00168165	.00001
308.15	.024	101	.00170051	.00001
308.15	.027	101	.0017123	.00001
308.15	.03	101	.00172189	.00001
308.15	.056	101	.00175852	.00001
313.15	.011	101	.00158693	.00001
313.15	.02	101	.00160428	.00001
313.15	.028	101	.00161541	.00001
313.15	.03	101	.00161986	.00001
313.15	.046	101	.001659	.00001
298.15	.011	101	.0019969	.00001
298.15	.02	101	.0020192	.00001
298.15	.027	101	.0020394	.00001
298.15	.03	101	.0020472	.00001
298.15	.046	101	.0020851	.00001

System: water + rubidium bromide; phases: Liquid
Property: Mass density, kg/m3 (Liquid); method: Pycnometric method
Temperature, K	Amount concentration (molarity), mol/dm3 of rubidium bromide	Pressure, kPa	Mass density, kg/m3	uncertainty
298.15	.01	101	996.69	.01
298.15	.013	101	996.84	.01
298.15	.02	101	997.03	.01
298.15	.025	101	997.28	.01
298.15	.038	101	997.79	.01
303.15	.01	101	996.08	.01
303.15	.013	101	996.08	.01
303.15	.02	101	996.14	.01
303.15	.025	101	996.17	.01
303.15	.038	101	996.24	.01
308.15	.01	101	989.87	.01
308.15	.013	101	989.89	.01
308.15	.02	101	989.99	.01
308.15	.024	101	990.03	.01
308.15	.035	101	990.13	.01
313.15	.01	101	969.49	.01
313.15	.013	101	969.56	.01
313.15	.02	101	969.68	.01
313.15	.024	101	969.74	.01
313.15	.035	101	969.97	.01
318.15	.01	101	956.83	.01
318.15	.013	101	956.95	.01
318.15	.02	101	957.64	.01
318.15	.024	101	958.31	.01
318.15	.034	101	959.44	.01

System: water + rubidium bromide; phases: Liquid
Property: Viscosity, Pa*s (Liquid); method: Capillary tube (Ostwald; Ubbelohde) method
Temperature, K	Amount concentration (molarity), mol/dm3 of rubidium bromide	Pressure, kPa	Viscosity, Pa*s	uncertainty
298.15	.01	101	.00089301	.00001
298.15	.013	101	.00089349	.00001
298.15	.02	101	.00089526	.00001
298.15	.025	101	.00089616	.00001
298.15	.038	101	.00089657	.00001
303.15	.01	101	.00089341	.00001
303.15	.013	101	.00089373	.00001
303.15	.02	101	.00089427	.00001
303.15	.025	101	.00089457	.00001
303.15	.038	101	.00089503	.00001
308.15	.01	101	.00076213	.00001
308.15	.013	101	.00076245	.00001
308.15	.02	101	.00076315	.00001
308.15	.024	101	.00076352	.00001
308.15	.035	101	.00076428	.00001
313.15	.01	101	.00076213	.00001
313.15	.013	101	.00076245	.00001
313.15	.02	101	.00076315	.00001
313.15	.024	101	.00076352	.00001
313.15	.035	101	.00076418	.00001
318.15	.01	101	.00053673	.00001
318.15	.013	101	.000537	.00001
318.15	.02	101	.00053751	.00001
318.15	.024	101	.00053777	.00001
318.15	.034	101	.00053832	.00001
