Measured thermophysical data. Effect of Temperature on the Process of Hydrophobic Hydration. Part I. Hydrophobic Hydration of 1,4-Dioxane and 12-Crown-4 Ethers
Source: J. Chem. Eng. Data, 2010, 10.1021/je900996k
Compound 1: dioxane, C4H8O2, purity 99%
Compound 2: 12-crown-4 ether, C8H16O4, purity 98%
Compound 3: water, H2O
Compound 4: N,N-dimethylformamide, C3H7NO, purity 99%

System: N,N-dimethylformamide + dioxane + water; phases: Liquid
Fixed: Pressure, kPa = 101.32
Fixed: Mole fraction of dioxane = 0
Property: Molar enthalpy of solution, kJ/mol (Liquid); method: Isoperibol calorimetry
Temperature, K	Solvent: Mole fraction of water	Molar enthalpy of solution, kJ/mol	uncertainty
293.15	0	.84	.0042
303.15	0	.88	.0044
308.15	0	.9	.0045
293.15	.1	1.39	.00695
303.15	.1	1.43	.00715
308.15	.1	1.45	.00725
303.15	.2	2.01	.01005
293.15	.2	1.97	.00985
308.15	.2	2.03	.01015
293.15	.3	2.68	.0134
303.15	.3	2.72	.0136
308.15	.3	2.74	.0137
293.15	.4	3.36	.0168
303.15	.4	3.4	.017
308.15	.4	3.42	.0171
303.15	.5	4.26	.0213
293.15	.5	4.22	.0211
308.15	.5	4.28	.0214
303.15	.6	4.49	.02245
293.15	.6	4.45	.02225
308.15	.6	4.52	.0226
303.15	.7	3.85	.01925
293.15	.7	3.8	.019
308.15	.7	3.87	.01935
293.15	.8	1.76	.0088
303.15	.8	1.82	.0091
308.15	.8	1.85	.00925
303.15	.9	-2.14	-.0107
293.15	.9	-2.27	-.01135
308.15	.9	-2.08	-.0104
293.15	.92	-3.34	-.0167
303.15	.92	-3.19	-.01595
308.15	.92	-3.1	-.0155
293.15	.94	-4.76	-.0238
303.15	.94	-4.58	-.0229
308.15	.94	-4.48	-.0224
293.15	.96	-6.05	-.03025
303.15	.96	-5.76	-.0288
308.15	.96	-5.61	-.02805
303.15	.98	-7.31	-.03655
293.15	.98	-7.71	-.03855
308.15	.98	-7.08	-.0354
293.15	1	-9.91	-.04955
303.15	1	-9.26	-.0463
308.15	1	-8.89	-.04445

System: N,N-dimethylformamide + 12-crown-4 ether + water; phases: Liquid
Fixed: Pressure, kPa = 101.32
Fixed: Mole fraction of 12-crown-4 ether = 0
Property: Molar enthalpy of solution, kJ/mol (Liquid); method: Isoperibol calorimetry
Temperature, K	Solvent: Mole fraction of water	Molar enthalpy of solution, kJ/mol	uncertainty
293.15	0	-.37	-.00185
298.15	0	-.35	-.00175
303.15	0	-.33	-.00165
308.15	0	-.31	-.00155
293.15	.1	.21	.00105
298.15	.1	.23	.00115
303.15	.1	.25	.00125
308.15	.1	.27	.00135
298.15	.2	.96	.0048
293.15	.2	.94	.0047
303.15	.2	.98	.0049
308.15	.2	1	.005
298.15	.3	1.69	.00845
303.15	.3	1.72	.0086
293.15	.3	1.66	.0083
308.15	.3	1.75	.00875
298.15	.4	2.45	.01225
303.15	.4	2.49	.01245
293.15	.4	2.41	.01205
308.15	.4	2.54	.0127
298.15	.5	2.62	.0131
303.15	.5	2.67	.01335
293.15	.5	2.56	.0128
308.15	.5	2.74	.0137
293.15	.6	1.47	.00735
298.15	.6	1.54	.0077
303.15	.6	1.6	.008
308.15	.6	1.69	.00845
303.15	.7	-1.53	-.00765
293.15	.7	-1.71	-.00855
298.15	.7	-1.62	-.0081
308.15	.7	-1.4	-.007
293.15	.8	-7.65	-.03825
303.15	.8	-7.36	-.0368
298.15	.8	-7.5	-.0375
308.15	.8	-7.2	-.036
303.15	.9	-16.2	-.081
293.15	.9	-16.8	-.084
298.15	.9	-16.51	-.08255
308.15	.9	-15.93	-.07965
303.15	.92	-18.32	-.0916
293.15	.92	-18.95	-.09475
298.15	.92	-18.61	-.09305
308.15	.92	-17.94	-.0897
293.15	.94	-21.2	-.106
303.15	.94	-20.39	-.10195
298.15	.94	-20.88	-.1044
308.15	.94	-20.06	-.1003
293.15	.96	-23.75	-.11875
298.15	.96	-23.38	-.1169
303.15	.96	-22.9	-.1145
308.15	.96	-22.44	-.1122
293.15	.98	-26.63	-.13315
303.15	.98	-25.5	-.1275
298.15	.98	-26.08	-.1304
308.15	.98	-24.98	-.1249
303.15	1	-28.23	-.14115
298.15	1	-28.98	-.1449
293.15	1	-29.75	-.14875
308.15	1	-27.45	-.13725

System: dioxane + water; phases: Liquid
Fixed: Pressure, kPa = 101
Fixed: Mole fraction of dioxane = 0
Property: Molar enthalpy of solution, kJ/mol (Liquid); method: Isoperibol calorimetry
Temperature, K	Molar enthalpy of solution, kJ/mol	uncertainty
293.15	-9.91	-.04955
303.15	-9.26	-.0463
308.15	-8.89	-.04445

System: N,N-dimethylformamide + dioxane; phases: Liquid
Fixed: Pressure, kPa = 101
Fixed: Mole fraction of dioxane = 0
Property: Molar enthalpy of solution, kJ/mol (Liquid); method: Isoperibol calorimetry
Temperature, K	Molar enthalpy of solution, kJ/mol	uncertainty
293.15	.84	.0042
303.15	.88	.0044
308.15	.9	.0045

System: N,N-dimethylformamide + 12-crown-4 ether; phases: Liquid
Fixed: Pressure, kPa = 101
Fixed: Mole fraction of 12-crown-4 ether = 0
Property: Molar enthalpy of solution, kJ/mol (Liquid); method: Isoperibol calorimetry
Temperature, K	Molar enthalpy of solution, kJ/mol	uncertainty
293.15	-.37	-.00185
298.15	-.35	-.00175
303.15	-.33	-.00165

System: 12-crown-4 ether + water; phases: Liquid
Fixed: Pressure, kPa = 101
Fixed: Mole fraction of 12-crown-4 ether = 0
Property: Molar enthalpy of solution, kJ/mol (Liquid); method: Isoperibol calorimetry
Temperature, K	Molar enthalpy of solution, kJ/mol	uncertainty
298.15	-28.98	-.1449
293.15	-29.75	-.14875
308.15	-27.45	-.13725
