Measured thermophysical data. Isobaric Vapor-Liquid Equilibria for Binary and Ternary Mixtures of Ethanol and 2-Propanol with 2-Butanone and Butyl Propionate at 101.3 kPa
Source: J. Chem. Eng. Data, 2010, 10.1021/je900470r
Compound 1: butanone, C4H8O, purity 99.7%
Compound 2: butyl propanoate, C7H14O2, purity 99%
Compound 3: 2-propanol, C3H8O, purity 99.9%
Compound 4: ethanol, C2H6O, purity 99.5%

System: butanone; phases: Liquid
Fixed: Pressure, kPa = 101.325
Property: Mass density, kg/m3 (Liquid); method: Vibrating tube method
Temperature, K	Mass density, kg/m3	uncertainty
298.15	799.62	.01

System: butanone; phases: Liquid
Fixed: Pressure, kPa = 101.325
Property: Refractive index (Na D-line) (Liquid); method: Standard Abbe refractometry
Temperature, K	Refractive index (Na D-line)	uncertainty
298.15	1.3761	.0002

System: butanone; phases: Liquid, Gas
Property: Vapor or sublimation pressure, kPa (Liquid); method: Ebulliometric method (Recirculating still)
Temperature, K	Vapor or sublimation pressure, kPa	uncertainty
352.68	101.3	.1

System: butyl propanoate; phases: Liquid
Fixed: Pressure, kPa = 101.325
Property: Mass density, kg/m3 (Liquid); method: Vibrating tube method
Temperature, K	Mass density, kg/m3	uncertainty
298.15	870.88	.01

System: butyl propanoate; phases: Liquid
Fixed: Pressure, kPa = 101.325
Property: Refractive index (Na D-line) (Liquid); method: Standard Abbe refractometry
Temperature, K	Refractive index (Na D-line)	uncertainty
298.15	1.3992	.0002

System: butyl propanoate; phases: Liquid, Gas
Property: Vapor or sublimation pressure, kPa (Liquid); method: Ebulliometric method (Recirculating still)
Temperature, K	Vapor or sublimation pressure, kPa	uncertainty
418.69	101.3	.1

System: 2-propanol; phases: Liquid
Fixed: Pressure, kPa = 101.325
Property: Mass density, kg/m3 (Liquid); method: Vibrating tube method
Temperature, K	Mass density, kg/m3	uncertainty
298.15	780.75	.01

System: 2-propanol; phases: Liquid
Fixed: Pressure, kPa = 101.325
Property: Refractive index (Na D-line) (Liquid); method: Standard Abbe refractometry
Temperature, K	Refractive index (Na D-line)	uncertainty
298.15	1.3754	.0002

System: ethanol; phases: Liquid
Fixed: Pressure, kPa = 101.325
Property: Mass density, kg/m3 (Liquid); method: Vibrating tube method
Temperature, K	Mass density, kg/m3	uncertainty
298.15	786.47	.01

System: ethanol; phases: Liquid
Fixed: Pressure, kPa = 101.325
Property: Refractive index (Na D-line) (Liquid); method: Standard Abbe refractometry
Temperature, K	Refractive index (Na D-line)	uncertainty
298.15	1.3594	.0002

System: ethanol; phases: Liquid, Gas
Property: Vapor or sublimation pressure, kPa (Liquid); method: Ebulliometric method (Recirculating still)
Temperature, K	Vapor or sublimation pressure, kPa	uncertainty
351.46	101.3	.1

System: ethanol + butyl propanoate; phases: Liquid, Gas
Property: Boiling temperature at pressure P, K (Liquid); method: Ebulliometric method (Recirculating still)
Mole fraction of ethanol	Pressure, kPa	Boiling temperature at pressure P, K	uncertainty
0	101.3	418.69	.01
.039	101.3	404.1	.01
.089	101.3	392.71	.01
.136	101.3	385.1	.01
.18	101.3	379.74	.01
.231	101.3	375.1	.01
.287	101.3	370.88	.01
.353	101.3	367.2	.01
.41	101.3	364.52	.01
.468	101.3	362.2	.01
.525	101.3	360.56	.01
.581	101.3	359.11	.01
.637	101.3	357.83	.01
.691	101.3	356.74	.01
.737	101.3	355.8	.01
.787	101.3	354.9	.01
.835	101.3	354.04	.01
.878	101.3	353.3	.01
.921	101.3	352.6	.01
.964	101.3	351.95	.01
1	101.3	351.46	.01

System: ethanol + butyl propanoate; phases: Gas, Liquid
Property: Mole fraction of ethanol (Gas); method: Chromatography
Mole fraction of ethanol	Pressure, kPa	Mole fraction of ethanol	uncertainty
0	101.3	0	.001
.039	101.3	.369	.001
.089	101.3	.564	.001
.136	101.3	.668	.001
.18	101.3	.738	.001
.231	101.3	.8	.001
.287	101.3	.832	.001
.353	101.3	.858	.001
.41	101.3	.88	.001
.468	101.3	.9	.001
.525	101.3	.911	.001
.581	101.3	.92	.001
.637	101.3	.93	.001
.691	101.3	.938	.001
.737	101.3	.947	.001
.787	101.3	.955	.001
.835	101.3	.962	.001
.878	101.3	.971	.001
.921	101.3	.981	.001
.964	101.3	.992	.001
1	101.3	1	.001

System: butanone + butyl propanoate; phases: Liquid, Gas
Property: Boiling temperature at pressure P, K (Liquid); method: Ebulliometric method (Recirculating still)
Mole fraction of butanone	Pressure, kPa	Boiling temperature at pressure P, K	uncertainty
0	101.3	418.69	.01
.05	101.3	410.79	.01
.09	101.3	404.78	.01
.134	101.3	398.76	.01
.187	101.3	393.32	.01
.252	101.3	387.9	.01
.297	101.3	383.75	.01
.345	101.3	379.66	.01
.398	101.3	376.18	.01
.448	101.3	373.09	.01
.506	101.3	370.49	.01
.571	101.3	367.37	.01
.628	101.3	364.72	.01
.683	101.3	362.47	.01
.737	101.3	360.32	.01
.789	101.3	358.4	.01
.835	101.3	356.77	.01
.877	101.3	355.31	.01
.921	101.3	354.43	.01
.968	101.3	353.25	.01
1	101.3	352.68	.01

System: butanone + butyl propanoate; phases: Gas, Liquid
Property: Mole fraction of butanone (Gas); method: Chromatography
Mole fraction of butanone	Pressure, kPa	Mole fraction of butanone	uncertainty
0	101.3	0	
.05	101.3	.239	
.09	101.3	.393	
.134	101.3	.52	
.187	101.3	.619	
.252	101.3	.697	
.297	101.3	.756	
.345	101.3	.803	
.398	101.3	.838	
.448	101.3	.869	
.506	101.3	.89	
.571	101.3	.914	
.628	101.3	.932	
.683	101.3	.947	
.737	101.3	.96	
.789	101.3	.971	
.835	101.3	.979	
.877	101.3	.986	
.921	101.3	.991	
.968	101.3	.996	
1	101.3	1	

System: ethanol + butanone + butyl propanoate; phases: Liquid, Gas
Property: Mole fraction of butanone (Liquid); method: Chromatography
Property: Mole fraction of ethanol (Gas); method: Chromatography
Property: Mole fraction of butanone (Gas); method: Chromatography
Temperature, K	Pressure, kPa	Mole fraction of ethanol	Mole fraction of butanone	uncertainty	Mole fraction of ethanol	uncertainty	Mole fraction of butanone	uncertainty
348.7	101.3	.412	.537		.471		.529	
348.97	101.3	.571	.368		.595		.402	
349.83	101.3	.21	.755		.286		.714	
349.84	101.3	.505	.391		.566		.423	
350.28	101.3	.306	.593		.409		.586	
350.45	101.3	.687	.202		.727		.258	
351.4	101.3	.893	.05		.911		.082	
351.67	101.3	.797	.1		.838		.143	
352.13	101.3	.403	.398		.542		.431	
352.22	101.3	.2	.659		.314		.676	
352.4	101.3	.499	.298		.629		.341	
352.85	101.3	.599	.196		.722		.245	
352.87	101.3	.099	.791		.182		.817	
352.88	101.3	.303	.489		.455		.52	
354.74	101.3	.391	.309		.599		.355	
355.01	101.3	.494	.203		.702		.249	
355.16	101.3	.69	.047		.873		.072	
355.5	101.3	.303	.391		.507		.449	
355.63	101.3	.591	.099		.809		.135	
355.96	101.3	.094	.684		.201		.776	
356.55	101.3	.193	.501		.373		.583	
357.46	101.3	.376	.216		.664		.27	
358.26	101.3	.299	.295		.572		.365	
359	101.3	.094	.588		.223		.731	
359.52	101.3	.468	.05		.838		.081	
359.73	101.3	.188	.403		.415		.516	
360.77	101.3	.361	.119		.747		.171	
360.85	101.3	.048	.629		.128		.826	
362.6	101.3	.092	.49		.246		.682	
363.45	101.3	.176	.305		.465		.44	
364.46	101.3	.214	.218		.57		.324	
366.6	101.3	.089	.394		.272		.624	
367.63	101.3	.167	.21		.532		.343	
368.19	101.3	.243	.056		.759		.104	
370.02	101.3	.05	.427		.154		.724	
371.54	101.3	.084	.3		.303		.552	
371.91	101.3	.159	.114		.62		.218	
376.81	101.3	.083	.209		.363		.442	
382.69	101.3	.08	.112		.449		.288	
382.79	101.3	.043	.222		.208		.546	
401.84	101.3	.03	.039		.275		.164	

System: 2-propanol + butanone + butyl propanoate; phases: Liquid, Gas
Property: Mole fraction of butanone (Liquid); method: Chromatography
Property: Mole fraction of 2-propanol (Gas); method: Chromatography
Property: Mole fraction of butanone (Gas); method: Chromatography
Temperature, K	Pressure, kPa	Mole fraction of 2-propanol	Mole fraction of butanone	uncertainty	Mole fraction of 2-propanol	uncertainty	Mole fraction of butanone	uncertainty
352.07	101.3	.407	.541		.424		.568	
352.14	101.3	.207	.747		.245		.752	
352.87	101.3	.599	.344		.585		.407	
353.19	101.3	.054	.893		.076		.921	
353.39	101.3	.298	.595		.355		.639	
353.68	101.3	.492	.399		.533		.464	
354.25	101.3	.1	.789		.14		.85	
354.53	101.3	.208	.648		.276		.71	
354.9	101.3	.682	.21		.714		.283	
355.69	101.3	.874	.063		.892		.097	
356.11	101.3	.775	.107		.834		.157	
356.16	101.3	.402	.392		.503		.473	
356.51	101.3	.49	.303		.593		.386	
357.23	101.3	.588	.202		.696		.278	
357.61	101.3	.091	.689		.146		.824	
359.21	101.3	.202	.503		.322		.637	
359.23	101.3	.398	.299		.561		.391	
359.41	101.3	.287	.401		.44		.517	
359.53	101.3	.683	.067		.853		.104	
359.59	101.3	.492	.212		.665		.292	
360.45	101.3	.584	.11		.782		.167	
361.23	101.3	.082	.595		.153		.794	
361.4	101.3	.045	.637		.09		.858	
362.7	101.3	.389	.206		.629		.3	
362.79	101.3	.286	.306		.498		.434	
362.94	101.3	.196	.405		.361		.574	
364.93	101.3	.488	.062		.807		.107	
365.58	101.3	.085	.483		.184		.74	
366.43	101.3	.29	.21		.566		.344	
366.58	101.3	.385	.108		.714		.183	
367.34	101.3	.192	.301		.414		.488	
370.04	101.3	.087	.385		.217		.671	
371.61	101.3	.038	.429		.104		.772	
373.41	101.3	.174	.195		.474		.379	
373.64	101.3	.284	.062		.707		.131	
375.05	101.3	.088	.289		.258		.587	
379.48	101.3	.173	.097		.56		.228	
381.11	101.3	.088	.196		.315		.467	
384.13	101.3	.041	.232		.163		.587	
388.07	101.3	.087	.126		.39		.301	
403.38	101.3	.039	.039		.27		.174	
