Measured thermophysical data. Solubility of Glyphosate in Ethanol + Water, 1-Propanol + Water, and 2-Propanol + Water from (293 to 333) K
Source: J. Chem. Eng. Data, 2010, 10.1021/je901006c
Compound 1: N-phosphonomethylglycine, C3H8NO5P, purity 98%
Compound 2: water, H2O, purity 99.9%
Compound 3: ethanol, C2H6O
Compound 4: propan-1-ol, C3H8O
Compound 5: 2-propanol, C3H8O

System: ethanol + N-phosphonomethylglycine + water; phases: Liquid, Crystal
Fixed: Pressure, kPa = 101.325
Property: Mole fraction of N-phosphonomethylglycine (Liquid); method: Laser Monitoring
Solvent: Mole fraction of ethanol	Temperature, K	Mole fraction of N-phosphonomethylglycine	uncertainty
0	293.67	.00112	.0000224
0	302.65	.001401	.00002802
0	311.95	.00174	.0000348
0	317.15	.002017	.00004034
0	322.15	.00226	.0000452
0	327	.002501	.00005002
0	332.35	.002847	.00005694
.0417	292.65	.0005475	.00001095
.0417	304.93	.0007881	.000015762
.0417	312.87	.001059	.00002118
.0417	317.8	.001225	.0000245
.0417	323.15	.001391	.00002782
.0417	328.15	.001618	.00003236
.0417	333.3	.001866	.00003732
.0906	292.93	.0002971	.000005942
.0906	304.65	.0004686	.000009372
.0906	312.35	.0006516	.000013032
.0906	317.23	.0007607	.000015214
.0906	322.55	.0008919	.000017838
.0906	327.95	.001058	.00002116
.0906	333.13	.001259	.00002518
.1447	293.27	.0001623	.000003246
.1447	302.97	.0002735	.00000547
.1447	312.95	.0004171	.000008342
.1447	318.15	.0004857	.000009714
.1447	322.88	.0006003	.000012006
.1447	328.07	.0007245	.00001449
.1447	333.25	.0008511	.000017022
.2069	294.15	.0000767	.000001534
.2069	303.15	.0001601	.000003202
.2069	312.39	.0002926	.000005852
.2069	317.61	.0003775	.00000755
.2069	322.2	.0004588	.000009176
.2069	327.9	.0005394	.000010788
.2069	332.85	.0006323	.000012646
.2808	292.95	.0000427	.000000854
.2808	303.05	.0001122	.000002244
.2808	313.4	.0002213	.000004426
.2808	318.35	.0002724	.000005448
.2808	323.35	.0003282	.000006564
.2808	328.6	.0003935	.00000787
.2808	333.35	.0004827	.000009654
.3692	292.65	.0000221	.000000442
.3692	303	.0000678	.000001356
.3692	313.36	.0001488	.000002976
.3692	318.3	.0001946	.000003892
.3692	323.15	.0002473	.000004946
.3692	328.35	.0002986	.000005972
.3692	333.35	.0003524	.000007048

System: propan-1-ol + N-phosphonomethylglycine + water; phases: Liquid, Crystal
Fixed: Pressure, kPa = 101.325
Property: Mole fraction of N-phosphonomethylglycine (Liquid); method: Laser Monitoring
Solvent: Mole fraction of propan-1-ol	Temperature, K	Mole fraction of N-phosphonomethylglycine	uncertainty
0	293.67	.00112	.0000224
0	298.05	.001245	.0000249
0	302.65	.001401	.00002802
0	307.4	.00158	.0000316
0	311.95	.00174	.0000348
0	317.15	.002017	.00004034
0	322.15	.00226	.0000452
0	327	.002501	.00005002
0	332.35	.002847	.00005694
.0327	293.77	.0006661	.000013322
.0327	298.6	.0007593	.000015186
.0327	303.15	.0008827	.000017654
.0327	308.25	.001015	.0000203
.0327	312.75	.00115	.000023
.0327	317.65	.001333	.00002666
.0327	322.7	.001526	.00003052
.0327	327.45	.001705	.0000341
.0327	332.55	.001969	.00003938
.0694	293.45	.0004622	.000009244
.0694	298.55	.0005433	.000010866
.0694	303.25	.0006218	.000012436
.0694	308.35	.0007399	.000014798
.0694	312.85	.0008569	.000017138
.0694	317.55	.0009682	.000019364
.0694	322.6	.001123	.00002246
.0694	327.53	.00129	.0000258
.0694	332.68	.001484	.00002968
.1135	293.95	.0003416	.000006832
.1135	298.85	.0003912	.000007824
.1135	303.57	.0004655	.00000931
.1135	308.17	.0005426	.000010852
.1135	312.95	.0006351	.000012702
.1135	317.74	.0007435	.00001487
.1135	322.74	.0008595	.00001719
.1135	328.05	.0009701	.000019402
.1135	333.35	.001136	.00002272
.1655	293.6	.0002477	.000004954
.1655	298.6	.0002916	.000005832
.1655	303.55	.0003344	.000006688
.1655	308.25	.0003913	.000007826
.1655	313.45	.000454	.00000908
.1655	318.15	.0005261	.000010522
.1655	322.6	.0005939	.000011878
.1655	328.1	.0006883	.000013766
.1655	333.25	.0007932	.000015864
.2298	293.95	.0002013	.000004026
.2298	298.55	.0002391	.000004782
.2298	303.2	.0002767	.000005534
.2298	307.8	.0003021	.000006042
.2298	312.85	.0003315	.00000663
.2298	317.45	.0003723	.000007446
.2298	321.85	.0004291	.000008582
.2298	327.15	.000494	.00000988
.2298	332.25	.0005419	.000010838
.3092	293.65	.0001651	.000003302
.3092	298.35	.0001859	.000003718
.3092	303.45	.0002063	.000004126
.3092	308.25	.0002261	.000004522
.3092	313.25	.0002335	.00000467
.3092	317.95	.0002586	.000005172
.3092	322.35	.0002805	.00000561
.3092	327.55	.0003102	.000006204
.3092	332.75	.0003478	.000006956

System: 2-propanol + N-phosphonomethylglycine + water; phases: Liquid, Crystal
Fixed: Pressure, kPa = 101.325
Property: Mole fraction of N-phosphonomethylglycine (Liquid); method: Laser Monitoring
Solvent: Mole fraction of 2-propanol	Temperature, K	Mole fraction of N-phosphonomethylglycine	uncertainty
0	293.67	.00112	.0000224
0	298.05	.001245	.0000249
0	302.65	.001401	.00002802
0	307.4	.00158	.0000316
0	311.95	.00174	.0000348
0	317.15	.002017	.00004034
0	322.15	.00226	.0000452
0	327	.002501	.00005002
0	332.35	.002847	.00005694
.033	293.75	.000654	.00001308
.033	298.47	.0007276	.000014552
.033	303.33	.000836	.00001672
.033	307.85	.0009455	.00001891
.033	312.85	.001081	.00002162
.033	317.7	.001235	.0000247
.033	322.15	.001405	.0000281
.033	327.65	.001636	.00003272
.033	332.7	.001882	.00003764
.0697	293.45	.0004287	.000008574
.0697	298.57	.0004729	.000009458
.0697	303.7	.0005494	.000010988
.0697	308.25	.0006354	.000012708
.0697	313.4	.000724	.00001448
.0697	318.18	.0008427	.000016854
.0697	322.6	.0009535	.00001907
.0697	327.67	.001106	.00002212
.0697	332.9	.001281	.00002562
.1143	293.47	.0002963	.000005926
.1143	298.37	.0003329	.000006658
.1143	303.3	.0003855	.00000771
.1143	308	.0004336	.000008672
.1143	313.03	.000481	.00000962
.1143	317.94	.0005499	.000010998
.1143	322.53	.0006341	.000012682
.1143	328.25	.0007333	.000014666
.1143	333.6	.0008571	.000017142
.1667	293.6	.0002341	.000004682
.1667	298.55	.0002552	.000005104
.1667	303.85	.0002954	.000005908
.1667	308.51	.0003316	.000006632
.1667	313.2	.0003622	.000007244
.1667	314.65	.0004164	.000008328
.1667	322.4	.0004782	.000009564
.1667	327.45	.0005553	.000011106
.1667	332.2	.0006284	.000012568
.2313	293.85	.0001777	.000003554
.2313	298.45	.0001944	.000003888
.2313	303.64	.0002127	.000004254
.2313	308.25	.0002328	.000004656
.2313	313.05	.000261	.00000522
.2313	317.65	.0003007	.000006014
.2313	322.48	.0003303	.000006606
.2313	327.75	.0003839	.000007678
.2313	332.65	.0004268	.000008536
.31	293.66	.0001319	.000002638
.31	298.45	.0001403	.000002806
.31	303.55	.0001471	.000002942
.31	308.3	.0001578	.000003156
.31	313.05	.000164	.00000328
.31	317.5	.0001867	.000003734
.31	322.65	.0002053	.000004106
.31	328.15	.0002241	.000004482
.31	333.15	.0002457	.000004914

System: N-phosphonomethylglycine + water; phases: Liquid, Crystal
Property: Mole fraction of N-phosphonomethylglycine (Liquid); method: Laser Monitoring
Temperature, K	Pressure, kPa	Mole fraction of N-phosphonomethylglycine	uncertainty
293.67	101.325	.00112	.0000224
302.65	101.325	.001401	.00002802
311.95	101.325	.00174	.0000348
317.15	101.325	.002017	.00004034
322.15	101.325	.00226	.0000452
327	101.325	.002501	.00005002
332.35	101.325	.002847	.00005694
298.05	101.325	.001245	.0000249
307.4	101.325	.00158	.0000316
