Measured thermophysical data. Vapor Pressures of Gallium Trifluoride, Trichloride, and Triiodide and Their Standard Sublimation Enthalpies
Source: J. Chem. Eng. Data, 2010, 10.1021/je900276q
Compound 1: gallium fluoride (GaF3), F3Ga
Compound 2: gallium chloride, Cl3Ga
Compound 3: gallium iodide (GaI3), GaI3

System: gallium fluoride (GaF3); phases: Crystal, Gas
Property: Vapor or sublimation pressure, kPa (Crystal); method: Knudsen effusion method
Temperature, K	Vapor or sublimation pressure, kPa	uncertainty
808	.00004677	.0000037416
818	.0000631	.000005048
827	.0000955	.00000764
836	.0001413	.000011304
845	.0001905	.00001524
852	.0002692	.000021536
861	.0003802	.000030416
869	.0005248	.000041984
878	.0007586	.000060688
884	.0009772	.000078176
893	.001413	.00011304
901	.001862	.00014896
909	.002455	.0001964
918	.00309	.0002472
813	.00004677	.0000037416
822	.0000631	.000005048
830	.0000955	.00000764
839	.0001259	.000010072
847	.0001738	.000013904
856	.0002512	.000020096
867	.0003802	.000030416
876	.000537	.00004296
885	.0007943	.000063544
894	.001202	.00009616
903	.00166	.0001328
911	.002138	.00017104
923	.003236	.00025888
916	.002455	.0001964
810	.00003981	.0000031848
820	.00005495	.000004396
827	.00007943	.0000063544
837	.0001096	.000008768
843	.0001413	.000011304
846	.000166	.00001328
855	.0002344	.000018752
864	.0003311	.000026488
872	.0004571	.000036568
882	.0006457	.000051656
890	.0008511	.000068088
900	.001349	.00010792
909	.001778	.00014224
816	.00004677	.0000037416
827	.00007943	.0000063544
835	.0001096	.000008768
843	.0001413	.000011304
853	.0002188	.000017504
862	.0003162	.000025296
871	.0004365	.00003492
880	.0006166	.000049328
890	.000871	.00006968
895	.001096	.00008768
904	.001622	.00012976
913	.002188	.00017504
921	.002884	.00023072
842	.0002239	.000017912
853	.0003715	.00002972
863	.0005888	.000047104
872	.0008128	.000065024
884	.001259	.00010072
894	.001862	.00014896
902	.002399	.00019192
913	.003467	.00027736
924	.005012	.00040096
935	.007244	.00057952
945	.01023	.0008184
956	.01413	.0011304
948	.01175	.00094
955	.01445	.001156
844	.000257	.00002056
854	.0004074	.000032592
863	.0005495	.00004396
871	.0008128	.000065024
880	.001096	.00008768
890	.001585	.0001268
898	.002138	.00017104
907	.002818	.00022544
916	.003802	.00030416
925	.005248	.00041984
934	.007413	.00059304
942	.00955	.000764
958	.01698	.0013584
845	.0002818	.000022544
855	.0004677	.000037416
859	.0006026	.000048208
870	.0008913	.000071304
881	.001349	.00010792
893	.002089	.00016712
903	.002884	.00023072
910	.00389	.0003112
920	.00537	.0004296
928	.007079	.00056632
938	.00955	.000764
947	.01288	.0010304
958	.01318	.0010544
847	.000257	.00002056
857	.0003715	.00002972
866	.0005495	.00004396
874	.0007413	.000059304
885	.001175	.000094
894	.001622	.00012976
901	.002042	.00016336
910	.002818	.00022544
919	.00389	.0003112
929	.005495	.0004396
939	.007413	.00059304
946	.009333	.00074664

System: gallium chloride; phases: Crystal, Gas
Property: Vapor or sublimation pressure, kPa (Crystal); method: Knudsen effusion method
Temperature, K	Vapor or sublimation pressure, kPa	uncertainty
293	.006761	.00054088
297	.01148	.0009184
299.5	.01349	.0010792
302	.01698	.0013584
303.5	.02089	.0016712
305	.02344	.0018752
306	.02512	.0020096
307	.02884	.0023072
308	.0309	.002472
290.5	.005754	.00046032
293	.006918	.00055344
296	.008913	.00071304
298	.01175	.00094
300.5	.01413	.0011304
304.5	.02042	.0016336
307	.0263	.002104
308	.02951	.0023608
292	.006166	.00049328
294	.007943	.00063544
297	.01072	.0008576
299	.01318	.0010544
301	.0166	.001328
303	.01905	.001524
305	.02089	.0016712
308	.02818	.0022544
289	.004266	.00034128
292	.006166	.00049328
293.5	.007413	.00059304
295.5	.00912	.0007296
297	.01047	.0008376
298.5	.01175	.00094
300.5	.0138	.001104
303	.0182	.001456
306	.02754	.0022032

System: gallium iodide (GaI3); phases: Crystal, Gas
Property: Vapor or sublimation pressure, kPa (Crystal); method: Knudsen effusion method
Temperature, K	Vapor or sublimation pressure, kPa	uncertainty
344.5	.0001445	.00001156
347	.000195	.0000156
349.5	.0002455	.00001964
352.5	.0003388	.000027104
356	.0004365	.00003492
364	.0009333	.000074664
367	.001148	.00009184
370	.001413	.00011304
373	.001905	.0001524
378	.002951	.00023608
382	.004266	.00034128
381.5	.003715	.0002972
384	.004898	.00039184
387.5	.006607	.00052856
390.5	.00871	.0006968
393.5	.01096	.0008768
397	.0138	.001104
400.5	.01778	.0014224
346	.0001698	.000013584
349	.000195	.0000156
349.5	.0002951	.000023608
351.5	.0003388	.000027104
354	.0004365	.00003492
357.5	.0006761	.000054088
362	.000871	.00006968
367.5	.00123	.0000984
372	.001445	.0001156
374.5	.002042	.00016336
377.5	.002692	.00021536
380	.002951	.00023608
383	.00389	.0003112
387.5	.006026	.00048208
389.5	.007244	.00057952
393.5	.01	.0008
397	.0138	.001104
401	.01698	.0013584
346	.0001445	.00001156
348	.000195	.0000156
350	.000195	.0000156
355	.0003388	.000027104
357	.0004365	.00003492
359.5	.000537	.00004296
364	.0007762	.000062096
368.5	.001122	.00008976
372.5	.00166	.0001328
374.5	.001995	.0001596
377	.002399	.00019192
379	.002951	.00023608
383.5	.004169	.00033352
387.5	.00631	.0005048
391.5	.00871	.0006968
393.5	.01	.0008
348.5	.0001445	.00001156
352	.0002455	.00001964
354	.0003388	.000027104
355	.000389	.00003112
357.5	.0004898	.000039184
361.5	.0006761	.000054088
365.5	.0009772	.000078176
368.5	.00123	.0000984
372	.00166	.0001328
373	.001738	.00013904
375.5	.002291	.00018328
390.5	.007244	.00057952
394	.009772	.00078176
398	.01349	.0010792
