Measured thermophysical data. Study of the Anomalous Thermochemical Behavior of 1,2-Diazines by Correlation-Gas Chromatography
Source: J. Chem. Eng. Data, 2010, 10.1021/je900702t
Compound 1: quinoxaline, C8H6N2
Compound 2: quinazoline, C8H6N2
Compound 3: 9,10-diazaanthracene, C12H8N2
Compound 4: triphenylamine, C18H15N
Compound 5: 1,10-phenanthroline, C12H8N2

System: quinoxaline; phases: Liquid, Gas
Property: Molar enthalpy of vaporization or sublimation, kJ/mol (Liquid); method: Correlation gas chromatography
Temperature, K	Molar enthalpy of vaporization or sublimation, kJ/mol	uncertainty
298	58.7	1.4

System: quinoxaline; phases: Liquid, Gas
Property: Vapor or sublimation pressure, kPa (Liquid); method: correlation gas chromatography
Temperature, K	Vapor or sublimation pressure, kPa	uncertainty
298.15	.0155	
300	.01794	
315	.0544	
330	.14645	
345	.35585	
360	.79151	
375	1.63049	
390	3.14135	
405	5.70762	
420	9.84887	
435	16.23742	
450	25.70874	
465	39.26461	
480	58.06873	
495	83.43516	
500	93.59555	
503.5	101.26696	

System: quinazoline; phases: Liquid, Gas
Property: Molar enthalpy of vaporization or sublimation, kJ/mol (Liquid); method: Correlation gas chromatography
Temperature, K	Molar enthalpy of vaporization or sublimation, kJ/mol	uncertainty
298	59.6	1.4

System: quinazoline; phases: Liquid, Gas
Property: Vapor or sublimation pressure, kPa (Liquid); method: correlation gas chromatography
Temperature, K	Vapor or sublimation pressure, kPa	uncertainty
298.15	.01132	
300	.01313	
315	.04051	
330	.11076	
345	.27296	
360	.61501	
375	1.28193	
390	2.49659	
405	4.5811	
420	7.9768	
435	13.26064	
450	21.15641	
465	32.53966	
480	48.43585	
495	70.0118	
510	98.56128	
511.2	101.18782	

System: 9,10-diazaanthracene; phases: Liquid, Gas
Property: Molar enthalpy of vaporization or sublimation, kJ/mol (Liquid); method: Correlation gas chromatography
Temperature, K	Molar enthalpy of vaporization or sublimation, kJ/mol	uncertainty
298	76.7	.7

System: 9,10-diazaanthracene; phases: Liquid, Gas
Property: Vapor or sublimation pressure, kPa (Liquid); method: correlation gas chromatography
Temperature, K	Vapor or sublimation pressure, kPa	uncertainty
298.15	.00007	
300	.00009	
315	.00037	
330	.00137	
345	.00441	
360	.01273	
375	.03326	
390	.07971	
405	.17698	
420	.36734	
435	.71818	
450	1.33124	
465	2.35294	
480	3.98511	
495	6.49554	
510	10.22761	
525	15.60841	
540	23.15463	
555	33.4761	
570	47.27657	
585	65.35168	
600	88.58446	
606.9	101.26599	

System: triphenylamine; phases: Liquid, Gas
Property: Molar enthalpy of vaporization or sublimation, kJ/mol (Liquid); method: Correlation gas chromatography
Temperature, K	Molar enthalpy of vaporization or sublimation, kJ/mol	uncertainty
298	90.2	.8

System: triphenylamine; phases: Liquid, Gas
Property: Vapor or sublimation pressure, kPa (Liquid); method: correlation gas chromatography
Temperature, K	Vapor or sublimation pressure, kPa	uncertainty
405	.00005	
420	.00023	
435	.00102	
450	.00396	
465	.01387	
480	.0443	
495	.13012	
510	.35442	
525	.9017	
540	2.15632	
555	4.87427	
570	10.46677	
585	21.44603	
600	42.09494	
615	79.43258	
630	144.55472	
633.1	162.90207	

System: 1,10-phenanthroline; phases: Liquid, Gas
Property: Molar enthalpy of vaporization or sublimation, kJ/mol (Liquid); method: Correlation gas chromatography
Temperature, K	Molar enthalpy of vaporization or sublimation, kJ/mol	uncertainty
298	86.1	.8

System: 1,10-phenanthroline; phases: Liquid, Gas
Property: Vapor or sublimation pressure, kPa (Liquid); method: correlation gas chromatography
Temperature, K	Vapor or sublimation pressure, kPa	uncertainty
345	.00046	
360	.00153	
375	.00453	
390	.01221	
405	.03021	
420	.06928	
435	.14854	
450	.29995	
465	.57402	
480	1.04686	
495	1.82818	
510	3.07012	
525	4.97637	
540	7.81115	
555	11.90766	
570	17.67535	
585	25.6058	
600	36.27681	
615	50.35449	
630	68.59329	
645	91.83405	
650.2	101.22462	
