Measured thermophysical data. Isobaric Vapor-Liquid Equilibria for (Acetic Acid + Cyclohexane) and (Cyclohexane + Acetylacetone) at a Pressure of 101.3 kPa and for (Acetic Acid + Acetylacetone) at a Pressure of 60.0 kPa
Source: J. Chem. Eng. Data, 2010, 10.1021/je900669t
Compound 1: 2,4-pentanedione, C5H8O2, purity 99.8%
Compound 2: cyclohexane, C6H12, purity 99.8%
Compound 3: acetic acid, C2H4O2, purity 99.5%

System: 2,4-pentanedione; phases: Liquid, Gas
Property: Normal boiling temperature, K (Liquid); method: Ebulliometric method (Recirculating still)
Normal boiling temperature, K	uncertainty
413.6	.05

System: 2,4-pentanedione; phases: Liquid
Fixed: Pressure, kPa = 101.325
Property: Mass density, kg/m3 (Liquid); method: Vibrating tube method
Temperature, K	Mass density, kg/m3	uncertainty
298.15	971.7	.01

System: 2,4-pentanedione; phases: Liquid
Fixed: Pressure, kPa = 101.325
Property: Refractive index (Na D-line) (Liquid); method: Standard Abbe refractometry
Temperature, K	Refractive index (Na D-line)	uncertainty
293.15	1.4489	.0002

System: cyclohexane; phases: Liquid, Gas
Property: Normal boiling temperature, K (Liquid); method: Ebulliometric method (Recirculating still)
Normal boiling temperature, K	uncertainty
353.9	.05

System: cyclohexane; phases: Liquid
Fixed: Pressure, kPa = 101.325
Property: Mass density, kg/m3 (Liquid); method: Vibrating tube method
Temperature, K	Mass density, kg/m3	uncertainty
298.15	779.6	.01

System: cyclohexane; phases: Liquid
Fixed: Pressure, kPa = 101.325
Property: Refractive index (Na D-line) (Liquid); method: Standard Abbe refractometry
Temperature, K	Refractive index (Na D-line)	uncertainty
293.15	1.4259	.0002

System: acetic acid; phases: Liquid, Gas
Property: Normal boiling temperature, K (Liquid); method: Ebulliometric method (Recirculating still)
Normal boiling temperature, K	uncertainty
391.44	.05

System: acetic acid; phases: Liquid
Fixed: Pressure, kPa = 101.325
Property: Mass density, kg/m3 (Liquid); method: Vibrating tube method
Temperature, K	Mass density, kg/m3	uncertainty
298.15	1046.9	.01

System: acetic acid; phases: Liquid
Fixed: Pressure, kPa = 101.325
Property: Refractive index (Na D-line) (Liquid); method: Standard Abbe refractometry
Temperature, K	Refractive index (Na D-line)	uncertainty
293.15	1.3715	.0002

System: cyclohexane + 2,4-pentanedione; phases: Liquid, Gas
Property: Boiling temperature at pressure P, K (Liquid); method: Ebulliometric method (Recirculating still)
Mole fraction of cyclohexane	Pressure, kPa	Boiling temperature at pressure P, K	uncertainty
.0088	101.3	407.65	.05
.0244	101.3	401.85	.05
.0871	101.3	385.15	.05
.1851	101.3	372.25	.05
.3131	101.3	363.75	.05
.4716	101.3	360.35	.05
.6477	101.3	357.95	.05
.7452	101.3	356.65	.05
.8714	101.3	355.35	.05
.9382	101.3	354.85	.05

System: cyclohexane + 2,4-pentanedione; phases: Gas, Liquid
Property: Mole fraction of cyclohexane (Gas); method: Chromatography
Mole fraction of cyclohexane	Pressure, kPa	Mole fraction of cyclohexane	uncertainty
.0088	101.3	.1208	.001
.0244	101.3	.257	.001
.0871	101.3	.553	.001
.1851	101.3	.7356	.001
.3131	101.3	.8186	.001
.4716	101.3	.8504	.001
.6477	101.3	.8797	.001
.7452	101.3	.9106	.001
.8714	101.3	.9395	.001
.9382	101.3	.9648	.001

System: acetic acid + cyclohexane; phases: Liquid, Gas
Property: Boiling temperature at pressure P, K (Liquid); method: Ebulliometric method (Recirculating still)
Mole fraction of acetic acid	Pressure, kPa	Boiling temperature at pressure P, K	uncertainty
.0258	101.3	353.15	.05
.0705	101.3	352.65	.05
.1393	101.3	352.15	.05
.242	101.3	351.95	.05
.3336	101.3	352.15	.05
.4612	101.3	352.55	.05
.569	101.3	352.95	.05
.7026	101.3	353.95	.05
.7263	101.3	354.35	.05
.769	101.3	354.95	.05
.8548	101.3	357.45	.05
.904	101.3	361.05	.05
.9384	101.3	364.15	.05
.9801	101.3	380.45	.05

System: acetic acid + cyclohexane; phases: Gas, Liquid
Property: Mole fraction of acetic acid (Gas); method: Chromatography
Mole fraction of acetic acid	Pressure, kPa	Mole fraction of acetic acid	uncertainty
.0258	101.3	.065	.001
.0705	101.3	.1165	.001
.1393	101.3	.1689	.001
.242	101.3	.2149	.001
.3336	101.3	.246	.001
.4612	101.3	.2757	.001
.569	101.3	.3017	.001
.7026	101.3	.332	.001
.7263	101.3	.3402	.001
.769	101.3	.3544	.001
.8548	101.3	.3816	.001
.904	101.3	.4548	.001
.9384	101.3	.5057	.001
.9801	101.3	.7897	.001

System: acetic acid + 2,4-pentanedione; phases: Liquid, Gas
Property: Boiling temperature at pressure P, K (Liquid); method: Ebulliometric method (Recirculating still)
Mole fraction of acetic acid	Pressure, kPa	Boiling temperature at pressure P, K	uncertainty
.0568	60	393.75	.05
.1103	60	391.45	.05
.1771	60	389.75	.05
.2511	60	388.95	.05
.3614	60	387.85	.05
.4545	60	386.45	.05
.5564	60	384.75	.05
.6245	60	383.75	.05
.6601	60	382.65	.05
.7393	60	381.75	.05
.8073	60	380.15	.05
.8722	60	378.85	.05
.9053	60	378.25	.05
.9337	60	377.25	.05
.9655	60	376.95	.05

System: acetic acid + 2,4-pentanedione; phases: Gas, Liquid
Property: Mole fraction of acetic acid (Gas); method: Chromatography
Mole fraction of acetic acid	Pressure, kPa	Mole fraction of acetic acid	uncertainty
.0568	60	.0846	.001
.1103	60	.1637	.001
.1771	60	.2418	.001
.2511	60	.357	.001
.3614	60	.4887	.001
.4545	60	.5955	.001
.5564	60	.7017	.001
.6245	60	.7572	.001
.6601	60	.8037	.001
.7393	60	.858	.001
.8073	60	.9043	.001
.8722	60	.9464	.001
.9053	60	.9615	.001
.9337	60	.9725	.001
.9655	60	.9903	.001
