Measured thermophysical data. Solubility of Irganox 1010 in (Alcohol + Water) Mixtures from (293.15 to  333.15) K
Source: J. Chem. Eng. Data, 2009, 10.1021/je900435t
Compound 1: irganox 1010, C73H108O12
Compound 2: methanol, CH4O, purity 99.5%
Compound 3: ethanol, C2H6O, purity 99.5%
Compound 4: 2-propanol, C3H8O, purity 99.5%
Compound 5: water, H2O

System: methanol + irganox 1010 + water; phases: Liquid, Crystal
Fixed: Pressure, kPa = 101
Property: Mass fraction of irganox 1010 (Liquid); method: UV Spectrometry
Temperature, K	Solvent: Mass fraction of water	Mass fraction of irganox 1010	uncertainty
293.15	0	.0002208	.0000059616
298.15	0	.0003324	.0000089748
303.15	0	.000544	.000014688
308.15	0	.0008123	.0000219321
313.15	0	.001258	.000033966
318.15	0	.002031	.000054837
323.15	0	.002873	.000077571
328.15	0	.00429	.00011583
333.15	0	.00726	.00019602
293.15	.03	.0001265	.0000034155
298.15	.03	.0001924	.0000051948
303.15	.03	.0002907	.0000078489
308.15	.03	.0004327	.0000116829
313.15	.03	.0006464	.0000174528
318.15	.03	.001003	.000027081
323.15	.03	.001539	.000041553
328.15	.03	.002292	.000061884
333.15	.03	.003299	.000089073
293.15	.05	.04156	.00112212
298.15	.05	.06188	.00167076
303.15	.05	.0927	.0025029
308.15	.05	.1314	.0035478
313.15	.05	.2058	.0055566
318.15	.05	.3194	.0086238
323.15	.05	.4504	.0121608
328.15	.05	.6692	.0180684
333.15	.05	.9166	.0247482

System: ethanol + irganox 1010 + water; phases: Liquid, Crystal
Fixed: Pressure, kPa = 101
Property: Mass fraction of irganox 1010 (Liquid); method: UV Spectrometry
Temperature, K	Solvent: Mass fraction of water	Mass fraction of irganox 1010	uncertainty
293.15	0	.0003022	.0000081594
298.15	0	.0004452	.0000120204
303.15	0	.0006846	.0000184842
308.15	0	.001051	.000028377
313.15	0	.001595	.000043065
318.15	0	.002378	.000064206
323.15	0	.003508	.000094716
328.15	0	.0051	.0001377
333.15	0	.007403	.000199881
293.15	.03	.000163	.000004401
298.15	.03	.0002787	.0000075249
303.15	.03	.0004117	.0000111159
308.15	.03	.0005517	.0000148959
313.15	.03	.0008454	.0000228258
318.15	.03	.001201	.000032427
323.15	.03	.001748	.000047196
328.15	.03	.002655	.000071685
333.15	.03	.004025	.000108675
293.15	.05	.0001389	.0000037503
298.15	.05	.0002078	.0000056106
303.15	.05	.0003024	.0000081648
308.15	.05	.0004497	.0000121419
313.15	.05	.0006601	.0000178227
318.15	.05	.0009991	.0000269757
323.15	.05	.001485	.000040095
328.15	.05	.002213	.000059751
333.15	.05	.003096	.000083592

System: 2-propanol + irganox 1010 + water; phases: Liquid, Crystal
Fixed: Pressure, kPa = 101
Property: Mass fraction of irganox 1010 (Liquid); method: UV Spectrometry
Temperature, K	Solvent: Mass fraction of water	Mass fraction of irganox 1010	uncertainty
293.15	0	.0001475	.0000039825
298.15	0	.0002388	.0000064476
303.15	0	.0004061	.0000109647
308.15	0	.00063174	.00001705698
313.15	0	.0009978	.0000269406
318.15	0	.001579	.000042633
323.15	0	.002524	.000068148
328.15	0	.004108	.000110916
333.15	0	.006378	.000172206
293.15	.03	.0001287	.0000034749
298.15	.03	.0002084	.0000056268
303.15	.03	.0003385	.0000091395
308.15	.03	.000521	.000014067
313.15	.03	.0008069	.0000217863
318.15	.03	.001223	.000033021
323.15	.03	.002166	.000058482
328.15	.03	.003221	.000086967
333.15	.03	.004898	.000132246
293.15	.05	.00009455	.00000255285
298.15	.05	.0001346	.0000036342
303.15	.05	.0002041	.0000055107
308.15	.05	.0003166	.0000085482
313.15	.05	.0005089	.0000137403
318.15	.05	.0008014	.0000216378
323.15	.05	.001244	.000033588
328.15	.05	.002158	.000058266
333.15	.05	.002928	.000079056

System: methanol + irganox 1010; phases: Liquid, Crystal
Property: Mass fraction of irganox 1010 (Liquid); method: UV Spectrometry
Temperature, K	Pressure, kPa	Mass fraction of irganox 1010	uncertainty
293.15	101	.0002208	.0000059616
298.15	101	.0003324	.0000089748
303.15	101	.000544	.000014688
308.15	101	.0008123	.0000219321
313.15	101	.001258	.000033966
318.15	101	.002031	.000054837
323.15	101	.002873	.000077571
328.15	101	.00429	.00011583
333.15	101	.00726	.00019602

System: ethanol + irganox 1010; phases: Liquid, Crystal
Property: Mass fraction of irganox 1010 (Liquid); method: UV Spectrometry
Temperature, K	Pressure, kPa	Mass fraction of irganox 1010	uncertainty
293.15	101	.0003022	.0000081594
298.15	101	.0004452	.0000120204
303.15	101	.0006846	.0000184842
308.15	101	.001051	.000028377
313.15	101	.001595	.000043065
318.15	101	.002378	.000064206
323.15	101	.003508	.000094716
328.15	101	.0051	.0001377
333.15	101	.007403	.000199881

System: 2-propanol + irganox 1010; phases: Liquid, Crystal
Property: Mass fraction of irganox 1010 (Liquid); method: UV Spectrometry
Temperature, K	Pressure, kPa	Mass fraction of irganox 1010	uncertainty
293.15	101	.0001475	.0000039825
298.15	101	.0002388	.0000064476
303.15	101	.0004061	.0000109647
308.15	101	.00063174	.00001705698
313.15	101	.0009978	.0000269406
318.15	101	.001579	.000042633
323.15	101	.002524	.000068148
328.15	101	.004108	.000110916
333.15	101	.006378	.000172206
