Measured thermophysical data. Activity Coefficients at Infinite Dilution of Alkanes, Alkenes, and Alkyl Benzenes in 1-(2-Hydroxyethyl)-3-methylimidazolium Tetrafluoroborate Using Gas-Liquid Chromatography
Source: J. Chem. Eng. Data, 2009, 10.1021/je9002724
Compound 1: 1-(2-hydroxyethyl)-3-methylimidazolium tetrafluoroborate, C6H11N2OBF4, purity 95%
Compound 2: heptane, C7H16
Compound 3: octane, C8H18
Compound 4: nonane, C9H20
Compound 5: 2,2,4-trimethylpentane, C8H18
Compound 6: cyclohexane, C6H12
Compound 7: methylcyclohexane, C7H14
Compound 8: cyclohexene, C6H10
Compound 9: styrene, C8H8
Compound 10: benzene, C6H6
Compound 11: toluene, C7H8
Compound 12: ethylbenzene, C8H10
Compound 13: 1,2-dimethylbenzene, C8H10
Compound 14: 1,3-dimethylbenzene, C8H10
Compound 15: 1,4-dimethylbenzene, C8H10

System: heptane + 1-(2-hydroxyethyl)-3-methylimidazolium tetrafluoroborate; phases: Liquid, Gas
Fixed: Mole fraction of heptane = 0
Property: Activity coefficient of heptane (Liquid); method: Chromatography
Temperature, K	Activity coefficient of heptane	uncertainty
303.15	620.379	31.01895
313.15	849.867	42.49335
323.15	1196.302	59.8151
333.15	1609.196	80.4598
343.15	2191.584	109.5792
353.15	2977.502	148.8751
363.15	4222.32	211.116

System: octane + 1-(2-hydroxyethyl)-3-methylimidazolium tetrafluoroborate; phases: Liquid, Gas
Fixed: Mole fraction of octane = 0
Property: Activity coefficient of octane (Liquid); method: Chromatography
Temperature, K	Activity coefficient of octane	uncertainty
303.15	497.517	24.87585
313.15	532.333	26.61665
323.15	574	28.7
333.15	614.581	30.72905
343.15	658.84	32.942
353.15	708.911	35.44555
363.15	760.092	38.0046

System: nonane + 1-(2-hydroxyethyl)-3-methylimidazolium tetrafluoroborate; phases: Liquid, Gas
Fixed: Mole fraction of nonane = 0
Property: Activity coefficient of nonane (Liquid); method: Chromatography
Temperature, K	Activity coefficient of nonane	uncertainty
303.15	546.427	27.32135
313.15	564.5	28.225
323.15	582.139	29.10695
333.15	598.951	29.94755
343.15	615.725	30.78625
353.15	632.816	31.6408
363.15	651.215	32.56075

System: 2,2,4-trimethylpentane + 1-(2-hydroxyethyl)-3-methylimidazolium tetrafluoroborate; phases: Liquid, Gas
Fixed: Mole fraction of 2,2,4-trimethylpentane = 0
Property: Activity coefficient of 2,2,4-trimethylpentane (Liquid); method: Chromatography
Temperature, K	Activity coefficient of 2,2,4-trimethylpentane	uncertainty
303.15	412.431	20.62155
313.15	523.282	26.1641
323.15	730.895	36.54475
333.15	962.352	48.1176
343.15	1297.741	64.88705
353.15	1702.478	85.1239
363.15	2309.485	115.47425

System: cyclohexane + 1-(2-hydroxyethyl)-3-methylimidazolium tetrafluoroborate; phases: Liquid, Gas
Fixed: Mole fraction of cyclohexane = 0
Property: Activity coefficient of cyclohexane (Liquid); method: Chromatography
Temperature, K	Activity coefficient of cyclohexane	uncertainty
303.15	339.159	16.95795
313.15	417.912	20.8956
323.15	488.085	24.40425
333.15	592.79	29.6395
343.15	689.144	34.4572
353.15	803.39	40.1695
363.15	933.957	46.69785

System: methylcyclohexane + 1-(2-hydroxyethyl)-3-methylimidazolium tetrafluoroborate; phases: Liquid, Gas
Fixed: Mole fraction of methylcyclohexane = 0
Property: Activity coefficient of methylcyclohexane (Liquid); method: Chromatography
Temperature, K	Activity coefficient of methylcyclohexane	uncertainty
303.15	328.133	16.40665
313.15	372.583	18.62915
323.15	421.386	21.0693
333.15	485.942	24.2971
343.15	545.968	27.2984
353.15	610.977	30.54885
363.15	676.837	33.84185

System: cyclohexene + 1-(2-hydroxyethyl)-3-methylimidazolium tetrafluoroborate; phases: Liquid, Gas
Fixed: Mole fraction of cyclohexene = 0
Property: Activity coefficient of cyclohexene (Liquid); method: Chromatography
Temperature, K	Activity coefficient of cyclohexene	uncertainty
303.15	122.523	6.12615
313.15	118.021	5.90105
323.15	113.722	5.6861
333.15	109.844	5.4922
343.15	105.722	5.2861
353.15	103.42	5.171
363.15	100.404	5.0202

System: styrene + 1-(2-hydroxyethyl)-3-methylimidazolium tetrafluoroborate; phases: Liquid, Gas
Fixed: Mole fraction of styrene = 0
Property: Activity coefficient of styrene (Liquid); method: Chromatography
Temperature, K	Activity coefficient of styrene	uncertainty
303.15	15.302	.7651
313.15	15.092	.7546
323.15	14.81	.7405
333.15	14.635	.73175
343.15	14.434	.7217
353.15	14.224	.7112
363.15	14.047	.70235

System: benzene + 1-(2-hydroxyethyl)-3-methylimidazolium tetrafluoroborate; phases: Liquid, Gas
Fixed: Mole fraction of benzene = 0
Property: Activity coefficient of benzene (Liquid); method: Chromatography
Temperature, K	Activity coefficient of benzene	uncertainty
303.15	9.132	.4566
313.15	9.114	.4557
323.15	9.097	.45485
333.15	9.076	.4538
343.15	9.062	.4531
353.15	9.049	.45245
363.15	9.037	.45185

System: toluene + 1-(2-hydroxyethyl)-3-methylimidazolium tetrafluoroborate; phases: Liquid, Gas
Fixed: Mole fraction of toluene = 0
Property: Activity coefficient of toluene (Liquid); method: Chromatography
Temperature, K	Activity coefficient of toluene	uncertainty
303.15	18.265	.91325
313.15	17.992	.8996
323.15	17.728	.8864
333.15	17.477	.87385
343.15	17.274	.8637
353.15	17.154	.8577
363.15	16.918	.8459

System: ethylbenzene + 1-(2-hydroxyethyl)-3-methylimidazolium tetrafluoroborate; phases: Liquid, Gas
Fixed: Mole fraction of ethylbenzene = 0
Property: Activity coefficient of ethylbenzene (Liquid); method: Chromatography
Temperature, K	Activity coefficient of ethylbenzene	uncertainty
303.15	42.059	2.10295
313.15	40.631	2.03155
323.15	39	1.95
333.15	37.92	1.896
343.15	36.69	1.8345
353.15	35.859	1.79295
363.15	35.011	1.75055

System: 1,2-dimethylbenzene + 1-(2-hydroxyethyl)-3-methylimidazolium tetrafluoroborate; phases: Liquid, Gas
Fixed: Mole fraction of 1,2-dimethylbenzene = 0
Property: Activity coefficient of 1,2-dimethylbenzene (Liquid); method: Chromatography
Temperature, K	Activity coefficient of 1,2-dimethylbenzene	uncertainty
303.15	28.95	1.4475
313.15	28.241	1.41205
323.15	27.728	1.3864
333.15	27.025	1.35125
343.15	26.522	1.3261
353.15	25.881	1.29405
363.15	25.402	1.2701

System: 1,3-dimethylbenzene + 1-(2-hydroxyethyl)-3-methylimidazolium tetrafluoroborate; phases: Liquid, Gas
Fixed: Mole fraction of 1,3-dimethylbenzene = 0
Property: Activity coefficient of 1,3-dimethylbenzene (Liquid); method: Chromatography
Temperature, K	Activity coefficient of 1,3-dimethylbenzene	uncertainty
303.15	37.216	1.8608
313.15	36.317	1.81585
323.15	35.508	1.7754
333.15	34.691	1.73455
343.15	34.002	1.7001
353.15	33.202	1.6601
363.15	32.529	1.62645

System: 1,4-dimethylbenzene + 1-(2-hydroxyethyl)-3-methylimidazolium tetrafluoroborate; phases: Liquid, Gas
Fixed: Mole fraction of 1,4-dimethylbenzene = 0
Property: Activity coefficient of 1,4-dimethylbenzene (Liquid); method: Chromatography
Temperature, K	Activity coefficient of 1,4-dimethylbenzene	uncertainty
303.15	35.438	1.7719
313.15	34.669	1.73345
323.15	33.949	1.69745
333.15	33.157	1.65785
343.15	32.473	1.62365
353.15	31.958	1.5979
363.15	31.405	1.57025
