Measured thermophysical data. Density, Speed of Sound, and Refractive Index of 1-Ethyl-3-methylimidazolium Trifluoromethanesulfonate with Acetone, Methyl Acetate, and Ethyl Acetate at Temperatures from (278.15 to 328.15) K
Source: J. Chem. Eng. Data, 2010, 10.1021/je9005618
Compound 1: 1-ethyl-3-methylimidazolium trifluoromethanesulfonate, C7H11F3N2O3S, purity 98%
Compound 2: propanone, C3H6O
Compound 3: methyl ethanoate, C3H6O2, purity 99.5%
Compound 4: ethyl ethanoate, C4H8O2

System: 1-ethyl-3-methylimidazolium trifluoromethanesulfonate; phases: Liquid
Fixed: Pressure, kPa = 101.325
Property: Refractive index (Na D-line) (Liquid); method: Standard Abbe refractometry
Temperature, K	Refractive index (Na D-line)	uncertainty
288.15	1.43599	.00002
298.15	1.4332	.00002
308.15	1.4304	.00002
318.15	1.42767	.00002
328.15	1.42494	.00002

System: propanone; phases: Liquid
Fixed: Pressure, kPa = 101.325
Property: Mass density, kg/m3 (Liquid); method: Vibrating tube method
Temperature, K	Mass density, kg/m3	uncertainty
278.15	807.41	.007
288.15	796.14	.007
298.15	784.76	.007
308.15	773.21	.007
318.15	761.47	.007

System: propanone; phases: Liquid
Fixed: Pressure, kPa = 101.325
Property: Speed of sound, m/s (Liquid); method: Pulse-echo method
Temperature, K	Speed of sound, m/s	uncertainty
278.15	1256.48	.05
288.15	1210.66	.05
298.15	1164.95	.05
308.15	1118.48	.05
318.15	1073.74	.05

System: propanone; phases: Liquid
Fixed: Pressure, kPa = 101.325
Property: Refractive index (Na D-line) (Liquid); method: Standard Abbe refractometry
Temperature, K	Refractive index (Na D-line)	uncertainty
288.15	1.36146	.00002
298.15	1.35597	.00002
308.15	1.35054	.00002
318.15	1.34491	.00002

System: methyl ethanoate; phases: Liquid
Fixed: Pressure, kPa = 101.325
Property: Mass density, kg/m3 (Liquid); method: Vibrating tube method
Temperature, K	Mass density, kg/m3	uncertainty
278.15	953.04	.007
288.15	940.12	.007
298.15	927.01	.007
308.15	913.68	.007
318.15	900.13	.007

System: methyl ethanoate; phases: Liquid
Fixed: Pressure, kPa = 101.325
Property: Speed of sound, m/s (Liquid); method: Pulse-echo method
Temperature, K	Speed of sound, m/s	uncertainty
278.15	1243.46	.05
288.15	1196.84	.05
298.15	1150.69	.05
308.15	1104.73	.05
318.15	1059.25	.05

System: methyl ethanoate; phases: Liquid
Fixed: Pressure, kPa = 101.325
Property: Refractive index (Na D-line) (Liquid); method: Standard Abbe refractometry
Temperature, K	Refractive index (Na D-line)	uncertainty
288.15	1.36414	.00002
298.15	1.35881	.00002
308.15	1.35367	.00002
318.15	1.34823	.00002

System: ethyl ethanoate; phases: Liquid
Fixed: Pressure, kPa = 101.325
Property: Mass density, kg/m3 (Liquid); method: Vibrating tube method
Temperature, K	Mass density, kg/m3	uncertainty
278.15	918.5	.007
288.15	906.48	.007
298.15	894.33	.007
308.15	882.02	.007
318.15	869.52	.007
328.15	856.85	.007

System: ethyl ethanoate; phases: Liquid
Fixed: Pressure, kPa = 101.325
Property: Speed of sound, m/s (Liquid); method: Pulse-echo method
Temperature, K	Speed of sound, m/s	uncertainty
278.15	1231.02	.05
288.15	1185.18	.05
298.15	1140.02	.05
308.15	1095.3	.05
318.15	1050.99	.05
328.15	1007.38	.05

System: ethyl ethanoate; phases: Liquid
Fixed: Pressure, kPa = 101.325
Property: Refractive index (Na D-line) (Liquid); method: Standard Abbe refractometry
Temperature, K	Refractive index (Na D-line)	uncertainty
288.15	1.37519	.00002
298.15	1.36994	.00002
308.15	1.3646	.00002
318.15	1.35919	.00002
328.15	1.35368	.00002

System: propanone + 1-ethyl-3-methylimidazolium trifluoromethanesulfonate; phases: Liquid
Fixed: Pressure, kPa = 101
Property: Mass density, kg/m3 (Liquid); method: Vibrating tube method
Temperature, K	Mole fraction of 1-ethyl-3-methylimidazolium trifluoromethanesulfonate	Mass density, kg/m3	uncertainty
278.15	.05	887.53	.007
278.15	.0999	953.96	.007
278.15	.1501	1010.97	.007
278.15	.2004	1060.17	.007
278.15	.2988	1138.02	.007
278.15	.4007	1201.1	.007
278.15	.5006	1250.85	.007
278.15	.6007	1291.81	.007
278.15	.7014	1326.9	.007
278.15	.7998	1354.5	.007
278.15	.8435	1365.96	.007
278.15	.9006	1379.4	.007
278.15	.9501	1390.54	.007
288.15	.05	876.86	.007
288.15	.0999	943.44	.007
288.15	.1501	1000.75	.007
288.15	.2004	1050.21	.007
288.15	.2988	1128.31	.007
288.15	.4007	1191.78	.007
288.15	.5006	1241.69	.007
288.15	.6007	1282.81	.007
288.15	.7014	1318.05	.007
288.15	.7998	1345.77	.007
288.15	.8435	1357.29	.007
288.15	.9006	1370.81	.007
288.15	.9501	1382	.007
298.15	.05	866.08	.007
298.15	.0999	932.87	.007
298.15	.1501	990.52	.007
298.15	.2004	1040.29	.007
298.15	.2988	1118.66	.007
298.15	.4007	1182.49	.007
298.15	.5006	1232.59	.007
298.15	.6007	1273.89	.007
298.15	.7014	1309.28	.007
298.15	.7998	1337.12	.007
298.15	.8435	1348.69	.007
298.15	.9006	1362.28	.007
298.15	.9501	1373.52	.007
308.15	.05	855.21	.007
308.15	.0999	922.28	.007
308.15	.1501	980.27	.007
308.15	.2004	1030.37	.007
308.15	.2988	1109.04	.007
308.15	.4007	1173.23	.007
308.15	.5006	1223.54	.007
308.15	.6007	1265.02	.007
308.15	.7014	1300.58	.007
308.15	.7998	1328.53	.007
308.15	.8435	1340.15	.007
308.15	.9006	1353.81	.007
308.15	.9501	1365.09	.007
318.15	.05	844.23	.007
318.15	.0999	911.64	.007
318.15	.1501	969.97	.007
318.15	.2004	1020.44	.007
318.15	.2988	1099.45	.007
318.15	.4007	1164.02	.007
318.15	.5006	1214.55	.007
318.15	.6007	1256.22	.007
318.15	.7014	1291.94	.007
318.15	.7998	1320.01	.007
318.15	.8435	1331.68	.007
318.15	.9006	1345.41	.007
318.15	.9489	1356.74	.007

System: propanone + 1-ethyl-3-methylimidazolium trifluoromethanesulfonate; phases: Liquid
Fixed: Pressure, kPa = 101
Property: Speed of sound, m/s (Liquid); method: Pulse-echo method
Temperature, K	Mole fraction of 1-ethyl-3-methylimidazolium trifluoromethanesulfonate	Speed of sound, m/s	uncertainty
278.15	.05	1280.29	.05
278.15	.0999	1299.73	.05
278.15	.1501	1313.45	.05
278.15	.2004	1327.8	.05
278.15	.2988	1356.4	.05
278.15	.4007	1382.4	.05
278.15	.5006	1404.46	.05
278.15	.6007	1423.53	.05
278.15	.7014	1441.02	.05
278.15	.7998	1455.58	.05
278.15	.8435	1462.54	.05
278.15	.9006	1469.38	.05
278.15	.9501	1475.94	.05
288.15	.05	1233.34	.05
288.15	.0999	1253.54	.05
288.15	.1501	1273.09	.05
288.15	.2004	1291.77	.05
288.15	.2988	1324.65	.05
288.15	.4007	1353.03	.05
288.15	.5006	1376.74	.05
288.15	.6007	1397.25	.05
288.15	.7014	1415.85	.05
288.15	.7998	1430.9	.05
288.15	.8435	1437.83	.05
288.15	.9006	1445.72	.05
288.15	.9501	1452.12	.05
298.15	.05	1191.09	.05
298.15	.0999	1214.29	.05
298.15	.1501	1236.64	.05
298.15	.2004	1257.51	.05
298.15	.2988	1293.53	.05
298.15	.4007	1324.31	.05
298.15	.5006	1349.65	.05
298.15	.6007	1371.6	.05
298.15	.7014	1391.32	.05
298.15	.7998	1407.02	.05
298.15	.8435	1414.27	.05
298.15	.9006	1422.54	.05
298.15	.9501	1429.13	.05
308.15	.05	1149.88	.05
308.15	.0999	1175.97	.05
308.15	.1501	1200.76	.05
308.15	.2004	1223.69	.05
308.15	.2988	1262.93	.05
308.15	.4007	1296.07	.05
308.15	.5006	1323.05	.05
308.15	.6007	1346.52	.05
308.15	.7014	1367.32	.05
308.15	.7998	1383.7	.05
308.15	.8435	1391.21	.05
308.15	.9006	1399.93	.05
308.15	.9501	1406.65	.05
318.15	.05	1109.28	.05
318.15	.0999	1138.21	.05
318.15	.1501	1165.39	.05
318.15	.2004	1190.42	.05
318.15	.2988	1232.82	.05
318.15	.4007	1268.44	.05
318.15	.5006	1297.12	.05
318.15	.6007	1322	.05
318.15	.7014	1343.78	.05
318.15	.7998	1360.99	.05
318.15	.8435	1368.69	.05
318.15	.9006	1377.68	.05
318.15	.9489	1384.72	.05

System: propanone + 1-ethyl-3-methylimidazolium trifluoromethanesulfonate; phases: Liquid
Fixed: Pressure, kPa = 101
Property: Refractive index (Na D-line) (Liquid); method: Standard Abbe refractometry
Temperature, K	Mole fraction of 1-ethyl-3-methylimidazolium trifluoromethanesulfonate	Refractive index (Na D-line)	uncertainty
288.15	.04957	1.37495	.00002
288.15	.1005	1.38499	.00002
288.15	.15027	1.39293	.00002
288.15	.2007	1.39936	.00002
288.15	.29948	1.40865	.00002
288.15	.3973	1.41585	.00002
288.15	.50181	1.42117	.00002
288.15	.59957	1.42541	.00002
288.15	.69728	1.42854	.00002
288.15	.7733	1.43087	.00002
288.15	.84521	1.43253	.00002
288.15	.89879	1.43368	.00002
288.15	.95593	1.43487	.00002
298.15	.04957	1.36994	.00002
298.15	.1005	1.38033	.00002
298.15	.15027	1.38854	.00002
298.15	.2007	1.39527	.00002
298.15	.29948	1.40492	.00002
298.15	.3973	1.41237	.00002
298.15	.50181	1.41787	.00002
298.15	.59957	1.42225	.00002
298.15	.69728	1.42549	.00002
298.15	.7733	1.42786	.00002
298.15	.84521	1.42963	.00002
298.15	.89879	1.43085	.00002
298.15	.95593	1.43207	.00002
308.15	.04957	1.36575	.00002
308.15	.1005	1.37615	.00002
308.15	.15027	1.38475	.00002
308.15	.2007	1.39155	.00002
308.15	.29948	1.40133	.00002
308.15	.3973	1.409	.00002
308.15	.50181	1.41464	.00002
308.15	.59957	1.41908	.00002
308.15	.69728	1.4225	.00002
308.15	.7733	1.4249	.00002
308.15	.84521	1.42676	.00002
308.15	.89879	1.42803	.00002
308.15	.95593	1.42925	.00002
318.15	.04957	1.36218	.00002
318.15	.1005	1.37308	.00002
318.15	.15027	1.38186	.00002
318.15	.2007	1.38862	.00002
318.15	.29948	1.39777	.00002
318.15	.3973	1.40574	.00002
318.15	.50181	1.41148	.00002
318.15	.59957	1.41604	.00002
318.15	.69728	1.41953	.00002
318.15	.7733	1.42199	.00002
318.15	.84521	1.42392	.00002
318.15	.89879	1.42518	.00002
318.15	.95593	1.4265	.00002

System: methyl ethanoate + 1-ethyl-3-methylimidazolium trifluoromethanesulfonate; phases: Liquid
Fixed: Pressure, kPa = 101
Property: Mass density, kg/m3 (Liquid); method: Vibrating tube method
Temperature, K	Mole fraction of 1-ethyl-3-methylimidazolium trifluoromethanesulfonate	Mass density, kg/m3	uncertainty
278.15	.0502	1010.1	.007
278.15	.1006	1058.3	.007
278.15	.1501	1099.41	.007
278.15	.2001	1135.42	.007
278.15	.3003	1196.62	.007
278.15	.3999	1243.17	.007
278.15	.4997	1281.71	.007
278.15	.6	1313.96	.007
278.15	.7	1341.07	.007
278.15	.7986	1363.97	.007
278.15	.8509	1374.9	.007
278.15	.9008	1384.25	.007
278.15	.9504	1393.09	.007
288.15	.0502	997.8	.007
288.15	.1006	1046.52	.007
288.15	.1501	1088.09	.007
288.15	.2001	1124.48	.007
288.15	.3003	1186.31	.007
288.15	.3999	1233.3	.007
288.15	.4997	1272.18	.007
288.15	.6	1304.71	.007
288.15	.7	1332.05	.007
288.15	.7986	1355.14	.007
288.15	.8509	1366.17	.007
288.15	.9008	1375.61	.007
288.15	.9504	1384.52	.007
298.15	.0502	985.37	.007
298.15	.1006	1034.65	.007
298.15	.1501	1076.72	.007
298.15	.2001	1113.53	.007
298.15	.3003	1176.03	.007
298.15	.3999	1223.49	.007
298.15	.4997	1262.72	.007
298.15	.6	1295.53	.007
298.15	.7	1323.1	.007
298.15	.7986	1346.39	.007
298.15	.8509	1357.51	.007
298.15	.9008	1367.03	.007
298.15	.9504	1376.02	.007
308.15	.0502	972.78	.007
308.15	.1006	1022.69	.007
308.15	.1501	1065.29	.007
308.15	.2001	1102.55	.007
308.15	.3003	1165.76	.007
308.15	.3999	1213.71	.007
308.15	.4997	1253.32	.007
308.15	.6	1286.43	.007
308.15	.7	1314.23	.007
308.15	.7986	1337.7	.007
308.15	.8509	1348.91	.007
308.15	.9008	1358.51	.007
308.15	.9504	1367.58	.007
318.15	.0502	960.03	.007
318.15	.1006	1010.6	.007
318.15	.1501	1053.78	.007
318.15	.2001	1091.53	.007
318.15	.3003	1155.5	.007
318.15	.3999	1203.97	.007
318.15	.4997	1243.97	.007
318.15	.6	1277.38	.007
318.15	.7	1305.42	.007
318.15	.7986	1329.08	.007
318.15	.8509	1340.38	.007
318.15	.9008	1350.04	.007
318.15	.9504	1359.19	.007

System: methyl ethanoate + 1-ethyl-3-methylimidazolium trifluoromethanesulfonate; phases: Liquid
Fixed: Pressure, kPa = 101
Property: Speed of sound, m/s (Liquid); method: Pulse-echo method
Temperature, K	Mole fraction of 1-ethyl-3-methylimidazolium trifluoromethanesulfonate	Speed of sound, m/s	uncertainty
278.15	.0502	1259.82	.05
278.15	.1006	1278.42	.05
278.15	.1501	1298.13	.05
278.15	.2001	1316.62	.05
278.15	.3003	1350.22	.05
278.15	.3999	1376.91	.05
278.15	.4997	1399.99	.05
278.15	.6	1420.4	.05
278.15	.7	1438.45	.05
278.15	.7986	1454.41	.05
278.15	.8509	1462.25	.05
278.15	.9008	1469.14	.05
278.15	.9504	1475.58	.05
288.15	.0502	1215.5	.05
288.15	.1006	1236.5	.05
288.15	.1501	1258.5	.05
288.15	.2001	1279.2	.05
288.15	.3003	1316.6	.05
288.15	.3999	1346	.05
288.15	.4997	1371.2	.05
288.15	.6	1393.3	.05
288.15	.7	1412.7	.05
288.15	.7986	1429.7	.05
288.15	.8509	1438	.05
288.15	.9008	1445.3	.05
288.15	.9504	1452	.05
298.15	.0502	1171.7	.05
298.15	.1006	1195.1	.05
298.15	.1501	1219.4	.05
298.15	.2001	1242.4	.05
298.15	.3003	1283.5	.05
298.15	.3999	1315.8	.05
298.15	.4997	1343	.05
298.15	.6	1366.8	.05
298.15	.7	1387.6	.05
298.15	.7986	1405.6	.05
298.15	.8509	1414.4	.05
298.15	.9008	1422	.05
298.15	.9504	1429.1	.05
308.15	.0502	1128.2	.05
308.15	.1006	1153.8	.05
308.15	.1501	1180.5	.05
308.15	.2001	1205.9	.05
308.15	.3003	1250.8	.05
308.15	.3999	1285.9	.05
308.15	.4997	1315.5	.05
308.15	.6	1340.9	.05
308.15	.7	1362.9	.05
308.15	.7986	1382	.05
308.15	.8509	1391.2	.05
308.15	.9008	1399.2	.05
308.15	.9504	1406.7	.05
318.15	.0502	1084.8	.05
318.15	.1006	1112.8	.05
318.15	.1501	1141.9	.05
318.15	.2001	1169.7	.05
318.15	.3003	1218.7	.05
318.15	.3999	1256.7	.05
318.15	.4997	1288.5	.05
318.15	.6	1315.6	.05
318.15	.7	1338.9	.05
318.15	.7986	1358.9	.05
318.15	.8509	1368.6	.05
318.15	.9008	1377	.05
318.15	.9504	1384.8	.05

System: methyl ethanoate + 1-ethyl-3-methylimidazolium trifluoromethanesulfonate; phases: Liquid
Fixed: Pressure, kPa = 101
Property: Refractive index (Na D-line) (Liquid); method: Standard Abbe refractometry
Temperature, K	Mole fraction of 1-ethyl-3-methylimidazolium trifluoromethanesulfonate	Refractive index (Na D-line)	uncertainty
288.15	.05083	1.37625	.00002
288.15	.09991	1.38561	.00002
288.15	.15153	1.39328	.00002
288.15	.19981	1.39836	.00002
288.15	.29968	1.40796	.00002
288.15	.4003	1.41462	.00002
288.15	.49575	1.42026	.00002
288.15	.59503	1.42444	.00002
288.15	.69617	1.42797	.00002
288.15	.79544	1.43089	.00002
288.15	.8385	1.43234	.00002
288.15	.89772	1.43347	.00002
288.15	.9466	1.43451	.00002
298.15	.05083	1.37116	.00002
298.15	.09991	1.38057	.00002
298.15	.15153	1.38873	.00002
298.15	.19981	1.39419	.00002
298.15	.29968	1.40429	.00002
298.15	.4003	1.4112	.00002
298.15	.49575	1.41695	.00002
298.15	.59503	1.42123	.00002
298.15	.69617	1.42488	.00002
298.15	.79544	1.42794	.00002
298.15	.8385	1.42944	.00002
298.15	.89772	1.43061	.00002
298.15	.9466	1.4317	.00002
308.15	.05083	1.3671	.00002
308.15	.09991	1.37793	.00002
308.15	.15153	1.38548	.00002
308.15	.19981	1.39098	.00002
308.15	.29968	1.40087	.00002
308.15	.4003	1.40804	.00002
308.15	.49575	1.41367	.00002
308.15	.59503	1.41831	.00002
308.15	.69617	1.42201	.00002
308.15	.79544	1.4251	.00002
308.15	.8385	1.42649	.00002
308.15	.89772	1.42771	.00002
308.15	.9466	1.4289	.00002
318.15	.05083	1.36334	.00002
318.15	.09991	1.37521	.00002
318.15	.15153	1.38291	.00002
318.15	.19981	1.38871	.00002
318.15	.29968	1.39857	.00002
318.15	.4003	1.40487	.00002
318.15	.49575	1.41049	.00002
318.15	.59503	1.41533	.00002
318.15	.69617	1.41907	.00002
318.15	.79544	1.42226	.00002
318.15	.8385	1.42364	.00002
318.15	.89772	1.42488	.00002
318.15	.9466	1.42618	.00002

System: ethyl ethanoate + 1-ethyl-3-methylimidazolium trifluoromethanesulfonate; phases: Liquid
Fixed: Pressure, kPa = 101
Property: Mass density, kg/m3 (Liquid); method: Vibrating tube method
Temperature, K	Mole fraction of 1-ethyl-3-methylimidazolium trifluoromethanesulfonate	Mass density, kg/m3	uncertainty
278.15	.0501	967.32	.007
278.15	.1003	1011.38	.007
278.15	.1502	1051.15	.007
278.15	.2004	1087.57	.007
278.15	.3002	1150.92	.007
278.15	.4002	1203.84	.007
278.15	.5002	1248.95	.007
278.15	.6009	1288.17	.007
278.15	.6999	1321.89	.007
278.15	.8006	1351.91	.007
278.15	.8492	1365.02	.007
278.15	.9008	1378.11	.007
278.15	.9501	1389.89	.007
288.15	.0501	955.66	.007
288.15	.1003	999.99	.007
288.15	.1502	1040.09	.007
288.15	.2004	1076.84	.007
288.15	.3002	1140.7	.007
288.15	.4002	1194.03	.007
288.15	.5002	1239.47	.007
288.15	.6009	1278.96	.007
288.15	.6999	1312.9	.007
288.15	.8006	1343.1	.007
288.15	.8492	1356.29	.007
288.15	.9008	1369.47	.007
288.15	.9501	1381.32	.007
298.15	.0501	943.87	.007
298.15	.1003	988.52	.007
298.15	.1502	1028.97	.007
298.15	.2004	1066.05	.007
298.15	.3002	1130.49	.007
298.15	.4002	1184.26	.007
298.15	.5002	1230.04	.007
298.15	.6009	1269.8	.007
298.15	.6999	1303.96	.007
298.15	.8006	1334.35	.007
298.15	.8492	1347.63	.007
298.15	.9008	1360.89	.007
298.15	.9501	1372.81	.007
308.15	.0501	931.96	.007
308.15	.1003	976.94	.007
308.15	.1502	1017.77	.007
308.15	.2004	1055.22	.007
308.15	.3002	1120.28	.007
308.15	.4002	1174.52	.007
308.15	.5002	1220.67	.007
308.15	.6009	1260.71	.007
308.15	.6999	1295.11	.007
308.15	.8006	1325.68	.007
308.15	.8492	1339.04	.007
308.15	.9008	1352.38	.007
308.15	.9501	1364.37	.007
318.15	.0501	919.88	.007
318.15	.1003	965.24	.007
318.15	.1502	1006.48	.007
318.15	.2004	1044.34	.007
318.15	.3002	1110.07	.007
318.15	.4002	1164.82	.007
318.15	.5002	1211.35	.007
318.15	.6009	1251.69	.007
318.15	.6999	1286.31	.007
318.15	.8006	1317.07	.007
318.15	.8492	1330.51	.007
318.15	.9008	1343.92	.007
318.15	.9501	1355.98	.007
328.15	.0501	907.62	.007
328.15	.1003	953.35	.007
328.15	.1502	995.07	.007
328.15	.2004	1033.39	.007
328.15	.3002	1099.87	.007
328.15	.4002	1155.15	.007
328.15	.5002	1202.08	.007
328.15	.6009	1242.72	.007
328.15	.6999	1277.58	.007
328.15	.8006	1308.52	.007
328.15	.8492	1322.04	.007
328.15	.9008	1335.52	.007
328.15	.9501	1347.65	.007

System: ethyl ethanoate + 1-ethyl-3-methylimidazolium trifluoromethanesulfonate; phases: Liquid
Fixed: Pressure, kPa = 101
Property: Speed of sound, m/s (Liquid); method: Pulse-echo method
Temperature, K	Mole fraction of 1-ethyl-3-methylimidazolium trifluoromethanesulfonate	Speed of sound, m/s	uncertainty
278.15	.0501	1237.99	.05
278.15	.1003	1249.02	.05
278.15	.1502	1263.82	.05
278.15	.2004	1280.48	.05
278.15	.3002	1313.91	.05
278.15	.4002	1343.69	.05
278.15	.5002	1371.16	.05
278.15	.6009	1397.01	.05
278.15	.6999	1420.48	.05
278.15	.8006	1442.81	.05
278.15	.8492	1453	.05
278.15	.9008	1463.25	.05
278.15	.9501	1472.57	.05
288.15	.0501	1193.7	.05
288.15	.1003	1206.14	.05
288.15	.1502	1222.85	.05
288.15	.2004	1241.49	.05
288.15	.3002	1278.8	.05
288.15	.4002	1311.7	.05
288.15	.5002	1341.58	.05
288.15	.6009	1369.4	.05
288.15	.6999	1394.01	.05
288.15	.8006	1417.93	.05
288.15	.8492	1428.61	.05
288.15	.9008	1439.3	.05
288.15	.9501	1448.98	.05
298.15	.0501	1150.05	.05
298.15	.1003	1163.86	.05
298.15	.1502	1182.45	.05
298.15	.2004	1203.03	.05
298.15	.3002	1244.23	.05
298.15	.4002	1280.36	.05
298.15	.5002	1312.73	.05
298.15	.6009	1342.4	.05
298.15	.6999	1369.01	.05
298.15	.8006	1393.71	.05
298.15	.8492	1404.85	.05
298.15	.9008	1415.98	.05
298.15	.9501	1426.03	.05
308.15	.0501	1106.81	.05
308.15	.1003	1121.78	.05
308.15	.1502	1142.24	.05
308.15	.2004	1165.07	.05
308.15	.3002	1210.15	.05
308.15	.4002	1249.48	.05
308.15	.5002	1284.38	.05
308.15	.6009	1315.95	.05
308.15	.6999	1344.17	.05
308.15	.8006	1370	.05
308.15	.8492	1381.61	.05
308.15	.9008	1393.17	.05
308.15	.9501	1403.6	.05
318.15	.0501	1063.87	.05
318.15	.1003	1080.13	.05
318.15	.1502	1102.3	.05
318.15	.2004	1127.28	.05
318.15	.3002	1176.46	.05
318.15	.4002	1219.01	.05
318.15	.5002	1256.57	.05
318.15	.6009	1290.12	.05
318.15	.6999	1319.8	.05
318.15	.8006	1346.78	.05
318.15	.8492	1358.82	.05
318.15	.9008	1370.79	.05
318.15	.9501	1381.58	.05
328.15	.0501	1021.3	.05
328.15	.1003	1039.16	.05
328.15	.1502	1062.7	.05
328.15	.2004	1090.05	.05
328.15	.3002	1143.32	.05
328.15	.4002	1189.3	.05
328.15	.5002	1229.43	.05
328.15	.6009	1264.92	.05
328.15	.6999	1296.01	.05
328.15	.8006	1324.07	.05
328.15	.8492	1336.55	.05
328.15	.9008	1348.92	.05
328.15	.9501	1360.07	.05

System: ethyl ethanoate + 1-ethyl-3-methylimidazolium trifluoromethanesulfonate; phases: Liquid
Fixed: Pressure, kPa = 101
Property: Refractive index (Na D-line) (Liquid); method: Standard Abbe refractometry
Temperature, K	Mole fraction of 1-ethyl-3-methylimidazolium trifluoromethanesulfonate	Refractive index (Na D-line)	uncertainty
288.15	.04887	1.38327	.00002
288.15	.15027	1.39622	.00002
288.15	.2004	1.40093	.00002
288.15	.29981	1.40907	.00002
288.15	.39902	1.41507	.00002
288.15	.50055	1.42038	.00002
288.15	.59768	1.42469	.00002
288.15	.69743	1.42874	.00002
288.15	.79615	1.43118	.00002
288.15	.84738	1.43242	.00002
288.15	.90108	1.43367	.00002
288.15	.94911	1.43467	.00002
298.15	.04887	1.37802	.00002
298.15	.15027	1.39151	.00002
298.15	.2004	1.39666	.00002
298.15	.29981	1.40499	.00002
298.15	.39902	1.41144	.00002
298.15	.50055	1.41682	.00002
298.15	.59768	1.42133	.00002
298.15	.69743	1.42566	.00002
298.15	.79615	1.42823	.00002
298.15	.84738	1.4295	.00002
298.15	.90108	1.43075	.00002
298.15	.94911	1.43182	.00002
308.15	.04887	1.37297	.00002
308.15	.15027	1.3881	.00002
308.15	.2004	1.3944	.00002
308.15	.29981	1.40234	.00002
308.15	.39902	1.40854	.00002
308.15	.50055	1.41415	.00002
308.15	.59768	1.4186	.00002
308.15	.69743	1.42254	.00002
308.15	.79615	1.42528	.00002
308.15	.84738	1.42662	.00002
308.15	.90108	1.42792	.00002
308.15	.94911	1.42903	.00002
318.15	.04887	1.3691	.00002
318.15	.15027	1.38476	.00002
318.15	.2004	1.3917	.00002
318.15	.29981	1.39937	.00002
318.15	.39902	1.40604	.00002
318.15	.50055	1.41137	.00002
318.15	.59768	1.41549	.00002
318.15	.69743	1.41963	.00002
318.15	.79615	1.42239	.00002
318.15	.84738	1.42376	.00002
318.15	.90108	1.42471	.00002
318.15	.94911	1.42624	.00002
328.15	.04887	1.3631	.00002
328.15	.15027	1.38129	.00002
328.15	.2004	1.38772	.00002
328.15	.29981	1.39558	.00002
328.15	.39902	1.4031	.00002
328.15	.50055	1.40906	.00002
328.15	.59768	1.41251	.00002
328.15	.69743	1.41671	.00002
328.15	.79615	1.41954	.00002
328.15	.84738	1.42094	.00002
328.15	.90108	1.42195	.00002
328.15	.94911	1.42352	.00002
