Measured thermophysical data. Solubility of 1,1-Diamino-2,2-dinitroethylene in N,N-Dimethylformamide, Dimethyl Sulfoxide, and N-Methyl-2-pyrrolidone
Source: J. Chem. Eng. Data, 2009, 10.1021/je900235s
Compound 1: 1,1-diamino-2,2-dinitroethene, C2H4N4O4
Compound 2: N,N-dimethylformamide, C3H7NO, purity 98%
Compound 3: methyl sulfoxide, C2H6OS, purity 98%
Compound 4: N-methyl-2-pyrrolidone, C5H9NO, purity 98%

System: N,N-dimethylformamide + 1,1-diamino-2,2-dinitroethene; phases: Liquid, Crystal
Fixed: Pressure, kPa = 101
Property: Mole fraction of 1,1-diamino-2,2-dinitroethene (Liquid); method: Visual Observation
Temperature, K	Mole fraction of 1,1-diamino-2,2-dinitroethene	uncertainty
293.15	.0918	.001377
333.15	.1286	.001929
303.15	.102	.00153
343.15	.137	.002055
313.15	.1096	.001644
353.15	.1477	.0022155
323.15	.1186	.001779
363.15	.1624	.002436

System: methyl sulfoxide + 1,1-diamino-2,2-dinitroethene; phases: Liquid, Crystal
Fixed: Pressure, kPa = 101
Property: Mole fraction of 1,1-diamino-2,2-dinitroethene (Liquid); method: Visual Observation
Temperature, K	Mole fraction of 1,1-diamino-2,2-dinitroethene	uncertainty
293.15	.1828	.002742
333.15	.2173	.0032595
303.15	.1906	.002859
343.15	.2286	.003429
313.15	.1989	.0029835
353.15	.241	.003615
323.15	.2073	.0031095
363.15	.2537	.0038055

System: N-methyl-2-pyrrolidone + 1,1-diamino-2,2-dinitroethene; phases: Liquid, Crystal
Fixed: Pressure, kPa = 101
Property: Mole fraction of 1,1-diamino-2,2-dinitroethene (Liquid); method: Visual Observation
Temperature, K	Mole fraction of 1,1-diamino-2,2-dinitroethene	uncertainty
293.15	.1675	.0025125
333.15	.2033	.0030495
303.15	.178	.00267
343.15	.2138	.003207
313.15	.1839	.0027585
353.15	.2267	.0034005
323.15	.1938	.002907
363.15	.2398	.003597
