Measured thermophysical data. Isobaric Vapor-Liquid-Liquid Equilibrium and Vapor-Liquid Equilibrium for the Quaternary System Water-Ethanol-Cyclohexane-Isooctane at 101.3 kPa
Source: J. Chem. Eng. Data, 2010, 10.1021/je900604a
Compound 1: water, H2O, purity 99.99%
Compound 2: cyclohexane, C6H12, purity 99.5%
Compound 3: 2,2,4-trimethylpentane, C8H18, purity 99.5%

System: cyclohexane + 2,2,4-trimethylpentane + water; phases: Liquid mixture 1, Liquid mixture 2, Gas
Fixed: Pressure, kPa = 101.3
Property: Mole fraction of cyclohexane (Liquid mixture 1); method: Titration method
Property: Mole fraction of 2,2,4-trimethylpentane (Liquid mixture 1); method: Titration method
Property: Mole fraction of cyclohexane (Liquid mixture 2); method: Titration method
Property: Mole fraction of 2,2,4-trimethylpentane (Liquid mixture 2); method: Titration method
Property: Mole fraction of cyclohexane (Gas); method: Titration method
Property: Mole fraction of 2,2,4-trimethylpentane (Gas); method: Titration method
Temperature, K	Mole fraction of cyclohexane	uncertainty	Mole fraction of 2,2,4-trimethylpentane	uncertainty	Mole fraction of cyclohexane	uncertainty	Mole fraction of 2,2,4-trimethylpentane	uncertainty	Mole fraction of cyclohexane	uncertainty	Mole fraction of 2,2,4-trimethylpentane	uncertainty
344.25	.00001		.00002		.707		.292		.588		.087	
346.1	.00001		.00001		.568		.432		.469		.19	
348.4	.0001		.00002		.389		.61		.338		.302	
350.68	.00001		.00005		.179		.82		.182		.425	
