Measured thermophysical data. Viscosity of Gaseous HFC245fa
Source: J. Chem. Eng. Data, 2010, 10.1021/je900279z
Compound 1: propane, 1,1,1,3,3-pentafluoro-, C3H3F5, purity 99.95%
Compound 2: argon, Ar, purity 99.99%

System: propane, 1,1,1,3,3-pentafluoro-; phases: Gas
Property: Viscosity, Pa*s (Gas); method: Oscillating disk viscometry
Temperature, K	Pressure, kPa	Viscosity, Pa*s	uncertainty
300.93	107	.000010664	.00000021328
300.88	113	.000010653	.00000021306
300.81	136	.000010641	.00000021282
320.53	108	.000011271	.00000022542
320.26	145	.000011239	.00000022478
320.33	186	.000011254	.00000022508
320.58	254	.000011268	.00000022536
338.61	100	.000011862	.00000023724
339.15	145	.000011863	.00000023726
339.02	207	.000011855	.0000002371
338.98	307	.000011843	.00000023686
338.61	435	.000011857	.00000023714
357.23	104	.000012562	.00000025124
357.39	108	.000012559	.00000025118
357.38	159	.000012554	.00000025108
357.4	224	.00001254	.0000002508
357.23	305	.000012532	.00000025064
357.43	403	.000012522	.00000025044
357.52	503	.000012515	.0000002503
357.15	592	.00001252	.0000002504
357.43	708	.000012525	.0000002505
376.46	107	.000013036	.00000026072
376.25	164	.000013026	.00000026052
376.38	254	.000013029	.00000026058
376.54	348	.000013039	.00000026078
376.61	457	.000013051	.00000026102
376.39	567	.000013064	.00000026128
376.58	676	.00001308	.0000002616
376.64	797	.000013099	.00000026198
376.61	945	.000013144	.00000026288
376.43	1071	.000013182	.00000026364
376.63	1312	.000013389	.00000026778
395.6	109	.000013567	.00000027134
395.66	213	.000013551	.00000027102
395.77	311	.000013585	.0000002717
395.8	417	.00001359	.0000002718
395.85	512	.000013619	.00000027238
395.93	616	.000013639	.00000027278
395.93	723	.000013655	.0000002731
395.81	823	.000013695	.0000002739
396	934	.000013743	.00000027486
396.24	1044	.000013857	.00000027714
396.22	1164	.000013875	.0000002775
396.02	1280	.000013963	.00000027926
396.17	1390	.000014083	.00000028166
396.35	1505	.000014159	.00000028318
396.46	1614	.000014298	.00000028596

System: argon; phases: Gas
Property: Viscosity, Pa*s (Gas); method: Oscillating disk viscometry
Temperature, K	Pressure, kPa	Viscosity, Pa*s	uncertainty
300.58	4503	.000023833	.00000047666
300.56	4050	.00002364	.0000004728
300.7	3729	.00002351	.0000004702
300.63	3427	.000023433	.00000046866
300.54	3089	.000023473	.00000046946
300.66	2759	.000023385	.0000004677
300.72	2458	.000023376	.00000046752
300.49	2082	.000023351	.00000046702
300.76	1775	.000023247	.00000046494
300.68	1446	.000023126	.00000046252
300.89	1117	.000022932	.00000045864
300.32	832	.000022861	.00000045722
300.38	616	.000022801	.00000045602
300.11	400	.000022715	.0000004543
300.25	302	.000022651	.00000045302
300.19	199	.000022646	.00000045292
300.17	103	.000022788	.00000045576
