Measured thermophysical data. Densities and Viscosities of (1-Propanol + 1,2-Dichloroethane), (1-Propanol + Benzaldehyde), (Benzaldehyde + 1,2-Dichloroethane), and (1-Propanol + 1,2-Dichloroethane + Benzaldehyde) Mixtures from T = 288.15 K to 313.15 K
Source: J. Chem. Eng. Data, 2009, 10.1021/je900212d
Compound 1: 1-propanol, C3H8O, purity 99%
Compound 2: 1,2-dichloroethane, C2H4Cl2, purity 99%
Compound 3: benzaldehyde, C7H6O, purity 98%

System: 1-propanol; phases: Liquid
Fixed: Pressure, kPa = 101.325
Property: Mass density, kg/m3 (Liquid); method: Vibrating tube method
Temperature, K	Mass density, kg/m3	uncertainty
288.15	810.5	.3
293.15	806.5	.3
298.15	803.2	.3
303.15	799.3	.3
308.15	795.2	.3
313.15	790.4	.3

System: 1-propanol; phases: Liquid
Fixed: Pressure, kPa = 101.325
Property: Viscosity, Pa*s (Liquid); method: Capillary tube (Ostwald; Ubbelohde) method
Temperature, K	Viscosity, Pa*s	uncertainty
288.15	.0024202	.000003
293.15	.0021372	.000003
298.15	.0018939	.000003
303.15	.0016841	.000003
308.15	.0015037	.000003
313.15	.0013516	.000003

System: 1,2-dichloroethane; phases: Liquid
Fixed: Pressure, kPa = 101.325
Property: Mass density, kg/m3 (Liquid); method: Vibrating tube method
Temperature, K	Mass density, kg/m3	uncertainty
288.15	1259	.3
293.15	1251.9	.3
298.15	1247.4	.3
303.15	1239	.3
308.15	1231.2	.3
313.15	1222	.3

System: 1,2-dichloroethane; phases: Liquid
Fixed: Pressure, kPa = 101.325
Property: Viscosity, Pa*s (Liquid); method: Capillary tube (Ostwald; Ubbelohde) method
Temperature, K	Viscosity, Pa*s	uncertainty
288.15	.00087	.000003
293.15	.0008112	.000003
298.15	.0007597	.000003
303.15	.0007112	.000003
308.15	.0006747	.000003
313.15	.0006269	.000003

System: benzaldehyde; phases: Liquid
Fixed: Pressure, kPa = 101.325
Property: Mass density, kg/m3 (Liquid); method: Vibrating tube method
Temperature, K	Mass density, kg/m3	uncertainty
288.15	1056	.3
293.15	1052.8	.3
298.15	1047	.3
303.15	1043.2	.3
308.15	1039	.3
313.15	1034.4	.3

System: benzaldehyde; phases: Liquid
Fixed: Pressure, kPa = 101.325
Property: Viscosity, Pa*s (Liquid); method: Capillary tube (Ostwald; Ubbelohde) method
Temperature, K	Viscosity, Pa*s	uncertainty
288.15	.0017044	.000003
293.15	.0015581	.000003
298.15	.0014271	.000003
303.15	.0013155	.000003
308.15	.0012229	.000003
313.15	.0011306	.000003

System: 1-propanol + benzaldehyde + 1,2-dichloroethane; phases: Liquid
Fixed: Pressure, kPa = 101
Property: Mass density, kg/m3 (Liquid); method: Vibrating tube method
Temperature, K	Mole fraction of 1-propanol	Mole fraction of benzaldehyde	Mass density, kg/m3	uncertainty
308.15	0	.4903	1121	.8
308.15	0	.7025	1091	.8
308.15	0	.9066	1053	.8
293.15	0	.8163	1082	.8
313.15	0	.1013	1198	.8
313.15	0	.2083	1173.6	.8
313.15	0	.2983	1153.9	.8
313.15	0	.3924	1136.7	.8
313.15	0	.491	1115.5	.8
313.15	0	.5945	1102.2	.8
313.15	0	.8173	1063.1	.8
298.15	0	.2965	1174.6	.8
298.15	0	.3904	1155.5	.8
298.15	0	.4889	1133.4	.8
308.15	0	.8168	1068.5	.8
298.15	0	.5924	1117.3	.8
288.15	0	.5923	1125.5	.8
288.15	0	.7012	1107.6	.8
293.15	0	.2969	1180.5	.8
288.15	0	.8159	1086.7	.8
293.15	0	.3909	1161.8	.8
313.15	0	.7031	1085.5	.8
293.15	0	.4894	1139.5	.8
313.15	0	.9069	1049.7	.8
293.15	0	.5929	1119.9	.8
293.15	0	.7017	1102.2	.8
288.15	0	.3902	1166	.8
298.15	0	.7013	1098.6	.8
308.15	0	.1011	1206.5	.8
293.15	0	.9063	1066.4	.8
298.15	0	.816	1077.9	.8
298.15	0	.9061	1063.1	.8
288.15	0	.2068	1207.2	.8
303.15	0	.5932	1112.7	.8
288.15	0	.2964	1186.5	.8
303.15	0	.702	1094.4	.8
303.15	0	.8165	1073.2	.8
308.15	0	.2078	1182.6	.8
308.15	0	.2976	1162.9	.8
288.15	0	.9061	1070.6	.8
308.15	0	.3917	1144.1	.8
303.15	0	.9064	1058.5	.8
308.15	0	.5937	1107.8	.8
303.15	0	.2972	1169.8	.8
288.15	0	.4888	1146.4	.8
303.15	0	.3911	1150.1	.8
303.15	0	.1009	1214.3	.8
298.15	0	.1006	1220.5	.8
303.15	0	.4897	1126.5	.8
298.15	0	.2069	1196.1	.8
288.15	0	.1005	1233	.8
293.15	0	.1007	1227.6	.8
303.15	0	.2074	1190	.8
293.15	0	.2072	1200	.8
313.15	.0986	.9014	1015.1	.8
308.15	.0988	.9012	1021.4	.8
293.15	.0988	.9012	1034.2	.8
303.15	.0989	.9011	1025.9	.8
298.15	.099	.901	1029.9	.8
288.15	.099	.901	1038.8	.8
293.15	.1054	0	1205	.8
298.15	.1054	0	1199.2	.8
288.15	.1054	0	1211	.8
303.15	.1056	0	1192.6	.8
308.15	.1057	0	1183.4	.8
313.15	.1058	0	1174.9	.8
293.15	.1114	.2059	1157.6	.8
288.15	.1114	.2055	1163.7	.8
298.15	.1114	.2056	1152.4	.8
303.15	.1115	.2061	1146.8	.8
308.15	.1116	.2064	1141.1	.8
313.15	.1117	.2069	1135.7	.8
293.15	.1147	.3179	1133.1	.8
298.15	.1147	.3175	1127.6	.8
288.15	.1147	.3173	1134.8	.8
308.15	.1148	.3185	1116.8	.8
313.15	.1148	.3191	1110.9	.8
303.15	.1148	.3181	1122.8	.8
293.15	.1181	.4366	1109.5	.8
308.15	.1182	.4373	1095.3	.8
313.15	.1182	.438	1089.5	.8
303.15	.1182	.4368	1100.2	.8
288.15	.1182	.4359	1115	.8
298.15	.1182	.4361	1104.5	.8
313.15	.121	.5381	1069.1	.8
293.15	.121	.5368	1089.4	.8
298.15	.1211	.5363	1085	.8
308.15	.1211	.5375	1075.4	.8
303.15	.1211	.537	1080.4	.8
288.15	.1211	.5362	1090.4	.8
313.15	.124	.6432	1051	.8
308.15	.1241	.6426	1055.8	.8
293.15	.1241	.642	1069.5	.8
303.15	.1241	.6422	1060	.8
288.15	.1242	.6415	1073.5	.8
298.15	.1242	.6416	1064.4	.8
313.15	.1271	.7536	1032.7	.8
308.15	.1272	.7531	1037.1	.8
303.15	.1273	.7528	1041.3	.8
293.15	.1273	.7527	1050	.8
298.15	.1274	.7524	1045.5	.8
288.15	.1275	.7523	1054.8	.8
313.15	.1287	.8109	1023.4	.8
308.15	.1289	.8105	1028	.8
303.15	.129	.8103	1032.3	.8
293.15	.129	.8103	1040.5	.8
288.15	.1291	.8099	1045.4	.8
298.15	.1291	.81	1036.9	.8
313.15	.1923	.8077	997.8	.8
308.15	.1926	.8074	1003.4	.8
293.15	.1927	.8073	1017	.8
303.15	.1927	.8073	1008.1	.8
298.15	.1929	.8071	1012.8	.8
288.15	.193	.807	1021.8	.8
288.15	.2095	0	1166.4	.8
298.15	.2095	0	1154.4	.8
293.15	.2096	0	1159.7	.8
303.15	.2099	0	1147.7	.8
308.15	.21	0	1140.7	.8
313.15	.2103	0	1133.5	.8
313.15	.2417	.5598	1023.1	.8
308.15	.2418	.5592	1027.8	.8
293.15	.2418	.5587	1041	.8
303.15	.2419	.5588	1032	.8
298.15	.242	.5583	1036.3	.8
288.15	.2421	.5581	1046.4	.8
288.15	.2445	.1403	1111.6	.8
298.15	.2446	.1404	1110.7	.8
293.15	.2446	.1406	1116.2	.8
303.15	.2448	.1407	1105.1	.8
308.15	.2449	.141	1099.6	.8
313.15	.2451	.1413	1093.8	.8
313.15	.2461	.6384	1010.2	.8
308.15	.2463	.6379	1014.6	.8
293.15	.2464	.6375	1027.8	.8
303.15	.2465	.6375	1018.9	.8
298.15	.2466	.6371	1023.2	.8
288.15	.2467	.637	1032.2	.8
293.15	.2515	.2479	1094.4	.8
298.15	.2516	.2476	1089	.8
288.15	.2516	.2475	1100.1	.8
303.15	.2517	.2481	1083.8	.8
308.15	.2518	.2484	1078.6	.8
313.15	.2519	.2489	1072.8	.8
293.15	.2574	.3383	1077	.8
303.15	.2575	.3384	1067.6	.8
298.15	.2575	.3379	1071.7	.8
288.15	.2575	.3377	1083.2	.8
308.15	.2576	.3388	1062.9	.8
313.15	.2576	.3394	1057.1	.8
313.15	.2635	.434	1037.1	.8
293.15	.2635	.4329	1058	.8
308.15	.2636	.4334	1043.3	.8
298.15	.2636	.4325	1052.8	.8
303.15	.2637	.433	1048.9	.8
288.15	.2637	.4323	1062.9	.8
293.15	.2923	.4322	1048.1	.8
313.15	.2923	.4333	1028.1	.8
303.15	.2924	.4323	1037.8	.8
308.15	.2924	.4327	1033.6	.8
298.15	.2924	.4318	1043	.8
288.15	.2925	.4316	1053.1	.8
313.15	.2975	.507	1013.1	.8
293.15	.2976	.506	1032.9	.8
308.15	.2976	.5065	1018.6	.8
303.15	.2977	.5061	1023	.8
298.15	.2978	.5056	1028	.8
288.15	.2979	.5055	1037.8	.8
298.15	.2996	.1609	1086.1	.8
288.15	.2996	.1608	1097.3	.8
293.15	.2997	.1611	1092	.8
303.15	.2999	.1612	1080.4	.8
308.15	.3	.1614	1074.9	.8
313.15	.3002	.1618	1068.9	.8
313.15	.3046	.6096	994.9	.8
308.15	.3049	.6091	999.2	.8
293.15	.305	.6088	1013.1	.8
303.15	.3051	.6088	1004.3	.8
298.15	.3053	.6084	1008.7	.8
288.15	.3053	.6083	1017.9	.8
293.15	.3064	.2471	1072.5	.8
298.15	.3065	.2468	1067	.8
288.15	.3065	.2467	1078	.8
303.15	.3067	.2472	1063.2	.8
308.15	.3067	.2476	1058.4	.8
313.15	.3068	.248	1053.3	.8
313.15	.3102	.6898	973.8	.8
308.15	.3106	.6894	980.1	.8
293.15	.3108	.6892	993.2	.8
303.15	.3108	.6892	984.8	.8
298.15	.3111	.6889	989.2	.8
288.15	.3112	.6888	997.7	.8
288.15	.3124	0	1121.8	.8
298.15	.3124	0	1109.3	.8
293.15	.3126	0	1116.2	.8
303.15	.3129	0	1104.2	.8
308.15	.3131	0	1097.2	.8
313.15	.3134	0	1089	.8
298.15	.3136	.3368	1048.6	.8
293.15	.3136	.3371	1054.2	.8
313.15	.3137	.3382	1035	.8
288.15	.3137	.3366	1058.7	.8
308.15	.3137	.3377	1039.8	.8
303.15	.3137	.3373	1044.5	.8
313.15	.3938	.6062	956.5	.8
308.15	.3942	.6058	962.7	.8
293.15	.3944	.6056	976.2	.8
303.15	.3945	.6055	967	.8
298.15	.3948	.6052	971.3	.8
288.15	.3949	.6051	980.8	.8
288.15	.4141	0	1078.4	.8
298.15	.4141	0	1067.1	.8
293.15	.4143	0	1072.1	.8
303.15	.4146	0	1061.1	.8
308.15	.4149	0	1054.9	.8
313.15	.4152	0	1047.4	.8
298.15	.4301	.1389	1038.6	.8
288.15	.4301	.1388	1049.2	.8
293.15	.4301	.1391	1044.2	.8
303.15	.4304	.1392	1034	.8
308.15	.4305	.1394	1028.5	.8
313.15	.4307	.1396	1022.4	.8
313.15	.4371	.4535	969.8	.8
308.15	.4373	.453	974.3	.8
293.15	.4374	.4527	987	.8
303.15	.4375	.4527	978.3	.8
298.15	.4376	.4523	982.4	.8
288.15	.4377	.4522	991.5	.8
293.15	.4422	.2452	1021.5	.8
298.15	.4423	.2449	1015.9	.8
288.15	.4423	.2448	1026.9	.8
303.15	.4424	.2452	1011.2	.8
308.15	.4425	.2455	1006.5	.8
313.15	.4425	.2459	1001.8	.8
293.15	.4524	.3344	1003.4	.8
313.15	.4524	.3353	984.4	.8
298.15	.4525	.3341	998.6	.8
303.15	.4525	.3345	994.4	.8
308.15	.4525	.3348	989.8	.8
288.15	.4526	.3339	1008	.8
313.15	.4993	.5007	934	.8
308.15	.4997	.5003	937.8	.8
303.15	.5	.5	942.9	.8
293.15	.5	.5	951.6	.8
298.15	.5003	.4997	947	.8
288.15	.5004	.4996	956.4	.8
288.15	.5146	0	1032.4	.8
298.15	.5146	0	1021.3	.8
293.15	.5148	0	1026.6	.8
303.15	.5151	0	1016	.8
308.15	.5154	0	1009.5	.8
313.15	.5158	0	1004	.8
313.15	.5404	.3794	941.7	.8
308.15	.5407	.379	946.9	.8
293.15	.5408	.3787	960.3	.8
303.15	.5409	.3787	951.1	.8
298.15	.5411	.3784	955.6	.8
288.15	.5411	.3783	964.9	.8
313.15	.5554	.2881	952.5	.8
293.15	.5555	.2874	970.2	.8
303.15	.5556	.2875	961.3	.8
308.15	.5556	.2877	957.1	.8
298.15	.5557	.2871	966	.8
288.15	.5557	.287	975.5	.8
293.15	.5695	.2005	976	.8
288.15	.5696	.2001	980.9	.8
298.15	.5696	.2002	971	.8
313.15	.5697	.2011	956.6	.8
308.15	.5697	.2007	961.8	.8
303.15	.5697	.2005	966.3	.8
293.15	.5797	.0974	984.6	.8
298.15	.5797	.0973	979.6	.8
288.15	.5797	.0972	989.8	.8
303.15	.58	.0974	975.3	.8
308.15	.5801	.0976	970.6	.8
313.15	.5803	.0977	964.9	.8
313.15	.5986	.4014	910.9	.8
308.15	.599	.401	915.5	.8
293.15	.5992	.4008	928.6	.8
303.15	.5993	.4007	919.5	.8
298.15	.5996	.4004	923.7	.8
288.15	.5997	.4003	932.9	.8
288.15	.6139	0	986	.8
298.15	.614	0	976.2	.8
293.15	.6141	0	980.6	.8
303.15	.6144	0	970.5	.8
308.15	.6147	0	964	.8
313.15	.615	0	956.7	.8
298.15	.6558	.0968	947	.8
293.15	.6558	.097	952.2	.8
288.15	.6558	.0968	957	.8
303.15	.656	.097	943.4	.8
308.15	.6561	.0971	938.6	.8
313.15	.6563	.0973	933	.8
313.15	.6584	.2643	912.1	.8
308.15	.6586	.264	917.5	.8
293.15	.6587	.2637	931.5	.8
303.15	.6588	.2637	922.1	.8
298.15	.6589	.2634	926.8	.8
288.15	.659	.2634	936	.8
293.15	.6701	.1783	930.1	.8
313.15	.6702	.1788	912.1	.8
303.15	.6702	.1783	920.7	.8
298.15	.6702	.1781	925.2	.8
288.15	.6702	.178	934.7	.8
308.15	.6702	.1785	916.6	.8
313.15	.6922	.3078	894.8	.8
308.15	.6925	.3075	899.9	.8
293.15	.6927	.3073	912.6	.8
303.15	.6928	.3072	904	.8
298.15	.693	.307	908.3	.8
288.15	.6932	.3068	916.8	.8
288.15	.7121	0	942.8	.8
298.15	.7122	0	934	.8
293.15	.7123	0	938.6	.8
303.15	.7125	0	929.7	.8
308.15	.7128	0	924.3	.8
313.15	.7131	0	918.9	.8
313.15	.743	.1573	891	.8
293.15	.743	.1569	908.7	.8
298.15	.7431	.1567	904	.8
308.15	.7431	.1571	895.2	.8
303.15	.7431	.1569	899.5	.8
288.15	.7432	.1567	913.4	.8
288.15	.7562	.0962	913.2	.8
293.15	.7562	.0964	908.9	.8
298.15	.7562	.0962	904.3	.8
303.15	.7563	.0964	899.9	.8
313.15	.7564	.0967	891.6	.8
308.15	.7564	.0965	895.7	.8
313.15	.8019	.1981	853.6	.8
308.15	.8022	.1978	858.9	.8
293.15	.8023	.1977	871.4	.8
303.15	.8023	.1977	863.6	.8
298.15	.8025	.1975	867.6	.8
288.15	.8026	.1974	875.4	.8
298.15	.8092	0	885.9	.8
288.15	.8092	0	895.4	.8
293.15	.8093	0	890.5	.8
303.15	.8095	0	882.6	.8
308.15	.8097	0	877.3	.8
313.15	.8099	0	870.1	.8
293.15	.8307	.0959	875.4	.8
298.15	.8307	.0958	870.7	.8
313.15	.8307	.0962	857.4	.8
308.15	.8307	.096	861.8	.8
288.15	.8308	.0958	879.6	.8
303.15	.8308	.0959	866.2	.8
313.15	.9043	.0957	823.6	.8
308.15	.9044	.0956	827.3	.8
303.15	.9045	.0955	831.6	.8
293.15	.9045	.0955	839.1	.8
288.15	.9046	.0954	843.1	.8
298.15	.9046	.0954	835.3	.8
288.15	.9051	0	843.5	.8
293.15	.9052	0	839.4	.8
298.15	.9052	0	836.3	.8
303.15	.9053	0	832.8	.8
308.15	.9054	0	827.5	.8
313.15	.9055	0	821.5	.8

System: 1-propanol + benzaldehyde + 1,2-dichloroethane; phases: Liquid
Fixed: Pressure, kPa = 101
Property: Viscosity, Pa*s (Liquid); method: Capillary tube (Ostwald; Ubbelohde) method
Temperature, K	Mole fraction of 1-propanol	Mole fraction of benzaldehyde	Viscosity, Pa*s	uncertainty
288.15	.1054	0	.0008441	.000003
288.15	.2095	0	.0008809	.000003
288.15	.3124	0	.0009238	.000003
288.15	.4141	0	.000998	.000003
288.15	.5146	0	.0011005	.000003
288.15	.6139	0	.0012562	.000003
288.15	.7121	0	.0014643	.000003
288.15	.8092	0	.0017263	.000003
288.15	.9051	0	.0020292	.000003
288.15	.099	.901	.0016889	.000003
288.15	.193	.807	.0016605	.000003
288.15	.3112	.6888	.0016224	.000003
288.15	.3949	.6051	.0016372	.000003
288.15	.5004	.4996	.0016455	.000003
288.15	.5997	.4003	.0016833	.000003
288.15	.6932	.3068	.0017742	.000003
288.15	.8026	.1974	.0018726	.000003
288.15	.9046	.0954	.0020753	.000003
288.15	0	.1005	.0009491	.000003
288.15	0	.2068	.001034	.000003
288.15	0	.2964	.001097	.000003
288.15	0	.3902	.0011709	.000003
288.15	0	.4888	.0012702	.000003
288.15	0	.5923	.0013482	.000003
288.15	0	.7012	.0014539	.000003
288.15	0	.8159	.0015803	.000003
288.15	0	.9061	.0016598	.000003
288.15	.1114	.2055	.0010387	.000003
288.15	.1147	.3173	.0011457	.000003
288.15	.1182	.4359	.0012712	.000003
288.15	.1211	.5362	.0013655	.000003
288.15	.1242	.6415	.0014491	.000003
288.15	.1275	.7523	.0015872	.000003
288.15	.1291	.8099	.0016456	.000003
288.15	.2445	.1403	.0010397	.000003
288.15	.2516	.2475	.001144	.000003
288.15	.2575	.3377	.0012499	.000003
288.15	.2637	.4323	.0013864	.000003
288.15	.2421	.5581	.0014638	.000003
288.15	.2467	.637	.0015547	.000003
288.15	.2996	.1608	.0011216	.000003
288.15	.3065	.2467	.0012112	.000003
288.15	.3137	.3366	.0012756	.000003
288.15	.2925	.4316	.0014753	.000003
288.15	.2979	.5055	.0015178	.000003
288.15	.3053	.6083	.0016027	.000003
288.15	.4301	.1388	.0012267	.000003
288.15	.4423	.2448	.0013401	.000003
288.15	.4526	.3339	.00147	.000003
288.15	.4377	.4522	.0016686	.000003
288.15	.5797	.0972	.0013489	.000003
288.15	.5696	.2001	.0014504	.000003
288.15	.5557	.287	.0017072	.000003
288.15	.5411	.3783	.001663	.000003
288.15	.6558	.0968	.0015523	.000003
288.15	.6702	.178	.0016406	.000003
288.15	.659	.2634	.0018439	.000003
288.15	.7562	.0962	.0017136	.000003
288.15	.7432	.1567	.0018743	.000003
288.15	.8308	.0958	.0018978	.000003
293.15	.1054	0	.000785	.000003
293.15	.2096	0	.0008086	.000003
293.15	.3126	0	.0008504	.000003
293.15	.4143	0	.0009115	.000003
293.15	.5148	0	.0009988	.000003
293.15	.6141	0	.0011385	.000003
293.15	.7123	0	.0013098	.000003
293.15	.8093	0	.0015342	.000003
293.15	.9052	0	.0017952	.000003
293.15	.0988	.9012	.0015358	.000003
293.15	.1927	.8073	.0015052	.000003
293.15	.3108	.6892	.0014682	.000003
293.15	.3944	.6056	.0014751	.000003
293.15	.5	.5	.0014825	.000003
293.15	.5992	.4008	.0015014	.000003
293.15	.6927	.3073	.0015883	.000003
293.15	.8023	.1977	.0016694	.000003
293.15	.9045	.0955	.0018399	.000003
293.15	0	.1007	.0008854	.000003
293.15	0	.2072	.0009592	.000003
293.15	0	.2969	.001017	.000003
293.15	0	.3909	.0010849	.000003
293.15	0	.4894	.0011676	.000003
293.15	0	.5929	.0012418	.000003
293.15	0	.7017	.0013352	.000003
293.15	0	.8163	.0014449	.000003
293.15	0	.9063	.0015173	.000003
293.15	.1114	.2059	.0009677	.000003
293.15	.1147	.3179	.0010599	.000003
293.15	.1181	.4366	.0011722	.000003
293.15	.121	.5368	.0012532	.000003
293.15	.1241	.642	.0013269	.000003
293.15	.1273	.7527	.0014375	.000003
293.15	.129	.8103	.0014948	.000003
293.15	.2446	.1406	.0009634	.000003
293.15	.2515	.2479	.0010508	.000003
293.15	.2574	.3383	.0011472	.000003
293.15	.2635	.4329	.0012633	.000003
293.15	.2418	.5587	.0013292	.000003
293.15	.2464	.6375	.0014107	.000003
293.15	.2997	.1611	.001028	.000003
293.15	.3064	.2471	.0010828	.000003
293.15	.3136	.3371	.00118	.000003
293.15	.2923	.4322	.0013344	.000003
293.15	.2976	.506	.001384	.000003
293.15	.305	.6088	.0014526	.000003
293.15	.4301	.1391	.0011156	.000003
293.15	.4422	.2452	.0012312	.000003
293.15	.4524	.3344	.0013134	.000003
293.15	.4374	.4527	.0015153	.000003
293.15	.5797	.0974	.0012193	.000003
293.15	.5695	.2005	.001314	.000003
293.15	.5555	.2874	.0015266	.000003
293.15	.5408	.3787	.0015043	.000003
293.15	.6558	.097	.0013868	.000003
293.15	.6701	.1783	.0014739	.000003
293.15	.6587	.2637	.0016378	.000003
293.15	.7562	.0964	.0014931	.000003
293.15	.743	.1569	.0016579	.000003
293.15	.8307	.0959	.0016877	.000003
298.15	.1054	0	.0007324	.000003
298.15	.2095	0	.0007472	.000003
298.15	.3124	0	.0007831	.000003
298.15	.4141	0	.0008368	.000003
298.15	.5146	0	.000911	.000003
298.15	.614	0	.0010353	.000003
298.15	.7122	0	.0011763	.000003
298.15	.8092	0	.0013699	.000003
298.15	.9052	0	.0016028	.000003
298.15	.099	.901	.0014047	.000003
298.15	.1929	.8071	.001373	.000003
298.15	.3111	.6889	.0013374	.000003
298.15	.3948	.6052	.0013333	.000003
298.15	.5003	.4997	.0013418	.000003
298.15	.5996	.4004	.0013627	.000003
298.15	.693	.307	.0014235	.000003
298.15	.8025	.1975	.0014909	.000003
298.15	.9046	.0954	.0016396	.000003
298.15	0	.1006	.0008213	.000003
298.15	0	.2069	.0008951	.000003
298.15	0	.2965	.0009471	.000003
298.15	0	.3904	.0010082	.000003
298.15	0	.4889	.0010804	.000003
298.15	0	.5924	.0011512	.000003
298.15	0	.7013	.0012329	.000003
298.15	0	.816	.001328	.000003
298.15	0	.9061	.001394	.000003
298.15	.1114	.2056	.0008941	.000003
298.15	.1147	.3175	.0009799	.000003
298.15	.1182	.4361	.0010789	.000003
298.15	.1211	.5363	.0011521	.000003
298.15	.1242	.6416	.0012195	.000003
298.15	.1274	.7524	.0013158	.000003
298.15	.1291	.81	.0013723	.000003
298.15	.2446	.1404	.0008893	.000003
298.15	.2516	.2476	.0009709	.000003
298.15	.2575	.3379	.0010586	.000003
298.15	.2636	.4325	.0011495	.000003
298.15	.242	.5583	.0012113	.000003
298.15	.2466	.6371	.0012924	.000003
298.15	.2996	.1609	.0009417	.000003
298.15	.3065	.2468	.0009969	.000003
298.15	.3136	.3368	.0010932	.000003
298.15	.2924	.4318	.0012146	.000003
298.15	.2978	.5056	.0012744	.000003
298.15	.3053	.6084	.0013247	.000003
298.15	.4301	.1389	.001012	.000003
298.15	.4423	.2449	.0011484	.000003
298.15	.4525	.3341	.001201	.000003
298.15	.4376	.4523	.0013371	.000003
298.15	.5797	.0973	.00111	.000003
298.15	.5696	.2002	.0011995	.000003
298.15	.5557	.2871	.0013579	.000003
298.15	.5411	.3784	.0013439	.000003
298.15	.6558	.0968	.0012256	.000003
298.15	.6702	.1781	.0013346	.000003
298.15	.6589	.2634	.0014526	.000003
298.15	.7562	.0962	.0013817	.000003
298.15	.7431	.1567	.0014733	.000003
298.15	.8307	.0958	.0015095	.000003
303.15	.1056	0	.0006845	.000003
303.15	.2099	0	.0007003	.000003
303.15	.3129	0	.0007255	.000003
303.15	.4146	0	.0007704	.000003
303.15	.5151	0	.0008342	.000003
303.15	.6144	0	.0009344	.000003
303.15	.7125	0	.0010613	.000003
303.15	.8095	0	.0012282	.000003
303.15	.9053	0	.0014412	.000003
303.15	.0989	.9011	.0012918	.000003
303.15	.1927	.8073	.0012581	.000003
303.15	.3108	.6892	.0012244	.000003
303.15	.3945	.6055	.0012164	.000003
303.15	.5	.5	.0012226	.000003
303.15	.5993	.4007	.0012369	.000003
303.15	.6928	.3072	.0012871	.000003
303.15	.8023	.1977	.001342	.000003
303.15	.9045	.0955	.0014909	.000003
303.15	0	.1009	.0007706	.000003
303.15	0	.2074	.0008362	.000003
303.15	0	.2972	.0008848	.000003
303.15	0	.3911	.0009515	.000003
303.15	0	.4897	.0010026	.000003
303.15	0	.5932	.0010702	.000003
303.15	0	.702	.0011426	.000003
303.15	0	.8165	.0012252	.000003
303.15	0	.9064	.0012853	.000003
303.15	.1115	.2061	.0008321	.000003
303.15	.1148	.3181	.0009095	.000003
303.15	.1182	.4368	.0010017	.000003
303.15	.1211	.537	.0010631	.000003
303.15	.1241	.6422	.0011265	.000003
303.15	.1273	.7528	.0012111	.000003
303.15	.129	.8103	.0012608	.000003
303.15	.2448	.1407	.0008228	.000003
303.15	.2517	.2481	.0008999	.000003
303.15	.2575	.3384	.0009832	.000003
303.15	.2637	.433	.0010516	.000003
303.15	.2419	.5588	.0011255	.000003
303.15	.2465	.6375	.0011867	.000003
303.15	.2999	.1612	.0008681	.000003
303.15	.3067	.2472	.0009289	.000003
303.15	.3137	.3373	.0010188	.000003
303.15	.2924	.4323	.0011008	.000003
303.15	.2977	.5061	.001176	.000003
303.15	.3051	.6088	.0012152	.000003
303.15	.4304	.1392	.0009161	.000003
303.15	.4424	.2452	.0010429	.000003
303.15	.4525	.3345	.0011158	.000003
303.15	.4375	.4527	.001207	.000003
303.15	.58	.0974	.0010172	.000003
303.15	.5697	.2005	.0011022	.000003
303.15	.5556	.2875	.0012153	.000003
303.15	.5409	.3787	.0012327	.000003
303.15	.656	.097	.0011171	.000003
303.15	.6702	.1783	.0012184	.000003
303.15	.6588	.2637	.0012937	.000003
303.15	.7563	.0964	.0012545	.000003
303.15	.7431	.1569	.0013147	.000003
303.15	.8308	.0959	.0013598	.000003
308.15	.1057	0	.00064	.000003
308.15	.21	0	.0006502	.000003
308.15	.3131	0	.0006731	.000003
308.15	.4149	0	.0007116	.000003
308.15	.5154	0	.0007657	.000003
308.15	.6147	0	.0008541	.000003
308.15	.7128	0	.0009603	.000003
308.15	.8097	0	.0011054	.000003
308.15	.9054	0	.0013026	.000003
308.15	.0988	.9012	.001193	.000003
308.15	.1926	.8074	.001158	.000003
308.15	.3106	.6894	.0011259	.000003
308.15	.3942	.6058	.0011197	.000003
308.15	.4997	.5003	.0011169	.000003
308.15	.599	.401	.0011282	.000003
308.15	.6925	.3075	.0011686	.000003
308.15	.8022	.1978	.0012153	.000003
308.15	.9044	.0956	.0013171	.000003
308.15	0	.1011	.000726	.000003
308.15	0	.2078	.0007824	.000003
308.15	0	.2976	.000828	.000003
308.15	0	.3917	.0008897	.000003
308.15	0	.4903	.0009346	.000003
308.15	0	.5937	.000998	.000003
308.15	0	.7025	.0010665	.000003
308.15	0	.8168	.0011348	.000003
308.15	0	.9066	.0011893	.000003
308.15	.1116	.2064	.000777	.000003
308.15	.1148	.3185	.0008459	.000003
308.15	.1182	.4373	.0009315	.000003
308.15	.1211	.5375	.0009889	.000003
308.15	.1241	.6426	.0010434	.000003
308.15	.1272	.7531	.0011177	.000003
308.15	.1289	.8105	.0011662	.000003
308.15	.2449	.141	.0007641	.000003
308.15	.2518	.2484	.0008368	.000003
308.15	.2576	.3388	.0009133	.000003
308.15	.2636	.4334	.0009604	.000003
308.15	.2418	.5592	.0010453	.000003
308.15	.2463	.6379	.001095	.000003
308.15	.3	.1614	.0008024	.000003
308.15	.3067	.2476	.0008736	.000003
308.15	.3137	.3377	.0009501	.000003
308.15	.2924	.4327	.0009893	.000003
308.15	.2976	.5065	.0010891	.000003
308.15	.3049	.6091	.0011177	.000003
308.15	.4305	.1394	.0008533	.000003
308.15	.4425	.2455	.000965	.000003
308.15	.4525	.3348	.0010461	.000003
308.15	.4373	.453	.0011045	.000003
308.15	.5801	.0976	.0009358	.000003
308.15	.5697	.2007	.0010199	.000003
308.15	.5556	.2877	.0010856	.000003
308.15	.5407	.379	.0011191	.000003
308.15	.6561	.0971	.0010049	.000003
308.15	.6702	.1785	.0011193	.000003
308.15	.6586	.264	.0011555	.000003
308.15	.7564	.0965	.0011507	.000003
308.15	.7431	.1571	.0011669	.000003
308.15	.8307	.096	.0012327	.000003
313.15	.1058	0	.0006002	.000003
313.15	.2103	0	.0006056	.000003
313.15	.3134	0	.0006256	.000003
313.15	.4152	0	.0006588	.000003
313.15	.5158	0	.000706	.000003
313.15	.615	0	.0007849	.000003
313.15	.7131	0	.0008728	.000003
313.15	.8099	0	.0009952	.000003
313.15	.9055	0	.0011761	.000003
313.15	.0986	.9014	.001104	.000003
313.15	.1923	.8077	.0010685	.000003
313.15	.3102	.6898	.0010386	.000003
313.15	.3938	.6062	.0010238	.000003
313.15	.4993	.5007	.0010259	.000003
313.15	.5986	.4014	.0010327	.000003
313.15	.6922	.3078	.0010634	.000003
313.15	.8019	.1981	.0010986	.000003
313.15	.9043	.0957	.0011877	.000003
313.15	0	.1013	.0006795	.000003
313.15	0	.2083	.0007327	.000003
313.15	0	.2983	.000777	.000003
313.15	0	.3924	.0008272	.000003
313.15	0	.491	.0008725	.000003
313.15	0	.5945	.0009318	.000003
313.15	0	.7031	.0009944	.000003
313.15	0	.8173	.0010536	.000003
313.15	0	.9069	.0011067	.000003
313.15	.1117	.2069	.0007284	.000003
313.15	.1148	.3191	.0007891	.000003
313.15	.1182	.438	.0008687	.000003
313.15	.121	.5381	.0009147	.000003
313.15	.124	.6432	.0009726	.000003
313.15	.1271	.7536	.0010355	.000003
313.15	.1287	.8109	.001081	.000003
313.15	.2451	.1413	.0007031	.000003
313.15	.2519	.2489	.0007786	.000003
313.15	.2576	.3394	.0008488	.000003
313.15	.2635	.434	.0008824	.000003
313.15	.2417	.5598	.0009714	.000003
313.15	.2461	.6384	.0010179	.000003
313.15	.3002	.1618	.000732	.000003
313.15	.3068	.248	.0008144	.000003
313.15	.3137	.3382	.0008849	.000003
313.15	.2923	.4333	.000899	.000003
313.15	.2975	.507	.0010029	.000003
313.15	.3046	.6096	.0010338	.000003
313.15	.4307	.1396	.0007673	.000003
313.15	.4425	.2459	.0008908	.000003
313.15	.4524	.3353	.0009745	.000003
313.15	.4371	.4535	.00101	.000003
313.15	.5803	.0977	.0008617	.000003
313.15	.5697	.2011	.0009441	.000003
313.15	.5554	.2881	.0009684	.000003
313.15	.5404	.3794	.0010402	.000003
313.15	.6563	.0973	.0008999	.000003
313.15	.6702	.1788	.0010321	.000003
313.15	.6584	.2643	.0010321	.000003
313.15	.7564	.0967	.0010474	.000003
313.15	.743	.1573	.0010401	.000003
313.15	.8307	.0962	.0011227	.000003

System: 1-propanol + 1,2-dichloroethane; phases: Liquid
Property: Mass density, kg/m3 (Liquid); method: Vibrating tube method
Temperature, K	Mole fraction of 1-propanol	Pressure, kPa	Mass density, kg/m3	uncertainty
293.15	.1054	101	1205	.8
298.15	.1054	101	1199.2	.8
288.15	.1054	101	1211	.8
303.15	.1056	101	1192.6	.8
308.15	.1057	101	1183.4	.8
313.15	.1058	101	1174.9	.8
288.15	.2095	101	1166.4	.8
298.15	.2095	101	1154.4	.8
293.15	.2096	101	1159.7	.8
303.15	.2099	101	1147.7	.8
308.15	.21	101	1140.7	.8
313.15	.2103	101	1133.5	.8
288.15	.3124	101	1121.8	.8
298.15	.3124	101	1109.3	.8
293.15	.3126	101	1116.2	.8
303.15	.3129	101	1104.2	.8
308.15	.3131	101	1097.2	.8
313.15	.3134	101	1089	.8
288.15	.4141	101	1078.4	.8
298.15	.4141	101	1067.1	.8
293.15	.4143	101	1072.1	.8
303.15	.4146	101	1061.1	.8
308.15	.4149	101	1054.9	.8
313.15	.4152	101	1047.4	.8
288.15	.5146	101	1032.4	.8
298.15	.5146	101	1021.3	.8
293.15	.5148	101	1026.6	.8
303.15	.5151	101	1016	.8
308.15	.5154	101	1009.5	.8
313.15	.5158	101	1004	.8
288.15	.6139	101	986	.8
298.15	.614	101	976.2	.8
293.15	.6141	101	980.6	.8
303.15	.6144	101	970.5	.8
308.15	.6147	101	964	.8
313.15	.615	101	956.7	.8
288.15	.7121	101	942.8	.8
298.15	.7122	101	934	.8
293.15	.7123	101	938.6	.8
303.15	.7125	101	929.7	.8
308.15	.7128	101	924.3	.8
313.15	.7131	101	918.9	.8
298.15	.8092	101	885.9	.8
288.15	.8092	101	895.4	.8
293.15	.8093	101	890.5	.8
303.15	.8095	101	882.6	.8
308.15	.8097	101	877.3	.8
313.15	.8099	101	870.1	.8
288.15	.9051	101	843.5	.8
293.15	.9052	101	839.4	.8
298.15	.9052	101	836.3	.8
303.15	.9053	101	832.8	.8
308.15	.9054	101	827.5	.8
313.15	.9055	101	821.5	.8

System: 1-propanol + 1,2-dichloroethane; phases: Liquid
Property: Viscosity, Pa*s (Liquid); method: Capillary tube (Ostwald; Ubbelohde) method
Temperature, K	Mole fraction of 1-propanol	Pressure, kPa	Viscosity, Pa*s	uncertainty
288.15	.1054	101	.0008441	.000003
288.15	.2095	101	.0008809	.000003
288.15	.3124	101	.0009238	.000003
288.15	.4141	101	.000998	.000003
288.15	.5146	101	.0011005	.000003
288.15	.6139	101	.0012562	.000003
288.15	.7121	101	.0014643	.000003
288.15	.8092	101	.0017263	.000003
288.15	.9051	101	.0020292	.000003
293.15	.1054	101	.000785	.000003
293.15	.2096	101	.0008086	.000003
293.15	.3126	101	.0008504	.000003
293.15	.4143	101	.0009115	.000003
293.15	.5148	101	.0009988	.000003
293.15	.6141	101	.0011385	.000003
293.15	.7123	101	.0013098	.000003
293.15	.8093	101	.0015342	.000003
293.15	.9052	101	.0017952	.000003
298.15	.1054	101	.0007324	.000003
298.15	.2095	101	.0007472	.000003
298.15	.3124	101	.0007831	.000003
298.15	.4141	101	.0008368	.000003
298.15	.5146	101	.000911	.000003
298.15	.614	101	.0010353	.000003
298.15	.7122	101	.0011763	.000003
298.15	.8092	101	.0013699	.000003
298.15	.9052	101	.0016028	.000003
303.15	.1056	101	.0006845	.000003
303.15	.2099	101	.0007003	.000003
303.15	.3129	101	.0007255	.000003
303.15	.4146	101	.0007704	.000003
303.15	.5151	101	.0008342	.000003
303.15	.6144	101	.0009344	.000003
303.15	.7125	101	.0010613	.000003
303.15	.8095	101	.0012282	.000003
303.15	.9053	101	.0014412	.000003
308.15	.1057	101	.00064	.000003
308.15	.21	101	.0006502	.000003
308.15	.3131	101	.0006731	.000003
308.15	.4149	101	.0007116	.000003
308.15	.5154	101	.0007657	.000003
308.15	.6147	101	.0008541	.000003
308.15	.7128	101	.0009603	.000003
308.15	.8097	101	.0011054	.000003
308.15	.9054	101	.0013026	.000003
313.15	.1058	101	.0006002	.000003
313.15	.2103	101	.0006056	.000003
313.15	.3134	101	.0006256	.000003
313.15	.4152	101	.0006588	.000003
313.15	.5158	101	.000706	.000003
313.15	.615	101	.0007849	.000003
313.15	.7131	101	.0008728	.000003
313.15	.8099	101	.0009952	.000003
313.15	.9055	101	.0011761	.000003

System: 1-propanol + benzaldehyde; phases: Liquid
Property: Mass density, kg/m3 (Liquid); method: Vibrating tube method
Temperature, K	Mole fraction of 1-propanol	Pressure, kPa	Mass density, kg/m3	uncertainty
313.15	.0986	101	1015.1	.8
308.15	.0988	101	1021.4	.8
293.15	.0988	101	1034.2	.8
303.15	.0989	101	1025.9	.8
298.15	.099	101	1029.9	.8
288.15	.099	101	1038.8	.8
313.15	.1923	101	997.8	.8
308.15	.1926	101	1003.4	.8
293.15	.1927	101	1017	.8
303.15	.1927	101	1008.1	.8
298.15	.1929	101	1012.8	.8
288.15	.193	101	1021.8	.8
313.15	.3102	101	973.8	.8
308.15	.3106	101	980.1	.8
293.15	.3108	101	993.2	.8
303.15	.3108	101	984.8	.8
298.15	.3111	101	989.2	.8
288.15	.3112	101	997.7	.8
313.15	.3938	101	956.5	.8
308.15	.3942	101	962.7	.8
293.15	.3944	101	976.2	.8
303.15	.3945	101	967	.8
298.15	.3948	101	971.3	.8
288.15	.3949	101	980.8	.8
313.15	.4993	101	934	.8
308.15	.4997	101	937.8	.8
303.15	.5	101	942.9	.8
293.15	.5	101	951.6	.8
298.15	.5003	101	947	.8
288.15	.5004	101	956.4	.8
313.15	.5986	101	910.9	.8
308.15	.599	101	915.5	.8
293.15	.5992	101	928.6	.8
303.15	.5993	101	919.5	.8
298.15	.5996	101	923.7	.8
288.15	.5997	101	932.9	.8
313.15	.6922	101	894.8	.8
308.15	.6925	101	899.9	.8
293.15	.6927	101	912.6	.8
303.15	.6928	101	904	.8
298.15	.693	101	908.3	.8
288.15	.6932	101	916.8	.8
313.15	.8019	101	853.6	.8
308.15	.8022	101	858.9	.8
293.15	.8023	101	871.4	.8
303.15	.8023	101	863.6	.8
298.15	.8025	101	867.6	.8
288.15	.8026	101	875.4	.8
313.15	.9043	101	823.6	.8
308.15	.9044	101	827.3	.8
303.15	.9045	101	831.6	.8
293.15	.9045	101	839.1	.8
288.15	.9046	101	843.1	.8
298.15	.9046	101	835.3	.8

System: 1-propanol + benzaldehyde; phases: Liquid
Property: Viscosity, Pa*s (Liquid); method: Capillary tube (Ostwald; Ubbelohde) method
Temperature, K	Mole fraction of 1-propanol	Pressure, kPa	Viscosity, Pa*s	uncertainty
288.15	.099	101	.0016889	.000003
288.15	.193	101	.0016605	.000003
288.15	.3112	101	.0016224	.000003
288.15	.3949	101	.0016372	.000003
288.15	.5004	101	.0016455	.000003
288.15	.5997	101	.0016833	.000003
288.15	.6932	101	.0017742	.000003
288.15	.8026	101	.0018726	.000003
288.15	.9046	101	.0020753	.000003
293.15	.0988	101	.0015358	.000003
293.15	.1927	101	.0015052	.000003
293.15	.3108	101	.0014682	.000003
293.15	.3944	101	.0014751	.000003
293.15	.5	101	.0014825	.000003
293.15	.5992	101	.0015014	.000003
293.15	.6927	101	.0015883	.000003
293.15	.8023	101	.0016694	.000003
293.15	.9045	101	.0018399	.000003
298.15	.099	101	.0014047	.000003
298.15	.1929	101	.001373	.000003
298.15	.3111	101	.0013374	.000003
298.15	.3948	101	.0013333	.000003
298.15	.5003	101	.0013418	.000003
298.15	.5996	101	.0013627	.000003
298.15	.693	101	.0014235	.000003
298.15	.8025	101	.0014909	.000003
298.15	.9046	101	.0016396	.000003
303.15	.0989	101	.0012918	.000003
303.15	.1927	101	.0012581	.000003
303.15	.3108	101	.0012244	.000003
303.15	.3945	101	.0012164	.000003
303.15	.5	101	.0012226	.000003
303.15	.5993	101	.0012369	.000003
303.15	.6928	101	.0012871	.000003
303.15	.8023	101	.001342	.000003
303.15	.9045	101	.0014909	.000003
308.15	.0988	101	.001193	.000003
308.15	.1926	101	.001158	.000003
308.15	.3106	101	.0011259	.000003
308.15	.3942	101	.0011197	.000003
308.15	.4997	101	.0011169	.000003
308.15	.599	101	.0011282	.000003
308.15	.6925	101	.0011686	.000003
308.15	.8022	101	.0012153	.000003
308.15	.9044	101	.0013171	.000003
313.15	.0986	101	.001104	.000003
313.15	.1923	101	.0010685	.000003
313.15	.3102	101	.0010386	.000003
313.15	.3938	101	.0010238	.000003
313.15	.4993	101	.0010259	.000003
313.15	.5986	101	.0010327	.000003
313.15	.6922	101	.0010634	.000003
313.15	.8019	101	.0010986	.000003
313.15	.9043	101	.0011877	.000003

System: benzaldehyde + 1,2-dichloroethane; phases: Liquid
Property: Mass density, kg/m3 (Liquid); method: Vibrating tube method
Temperature, K	Mole fraction of benzaldehyde	Pressure, kPa	Mass density, kg/m3	uncertainty
308.15	.4903	101	1121	.8
308.15	.7025	101	1091	.8
308.15	.9066	101	1053	.8
293.15	.8163	101	1082	.8
313.15	.1013	101	1198	.8
313.15	.2083	101	1173.6	.8
313.15	.2983	101	1153.9	.8
313.15	.3924	101	1136.7	.8
313.15	.491	101	1115.5	.8
313.15	.5945	101	1102.2	.8
313.15	.8173	101	1063.1	.8
298.15	.2965	101	1174.6	.8
298.15	.3904	101	1155.5	.8
298.15	.4889	101	1133.4	.8
308.15	.8168	101	1068.5	.8
298.15	.5924	101	1117.3	.8
288.15	.5923	101	1125.5	.8
288.15	.7012	101	1107.6	.8
293.15	.2969	101	1180.5	.8
288.15	.8159	101	1086.7	.8
293.15	.3909	101	1161.8	.8
313.15	.7031	101	1085.5	.8
293.15	.4894	101	1139.5	.8
313.15	.9069	101	1049.7	.8
293.15	.5929	101	1119.9	.8
293.15	.7017	101	1102.2	.8
288.15	.3902	101	1166	.8
298.15	.7013	101	1098.6	.8
308.15	.1011	101	1206.5	.8
293.15	.9063	101	1066.4	.8
298.15	.816	101	1077.9	.8
298.15	.9061	101	1063.1	.8
288.15	.2068	101	1207.2	.8
303.15	.5932	101	1112.7	.8
288.15	.2964	101	1186.5	.8
303.15	.702	101	1094.4	.8
303.15	.8165	101	1073.2	.8
308.15	.2078	101	1182.6	.8
308.15	.2976	101	1162.9	.8
288.15	.9061	101	1070.6	.8
308.15	.3917	101	1144.1	.8
303.15	.9064	101	1058.5	.8
308.15	.5937	101	1107.8	.8
303.15	.2972	101	1169.8	.8
288.15	.4888	101	1146.4	.8
303.15	.3911	101	1150.1	.8
303.15	.1009	101	1214.3	.8
298.15	.1006	101	1220.5	.8
303.15	.4897	101	1126.5	.8
298.15	.2069	101	1196.1	.8
288.15	.1005	101	1233	.8
293.15	.1007	101	1227.6	.8
303.15	.2074	101	1190	.8
293.15	.2072	101	1200	.8

System: benzaldehyde + 1,2-dichloroethane; phases: Liquid
Property: Viscosity, Pa*s (Liquid); method: Capillary tube (Ostwald; Ubbelohde) method
Temperature, K	Mole fraction of benzaldehyde	Pressure, kPa	Viscosity, Pa*s	uncertainty
288.15	.1005	101	.0009491	.000003
288.15	.2068	101	.001034	.000003
288.15	.2964	101	.001097	.000003
288.15	.3902	101	.0011709	.000003
288.15	.4888	101	.0012702	.000003
288.15	.5923	101	.0013482	.000003
288.15	.7012	101	.0014539	.000003
288.15	.8159	101	.0015803	.000003
288.15	.9061	101	.0016598	.000003
293.15	.1007	101	.0008854	.000003
293.15	.2072	101	.0009592	.000003
293.15	.2969	101	.001017	.000003
293.15	.3909	101	.0010849	.000003
293.15	.4894	101	.0011676	.000003
293.15	.5929	101	.0012418	.000003
293.15	.7017	101	.0013352	.000003
293.15	.8163	101	.0014449	.000003
293.15	.9063	101	.0015173	.000003
298.15	.1006	101	.0008213	.000003
298.15	.2069	101	.0008951	.000003
298.15	.2965	101	.0009471	.000003
298.15	.3904	101	.0010082	.000003
298.15	.4889	101	.0010804	.000003
298.15	.5924	101	.0011512	.000003
298.15	.7013	101	.0012329	.000003
298.15	.816	101	.001328	.000003
298.15	.9061	101	.001394	.000003
303.15	.1009	101	.0007706	.000003
303.15	.2074	101	.0008362	.000003
303.15	.2972	101	.0008848	.000003
303.15	.3911	101	.0009515	.000003
303.15	.4897	101	.0010026	.000003
303.15	.5932	101	.0010702	.000003
303.15	.702	101	.0011426	.000003
303.15	.8165	101	.0012252	.000003
303.15	.9064	101	.0012853	.000003
308.15	.1011	101	.000726	.000003
308.15	.2078	101	.0007824	.000003
308.15	.2976	101	.000828	.000003
308.15	.3917	101	.0008897	.000003
308.15	.4903	101	.0009346	.000003
308.15	.5937	101	.000998	.000003
308.15	.7025	101	.0010665	.000003
308.15	.8168	101	.0011348	.000003
308.15	.9066	101	.0011893	.000003
313.15	.1013	101	.0006795	.000003
313.15	.2083	101	.0007327	.000003
313.15	.2983	101	.000777	.000003
313.15	.3924	101	.0008272	.000003
313.15	.491	101	.0008725	.000003
313.15	.5945	101	.0009318	.000003
313.15	.7031	101	.0009944	.000003
313.15	.8173	101	.0010536	.000003
313.15	.9069	101	.0011067	.000003
