Measured thermophysical data. Isothermal Binary Vapor-Liquid Equilibrium for 2-Methylpropane and n-Butane with 1,2-Ethanedithiol and 2-Methyl-2-propanethiol
Source: J. Chem. Eng. Data, 2010, 10.1021/je9003417
Compound 1: 2-methylpropane, C4H10
Compound 2: butane, C4H10
Compound 3: 1,2-ethanedithiol, C2H6S2
Compound 4: 2-methyl-2-propanethiol, C4H10S

System: 2-methylpropane; phases: Liquid, Gas
Property: Vapor or sublimation pressure, kPa (Liquid); method: Closed cell (Static) method
Temperature, K	Vapor or sublimation pressure, kPa	uncertainty
346.97	1178.6	.4
346.91	1179.9	.4

System: butane; phases: Liquid, Gas
Property: Vapor or sublimation pressure, kPa (Liquid); method: Closed cell (Static) method
Temperature, K	Vapor or sublimation pressure, kPa	uncertainty
346.96	881.4	.4
346.96	879.3	.4

System: 1,2-ethanedithiol; phases: Liquid
Fixed: Pressure, kPa = 101.325
Property: Refractive index (Na D-line) (Liquid); method: Standard Abbe refractometry
Temperature, K	Refractive index (Na D-line)	uncertainty
293.15	1.5562	

System: 1,2-ethanedithiol; phases: Liquid, Gas
Property: Vapor or sublimation pressure, kPa (Liquid); method: Closed cell (Static) method
Temperature, K	Vapor or sublimation pressure, kPa	uncertainty
346.97	8.2	.4
346.96	8.5	.4

System: 2-methyl-2-propanethiol; phases: Liquid
Fixed: Pressure, kPa = 101.325
Property: Refractive index (Na D-line) (Liquid); method: Standard Abbe refractometry
Temperature, K	Refractive index (Na D-line)	uncertainty
293.15	1.42	

System: 2-methyl-2-propanethiol; phases: Liquid, Gas
Property: Vapor or sublimation pressure, kPa (Liquid); method: Closed cell (Static) method
Temperature, K	Vapor or sublimation pressure, kPa	uncertainty
346.91	134.4	.4
346.97	132.7	.4

System: 2-methylpropane + 1,2-ethanedithiol; phases: Liquid, Gas
Fixed: Temperature, K = 346.97
Property: Vapor or sublimation pressure, kPa (Liquid); method: Closed cell (Static) method
Mole fraction of 2-methylpropane	Vapor or sublimation pressure, kPa	uncertainty
1	1178.6	.4
.9933	1168.9	.4
.97	1139.6	.4
.9357	1102.5	.4
.8862	1060	.4
.8255	1022.9	.4
.7709	1000.8	.4
.7219	987	.4
.6673	977	.4
.6156	970.5	.4
.565	965.7	.4
.5179	961.7	.4
.4656	957.2	.4
.4617	955.4	.4
.4048	949	.4
.3474	937.7	.4
.289	915.3	.4
.2345	875.3	.4
.1808	803.2	.4
.1367	706.3	.4
.0956	572	.4
.0599	409.5	.4
.0323	247.7	.4
.0166	141.5	.4
.006	58.8	.4
0	8.2	.4

System: 2-methylpropane + 2-methyl-2-propanethiol; phases: Liquid, Gas
Fixed: Temperature, K = 346.91
Property: Vapor or sublimation pressure, kPa (Liquid); method: Closed cell (Static) method
Mole fraction of 2-methylpropane	Vapor or sublimation pressure, kPa	uncertainty
1	1179.9	.4
.99	1167.6	.4
.9691	1143.1	.4
.948	1119.1	.4
.9046	1070.3	.4
.8529	1015.3	.4
.8052	966.2	.4
.7565	917.6	.4
.7105	872.9	.4
.6639	827.9	.4
.6167	782.8	.4
.5697	738.1	.4
.5226	693.5	.4
.5214	691.8	.4
.4686	641.7	.4
.4163	591	.4
.3632	538.7	.4
.3101	484.9	.4
.2568	429.9	.4
.206	375.5	.4
.1541	318.4	.4
.1027	259.6	.4
.0524	200.4	.4
.0272	169.2	.4
.0125	150.7	.4
0	134.4	.4

System: butane + 1,2-ethanedithiol; phases: Liquid, Gas
Property: Vapor or sublimation pressure, kPa (Liquid); method: Closed cell (Static) method
Temperature, K	Mole fraction of butane	Vapor or sublimation pressure, kPa	uncertainty
346.96	1	881.4	.4
346.98	.9872	869.9	.4
346.97	.9657	850.9	.4
346.97	.9438	832.9	.4
346.97	.8907	798.1	.4
346.97	.837	770.9	.4
346.97	.7847	751.2	.4
346.97	.7338	736.7	.4
346.97	.6808	725.2	.4
346.98	.6304	716.6	.4
346.97	.5808	709.5	.4
346.97	.5324	703.1	.4
346.97	.484	696.5	.4
346.97	.4804	696.2	.4
346.97	.4244	687.4	.4
346.97	.3698	676	.4
346.97	.3142	658.7	.4
346.97	.2604	632.1	.4
346.97	.2082	590.5	.4
346.97	.1587	528	.4
346.96	.1137	442.3	.4
346.97	.0727	328.4	.4
346.97	.0355	188.2	.4
346.97	.0221	127	.4
346.97	.0093	60.4	.4
346.96	0	8.5	.4

System: 2-methyl-2-propanethiol + butane; phases: Liquid, Gas
Property: Vapor or sublimation pressure, kPa (Liquid); method: Closed cell (Static) method
Temperature, K	Mole fraction of butane	Vapor or sublimation pressure, kPa	uncertainty
346.96	1	879.3	.4
346.98	.99	871	.4
346.97	.9716	856.4	.4
346.98	.9535	842.6	.4
346.97	.9097	809.7	.4
346.97	.8637	776.3	.4
346.97	.8178	743.4	.4
346.97	.7709	710.7	.4
346.97	.724	678.2	.4
346.97	.6779	646.4	.4
346.97	.6303	613.7	.4
346.97	.5824	580.9	.4
346.96	.5336	547.3	.4
346.97	.5333	546.2	.4
346.97	.4823	510.7	.4
346.97	.431	474.6	.4
346.98	.3794	437.6	.4
346.98	.3262	398.8	.4
346.97	.2735	359.2	.4
346.97	.2217	319.2	.4
346.97	.1665	275.3	.4
346.97	.1135	231.8	.4
346.98	.061	187.2	.4
346.97	.0402	168.9	.4
346.97	.0171	148.2	.4
346.97	0	132.7	.4
