Measured thermophysical data. Solubility of Clonazepam, Diazepam, Lamotrigine, and Phenobarbital in N-Methyl-2-pyrrolidone + Water Mixtures at 298.2 K
Source: J. Chem. Eng. Data, 2009, 10.1021/je9000153
Compound 1: clonazepam, C15H10ClN3O3
Compound 2: diazepan, C16H13ClN2O
Compound 3: lamotrigine, C9H7Cl2N5
Compound 4: 5-ethyl-5-phenylbarbituric acid, C12H12N2O3
Compound 5: N-methyl-2-pyrrolidone, C5H9NO
Compound 6: water, H2O
Compound 7: methanol, CH4O

System: N-methyl-2-pyrrolidone + clonazepam + water; phases: Liquid, Crystal
Fixed: Temperature, K = 298.15
Fixed: Pressure, kPa = 101
Property: Amount concentration (molarity), mol/dm3 of clonazepam (Liquid); method: Spectrophotometry
Solvent: Volume fraction of N-methyl-2-pyrrolidone	Amount concentration (molarity), mol/dm3 of clonazepam	uncertainty
0	.0001	
.1	.00035	
.2	.00075	
.3	.00173	
.4	.00448	
.5	.01354	
.6	.02813	
.7	.07433	
.8	.16433	
.9	.38975	
1	.66671	

System: N-methyl-2-pyrrolidone + clonazepam + water; phases: Liquid, Crystal
Fixed: Pressure, kPa = 101
Fixed: Temperature, K = 298.15
Property: Mass density, kg/m3 (Liquid); method: Pycnometric method
Solvent: Volume fraction of N-methyl-2-pyrrolidone	Mass density, kg/m3	uncertainty
0	1004	
.1	1012	
.2	1015	
.3	1025	
.4	1033	
.5	1040	
.6	1052	
.7	1060	
.8	1067	
.9	1087	
1	1100	

System: diazepan + N-methyl-2-pyrrolidone + water; phases: Liquid, Crystal
Fixed: Temperature, K = 298.15
Fixed: Pressure, kPa = 101
Property: Amount concentration (molarity), mol/dm3 of diazepan (Liquid); method: Spectrophotometry
Solvent: Volume fraction of N-methyl-2-pyrrolidone	Amount concentration (molarity), mol/dm3 of diazepan	uncertainty
0	.00015	
.1	.00366	
.2	.00737	
.3	.01259	
.4	.01938	
.5	.03349	
.6	.0642	
.7	.13502	
.8	.28493	
.9	.59634	
1	1.3171	

System: diazepan + N-methyl-2-pyrrolidone + water; phases: Liquid, Crystal
Fixed: Pressure, kPa = 101
Fixed: Temperature, K = 298.15
Property: Mass density, kg/m3 (Liquid); method: Pycnometric method
Solvent: Volume fraction of N-methyl-2-pyrrolidone	Mass density, kg/m3	uncertainty
0	1002	
.1	1010	
.2	1015	
.3	1025	
.4	1033	
.5	1044	
.6	1054	
.7	1060	
.8	1065	
.9	1087	
1	1117	

System: N-methyl-2-pyrrolidone + water + lamotrigine; phases: Liquid, Crystal
Fixed: Temperature, K = 298.15
Fixed: Pressure, kPa = 101
Property: Amount concentration (molarity), mol/dm3 of lamotrigine (Liquid); method: Spectrophotometry
Solvent: Volume fraction of N-methyl-2-pyrrolidone	Amount concentration (molarity), mol/dm3 of lamotrigine	uncertainty
0	.00073	
.1	.00321	
.2	.00732	
.3	.01243	
.4	.02013	
.5	.02946	
.6	.03061	
.7	.03283	
.8	.04023	
.9	.04576	
1	.05853	

System: N-methyl-2-pyrrolidone + water + lamotrigine; phases: Liquid, Crystal
Fixed: Pressure, kPa = 101
Fixed: Temperature, K = 298.15
Property: Mass density, kg/m3 (Liquid); method: Pycnometric method
Solvent: Volume fraction of N-methyl-2-pyrrolidone	Mass density, kg/m3	uncertainty
0	1000	
.1	1010	
.2	1017	
.3	1027	
.4	1038	
.5	1044	
.6	1050	
.7	1056	
.8	1052	
.9	1048	
1	1040	

System: 5-ethyl-5-phenylbarbituric acid + N-methyl-2-pyrrolidone + water; phases: Liquid, Crystal
Fixed: Temperature, K = 298.15
Fixed: Pressure, kPa = 101
Property: Amount concentration (molarity), mol/dm3 of 5-ethyl-5-phenylbarbituric acid (Liquid); method: Spectrophotometry
Solvent: Volume fraction of N-methyl-2-pyrrolidone	Amount concentration (molarity), mol/dm3 of 5-ethyl-5-phenylbarbituric acid	uncertainty
0	.00533	
.1	.11851	
.2	.20182	
.3	.38069	
.4	.58587	
.5	.94975	
.6	1.31473	
.7	1.64962	
.8	2.73952	
.9	3.88533	
1	2.30766	

System: 5-ethyl-5-phenylbarbituric acid + N-methyl-2-pyrrolidone + water; phases: Liquid, Crystal
Fixed: Pressure, kPa = 101
Fixed: Temperature, K = 298.15
Property: Mass density, kg/m3 (Liquid); method: Pycnometric method
Solvent: Volume fraction of N-methyl-2-pyrrolidone	Mass density, kg/m3	uncertainty
0	1004	
.1	1008	
.2	1019	
.3	1033	
.4	1046	
.5	1069	
.6	1112	
.7	1137	
.8	1144	
.9	1175	
1	1169	

System: clonazepam + water; phases: Liquid, Crystal
Property: Amount concentration (molarity), mol/dm3 of clonazepam (Liquid); method: Spectrophotometry
Pressure, kPa	Temperature, K	Amount concentration (molarity), mol/dm3 of clonazepam	uncertainty
101.325	298.15	.0001	

System: clonazepam + water; phases: Liquid, Crystal
Property: Mass density, kg/m3 (Liquid); method: Pycnometric method
Temperature, K	Pressure, kPa	Mass density, kg/m3	uncertainty
298.15	101.325	1004	

System: N-methyl-2-pyrrolidone + clonazepam; phases: Liquid, Crystal
Property: Amount concentration (molarity), mol/dm3 of clonazepam (Liquid); method: Spectrophotometry
Pressure, kPa	Temperature, K	Amount concentration (molarity), mol/dm3 of clonazepam	uncertainty
101.325	298.15	.66671	

System: N-methyl-2-pyrrolidone + clonazepam; phases: Liquid, Crystal
Property: Mass density, kg/m3 (Liquid); method: Pycnometric method
Temperature, K	Pressure, kPa	Mass density, kg/m3	uncertainty
298.15	101.325	1100	

System: diazepan + water; phases: Liquid, Crystal
Property: Amount concentration (molarity), mol/dm3 of diazepan (Liquid); method: Spectrophotometry
Pressure, kPa	Temperature, K	Amount concentration (molarity), mol/dm3 of diazepan	uncertainty
101.325	298.15	.00015	

System: diazepan + water; phases: Liquid, Crystal
Property: Mass density, kg/m3 (Liquid); method: Pycnometric method
Temperature, K	Pressure, kPa	Mass density, kg/m3	uncertainty
298.15	101.325	1002	

System: diazepan + N-methyl-2-pyrrolidone; phases: Liquid, Crystal
Property: Amount concentration (molarity), mol/dm3 of diazepan (Liquid); method: Spectrophotometry
Pressure, kPa	Temperature, K	Amount concentration (molarity), mol/dm3 of diazepan	uncertainty
101.325	298.15	1.3171	

System: diazepan + N-methyl-2-pyrrolidone; phases: Liquid, Crystal
Property: Mass density, kg/m3 (Liquid); method: Pycnometric method
Temperature, K	Pressure, kPa	Mass density, kg/m3	uncertainty
298.15	101.325	1117	

System: water + lamotrigine; phases: Liquid, Crystal
Property: Amount concentration (molarity), mol/dm3 of lamotrigine (Liquid); method: Spectrophotometry
Pressure, kPa	Temperature, K	Amount concentration (molarity), mol/dm3 of lamotrigine	uncertainty
101.325	298.15	.00073	

System: water + lamotrigine; phases: Liquid, Crystal
Property: Mass density, kg/m3 (Liquid); method: Pycnometric method
Temperature, K	Pressure, kPa	Mass density, kg/m3	uncertainty
298.15	101.325	1000	

System: N-methyl-2-pyrrolidone + lamotrigine; phases: Liquid, Crystal
Property: Amount concentration (molarity), mol/dm3 of lamotrigine (Liquid); method: Spectrophotometry
Pressure, kPa	Temperature, K	Amount concentration (molarity), mol/dm3 of lamotrigine	uncertainty
101.325	298.15	.05853	

System: N-methyl-2-pyrrolidone + lamotrigine; phases: Liquid, Crystal
Property: Mass density, kg/m3 (Liquid); method: Pycnometric method
Temperature, K	Pressure, kPa	Mass density, kg/m3	uncertainty
298.15	101.325	1040	

System: 5-ethyl-5-phenylbarbituric acid + water; phases: Liquid, Crystal
Property: Amount concentration (molarity), mol/dm3 of 5-ethyl-5-phenylbarbituric acid (Liquid); method: Spectrophotometry
Pressure, kPa	Temperature, K	Amount concentration (molarity), mol/dm3 of 5-ethyl-5-phenylbarbituric acid	uncertainty
101.325	298.15	.00533	

System: 5-ethyl-5-phenylbarbituric acid + water; phases: Liquid, Crystal
Property: Mass density, kg/m3 (Liquid); method: Pycnometric method
Temperature, K	Pressure, kPa	Mass density, kg/m3	uncertainty
298.15	101.325	1004	

System: 5-ethyl-5-phenylbarbituric acid + N-methyl-2-pyrrolidone; phases: Liquid, Crystal
Property: Amount concentration (molarity), mol/dm3 of 5-ethyl-5-phenylbarbituric acid (Liquid); method: Spectrophotometry
Pressure, kPa	Temperature, K	Amount concentration (molarity), mol/dm3 of 5-ethyl-5-phenylbarbituric acid	uncertainty
101.325	298.15	2.30766	

System: 5-ethyl-5-phenylbarbituric acid + N-methyl-2-pyrrolidone; phases: Liquid, Crystal
Property: Mass density, kg/m3 (Liquid); method: Pycnometric method
Temperature, K	Pressure, kPa	Mass density, kg/m3	uncertainty
298.15	101.325	1169	
