Measured thermophysical data. Solubility of Chlordiazepoxide, Diazepam, and Lorazepam in Ethanol + Water Mixtures at 303.2 K
Source: J. Chem. Eng. Data, 2009, 10.1021/je900200k
Compound 1: chlordiazepoxide, C16H14ClN3O
Compound 2: diazepan, C16H13ClN2O
Compound 3: lorazepam, C15H10Cl2N2O2
Compound 4: ethanol, C2H6O
Compound 5: methanol, CH4O
Compound 6: water, H2O

System: chlordiazepoxide + ethanol + water; phases: Liquid, Crystal
Fixed: Temperature, K = 303.2
Fixed: Pressure, kPa = 101
Property: Mole fraction of chlordiazepoxide (Liquid); method: UV-Vis spectrophotometer
Solvent: Mole fraction of ethanol	Mole fraction of chlordiazepoxide	uncertainty
0	.000006	
.1	.000012	
.2	.000021	
.3	.000066	
.4	.00027	
.5	.000769	
.6	.00145	
.7	.00294	
.8	.00443	
.9	.00499	
1	.00335	

System: chlordiazepoxide + ethanol + water; phases: Liquid, Crystal
Fixed: Temperature, K = 303.2
Fixed: Pressure, kPa = 101
Property: Mass density, kg/m3 (Liquid); method: Pycnometric method
Solvent: Volume fraction of ethanol	Mass density, kg/m3	uncertainty
0	998	10
.1	995	10
.2	970	10
.3	953	10
.4	931	10
.5	927	10
.6	892	10
.7	872	10
.8	864	10
.9	818	10
1	796	10

System: ethanol + diazepan + water; phases: Liquid, Crystal
Fixed: Temperature, K = 303.2
Fixed: Pressure, kPa = 101
Property: Mole fraction of diazepan (Liquid); method: UV-Vis spectrophotometer
Solvent: Mole fraction of ethanol	Mole fraction of diazepan	uncertainty
0	.000003	
.1	.000008	
.2	.00002	
.3	.000074	
.4	.000287	
.5	.000976	
.6	.00219	
.7	.00449	
.8	.00679	
.9	.00858	
1	.00754	

System: ethanol + diazepan + water; phases: Liquid, Crystal
Fixed: Temperature, K = 303.2
Fixed: Pressure, kPa = 101
Property: Mass density, kg/m3 (Liquid); method: Pycnometric method
Solvent: Volume fraction of ethanol	Mass density, kg/m3	uncertainty
0	995	10
.1	992	10
.2	971	10
.3	957	10
.4	952	10
.5	933	10
.6	912	10
.7	891	10
.8	853	10
.9	831	10
1	784	10

System: ethanol + lorazepam + water; phases: Liquid, Crystal
Fixed: Temperature, K = 303.2
Fixed: Pressure, kPa = 101
Property: Mole fraction of lorazepam (Liquid); method: UV-Vis spectrophotometer
Solvent: Mole fraction of ethanol	Mole fraction of lorazepam	uncertainty
0	.000003	
.1	.000007	
.2	.000017	
.3	.000066	
.4	.000336	
.5	.000449	
.6	.000959	
.7	.00173	
.8	.00253	
.9	.00269	
1	.00196	

System: ethanol + lorazepam + water; phases: Liquid, Crystal
Fixed: Temperature, K = 303.2
Fixed: Pressure, kPa = 101
Property: Mass density, kg/m3 (Liquid); method: Pycnometric method
Solvent: Volume fraction of ethanol	Mass density, kg/m3	uncertainty
0	991	10
.1	986	10
.2	977	10
.3	961	10
.4	952	10
.5	932	10
.6	909	10
.7	887	10
.8	863	10
.9	833	10
1	797	10

System: chlordiazepoxide + water; phases: Liquid, Crystal
Property: Mole fraction of chlordiazepoxide (Liquid); method: UV-Vis spectrophotometer
Temperature, K	Pressure, kPa	Mole fraction of chlordiazepoxide	uncertainty
303.2	101	.000006	

System: chlordiazepoxide + ethanol; phases: Liquid, Crystal
Property: Mole fraction of chlordiazepoxide (Liquid); method: UV-Vis spectrophotometer
Temperature, K	Pressure, kPa	Mole fraction of chlordiazepoxide	uncertainty
303.2	101	.00335	

System: diazepan + water; phases: Liquid, Crystal
Property: Mole fraction of diazepan (Liquid); method: UV-Vis spectrophotometer
Temperature, K	Pressure, kPa	Mole fraction of diazepan	uncertainty
303.2	101	.000003	

System: ethanol + diazepan; phases: Liquid, Crystal
Property: Mole fraction of diazepan (Liquid); method: UV-Vis spectrophotometer
Temperature, K	Pressure, kPa	Mole fraction of diazepan	uncertainty
303.2	101	.00754	

System: lorazepam + water; phases: Liquid, Crystal
Property: Mole fraction of lorazepam (Liquid); method: UV-Vis spectrophotometer
Temperature, K	Pressure, kPa	Mole fraction of lorazepam	uncertainty
303.2	101	.000003	

System: ethanol + lorazepam; phases: Liquid, Crystal
Property: Mole fraction of lorazepam (Liquid); method: UV-Vis spectrophotometer
Temperature, K	Pressure, kPa	Mole fraction of lorazepam	uncertainty
303.2	101	.00196	
