Measured thermophysical data. Vapor-Liquid Equilibrium Data and Predictive Correlations for the Carbon Dioxide-Dimethyl Carbonate Binary Mixture
Source: J. Chem. Eng. Data, 2010, 10.1021/je900948n
Compound 1: carbon dioxide, CO2
Compound 2: dimethyl carbonate, C3H6O3

System: carbon dioxide + dimethyl carbonate; phases: Liquid, Gas
Property: Critical pressure, kPa (Liquid); method: Direct measurement
Temperature, K	Critical pressure, kPa	uncertainty
310.2	7700	7.7
340.2	10700	10.7
373.2	12800	12.8
403.2	14100	14.1
423.2	14400	14.4

System: carbon dioxide + dimethyl carbonate; phases: Liquid, Gas
Property: Mass density, kg/m3 (Liquid); method: Pycnometric method
Temperature, K	Mole fraction of carbon dioxide	Mass density, kg/m3	uncertainty
310.2	.1818	718	
310.2	.3411	861	
310.2	.4896	870	
310.2	.6775	827	
339.7	.1752	841	
339.7	.3126	771	
339.7	.4582	785	
339.7	.5776	813	
339.7	.6815	832	
339.7	.7631	785	
373.2	.1227	929	
373.2	.2608	899	
373.2	.403	914	
373.2	.5168	910	
373.2	.6181	800	

System: carbon dioxide + dimethyl carbonate; phases: Liquid, Gas
Property: Vapor or sublimation pressure, kPa (Liquid); method: Closed cell (Static) method
Temperature, K	Mole fraction of carbon dioxide	Vapor or sublimation pressure, kPa	uncertainty
310.2	.1818	1110	350
310.2	.3411	2100	350
310.2	.4896	3110	350
310.2	.6775	4620	350
339.7	.1752	1710	350
339.7	.3126	3060	350
339.7	.4582	4610	350
339.7	.5776	6040	350
339.7	.6815	7450	350
339.7	.7631	8690	350
373.2	.1227	1850	350
373.2	.2608	3820	350
373.2	.403	5970	350
373.2	.5168	7840	350
373.2	.6181	9650	350

System: carbon dioxide + dimethyl carbonate; phases: Liquid, Gas
Property: Molar volume, m3/mol (Liquid); method: Pycnometric method
Temperature, K	Mole fraction of carbon dioxide	Molar volume, m3/mol	uncertainty
310.3	.1913	12	.36
310.3	.308	23	.69
310.3	.3966	25	.75
310.3	.4799	39	1.17
310.3	.5478	51	1.53
310.3	.6535	76	2.28
310.3	.7614	140	4.2
310.3	.8576	337	10.11
310.3	.8958	557	16.71
310.3	.9093	606	18.18
310.3	.9221	716	21.48
310.3	.9339	736	22.08
340.2	.2819	26	.78
340.2	.3247	33	.99
340.2	.3596	27	.81
340.2	.4004	33	.99
340.2	.4782	45	1.35
340.2	.5623	61	1.83
340.2	.6178	73	2.19
340.2	.6854	113	3.39
340.2	.7046	118	3.54
340.2	.7475	164	4.92
340.2	.7608	168	5.04
340.2	.8054	230	6.9
340.2	.8668	375	11.25
340.2	.8798	487	14.61
340.2	.905	684	20.52
373.6	.1115	18	.54
373.6	.1452	20	.6
373.6	.272	32	.96
373.6	.2906	32	.96
373.6	.4118	40	1.2
373.6	.5288	70	2.1
373.6	.6135	103	3.09
373.6	.6548	92	2.76
373.6	.7145	119	3.57
373.6	.7597	175	5.25
373.6	.8038	204	6.12
373.6	.8337	375	11.25
373.6	.9118	843	25.29

System: carbon dioxide + dimethyl carbonate; phases: Liquid, Gas
Property: Vapor or sublimation pressure, kPa (Liquid); method: Closed cell (Static) method
Temperature, K	Mole fraction of carbon dioxide	Vapor or sublimation pressure, kPa	uncertainty
310.3	.1913	1170	1.17
310.3	.308	1890	1.89
310.3	.3966	2460	2.46
310.3	.4799	3040	3.04
310.3	.5478	3540	3.54
310.3	.6535	4410	4.41
310.3	.7614	5410	5.41
310.3	.8576	6420	6.42
310.3	.8958	6850	6.85
310.3	.9093	7000	7
310.3	.9221	7140	7.14
310.3	.9339	7290	7.29
340.2	.2819	2750	2.75
340.2	.3247	3180	3.18
340.2	.3596	3540	3.54
340.2	.4004	3980	3.98
340.2	.4782	4840	4.84
340.2	.5623	5850	5.85
340.2	.6178	6570	6.57
340.2	.6854	7570	7.57
340.2	.7046	7790	7.79
340.2	.7475	8510	8.51
340.2	.7608	8650	8.65
340.2	.8054	9370	9.37
340.2	.8668	10380	10.38
340.2	.8798	10670	10.67
340.2	.905	10960	10.96
373.6	.1115	1700	1.7
373.6	.1452	2180	2.18
373.6	.272	4000	4
373.6	.2906	4260	4.26
373.6	.4118	6130	6.13
373.6	.5288	8080	8.08
373.6	.6135	9600	9.6
373.6	.6548	10380	10.38
373.6	.7145	11530	11.53
373.6	.7597	12400	12.4
373.6	.8038	13190	13.19
373.6	.8337	13620	13.62
373.6	.9118	14050	14.05
