Measured thermophysical data. Density, Viscosity, Refractive Index, and Ultrasonic Speed of Binary Mixtures of 1,3-Dioxolane with 2-Methoxyethanol, 2-Ethoxyethanol, 2-Butoxyethanol, 2-Propylamine, and Cyclohexylamine
Source: J. Chem. Eng. Data, 2009, 10.1021/je900240s
Compound 1: 1,3-dioxolane, C3H6O2
Compound 2: 2-methoxyethanol, C3H8O2
Compound 3: ethanol, 2-ethoxy-, C4H10O2
Compound 4: 2-butoxyethanol, C6H14O2
Compound 5: 2-propanol, C3H8O
Compound 6: cyclohexylamine, C6H13N

System: 2-methoxyethanol + 1,3-dioxolane; phases: Liquid
Fixed: Pressure, kPa = 101
Fixed: Temperature, K = 298.15
Property: Mass density, kg/m3 (Liquid); method: Pycnometric method
Mole fraction of 1,3-dioxolane	Mass density, kg/m3	uncertainty
0	960.3	.3
.1024	969.1	.3
.2043	978	.3
.3057	986.9	.3
.4065	995.9	.3
.5067	1005.2	.3
.6064	1015.2	.3
.7056	1025.5	.3
.8043	1036	.3
.9024	1046.5	.3
1	1057.2	.3

System: 2-methoxyethanol + 1,3-dioxolane; phases: Liquid
Fixed: Pressure, kPa = 101
Fixed: Temperature, K = 298.15
Property: Viscosity, Pa*s (Liquid); method: Capillary tube (Ostwald; Ubbelohde) method
Mole fraction of 1,3-dioxolane	Viscosity, Pa*s	uncertainty
0	.0015622	
.1024	.0013447	
.2043	.0011706	
.3057	.0010315	
.4065	.0009197	
.5067	.0008293	
.6064	.0007564	
.7056	.0006979	
.8043	.0006517	
.9024	.0006155	
1	.0005882	

System: 2-methoxyethanol + 1,3-dioxolane; phases: Liquid
Fixed: Pressure, kPa = 101
Fixed: Temperature, K = 298.15
Property: Speed of sound, m/s (Liquid); method: Sing-around technique in a fixed-path interferometer
Mole fraction of 1,3-dioxolane	Speed of sound, m/s	uncertainty
0	1340.2	.2
.1024	1339.9	.2
.2043	1339.6	.2
.3057	1339.3	.2
.4065	1339	.2
.5067	1338.8	.2
.6064	1338.7	.2
.7056	1338.6	.2
.8043	1338.5	.2
.9024	1338.3	.2
1	1338.2	.2

System: 2-methoxyethanol + 1,3-dioxolane; phases: Liquid
Fixed: Pressure, kPa = 101
Fixed: Temperature, K = 298.15
Property: Refractive index (Na D-line) (Liquid); method: Standard Abbe refractometry
Mole fraction of 1,3-dioxolane	Refractive index (Na D-line)	uncertainty
0	1.4002	.0001
.1024	1.4	.0001
.2043	1.3998	.0001
.3057	1.3996	.0001
.4065	1.3995	.0001
.5067	1.3993	.0001
.6064	1.399	.0001
.7056	1.3988	.0001
.8043	1.3985	.0001
.9024	1.3983	.0001
1	1.398	.0001

System: ethanol, 2-ethoxy- + 1,3-dioxolane; phases: Liquid
Fixed: Pressure, kPa = 101
Fixed: Temperature, K = 298.15
Property: Mass density, kg/m3 (Liquid); method: Pycnometric method
Mole fraction of 1,3-dioxolane	Mass density, kg/m3	uncertainty
0	925	.3
.1191	936.7	.3
.2332	948.4	.3
.3427	960.3	.3
.4478	972.5	.3
.5488	985.4	.3
.646	999.1	.3
.7395	1013.2	.3
.8295	1027.5	.3
.9163	1042.2	.3
1	1057.2	.3

System: ethanol, 2-ethoxy- + 1,3-dioxolane; phases: Liquid
Fixed: Pressure, kPa = 101
Fixed: Temperature, K = 298.15
Property: Viscosity, Pa*s (Liquid); method: Capillary tube (Ostwald; Ubbelohde) method
Mole fraction of 1,3-dioxolane	Viscosity, Pa*s	uncertainty
0	.00185	
.1191	.001605	
.2332	.0013787	
.3427	.0011874	
.4478	.00103	
.5488	.0009124	
.646	.0008144	
.7395	.0007365	
.8295	.0006706	
.9163	.0006129	
1	.0005882	

System: ethanol, 2-ethoxy- + 1,3-dioxolane; phases: Liquid
Fixed: Pressure, kPa = 101
Fixed: Temperature, K = 298.15
Property: Speed of sound, m/s (Liquid); method: Sing-around technique in a fixed-path interferometer
Mole fraction of 1,3-dioxolane	Speed of sound, m/s	uncertainty
0	1302.8	.2
.1191	1306.6	.2
.2332	1310.3	.2
.3427	1313.9	.2
.4478	1317.6	.2
.5488	1321.3	.2
.646	1325	.2
.7395	1328.5	.2
.8295	1331.9	.2
.9163	1335.1	.2
1	1338.2	.2

System: ethanol, 2-ethoxy- + 1,3-dioxolane; phases: Liquid
Fixed: Pressure, kPa = 101
Fixed: Temperature, K = 298.15
Property: Refractive index (Na D-line) (Liquid); method: Standard Abbe refractometry
Mole fraction of 1,3-dioxolane	Refractive index (Na D-line)	uncertainty
0	1.4051	.0001
.1191	1.4047	.0001
.2332	1.4041	.0001
.3427	1.4034	.0001
.4478	1.4027	.0001
.5488	1.4019	.0001
.646	1.4012	.0001
.7395	1.4004	.0001
.8295	1.3995	.0001
.9163	1.3988	.0001
1	1.398	.0001

System: 2-butoxyethanol + 1,3-dioxolane; phases: Liquid
Fixed: Pressure, kPa = 101
Fixed: Temperature, K = 298.15
Property: Mass density, kg/m3 (Liquid); method: Pycnometric method
Mole fraction of 1,3-dioxolane	Mass density, kg/m3	uncertainty
0	896.6	.3
.1506	909.9	.3
.2851	923.5	.3
.4061	937.4	.3
.5154	952.1	.3
.6147	968.1	.3
.7053	984.8	.3
.7882	1002.1	.3
.8645	1020.2	.3
.9349	1038.5	.3
1	1057.2	.3

System: 2-butoxyethanol + 1,3-dioxolane; phases: Liquid
Fixed: Pressure, kPa = 101
Fixed: Temperature, K = 298.15
Property: Viscosity, Pa*s (Liquid); method: Capillary tube (Ostwald; Ubbelohde) method
Mole fraction of 1,3-dioxolane	Viscosity, Pa*s	uncertainty
0	.0027953	
.1506	.0022001	
.2851	.0017733	
.4061	.0014653	
.5154	.001229	
.6147	.001053	
.7053	.0009156	
.7882	.0008012	
.8645	.0007116	
.9349	.0006419	
1	.0005882	

System: 2-butoxyethanol + 1,3-dioxolane; phases: Liquid
Fixed: Pressure, kPa = 101
Fixed: Temperature, K = 298.15
Property: Speed of sound, m/s (Liquid); method: Sing-around technique in a fixed-path interferometer
Mole fraction of 1,3-dioxolane	Speed of sound, m/s	uncertainty
0	1303.4	.2
.1506	1307.6	.2
.2851	1311.7	.2
.4061	1315.5	.2
.5154	1319.2	.2
.6147	1322.9	.2
.7053	1326.3	.2
.7882	1329.5	.2
.8645	1332.5	.2
.9349	1335.5	.2
1	1338.2	.2

System: 2-butoxyethanol + 1,3-dioxolane; phases: Liquid
Fixed: Pressure, kPa = 101
Fixed: Temperature, K = 298.15
Property: Refractive index (Na D-line) (Liquid); method: Standard Abbe refractometry
Mole fraction of 1,3-dioxolane	Refractive index (Na D-line)	uncertainty
0	1.4176	.0001
.1506	1.4158	.0001
.2851	1.4145	.0001
.4061	1.4129	.0001
.5154	1.4112	.0001
.6147	1.4092	.0001
.7053	1.4071	.0001
.7882	1.405	.0001
.8645	1.4028	.0001
.9349	1.4006	.0001
1	1.398	.0001

System: 2-propanol + 1,3-dioxolane; phases: Liquid
Fixed: Pressure, kPa = 101
Fixed: Temperature, K = 298.15
Property: Mass density, kg/m3 (Liquid); method: Pycnometric method
Mole fraction of 1,3-dioxolane	Mass density, kg/m3	uncertainty
0	681.5	.3
.0814	707.9	.3
.1663	736.3	.3
.2548	766.8	.3
.3472	799.9	.3
.4438	835.4	.3
.5448	873.7	.3
.6506	914.5	.3
.7614	958.4	.3
.8778	1006	.3
1	1057.2	.3

System: 2-propanol + 1,3-dioxolane; phases: Liquid
Fixed: Pressure, kPa = 101
Fixed: Temperature, K = 298.15
Property: Viscosity, Pa*s (Liquid); method: Capillary tube (Ostwald; Ubbelohde) method
Mole fraction of 1,3-dioxolane	Viscosity, Pa*s	uncertainty
0	.0002781	
.0814	.0003026	
.1663	.0003244	
.2548	.0003461	
.3472	.0003718	
.4438	.0003978	
.5448	.0004288	
.6506	.0004634	
.7614	.0005001	
.8778	.0005429	
1	.0005882	

System: 2-propanol + 1,3-dioxolane; phases: Liquid
Fixed: Pressure, kPa = 101
Fixed: Temperature, K = 298.15
Property: Speed of sound, m/s (Liquid); method: Sing-around technique in a fixed-path interferometer
Mole fraction of 1,3-dioxolane	Speed of sound, m/s	uncertainty
0	1075.6	.2
.0814	1097.3	.2
.1663	1120	.2
.2548	1143.6	.2
.3472	1168.1	.2
.4438	1193.6	.2
.5448	1220.2	.2
.6506	1247.9	.2
.7614	1276.7	.2
.8778	1306.8	.2
1	1338.3	.2

System: 2-propanol + 1,3-dioxolane; phases: Liquid
Fixed: Pressure, kPa = 101
Fixed: Temperature, K = 298.15
Property: Refractive index (Na D-line) (Liquid); method: Standard Abbe refractometry
Mole fraction of 1,3-dioxolane	Refractive index (Na D-line)	uncertainty
0	1.3759	.0001
.0814	1.3789	.0001
.1663	1.3823	.0001
.2548	1.3859	.0001
.3472	1.3895	.0001
.4438	1.3928	.0001
.5448	1.3952	.0001
.6506	1.3965	.0001
.7614	1.3971	.0001
.8778	1.3975	.0001
1	1.398	.0001

System: cyclohexylamine + 1,3-dioxolane; phases: Liquid
Fixed: Pressure, kPa = 101
Fixed: Temperature, K = 298.15
Property: Mass density, kg/m3 (Liquid); method: Pycnometric method
Mole fraction of 1,3-dioxolane	Mass density, kg/m3	uncertainty
0	866.8	.3
.1295	881.1	.3
.2508	896.1	.3
.3646	912.1	.3
.4716	929.2	.3
.5724	947.8	.3
.6676	967.5	.3
.7575	988.4	.3
.8427	1010.5	.3
.9234	1033.3	.3
1	1057.2	.3

System: cyclohexylamine + 1,3-dioxolane; phases: Liquid
Fixed: Pressure, kPa = 101
Fixed: Temperature, K = 298.15
Property: Viscosity, Pa*s (Liquid); method: Capillary tube (Ostwald; Ubbelohde) method
Mole fraction of 1,3-dioxolane	Viscosity, Pa*s	uncertainty
0	.001753	
.1295	.0015174	
.2508	.0013312	
.3646	.0011737	
.4716	.0010438	
.5724	.0009345	
.6676	.0008431	
.7575	.0007633	
.8427	.0006955	
.9234	.0006344	
1	.0005882	

System: cyclohexylamine + 1,3-dioxolane; phases: Liquid
Fixed: Pressure, kPa = 101
Fixed: Temperature, K = 298.15
Property: Speed of sound, m/s (Liquid); method: Sing-around technique in a fixed-path interferometer
Mole fraction of 1,3-dioxolane	Speed of sound, m/s	uncertainty
0	1416.4	.2
.1295	1403.3	.2
.2508	1391.8	.2
.3646	1381.5	.2
.4716	1372.7	.2
.5724	1365.3	.2
.6676	1358.7	.2
.7575	1352.9	.2
.8427	1347.7	.2
.9234	1342.7	.2
1	1338.2	.2

System: cyclohexylamine + 1,3-dioxolane; phases: Liquid
Fixed: Pressure, kPa = 101
Fixed: Temperature, K = 298.15
Property: Refractive index (Na D-line) (Liquid); method: Standard Abbe refractometry
Mole fraction of 1,3-dioxolane	Refractive index (Na D-line)	uncertainty
0	1.4565	.0001
.1295	1.4522	.0001
.2508	1.4479	.0001
.3646	1.4435	.0001
.4716	1.4381	.0001
.5724	1.4321	.0001
.6676	1.4258	.0001
.7575	1.4194	.0001
.8427	1.4125	.0001
.9234	1.4052	.0001
1	1.398	.0001
