Measured thermophysical data. Refractive Indices of Lithium, Magnesium, and Copper(II) Sulfates in Ethanol-Water Solutions
Source: J. Chem. Eng. Data, 2010, 10.1021/je900266h
Compound 1: ethanol, C2H6O
Compound 2: water, H2O, purity 99.9%
Compound 3: lithium sulfate, Li2O4S, purity 99%
Compound 4: sulfuric acid, magnesium salt (1:1), MgO4S, purity 99%
Compound 5: sulfuric acid copper(2+) salt (1:1), CuO4S, purity 99%

System: ethanol; phases: Liquid
Fixed: Pressure, kPa = 101.325
Property: Refractive index (Na D-line) (Liquid); method: Standard Abbe refractometry
Temperature, K	Refractive index (Na D-line)	uncertainty
318.15	1.35068	
308.15	1.35477	
298.15	1.35922	
288.15	1.36344	

System: water; phases: Liquid
Fixed: Pressure, kPa = 101.325
Property: Refractive index (Na D-line) (Liquid); method: Standard Abbe refractometry
Temperature, K	Refractive index (Na D-line)	uncertainty
318.15	1.32979	
308.15	1.33128	
298.15	1.33248	
288.15	1.33339	

System: ethanol + water; phases: Liquid
Fixed: Pressure, kPa = 101
Property: Refractive index (Na D-line) (Liquid); method: Standard Abbe refractometry
Temperature, K	Mole fraction of ethanol	Refractive index (Na D-line)	uncertainty
318.15	0	1.32979	
318.15	.02468	1.33124	
318.15	.0538	1.33301	
318.15	.07815	1.33449	
318.15	.10141	1.3358	
318.15	.12493	1.33736	
318.15	.15278	1.33895	
318.15	.1778	1.34054	
318.15	.20363	1.3418	
318.15	.22496	1.34311	
318.15	.24696	1.34418	
318.15	.26993	1.34519	
318.15	.29554	1.3464	
318.15	.32414	1.34772	
318.15	.3468	1.34853	
318.15	.37231	1.34932	
318.15	.39592	1.34997	
318.15	.42546	1.35103	
318.15	.44625	1.35147	
318.15	.47353	1.35212	
318.15	.4969	1.35251	
318.15	.52386	1.35301	
318.15	.54583	1.3533	
318.15	.57086	1.35369	
318.15	.59716	1.35385	
318.15	.62033	1.35417	
318.15	.64668	1.3543	
318.15	.66942	1.35455	
318.15	.69588	1.35454	
318.15	.71869	1.35469	
318.15	.7494	1.35471	
318.15	.76719	1.35475	
318.15	.79926	1.35484	
318.15	.81874	1.35478	
318.15	.84506	1.35457	
318.15	.86696	1.35421	
318.15	.90278	1.35374	
318.15	.92349	1.35333	
318.15	.94813	1.35255	
318.15	.97516	1.35171	
318.15	1	1.35068	
308.15	0	1.33128	
308.15	.02468	1.33282	
308.15	.0538	1.33455	
308.15	.07815	1.33619	
308.15	.10141	1.33771	
308.15	.12493	1.33923	
308.15	.15278	1.34104	
308.15	.1778	1.34272	
308.15	.20363	1.34435	
308.15	.22496	1.34551	
308.15	.24696	1.34682	
308.15	.26993	1.3479	
308.15	.29554	1.34922	
308.15	.32414	1.35053	
308.15	.3468	1.35164	
308.15	.37231	1.35252	
308.15	.39592	1.35342	
308.15	.42546	1.35448	
308.15	.44625	1.35501	
308.15	.47353	1.35566	
308.15	.4969	1.3562	
308.15	.52386	1.35667	
308.15	.54583	1.35731	
308.15	.57086	1.3577	
308.15	.59716	1.35801	
308.15	.62033	1.35825	
308.15	.64668	1.35839	
308.15	.66942	1.35867	
308.15	.69588	1.35875	
308.15	.71869	1.35892	
308.15	.7494	1.35895	
308.15	.76719	1.35902	
308.15	.79926	1.35879	
308.15	.81874	1.35887	
308.15	.84506	1.3586	
308.15	.86696	1.35844	
308.15	.90278	1.35782	
308.15	.92349	1.35743	
308.15	.94813	1.35677	
308.15	.97516	1.3559	
308.15	1	1.35477	
298.15	0	1.33248	
298.15	.02468	1.33402	
298.15	.0538	1.33587	
298.15	.07815	1.33765	
298.15	.10141	1.33915	
298.15	.12493	1.34095	
298.15	.15278	1.34294	
298.15	.1778	1.34475	
298.15	.20363	1.34651	
298.15	.22496	1.34781	
298.15	.24696	1.34934	
298.15	.26993	1.35056	
298.15	.29554	1.35212	
298.15	.32414	1.35363	
298.15	.3468	1.3546	
298.15	.37231	1.35567	
298.15	.39592	1.35665	
298.15	.42546	1.35765	
298.15	.44625	1.35831	
298.15	.47353	1.35919	
298.15	.4969	1.35969	
298.15	.52386	1.36042	
298.15	.54583	1.36078	
298.15	.57086	1.36134	
298.15	.59716	1.36186	
298.15	.62033	1.36199	
298.15	.64668	1.36243	
298.15	.66942	1.36263	
298.15	.69588	1.36288	
298.15	.71869	1.36306	
298.15	.7494	1.36313	
298.15	.76719	1.36317	
298.15	.79926	1.36318	
298.15	.81874	1.3632	
298.15	.84506	1.36289	
298.15	.86696	1.36278	
298.15	.90278	1.3623	
298.15	.92349	1.36196	
298.15	.94813	1.36123	
298.15	.97516	1.36037	
298.15	1	1.35922	
288.15	0	1.33339	
288.15	.02468	1.33491	
288.15	.0538	1.33686	
288.15	.07815	1.33854	
288.15	.10141	1.34032	
288.15	.12493	1.34209	
288.15	.15278	1.34443	
288.15	.1778	1.34627	
288.15	.20363	1.34829	
288.15	.22496	1.34976	
288.15	.24696	1.35137	
288.15	.26993	1.35281	
288.15	.29554	1.35435	
288.15	.32414	1.35595	
288.15	.3468	1.3572	
288.15	.37231	1.35843	
288.15	.39592	1.3597	
288.15	.42546	1.36073	
288.15	.44625	1.36161	
288.15	.47353	1.36235	
288.15	.4969	1.36316	
288.15	.52386	1.36378	
288.15	.54583	1.36431	
288.15	.57086	1.36482	
288.15	.59716	1.36547	
288.15	.62033	1.36582	
288.15	.64668	1.36603	
288.15	.66942	1.36636	
288.15	.69588	1.36665	
288.15	.71869	1.36663	
288.15	.7494	1.36702	
288.15	.76719	1.36703	
288.15	.79926	1.36694	
288.15	.81874	1.36705	
288.15	.84506	1.36683	
288.15	.86696	1.36684	
288.15	.90278	1.36637	
288.15	.92349	1.36603	
288.15	.94813	1.36528	
288.15	.97516	1.36454	
288.15	1	1.36344	

System: water + lithium sulfate; phases: Liquid
Fixed: Pressure, kPa = 101
Property: Refractive index (Na D-line) (Liquid); method: Standard Abbe refractometry
Temperature, K	Molality, mol/kg of lithium sulfate	Refractive index (Na D-line)	uncertainty
318.15	0	1.32979	
318.15	.252	1.33446	
318.15	.4681	1.33812	
318.15	.7337	1.3426	
318.15	.9917	1.3467	
318.15	1.2447	1.35056	
318.15	1.4685	1.35375	
318.15	1.7564	1.35765	
318.15	1.7573	1.35767	
318.15	1.9387	1.35998	
318.15	2.1241	1.36227	
318.15	2.3061	1.36453	
318.15	2.5419	1.3672	
318.15	2.7977	1.37003	
318.15	2.9827	1.37206	
308.15	0	1.33128	
308.15	.252	1.33612	
308.15	.4681	1.33987	
308.15	.7337	1.34419	
308.15	.9917	1.34829	
308.15	1.2447	1.35198	
308.15	1.4685	1.35518	
308.15	1.7564	1.35905	
308.15	1.7573	1.35909	
308.15	1.9387	1.36134	
308.15	2.1241	1.36368	
308.15	2.3061	1.36574	
308.15	2.5419	1.3685	
308.15	2.7977	1.37124	
308.15	2.9827	1.37316	
298.15	0	1.33248	
298.15	.252	1.33727	
298.15	.4681	1.34096	
298.15	.7337	1.34534	
298.15	.9917	1.34944	
298.15	1.2447	1.35316	
298.15	1.4685	1.35628	
298.15	1.7564	1.36011	
298.15	1.7573	1.36015	
298.15	1.9387	1.36242	
298.15	2.1241	1.36472	
298.15	2.3061	1.36691	
298.15	2.5419	1.36964	
298.15	2.7977	1.37243	
298.15	2.9827	1.37442	
288.15	0	1.33339	
288.15	.252	1.3383	
288.15	.4681	1.34212	
288.15	.7337	1.34651	
288.15	.9917	1.35062	
288.15	1.2447	1.3544	
288.15	1.4685	1.35752	
288.15	1.7564	1.3614	
288.15	1.7573	1.36143	
288.15	1.9387	1.36365	
288.15	2.1241	1.36601	
288.15	2.3061	1.36812	
288.15	2.5419	1.3709	
288.15	2.7977	1.3736	
288.15	2.9827	1.37551	
288.15	3.1577	1.37704	
288.15	3.2201	1.37774	

System: sulfuric acid, magnesium salt (1:1) + water; phases: Liquid
Fixed: Pressure, kPa = 101
Property: Refractive index (Na D-line) (Liquid); method: Standard Abbe refractometry
Temperature, K	Molality, mol/kg of sulfuric acid, magnesium salt (1:1)	Refractive index (Na D-line)	uncertainty
318.15	0	1.32979	
318.15	.2096	1.33491	
318.15	.3448	1.33803	
318.15	.5911	1.34335	
318.15	.7832	1.34735	
318.15	.9997	1.3516	
318.15	1.1898	1.35532	
318.15	1.3786	1.35894	
318.15	1.6214	1.36342	
318.15	1.8675	1.3677	
318.15	2.1201	1.37185	
318.15	2.3603	1.37586	
318.15	2.5923	1.37944	
318.15	2.8588	1.38352	
318.15	3.0869	1.38662	
318.15	3.3473	1.39026	
318.15	3.5795	1.39328	
318.15	3.8067	1.39614	
318.15	3.9977	1.39817	
308.15	0	1.33128	
308.15	.2096	1.33629	
308.15	.3448	1.3393	
308.15	.5911	1.34463	
308.15	.7832	1.34872	
308.15	.9997	1.35295	
308.15	1.1898	1.35667	
308.15	1.3786	1.36037	
308.15	1.6214	1.36468	
308.15	1.8675	1.36899	
308.15	2.1201	1.3732	
308.15	2.3603	1.37709	
308.15	2.5923	1.38069	
308.15	2.8588	1.38461	
308.15	3.0869	1.3878	
308.15	3.3473	1.39151	
308.15	3.5795	1.3945	
298.15	0	1.33248	
298.15	.2096	1.33762	
298.15	.3448	1.34072	
298.15	.5911	1.34594	
298.15	.7832	1.35009	
298.15	.9997	1.35438	
298.15	1.1898	1.3581	
298.15	1.3786	1.36174	
298.15	1.6214	1.36613	
298.15	1.8675	1.37039	
298.15	2.1201	1.37469	
298.15	2.3603	1.37853	
298.15	2.5923	1.38211	
298.15	2.8588	1.38613	
298.15	3.0869	1.38927	
288.15	0	1.33339	
288.15	.2096	1.33858	
288.15	.3448	1.34163	
288.15	.5911	1.3471	
288.15	.7832	1.35115	
288.15	.9997	1.35558	
288.15	1.1898	1.35934	
288.15	1.3786	1.36292	
288.15	1.6214	1.3674	
288.15	1.8675	1.37176	
288.15	2.1201	1.376	
288.15	2.3603	1.37993	
288.15	2.5923	1.38344	

System: water + sulfuric acid copper(2+) salt (1:1); phases: Liquid
Fixed: Pressure, kPa = 101
Property: Refractive index (Na D-line) (Liquid); method: Standard Abbe refractometry
Temperature, K	Molality, mol/kg of sulfuric acid copper(2+) salt (1:1)	Refractive index (Na D-line)	uncertainty
318.15	0	1.32979	
318.15	.1346	1.33371	
318.15	.3007	1.33834	
318.15	.4408	1.34204	
318.15	.5896	1.34587	
318.15	.7359	1.34951	
318.15	.859	1.35249	
318.15	1.016	1.35632	
318.15	1.1791	1.36027	
318.15	1.3008	1.36305	
318.15	1.4565	1.36664	
318.15	1.579	1.36952	
318.15	1.7361	1.37296	
318.15	1.8906	1.37632	
318.15	2.058	1.38013	
308.15	0	1.33128	
308.15	.1346	1.33528	
308.15	.3007	1.33987	
308.15	.4408	1.3436	
308.15	.5896	1.34753	
308.15	.7359	1.35129	
308.15	.859	1.35427	
308.15	1.016	1.35816	
308.15	1.1791	1.36209	
308.15	1.3008	1.365	
308.15	1.4565	1.36872	
308.15	1.579	1.37162	
298.15	0	1.33248	
298.15	.1346	1.33658	
298.15	.3007	1.34125	
298.15	.4408	1.3451	
298.15	.5896	1.34915	
298.15	.7359	1.35287	
298.15	.859	1.35606	
298.15	1.016	1.36002	
298.15	1.1791	1.36398	
298.15	1.3008	1.367	
298.15	1.4565	1.3706	
288.15	0	1.33339	
288.15	.1346	1.33752	
288.15	.3007	1.34217	
288.15	.4408	1.34604	
288.15	.5896	1.35008	
288.15	.7359	1.35392	
288.15	.859	1.35712	
288.15	1.016	1.36104	
288.15	1.1791	1.3651	
288.15	1.3008	1.36803	

System: ethanol + water + sulfuric acid copper(2+) salt (1:1); phases: Liquid
Fixed: Pressure, kPa = 101
Property: Refractive index (Na D-line) (Liquid); method: Standard Abbe refractometry
Temperature, K	Solvent: Amount ratio of component to other component of binary solvent of ethanol	Molality, mol/kg of sulfuric acid copper(2+) salt (1:1)	Refractive index (Na D-line)	uncertainty
318.15	.02643	.1786	1.33633	
318.15	.02462	.3327	1.3406	
318.15	.02524	.4959	1.34498	
318.15	.02475	.6614	1.34918	
318.15	.02435	.8149	1.35299	
318.15	.02494	.9772	1.35707	
318.15	.05125	.1471	1.33687	
318.15	.05089	.3071	1.34137	
318.15	.05113	.4528	1.3453	
318.15	.05142	.6033	1.34921	
318.15	.05009	.7539	1.35284	
318.15	.07523	.1221	1.3376	
318.15	.07539	.2387	1.34081	
318.15	.07533	.357	1.34411	
318.15	.07166	.4517	1.34636	
318.15	.07549	.6047	1.35045	
318.15	.09975	.1143	1.33886	
318.15	.09923	.2197	1.34164	
318.15	.10053	.3281	1.34482	
318.15	.10033	.4432	1.34771	
318.15	.11893	.0834	1.33928	
318.15	.11859	.1667	1.34138	
318.15	.11887	.2405	1.34341	
318.15	.12549	.3349	1.34636	
318.15	.14991	.0735	1.34085	
318.15	.15173	.1644	1.34325	
318.15	.15014	.2427	1.3455	
318.15	.17534	.0538	1.34174	
318.15	.17588	.1151	1.34336	
318.15	.17523	.1728	1.34498	
318.15	.1997	.062	1.34319	
318.15	.20089	.1226	1.34492	
318.15	.02528	1.1943	1.3624	
318.15	.05495	.9581	1.35831	
318.15	.0778	.7385	1.35413	
318.15	.10017	.5503	1.35061	
318.15	.12465	.4223	1.34868	
318.15	.15034	.3242	1.34767	
318.15	.17494	.2481	1.34711	
318.15	.1996	.1806	1.34675	
308.15	.02643	.1786	1.33811	
308.15	.02462	.3327	1.3421	
308.15	.02524	.4959	1.3465	
308.15	.02475	.6614	1.35071	
308.15	.02435	.8149	1.35453	
308.15	.02494	.9772	1.35884	
308.15	.05125	.1471	1.33864	
308.15	.05089	.3071	1.34294	
308.15	.05113	.4528	1.34691	
308.15	.05142	.6033	1.35086	
308.15	.05009	.7539	1.35446	
308.15	.07523	.1221	1.33942	
308.15	.07539	.2387	1.34274	
308.15	.07533	.357	1.34576	
308.15	.07166	.4517	1.34797	
308.15	.07549	.6047	1.35223	
308.15	.09975	.1143	1.34083	
308.15	.09923	.2197	1.34365	
308.15	.10053	.3281	1.34652	
308.15	.10033	.4432	1.34962	
308.15	.11893	.0834	1.34124	
308.15	.11859	.1667	1.34344	
308.15	.11887	.2405	1.34546	
308.15	.12549	.3349	1.34821	
308.15	.14991	.0735	1.34294	
308.15	.15173	.1644	1.34544	
308.15	.15014	.2427	1.34731	
308.15	.17534	.0538	1.34404	
308.15	.17588	.1151	1.34563	
308.15	.17523	.1728	1.34715	
308.15	.1997	.062	1.34572	
308.15	.20089	.1226	1.34749	
308.15	.02528	1.1943	1.36418	
308.15	.05495	.9581	1.35992	
308.15	.0778	.7385	1.35577	
308.15	.10017	.5503	1.35235	
308.15	.12465	.4223	1.3505	
308.15	.15034	.3242	1.34959	
308.15	.17494	.2481	1.34921	
308.15	.1996	.1806	1.34889	
298.15	.02643	.1786	1.33928	
298.15	.02462	.3327	1.34352	
298.15	.02524	.4959	1.34791	
298.15	.02475	.6614	1.35214	
298.15	.02435	.8149	1.3561	
298.15	.02494	.9772	1.36023	
298.15	.05125	.1471	1.33996	
298.15	.05089	.3071	1.34448	
298.15	.05113	.4528	1.34827	
298.15	.05142	.6033	1.35228	
298.15	.05009	.7539	1.35607	
298.15	.07523	.1221	1.34095	
298.15	.07539	.2387	1.34412	
298.15	.07533	.357	1.34729	
298.15	.07166	.4517	1.34959	
298.15	.07549	.6047	1.35379	
298.15	.09975	.1143	1.3423	
298.15	.09923	.2197	1.34511	
298.15	.10053	.3281	1.34814	
298.15	.10033	.4432	1.35115	
298.15	.11893	.0834	1.3428	
298.15	.11859	.1667	1.345	
298.15	.11887	.2405	1.34708	
298.15	.12549	.3349	1.3501	
298.15	.14991	.0735	1.34467	
298.15	.15173	.1644	1.34723	
298.15	.15014	.2427	1.34931	
298.15	.17534	.0538	1.34583	
298.15	.17588	.1151	1.34753	
298.15	.17523	.1728	1.3491	
298.15	.1997	.062	1.34784	
298.15	.20089	.1226	1.34958	
298.15	.02528	1.1943	1.36548	
298.15	.05495	.9581	1.36133	
298.15	.0778	.7385	1.35725	
298.15	.10017	.5503	1.35384	
298.15	.12465	.4223	1.35216	
298.15	.15034	.3242	1.35133	
298.15	.17494	.2481	1.35096	
298.15	.1996	.1806	1.35087	
288.15	.02643	.1786	1.34042	
288.15	.02462	.3327	1.34467	
288.15	.02524	.4959	1.34918	
288.15	.02475	.6614	1.3535	
288.15	.02435	.8149	1.35753	
288.15	.02494	.9772	1.36168	
288.15	.05125	.1471	1.34103	
288.15	.05089	.3071	1.34558	
288.15	.05113	.4528	1.34964	
288.15	.05142	.6033	1.35368	
288.15	.05009	.7539	1.35744	
288.15	.07523	.1221	1.34208	
288.15	.07539	.2387	1.3454	
288.15	.07533	.357	1.34852	
288.15	.07166	.4517	1.3509	
288.15	.07549	.6047	1.35513	
288.15	.09975	.1143	1.34362	
288.15	.09923	.2197	1.34649	
288.15	.10053	.3281	1.34945	
288.15	.10033	.4432	1.3527	
288.15	.11893	.0834	1.34417	
288.15	.11859	.1667	1.34644	
288.15	.11887	.2405	1.34849	
288.15	.12549	.3349	1.35149	
288.15	.14991	.0735	1.34609	
288.15	.15173	.1644	1.34875	
288.15	.15014	.2427	1.35081	
288.15	.17534	.0538	1.34744	
288.15	.17588	.1151	1.34918	
288.15	.17523	.1728	1.35068	
288.15	.1997	.062	1.34955	
288.15	.20089	.1226	1.35127	

System: ethanol + sulfuric acid, magnesium salt (1:1) + water; phases: Liquid
Fixed: Pressure, kPa = 101
Property: Refractive index (Na D-line) (Liquid); method: Standard Abbe refractometry
Temperature, K	Solvent: Amount ratio of component to other component of binary solvent of ethanol	Amount concentration (molarity), mol/dm3 of sulfuric acid, magnesium salt (1:1)	Refractive index (Na D-line)	uncertainty
318.15	.02281	.4484	1.34151	
318.15	.02308	.8817	1.35046	
318.15	.02296	1.3241	1.35891	
318.15	.02291	1.7444	1.3666	
318.15	.02273	2.205	1.37418	
318.15	.02366	2.6465	1.38109	
318.15	.02446	3.0584	1.38704	
318.15	.05006	.4512	1.34312	
318.15	.05054	.9085	1.35252	
318.15	.04937	1.3637	1.36101	
318.15	.05248	1.7989	1.36895	
318.15	.04954	2.2893	1.37679	
318.15	.04907	2.7282	1.38351	
318.15	.07604	.4078	1.34364	
318.15	.07726	.7816	1.35145	
318.15	.07563	1.1966	1.35931	
318.15	.07518	1.5715	1.36596	
318.15	.0758	1.9718	1.37294	
318.15	.07599	2.3891	1.37972	
318.15	.10022	.4204	1.34531	
318.15	.10057	.825	1.35352	
318.15	.10009	1.2552	1.36176	
318.15	.10016	1.6685	1.369	
318.15	.10001	2.0738	1.37562	
318.15	.14959	.3377	1.34626	
318.15	.14999	.6766	1.35318	
318.15	.1507	1.0195	1.3598	
318.15	.15064	1.3362	1.36533	
318.15	.14886	1.6953	1.37134	
318.15	.19879	.3291	1.3489	
318.15	.19874	.6396	1.35474	
318.15	.19663	.9716	1.36075	
318.15	.20154	1.3005	1.3666	
318.15	.24851	.2583	1.34962	
318.15	.24727	.5172	1.35459	
318.15	.24701	.7846	1.35928	
318.15	.30004	.1729	1.35014	
318.15	.29776	.3345	1.35308	
318.15	.3023	.5151	1.35632	
318.15	.12711	.4923	1.34823	
318.15	.12441	.9894	1.35782	
318.15	.12494	1.486	1.36686	
318.15	.17347	.3805	1.34865	
318.15	.17436	.7539	1.35591	
318.15	.1738	1.1261	1.36271	
318.15	.2241	.3917	1.35117	
318.15	.22281	.7885	1.35851	
318.15	.27099	.2458	1.35045	
318.15	.27262	.4901	1.35493	
318.15	.32169	.2499	1.35248	
308.15	.02281	.4484	1.34291	
308.15	.02308	.8817	1.35194	
308.15	.02296	1.3241	1.36036	
308.15	.02291	1.7444	1.36782	
308.15	.02273	2.205	1.37547	
308.15	.02366	2.6465	1.38229	
308.15	.02446	3.0584	1.38824	
308.15	.05006	.4512	1.34459	
308.15	.05054	.9085	1.35399	
308.15	.04937	1.3637	1.36244	
308.15	.05248	1.7989	1.37021	
308.15	.04954	2.2893	1.3781	
308.15	.04907	2.7282	1.38468	
308.15	.07604	.4078	1.34525	
308.15	.07726	.7816	1.35298	
308.15	.07563	1.1966	1.36089	
308.15	.07518	1.5715	1.36747	
308.15	.0758	1.9718	1.37431	
308.15	.07599	2.3891	1.38095	
308.15	.10022	.4204	1.34704	
308.15	.10057	.825	1.35525	
308.15	.10009	1.2552	1.36328	
308.15	.10016	1.6685	1.37041	
308.15	.10001	2.0738	1.37721	
308.15	.14959	.3377	1.34841	
308.15	.14999	.6766	1.35515	
308.15	.1507	1.0195	1.36164	
308.15	.15064	1.3362	1.36733	
308.15	.14886	1.6953	1.37311	
308.15	.19879	.3291	1.35102	
308.15	.19874	.6396	1.35705	
308.15	.19663	.9716	1.36304	
308.15	.20154	1.3005	1.36892	
308.15	.24851	.2583	1.35239	
308.15	.24727	.5172	1.35713	
308.15	.24701	.7846	1.36201	
308.15	.30004	.1729	1.3529	
308.15	.29776	.3345	1.35594	
308.15	.3023	.5151	1.35924	
308.15	.12711	.4923	1.35008	
308.15	.12441	.9894	1.35973	
308.15	.12494	1.486	1.36854	
308.15	.17347	.3805	1.35052	
308.15	.17436	.7539	1.35803	
308.15	.1738	1.1261	1.3648	
308.15	.2241	.3917	1.35377	
308.15	.22281	.7885	1.36094	
308.15	.27099	.2458	1.35321	
308.15	.27262	.4901	1.35786	
308.15	.32169	.2499	1.35531	
298.15	.02281	.4484	1.34427	
298.15	.02308	.8817	1.3532	
298.15	.02296	1.3241	1.36169	
298.15	.02291	1.7444	1.36929	
298.15	.02273	2.205	1.37689	
298.15	.02366	2.6465	1.38371	
298.15	.05006	.4512	1.34595	
298.15	.05054	.9085	1.35547	
298.15	.04937	1.3637	1.36391	
298.15	.05248	1.7989	1.37178	
298.15	.04954	2.2893	1.37962	
298.15	.07604	.4078	1.3467	
298.15	.07726	.7816	1.35447	
298.15	.07563	1.1966	1.36236	
298.15	.07518	1.5715	1.36913	
298.15	.0758	1.9718	1.37585	
298.15	.10022	.4204	1.34853	
298.15	.10057	.825	1.35682	
298.15	.10009	1.2552	1.36489	
298.15	.10016	1.6685	1.37202	
298.15	.14959	.3377	1.35015	
298.15	.14999	.6766	1.35702	
298.15	.1507	1.0195	1.3635	
298.15	.15064	1.3362	1.36919	
298.15	.19879	.3291	1.35323	
298.15	.19874	.6396	1.35929	
298.15	.19663	.9716	1.36502	
298.15	.24851	.2583	1.35481	
298.15	.24727	.5172	1.35966	
298.15	.30004	.1729	1.35592	
298.15	.29776	.3345	1.35868	
298.15	.12711	.4923	1.3519	
298.15	.12441	.9894	1.36144	
298.15	.12494	1.486	1.37041	
298.15	.17347	.3805	1.35254	
298.15	.17436	.7539	1.36006	
298.15	.1738	1.1261	1.36678	
298.15	.2241	.3917	1.35598	
298.15	.22281	.7885	1.36312	
298.15	.27099	.2458	1.35586	
298.15	.27262	.4901	1.36046	
298.15	.32169	.2499	1.35831	
288.15	.02281	.4484	1.34528	
288.15	.02308	.8817	1.3544	
288.15	.02296	1.3241	1.36311	
288.15	.02291	1.7444	1.37055	
288.15	.02273	2.205	1.37825	
288.15	.05006	.4512	1.3471	
288.15	.05054	.9085	1.35658	
288.15	.04937	1.3637	1.36528	
288.15	.05248	1.7989	1.37315	
288.15	.04954	2.2893	1.3811	
288.15	.07604	.4078	1.34771	
288.15	.07726	.7816	1.35578	
288.15	.07563	1.1966	1.36363	
288.15	.07518	1.5715	1.37049	
288.15	.0758	1.9718	1.37747	
288.15	.10022	.4204	1.3499	
288.15	.10057	.825	1.3583	
288.15	.10009	1.2552	1.3663	
288.15	.10016	1.6685	1.37369	
288.15	.14959	.3377	1.35167	
288.15	.14999	.6766	1.35865	
288.15	.1507	1.0195	1.36517	
288.15	.15064	1.3362	1.37096	
288.15	.19879	.3291	1.35507	
288.15	.19874	.6396	1.36132	
288.15	.19663	.9716	1.36726	
288.15	.24851	.2583	1.35686	
288.15	.24727	.5172	1.36187	
288.15	.30004	.1729	1.35845	
288.15	.29776	.3345	1.36138	
288.15	.12711	.4923	1.35319	
288.15	.12441	.9894	1.36291	
288.15	.12494	1.486	1.37188	
288.15	.17347	.3805	1.35431	
288.15	.17436	.7539	1.36187	
288.15	.1738	1.1261	1.36863	
288.15	.2241	.3917	1.35802	
288.15	.22281	.7885	1.36543	
288.15	.27099	.2458	1.35812	
288.15	.27262	.4901	1.36276	
288.15	.32169	.2499	1.36096	

System: ethanol + water + lithium sulfate; phases: Liquid
Fixed: Pressure, kPa = 101
Property: Refractive index (Na D-line) (Liquid); method: Standard Abbe refractometry
Temperature, K	Solvent: Amount ratio of component to other component of binary solvent of ethanol	Amount concentration (molarity), mol/dm3 of lithium sulfate	Refractive index (Na D-line)	uncertainty
318.15	.05347	1.1046	1.35138	
318.15	.0475	.2962	1.33803	
318.15	.05298	.5924	1.34343	
318.15	.05167	.8736	1.34773	
318.15	.0583	1.4548	1.3567	
318.15	.05346	1.7394	1.36005	
318.15	.05339	2.0475	1.36394	
318.15	.04698	2.3969	1.36781	
318.15	.10323	.2773	1.34104	
318.15	.09911	.5374	1.34516	
318.15	.09865	.8088	1.34937	
318.15	.09859	1.0729	1.35345	
318.15	.09778	1.3449	1.35703	
318.15	.10139	1.6297	1.36105	
318.15	.10225	1.897	1.36448	
318.15	.15091	.2481	1.34336	
318.15	.1511	.5034	1.34738	
318.15	.14914	.7484	1.35108	
318.15	.14764	1.0063	1.35497	
318.15	.14861	1.265	1.35836	
318.15	.14843	1.4959	1.36142	
318.15	.20371	.2063	1.34538	
318.15	.20368	.4516	1.34936	
318.15	.19783	.6776	1.35259	
318.15	.20336	.8948	1.35571	
318.15	.19916	1.128	1.35889	
318.15	.25263	.2196	1.34791	
318.15	.25549	.4298	1.35137	
318.15	.25274	.6441	1.35445	
318.15	.25341	.8669	1.35743	
318.15	.35031	.156	1.35079	
318.15	.35391	.3099	1.35316	
318.15	.35279	.4625	1.35535	
318.15	.30369	.1647	1.34942	
318.15	.30705	.3356	1.35209	
318.15	.3055	.5007	1.35423	
318.15	.30787	.6721	1.35679	
318.15	.40406	.1136	1.35196	
318.15	.40205	.2189	1.35345	
318.15	.40405	.3394	1.35504	
318.15	.50173	.0726	1.35352	
318.15	.50578	.1693	1.35507	
318.15	.05096	2.5582	1.36964	
318.15	.15392	1.649	1.3636	
318.15	.2049	1.31	1.36143	
318.15	.25171	1.0193	1.35932	
318.15	.30155	.7852	1.35812	
318.15	.34819	.594	1.35703	
318.15	.40409	.4036	1.35587	
318.15	.45439	.1045	1.35314	
318.15	.45485	.2434	1.35505	
308.15	.05347	1.1046	1.3527	
308.15	.0475	.2962	1.33967	
308.15	.05298	.5924	1.34489	
308.15	.05167	.8736	1.34925	
308.15	.0583	1.4548	1.35794	
308.15	.05346	1.7394	1.36152	
308.15	.05339	2.0475	1.3653	
308.15	.04698	2.3969	1.36893	
308.15	.10323	.2773	1.34281	
308.15	.09911	.5374	1.34686	
308.15	.09865	.8088	1.3511	
308.15	.09859	1.0729	1.35478	
308.15	.09778	1.3449	1.35868	
308.15	.10139	1.6297	1.36262	
308.15	.10225	1.897	1.36612	
308.15	.15091	.2481	1.34534	
308.15	.1511	.5034	1.3495	
308.15	.14914	.7484	1.353	
308.15	.14764	1.0063	1.35657	
308.15	.14861	1.265	1.36018	
308.15	.14843	1.4959	1.36316	
308.15	.20371	.2063	1.34788	
308.15	.20368	.4516	1.35169	
308.15	.19783	.6776	1.35458	
308.15	.20336	.8948	1.35784	
308.15	.19916	1.128	1.36088	
308.15	.25263	.2196	1.35063	
308.15	.25549	.4298	1.3538	
308.15	.25274	.6441	1.35681	
308.15	.25341	.8669	1.35976	
308.15	.35031	.156	1.35385	
308.15	.35391	.3099	1.35629	
308.15	.35279	.4625	1.35827	
308.15	.30369	.1647	1.35206	
308.15	.30705	.3356	1.35491	
308.15	.3055	.5007	1.35696	
308.15	.30787	.6721	1.35919	
308.15	.40406	.1136	1.35504	
308.15	.40205	.2189	1.35661	
308.15	.40405	.3394	1.35802	
308.15	.50173	.0726	1.35696	
308.15	.50578	.1693	1.35825	
308.15	.05096	2.5582	1.37092	
308.15	.15392	1.649	1.3654	
308.15	.2049	1.31	1.36353	
308.15	.25171	1.0193	1.36157	
308.15	.30155	.7852	1.36041	
308.15	.34819	.594	1.35967	
308.15	.40409	.4036	1.35891	
308.15	.45439	.1045	1.35642	
308.15	.45485	.2434	1.35805	
298.15	.05347	1.1046	1.35411	
298.15	.0475	.2962	1.34088	
298.15	.05298	.5924	1.34623	
298.15	.05167	.8736	1.35056	
298.15	.0583	1.4548	1.35935	
298.15	.05346	1.7394	1.36281	
298.15	.05339	2.0475	1.36659	
298.15	.04698	2.3969	1.37031	
298.15	.10323	.2773	1.34431	
298.15	.09911	.5374	1.34838	
298.15	.09865	.8088	1.35253	
298.15	.09859	1.0729	1.35655	
298.15	.09778	1.3449	1.36033	
298.15	.10139	1.6297	1.36418	
298.15	.10225	1.897	1.36756	
298.15	.15091	.2481	1.34705	
298.15	.1511	.5034	1.35129	
298.15	.14914	.7484	1.35497	
298.15	.14764	1.0063	1.3585	
298.15	.14861	1.265	1.36203	
298.15	.14843	1.4959	1.36512	
298.15	.20371	.2063	1.34993	
298.15	.20368	.4516	1.35365	
298.15	.19783	.6776	1.35686	
298.15	.20336	.8948	1.35999	
298.15	.19916	1.128	1.36304	
298.15	.25263	.2196	1.3531	
298.15	.25549	.4298	1.35643	
298.15	.25274	.6441	1.35907	
298.15	.25341	.8669	1.36201	
298.15	.35031	.156	1.35676	
298.15	.35391	.3099	1.35907	
298.15	.35279	.4625	1.36113	
298.15	.30369	.1647	1.35494	
298.15	.30705	.3356	1.35742	
298.15	.3055	.5007	1.35981	
298.15	.30787	.6721	1.36199	
298.15	.40406	.1136	1.35841	
298.15	.40205	.2189	1.35979	
298.15	.40405	.3394	1.36119	
298.15	.50173	.0726	1.36061	
298.15	.50578	.1693	1.36182	
298.15	.05096	2.5582	1.37226	
298.15	.15392	1.649	1.36732	
298.15	.2049	1.31	1.36551	
298.15	.25171	1.0193	1.36378	
298.15	.30155	.7852	1.36285	
298.15	.34819	.594	1.36238	
298.15	.40409	.4036	1.36195	
298.15	.45439	.1045	1.35966	
298.15	.45485	.2434	1.3614	
288.15	.05347	1.1046	1.3554	
288.15	.0475	.2962	1.34195	
288.15	.05298	.5924	1.3474	
288.15	.05167	.8736	1.35175	
288.15	.0583	1.4548	1.36061	
288.15	.05346	1.7394	1.36406	
288.15	.05339	2.0475	1.36793	
288.15	.04698	2.3969	1.3716	
288.15	.10323	.2773	1.3456	
288.15	.09911	.5374	1.34966	
288.15	.09865	.8088	1.35393	
288.15	.09859	1.0729	1.35787	
288.15	.09778	1.3449	1.36165	
288.15	.10139	1.6297	1.36563	
288.15	.10225	1.897	1.36901	
288.15	.15091	.2481	1.34867	
288.15	.1511	.5034	1.35286	
288.15	.14914	.7484	1.35662	
288.15	.14764	1.0063	1.36006	
288.15	.14861	1.265	1.36383	
288.15	.14843	1.4959	1.36676	
288.15	.20371	.2063	1.35184	
288.15	.20368	.4516	1.35567	
288.15	.19783	.6776	1.35861	
288.15	.20336	.8948	1.36217	
288.15	.19916	1.128	1.365	
288.15	.25263	.2196	1.35535	
288.15	.25549	.4298	1.35878	
288.15	.25274	.6441	1.36162	
288.15	.25341	.8669	1.36424	
288.15	.35031	.156	1.35981	
288.15	.35391	.3099	1.36199	
288.15	.35279	.4625	1.36387	
288.15	.30369	.1647	1.35752	
288.15	.30705	.3356	1.36026	
288.15	.3055	.5007	1.36215	
288.15	.30787	.6721	1.36435	
288.15	.40406	.1136	1.36142	
288.15	.40205	.2189	1.36275	
288.15	.40405	.3394	1.36406	
288.15	.50173	.0726	1.36397	
288.15	.50578	.1693	1.36511	
288.15	.05096	2.5582	1.37368	
288.15	.15392	1.649	1.36892	
288.15	.2049	1.31	1.36739	
288.15	.25171	1.0193	1.36601	
288.15	.30155	.7852	1.36553	
288.15	.34819	.594	1.36499	
288.15	.40409	.4036	1.36479	
288.15	.45439	.1045	1.363	
288.15	.45485	.2434	1.36451	
