Measured thermophysical data. Isothermal Vapor-Liquid Equilibrium Data of 1,1,1,2-Tetrafluoroethane (R134a) + Dimethylformamide (DMF) Working Fluids for an Absorption Heat Transformer
Source: J. Chem. Eng. Data, 2010, 10.1021/je900440t
Compound 1: N,N-dimethylformamide, C3H7NO
Compound 2: ethane, 1,1,1,2-tetrafluoro-, C2H2F4

System: ethane, 1,1,1,2-tetrafluoro-; phases: Liquid, Gas
Property: Vapor or sublimation pressure, kPa (Liquid); method: Closed cell (Static) method
Temperature, K	Vapor or sublimation pressure, kPa	uncertainty
298.44	669.6	2
303.45	775.7	2
308.44	892.2	2
313.3	1018.8	2
318.39	1165.4	2
323.3	1319	2
328.26	1492.4	2
333.3	1683.7	2
338.24	1889.6	2
343.23	2115.3	2
348.22	2352.5	2
353.1	2605.9	2

System: N,N-dimethylformamide + ethane, 1,1,1,2-tetrafluoro-; phases: Liquid, Gas
Property: Vapor or sublimation pressure, kPa (Liquid); method: Closed cell (Static) method
Temperature, K	Mole fraction of ethane, 1,1,1,2-tetrafluoro-	Vapor or sublimation pressure, kPa	uncertainty
303.3	.205	152.5	2
303.3	.3185	233.9	2
303.3	.3715	280.6	2
303.3	.4437	337	2
303.3	.4872	355.5	2
303.3	.5809	429.4	2
303.3	.6203	468.1	2
303.3	.6414	489.2	2
303.3	.7361	545.1	2
303.3	.7816	583.4	2
303.3	.7913	592.9	2
303.3	.8518	654.6	2
303.3	.8686	670.5	2
313.18	.295	288.6	2
313.18	.3185	315.8	2
313.18	.4173	404.7	2
313.18	.5132	491.1	2
313.18	.6025	583.9	2
313.18	.6597	638.6	2
313.18	.7557	744.1	2
313.18	.8141	801.1	2
313.18	.9064	911.5	2
323.34	.2834	364.2	2
323.34	.3846	485.1	2
323.34	.4254	541.4	2
323.34	.5302	662.8	2
323.34	.5689	714.5	2
323.34	.6624	835	2
323.34	.7247	923.8	2
323.34	.823	1056.4	2
323.34	.8421	1083.1	2
323.34	.8668	1120.8	2
323.34	.8875	1153.7	2
338.26	.3833	698.4	2
338.26	.4415	815.4	2
338.26	.5051	913.7	2
338.26	.6015	1073.6	2
338.26	.6149	1104.4	2
338.26	.7182	1298.5	2
338.26	.7864	1426.2	2
338.26	.8747	1614.7	2
338.26	.8982	1669.8	2
353.24	.3545	851.3	2
353.24	.4421	1080.8	2
353.24	.5238	1292.4	2
353.24	.5724	1423.6	2
353.24	.6091	1525.7	2
353.24	.6383	1593.9	2
353.24	.6594	1665.2	2
353.24	.7263	1835.8	2
353.24	.7922	1989.4	2
353.24	.7968	2012.1	2
353.24	.833	2102	2
353.24	.9289	2398.7	2
