Measured thermophysical data. Measurement and Correlation of Bubble Point Pressure in (CO2 + C6H6), (CO2 + CH3C6H5), (CO2 + C6H14), and (CO2 + C7H16) at Temperatures from (293.15 to 313.15) K
Source: J. Chem. Eng. Data, 2010, 10.1021/je900312z
Compound 1: benzene, C6H6
Compound 2: toluene, C7H8
Compound 3: hexane, C6H14
Compound 4: heptane, C7H16
Compound 5: carbon dioxide, CO2

System: benzene + carbon dioxide; phases: Liquid, Gas
Property: Vapor or sublimation pressure, kPa (Liquid); method: Closed cell (Static) method
Mole fraction of carbon dioxide	Temperature, K	Vapor or sublimation pressure, kPa	uncertainty
.51	293.15	3430	50
.602	293.15	3890	50
.71	293.15	4310	50
.803	293.15	4610	50
.908	293.15	4980	50
.51	298.15	3830	50
.602	298.15	4290	50
.71	298.15	4840	50
.803	298.15	5140	50
.908	298.15	5620	50
.51	303.15	4240	50
.602	303.15	4780	50
.71	303.15	5240	50
.803	303.15	5590	50
.908	303.15	6150	50
.51	308.15	4560	50
.602	308.15	5210	50
.71	308.15	5730	50
.803	308.15	6210	50
.908	308.15	6810	50
.51	313.15	4880	50
.602	313.15	5580	50
.71	313.15	6280	50
.803	313.15	6820	50
.908	313.15	7420	50

System: toluene + carbon dioxide; phases: Liquid, Gas
Property: Vapor or sublimation pressure, kPa (Liquid); method: Closed cell (Static) method
Mole fraction of carbon dioxide	Temperature, K	Vapor or sublimation pressure, kPa	uncertainty
.502	293.15	3680	50
.601	293.15	4060	50
.707	293.15	4420	50
.808	293.15	4810	50
.903	293.15	4930	50
.502	298.15	3800	50
.601	298.15	4530	50
.707	298.15	5030	50
.808	298.15	5300	50
.903	298.15	5580	50
.502	303.15	4210	50
.601	303.15	4880	50
.707	303.15	5460	50
.808	303.15	5950	50
.903	303.15	6290	50
.502	308.15	4500	50
.601	308.15	5400	50
.707	308.15	6010	50
.808	308.15	6390	50
.903	308.15	6910	50
.502	313.15	4920	50
.601	313.15	5820	50
.707	313.15	6510	50
.808	313.15	7050	50
.903	313.15	7490	50

System: hexane + carbon dioxide; phases: Liquid, Gas
Property: Vapor or sublimation pressure, kPa (Liquid); method: Closed cell (Static) method
Mole fraction of carbon dioxide	Temperature, K	Vapor or sublimation pressure, kPa	uncertainty
.503	293.15	3280	50
.61	293.15	3840	50
.708	293.15	4240	50
.81	293.15	4610	50
.91	293.15	5070	50
.503	298.15	3510	50
.61	298.15	4150	50
.708	298.15	4650	50
.81	298.15	5070	50
.91	298.15	5550	50
.503	303.15	3830	50
.61	303.15	4590	50
.708	303.15	5080	50
.81	303.15	5580	50
.91	303.15	6150	50
.503	308.15	4060	50
.61	308.15	4860	50
.708	308.15	5510	50
.81	308.15	6020	50
.91	308.15	6650	50
.503	313.15	4350	50
.61	313.15	5210	50
.708	313.15	5890	50
.81	313.15	6450	50
.91	313.15	7310	50

System: carbon dioxide + heptane; phases: Liquid, Gas
Property: Vapor or sublimation pressure, kPa (Liquid); method: Closed cell (Static) method
Mole fraction of carbon dioxide	Temperature, K	Vapor or sublimation pressure, kPa	uncertainty
.503	293.15	3480	50
.605	293.15	4120	50
.707	293.15	4530	50
.802	293.15	4810	50
.904	293.15	5090	50
.503	298.15	3790	50
.605	298.15	4420	50
.707	298.15	4920	50
.802	298.15	5280	50
.904	298.15	5610	50
.503	303.15	4110	50
.605	303.15	4760	50
.707	303.15	5410	50
.802	303.15	5780	50
.904	303.15	6140	50
.503	308.15	4320	50
.605	308.15	5180	50
.707	308.15	5820	50
.802	308.15	6310	50
.904	308.15	6780	50
.503	313.15	4570	50
.605	313.15	5430	50
.707	313.15	6290	50
.802	313.15	6910	50
.904	313.15	7410	50
