Measured thermophysical data. Volumetric and Viscous Properties at Several Temperatures for Binary Mixtures of N-Methylpiperazine with Methylcyclohexane or n-Heptane
Source: J. Chem. Eng. Data, 2010, 10.1021/je900969u
Compound 1: N-methylpiperazine, C5H12N2, purity 99.8%
Compound 2: methylcyclohexane, C7H14, purity 98%
Compound 3: heptane, C7H16, purity 99%

System: N-methylpiperazine; phases: Liquid
Property: Mass density, kg/m3 (Liquid); method: Vibrating tube method
Temperature, K	Pressure, kPa	Mass density, kg/m3	uncertainty
298.15	101	899.28	.005
303.15	101	894.9	.005
313.15	101	886.07	.005

System: N-methylpiperazine; phases: Liquid
Property: Viscosity, Pa*s (Liquid); method: Capillary tube (Ostwald; Ubbelohde) method
Temperature, K	Pressure, kPa	Viscosity, Pa*s	uncertainty
298.15	101	.001856	.000002
303.15	101	.001544	.000002
313.15	101	.00125	.000002

System: methylcyclohexane; phases: Liquid
Property: Mass density, kg/m3 (Liquid); method: Vibrating tube method
Temperature, K	Pressure, kPa	Mass density, kg/m3	uncertainty
298.15	101	765	.005
303.15	101	760.67	.005
313.15	101	751.94	.005

System: methylcyclohexane; phases: Liquid
Property: Viscosity, Pa*s (Liquid); method: Capillary tube (Ostwald; Ubbelohde) method
Temperature, K	Pressure, kPa	Viscosity, Pa*s	uncertainty
298.15	101	.000719	.000002
303.15	101	.000655	.000002
313.15	101	.000573	.000002

System: heptane; phases: Liquid
Property: Mass density, kg/m3 (Liquid); method: Vibrating tube method
Temperature, K	Pressure, kPa	Mass density, kg/m3	uncertainty
298.15	101	679.72	.005
303.15	101	675.46	.005
313.15	101	666.84	.005

System: heptane; phases: Liquid
Property: Viscosity, Pa*s (Liquid); method: Capillary tube (Ostwald; Ubbelohde) method
Temperature, K	Pressure, kPa	Viscosity, Pa*s	uncertainty
298.15	101	.000404	.000002
303.15	101	.000383	.000002
313.15	101	.000342	.000002

System: methylcyclohexane + N-methylpiperazine; phases: Liquid
Fixed: Pressure, kPa = 101
Property: Mass density, kg/m3 (Liquid); method: Vibrating tube method
Temperature, K	Mole fraction of N-methylpiperazine	Mass density, kg/m3	uncertainty
298.15	0	765	.005
298.15	.0988	775.01	.005
298.15	.1972	785.84	.005
298.15	.297	797.52	.005
298.15	.3964	811.57	.005
298.15	.4953	822.93	.005
298.15	.5948	836.59	.005
298.15	.6952	850.68	.005
298.15	.7969	865.9	.005
298.15	.8977	881.36	.005
298.15	1	899.28	.005
303.15	0	760.67	.005
303.15	.0988	770.65	.005
303.15	.1972	781.44	.005
303.15	.297	793.12	.005
303.15	.3964	805.63	.005
303.15	.4953	818.51	.005
303.15	.5948	832.17	.005
303.15	.6952	846.26	.005
303.15	.7969	861.49	.005
303.15	.8977	876.96	.005
303.15	1	894.9	.005
313.15	0	751.94	.005
313.15	.0988	761.89	.005
313.15	.1972	772.64	.005
313.15	.297	784.26	.005
313.15	.3964	796.74	.005
313.15	.4953	809.59	.005
313.15	.5948	823.26	.005
313.15	.6952	837.34	.005
313.15	.7969	852.58	.005
313.15	.8977	868.08	.005
313.15	1	886.07	.005

System: methylcyclohexane + N-methylpiperazine; phases: Liquid
Fixed: Pressure, kPa = 101
Property: Viscosity, Pa*s (Liquid); method: Capillary tube (Ostwald; Ubbelohde) method
Temperature, K	Mole fraction of N-methylpiperazine	Viscosity, Pa*s	uncertainty
298.15	0	.000719	.000002
298.15	.0988	.000716	.000002
298.15	.1972	.000751	.000002
298.15	.297	.000801	.000002
298.15	.3964	.000867	.000002
298.15	.4953	.000945	.000002
298.15	.5948	.001057	.000002
298.15	.6952	.00119	.000002
298.15	.7969	.001362	.000002
298.15	.8977	.001585	.000002
298.15	1	.001856	.000002
303.15	0	.000655	.000002
303.15	.0988	.000676	.000002
303.15	.1972	.000698	.000002
303.15	.297	.00073	.000002
303.15	.3964	.000776	.000002
303.15	.4953	.00084	.000002
303.15	.5948	.000918	.000002
303.15	.6952	.001022	.000002
303.15	.7969	.001164	.000002
303.15	.8977	.001326	.000002
303.15	1	.001544	.000002
313.15	0	.000573	.000002
313.15	.0988	.000582	.000002
313.15	.1972	.000604	.000002
313.15	.297	.000634	.000002
313.15	.3964	.000674	.000002
313.15	.4953	.000725	.000002
313.15	.5948	.000791	.000002
313.15	.6952	.000868	.000002
313.15	.7969	.00097	.000002
313.15	.8977	.001087	.000002
313.15	1	.00125	.000002

System: N-methylpiperazine + heptane; phases: Liquid
Fixed: Pressure, kPa = 101
Property: Mass density, kg/m3 (Liquid); method: Vibrating tube method
Temperature, K	Mole fraction of N-methylpiperazine	Mass density, kg/m3	uncertainty
298.15	0	679.72	.005
298.15	.1006	695.86	.005
298.15	.2012	713.24	.005
298.15	.3006	731.62	.005
298.15	.4014	751.5	.005
298.15	.5007	772.43	.005
298.15	.5996	794.38	.005
298.15	.7	818.02	.005
298.15	.7979	842.73	.005
298.15	.9036	871.01	.005
298.15	1	899.28	.005
303.15	0	675.46	.005
303.15	.1006	691.57	.005
303.15	.2012	708.91	.005
303.15	.3006	727.27	.005
303.15	.4014	747.13	.005
303.15	.5007	768.04	.005
303.15	.5996	789.99	.005
303.15	.7	813.61	.005
303.15	.7979	838.32	.005
303.15	.9036	866.62	.005
303.15	1	894.9	.005
313.15	0	666.84	.005
313.15	.1006	682.9	.005
313.15	.2012	700.2	.005
313.15	.3006	718.49	.005
313.15	.4014	738.3	.005
313.15	.5007	759.18	.005
313.15	.5996	781.1	.005
313.15	.7	804.71	.005
313.15	.7979	829.43	.005
313.15	.9036	857.75	.005
313.15	1	886.07	.005

System: N-methylpiperazine + heptane; phases: Liquid
Fixed: Pressure, kPa = 101
Property: Viscosity, Pa*s (Liquid); method: Capillary tube (Ostwald; Ubbelohde) method
Temperature, K	Mole fraction of N-methylpiperazine	Viscosity, Pa*s	uncertainty
298.15	0	.000404	.000002
298.15	.1006	.000429	.000002
298.15	.2012	.000466	.000002
298.15	.3006	.000511	.000002
298.15	.4014	.000571	.000002
298.15	.5007	.000648	.000002
298.15	.5996	.000756	.000002
298.15	.7	.000905	.000002
298.15	.7979	.001094	.000002
298.15	.9036	.001474	.000002
298.15	1	.001856	.000002
303.15	0	.000383	.000002
303.15	.1006	.000395	.000002
303.15	.2012	.000438	.000002
303.15	.3006	.000481	.000002
303.15	.4014	.000533	.000002
303.15	.5007	.000599	.000002
303.15	.5996	.000699	.000002
303.15	.7	.000815	.000002
303.15	.7979	.000995	.000002
303.15	.9036	.001234	.000002
303.15	1	.001544	.000002
313.15	0	.000342	.000002
313.15	.1006	.00036	.000002
313.15	.2012	.000389	.000002
313.15	.3006	.000424	.000002
313.15	.4014	.000467	.000002
313.15	.5007	.000527	.000002
313.15	.5996	.000603	.000002
313.15	.7	.000691	.000002
313.15	.7979	.000826	.000002
313.15	.9036	.001024	.000002
313.15	1	.00125	.000002
