Measured thermophysical data. Liquid-Liquid Equilibria for Water + Benzonitrile + N-Methylacetamide, or + N,N-Dimethylacetamide
Source: J. Chem. Eng. Data, 2010, 10.1021/je9007074
Compound 1: water, H2O, purity 99.9%
Compound 2: benzonitrile, C7H5N
Compound 3: N-methylacetamide, C3H7NO
Compound 4: N,N-dimethylacetamide, C4H9NO

System: N-methylacetamide + benzonitrile + water; phases: Liquid mixture 2, Liquid mixture 1
Fixed: Pressure, kPa = 101
Property: Mole fraction of water (Liquid mixture 2); method: Chromatography
Property: Mole fraction of benzonitrile (Liquid mixture 1); method: Chromatography
Property: Mole fraction of water (Liquid mixture 1); method: Chromatography
Temperature, K	Mole fraction of benzonitrile	Mole fraction of water	uncertainty	Mole fraction of benzonitrile	uncertainty	Mole fraction of water	uncertainty
288.15	.9754	.0136	.0001	.0033	.0001	.8818	.0001
288.15	.9534	.0156	.0001	.006	.0001	.8002	.0001
288.15	.9337	.0171	.0001	.0108	.0001	.7332	.0001
288.15	.9083	.0193	.0001	.0202	.0001	.655	.0001
288.15	.8852	.0199	.0001	.0322	.0001	.5996	.0001
288.15	.8591	.0215	.0001	.0435	.0001	.5444	.0001
288.15	.8323	.0231	.0001	.0562	.0001	.5006	.0001
288.15	.8	.025	.0001	.0849	.0001	.44	.0001
288.15	.7534	.0321	.0001	.1181	.0001	.386	.0001
288.15	.7152	.0427	.0001	.2669	.0001	.2227	.0001
288.15	.6021	.0681	.0001	.6021	.0001	.0681	.0001
298.15	.9498	.0351	.0001	.0061	.0001	.8836	.0001
298.15	.9285	.0375	.0001	.009	.0001	.7988	.0001
298.15	.9094	.0386	.0001	.013	.0001	.7389	.0001
298.15	.8836	.0399	.0001	.0225	.0001	.6658	.0001
298.15	.8535	.046	.0001	.0353	.0001	.6083	.0001
298.15	.8166	.0485	.0001	.0507	.0001	.546	.0001
298.15	.7927	.0513	.0001	.0652	.0001	.505	.0001
298.15	.7593	.0555	.0001	.1002	.0001	.4409	.0001
298.15	.7084	.0621	.0001	.1401	.0001	.3793	.0001
298.15	.6632	.0698	.0001	.1852	.0001	.3224	.0001
298.15	.5495	.1003	.0001	.5495	.0001	.1003	.0001
308.15	.9174	.0597	.0001	.0079	.0001	.8824	.0001
308.15	.8979	.0625	.0001	.0111	.0001	.809	.0001
308.15	.8763	.0663	.0001	.0156	.0001	.7489	.0001
308.15	.8503	.065	.0001	.0243	.0001	.6845	.0001
308.15	.8175	.0665	.0001	.0384	.0001	.6127	.0001
308.15	.7885	.0685	.0001	.0547	.0001	.5613	.0001
308.15	.7586	.0701	.0001	.0709	.0001	.516	.0001
308.15	.7242	.0752	.0001	.1041	.0001	.4532	.0001
308.15	.6783	.0819	.0001	.1421	.0001	.3948	.0001
308.15	.6055	.0955	.0001	.1996	.0001	.3274	.0001
308.15	.5079	.1291	.0001	.5079	.0001	.1281	.0001
318.15	.8738	.0975	.0001	.0087	.0001	.8998	.0001
318.15	.8512	.0978	.0001	.0122	.0001	.832	.0001
318.15	.8275	.0973	.0001	.0175	.0001	.7695	.0001
318.15	.7934	.0975	.0001	.027	.0001	.6988	.0001
318.15	.7565	.0984	.0001	.0401	.0001	.6396	.0001
318.15	.7198	.0979	.0001	.0608	.0001	.5753	.0001
318.15	.7004	.0991	.0001	.0771	.0001	.5396	.0001
318.15	.6668	.102	.0001	.0975	.0001	.4974	.0001
318.15	.6152	.1109	.0001	.1356	.0001	.4368	.0001
318.15	.555	.125	.0001	.1948	.0001	.3509	.0001
318.15	.455	.1641	.0001	.455	.0001	.1641	.0001
328.15	.8638	.1066	.0001	.0092	.0001	.9247	.0001
328.15	.8318	.107	.0001	.014	.0001	.853	.0001
328.15	.7912	.1088	.0001	.0205	.0001	.7794	.0001
328.15	.75	.1097	.0001	.0302	.0001	.7084	.0001
328.15	.714	.1108	.0001	.0426	.0001	.6569	.0001
328.15	.6796	.1121	.0001	.0648	.0001	.5947	.0001
328.15	.6512	.1139	.0001	.0784	.0001	.5606	.0001
328.15	.6018	.1235	.0001	.1006	.0001	.5058	.0001
328.15	.5738	.1274	.0001	.1456	.0001	.438	.0001
328.15	.5112	.1491	.0001	.2199	.0001	.338	.0001
328.15	.4192	.1922	.0001	.4182	.0001	.1922	.0001

System: benzonitrile + N,N-dimethylacetamide + water; phases: Liquid mixture 1, Liquid mixture 2
Fixed: Pressure, kPa = 101
Property: Mole fraction of benzonitrile (Liquid mixture 1); method: Chromatography
Property: Mole fraction of water (Liquid mixture 2); method: Chromatography
Property: Mole fraction of benzonitrile (Liquid mixture 2); method: Chromatography
Temperature, K	Mole fraction of water	Mole fraction of benzonitrile	uncertainty	Mole fraction of water	uncertainty	Mole fraction of benzonitrile	uncertainty
288.15	.9566	.0041	.0001	.0268	.0001	.9336	.0001
288.15	.917	.0065	.0001	.0371	.0001	.8753	.0001
288.15	.8709	.0118	.0001	.0521	.0001	.804	.0001
288.15	.8434	.0143	.0001	.0689	.0001	.7486	.0001
288.15	.8023	.0215	.0001	.0805	.0001	.6962	.0001
288.15	.7792	.0251	.0001	.1006	.0001	.6502	.0001
288.15	.7487	.0312	.0001	.1236	.0001	.5964	.0001
288.15	.7233	.0366	.0001	.1426	.0001	.5569	.0001
288.15	.6916	.0427	.0001	.1737	.0001	.4955	.0001
288.15	.623	.075	.0001	.302	.0001	.329	.0001
288.15	.4897	.1401	.0001	.4897	.0001	.1401	.0001
298.15	.9583	.0055	.0001	.0495	.0001	.9075	.0001
298.15	.9158	.0092	.0001	.0652	.0001	.8383	.0001
298.15	.8895	.0123	.0001	.0795	.0001	.7892	.0001
298.15	.8477	.0172	.0001	.0901	.0001	.7217	.0001
298.15	.8196	.0215	.0001	.1006	.0001	.68	.0001
298.15	.7982	.0263	.0001	.1162	.0001	.6424	.0001
298.15	.7681	.0323	.0001	.1373	.0001	.5913	.0001
298.15	.7226	.0454	.0001	.1924	.0001	.4955	.0001
298.15	.6988	.0508	.0001	.2125	.0001	.4577	.0001
298.15	.663	.0649	.0001	.2711	.0001	.3817	.0001
298.15	.527	.1349	.0001	.527	.0001	.1349	.0001
308.15	.9576	.0073	.0001	.0799	.0001	.8711	.0001
308.15	.9289	.0099	.0001	.0875	.0001	.8227	.0001
308.15	.9012	.0128	.0001	.0968	.0001	.7711	.0001
308.15	.8862	.0154	.0001	.1049	.0001	.7426	.0001
308.15	.854	.0199	.0001	.1152	.0001	.6864	.0001
308.15	.8018	.0318	.0001	.1524	.0001	.5877	.0001
308.15	.7685	.0411	.0001	.1948	.0001	.5151	.0001
308.15	.7372	.052	.0001	.2306	.0001	.4592	.0001
308.15	.7177	.0564	.0001	.2601	.0001	.4107	.0001
308.15	.6898	.0651	.0001	.3356	.0001	.3219	.0001
308.15	.5599	.1303	.0001	.5599	.0001	.1303	.0001
318.15	.9605	.0097	.0001	.1006	.0001	.8495	.0001
318.15	.9396	.0125	.0001	.1007	.0001	.8161	.0001
318.15	.9157	.0149	.0001	.112	.0001	.7669	.0001
318.15	.8966	.0181	.0001	.1211	.0001	.7278	.0001
318.15	.8826	.0204	.0001	.125	.0001	.703	.0001
318.15	.8595	.0251	.0001	.1448	.0001	.6497	.0001
318.15	.835	.0294	.0001	.1752	.0001	.5775	.0001
318.15	.8001	.0377	.0001	.2007	.0001	.5242	.0001
318.15	.7513	.0522	.0001	.265	.0001	.423	.0001
318.15	.7076	.0675	.0001	.3249	.0001	.3401	.0001
318.15	.6008	.1187	.0001	.6008	.0001	.1187	.0001
328.15	.9637	.0102	.0001	.1176	.0001	.8323	.0001
328.15	.9492	.0128	.0001	.1221	.0001	.7981	.0001
328.15	.9264	.0165	.0001	.1322	.0001	.7463	.0001
328.15	.9041	.0205	.0001	.1479	.0001	.6872	.0001
328.15	.8765	.0248	.0001	.1641	.0001	.6327	.0001
328.15	.8555	.0282	.0001	.1848	.0001	.5815	.0001
328.15	.83	.0351	.0001	.2181	.0001	.5181	.0001
328.15	.8067	.0401	.0001	.2478	.0001	.4647	.0001
328.15	.7787	.0502	.0001	.2816	.0001	.413	.0001
328.15	.7474	.0598	.0001	.3429	.0001	.3324	.0001
328.15	.6354	.1152	.0001	.6354	.0001	.1152	.0001
