Measured thermophysical data. Density and Viscosity of Ketones with Toluene at Different Temperatures and at Atmospheric Pressure
Source: J. Chem. Eng. Data, 2010, 10.1021/je900523k
Compound 1: toluene, C7H8
Compound 2: propanone, C3H6O
Compound 3: butanone, C4H8O
Compound 4: acetophenone, C8H8O

System: toluene; phases: Liquid
Property: Mass density, kg/m3 (Liquid); method: Pycnometric method
Temperature, K	Pressure, kPa	Mass density, kg/m3	uncertainty
298.15	101	860.9	.1
303.15	101	856	.1
308.15	101	851.6	.1

System: toluene; phases: Liquid
Property: Viscosity, Pa*s (Liquid); method: Capillary tube (Ostwald; Ubbelohde) method
Temperature, K	Pressure, kPa	Viscosity, Pa*s	uncertainty
298.15	101	.0005635	.0000015
303.15	101	.0005344	.0000015
308.15	101	.0005091	.0000015

System: toluene; phases: Liquid
Property: Speed of sound, m/s (Liquid); method: Pulse-echo method
Temperature, K	Pressure, kPa	Speed of sound, m/s	uncertainty
298.15	101	1299.8	
303.15	101	1279.5	
308.15	101	1260.7	

System: propanone; phases: Liquid
Property: Mass density, kg/m3 (Liquid); method: Pycnometric method
Temperature, K	Pressure, kPa	Mass density, kg/m3	uncertainty
298.15	101	784.3	.1
303.15	101	779	.1
308.15	101	773.5	.1

System: propanone; phases: Liquid
Property: Viscosity, Pa*s (Liquid); method: Capillary tube (Ostwald; Ubbelohde) method
Temperature, K	Pressure, kPa	Viscosity, Pa*s	uncertainty
298.15	101	.0003027	.0000015
303.15	101	.0002918	.0000015
308.15	101	.0002809	.0000015

System: propanone; phases: Liquid
Property: Speed of sound, m/s (Liquid); method: Pulse-echo method
Temperature, K	Pressure, kPa	Speed of sound, m/s	uncertainty
298.15	101	1162	
303.15	101	1141.2	
308.15	101	1121.4	

System: butanone; phases: Liquid
Property: Mass density, kg/m3 (Liquid); method: Pycnometric method
Temperature, K	Pressure, kPa	Mass density, kg/m3	uncertainty
298.15	101	798.2	.1
303.15	101	794.7	.1
308.15	101	788.5	.1

System: butanone; phases: Liquid
Property: Viscosity, Pa*s (Liquid); method: Capillary tube (Ostwald; Ubbelohde) method
Temperature, K	Pressure, kPa	Viscosity, Pa*s	uncertainty
298.15	101	.0003856	
303.15	101	.0003653	
308.15	101	.000344	

System: butanone; phases: Liquid
Property: Speed of sound, m/s (Liquid); method: Pulse-echo method
Temperature, K	Pressure, kPa	Speed of sound, m/s	uncertainty
298.15	101	1191.6	
303.15	101	1173.5	
308.15	101	1153.8	

System: acetophenone; phases: Liquid
Property: Mass density, kg/m3 (Liquid); method: Pycnometric method
Temperature, K	Pressure, kPa	Mass density, kg/m3	uncertainty
298.15	101	1022.4	.1
303.15	101	1017.9	.1
308.15	101	1013.5	.1

System: acetophenone; phases: Liquid
Property: Viscosity, Pa*s (Liquid); method: Capillary tube (Ostwald; Ubbelohde) method
Temperature, K	Pressure, kPa	Viscosity, Pa*s	uncertainty
298.15	101	.0016788	.0000015
303.15	101	.0015328	.0000015
308.15	101	.0014073	.0000015

System: acetophenone; phases: Liquid
Property: Speed of sound, m/s (Liquid); method: Pulse-echo method
Temperature, K	Pressure, kPa	Speed of sound, m/s	uncertainty
298.15	101	1476.2	
303.15	101	1457.2	
308.15	101	1441.2	

System: propanone + toluene; phases: Liquid
Fixed: Pressure, kPa = 101
Property: Mass density, kg/m3 (Liquid); method: Pycnometric method
Mole fraction of toluene	Temperature, K	Mass density, kg/m3	uncertainty
0	298.15	784.3	.1
.0702	298.15	792.5	.1
.1468	298.15	801.3	.1
.2269	298.15	810	.1
.3135	298.15	818.7	.1
.4051	298.15	827	.1
.5072	298.15	834.4	.1
.616	298.15	841.2	.1
.7355	298.15	847.9	.1
.8629	298.15	854.3	.1
1	298.15	860.9	.1
0	303.15	779	.1
.0702	303.15	787.6	.1
.1468	303.15	796.7	.1
.2269	303.15	805.7	.1
.3135	303.15	814.4	.1
.4051	303.15	822.7	.1
.5072	303.15	830	.1
.616	303.15	836.9	.1
.7355	303.15	843.6	.1
.8629	303.15	849.8	.1
1	303.15	856	.1
0	308.15	773.5	.1
.0702	308.15	782.8	.1
.1468	308.15	792.2	.1
.2269	308.15	801.3	.1
.3135	308.15	810.1	.1
.4051	308.15	818.3	.1
.5072	308.15	825.9	.1
.616	308.15	832.9	.1
.7355	308.15	839.6	.1
.8629	308.15	845.8	.1
1	308.15	851.6	.1

System: propanone + toluene; phases: Liquid
Fixed: Pressure, kPa = 101
Property: Viscosity, Pa*s (Liquid); method: Capillary tube (Ostwald; Ubbelohde) method
Temperature, K	Mole fraction of toluene	Viscosity, Pa*s	uncertainty
298.15	0	.0003027	.0000015
298.15	.0702	.0003418	.0000015
298.15	.1468	.0003759	.0000015
298.15	.2269	.0004076	.0000015
298.15	.3135	.0004383	.0000015
298.15	.4051	.0004662	.0000015
298.15	.5072	.0004893	.0000015
298.15	.616	.0005092	.0000015
298.15	.7355	.0005293	.0000015
298.15	.8629	.0005462	.0000015
298.15	1	.0005635	.0000015
303.15	0	.0002918	.0000015
303.15	.0702	.0003218	.0000015
303.15	.1468	.0003527	.0000015
303.15	.2269	.000381	.0000015
303.15	.3135	.0004098	.0000015
303.15	.4051	.0004358	.0000015
303.15	.5072	.0004553	.0000015
303.15	.616	.000475	.0000015
303.15	.7355	.0004947	.0000015
303.15	.8629	.0005144	.0000015
303.15	1	.0005344	.0000015
308.15	0	.0002809	.0000015
308.15	.0702	.0003021	.0000015
308.15	.1468	.0003267	.0000015
308.15	.2269	.0003517	.0000015
308.15	.3135	.0003785	.0000015
308.15	.4051	.000404	.0000015
308.15	.5072	.000425	.0000015
308.15	.616	.0004443	.0000015
308.15	.7355	.0004638	.0000015
308.15	.8629	.0004848	.0000015
308.15	1	.0005091	.0000015

System: propanone + toluene; phases: Liquid
Fixed: Pressure, kPa = 101
Property: Speed of sound, m/s (Liquid); method: Pulse-echo method
Temperature, K	Mole fraction of toluene	Speed of sound, m/s	uncertainty
298.15	0	1162	
298.15	.0702	1174.8	
298.15	.1468	1188.7	
298.15	.2269	1202.5	
298.15	.3135	1216.6	
298.15	.4051	1230.8	
298.15	.5072	1244.7	
298.15	.616	1258	
298.15	.7355	1271.8	
298.15	.8629	1285.8	
298.15	1	1299.8	
303.15	0	1141.2	
303.15	.0702	1152.9	
303.15	.1468	1166.1	
303.15	.2269	1179.5	
303.15	.3135	1193.4	
303.15	.4051	1207.4	
303.15	.5072	1221	
303.15	.616	1234.7	
303.15	.7355	1249.2	
303.15	.8629	1264.2	
303.15	1	1279.5	
308.15	0	1121.4	
308.15	.0702	1132.7	
308.15	.1468	1145.3	
308.15	.2269	1158.5	
308.15	.3135	1172.4	
308.15	.4051	1186.4	
308.15	.5072	1200	
308.15	.616	1214	
308.15	.7355	1228.8	
308.15	.8629	1244.3	
308.15	1	1260.7	

System: butanone + toluene; phases: Liquid
Fixed: Pressure, kPa = 101
Property: Mass density, kg/m3 (Liquid); method: Pycnometric method
Temperature, K	Mole fraction of toluene	Mass density, kg/m3	uncertainty
298.15	0	798.2	.1
298.15	.0856	805.3	.1
298.15	.1724	812.3	.1
298.15	.2624	819.3	.1
298.15	.337	824.8	.1
298.15	.433	831.4	.1
298.15	.5555	838.8	.1
298.15	.66	844.6	.1
298.15	.769	850.3	.1
298.15	.8831	855.8	.1
298.15	1	860.9	.1
303.15	0	794.7	.1
303.15	.0856	802	.1
303.15	.1724	809.1	.1
303.15	.2624	816	.1
303.15	.337	821.4	.1
303.15	.433	827.8	.1
303.15	.5555	835	.1
303.15	.66	840.7	.1
303.15	.769	846.2	.1
303.15	.8831	851.4	.1
303.15	1	856	.1
308.15	0	788.5	.1
308.15	.0856	796.3	.1
308.15	.1724	803.8	.1
308.15	.2624	810.9	.1
308.15	.337	816.5	.1
308.15	.433	823	.1
308.15	.5555	830.4	.1
308.15	.66	836.2	.1
308.15	.769	841.9	.1
308.15	.8831	847.2	.1
308.15	1	851.6	.1

System: butanone + toluene; phases: Liquid
Fixed: Pressure, kPa = 101
Property: Viscosity, Pa*s (Liquid); method: Capillary tube (Ostwald; Ubbelohde) method
Temperature, K	Mole fraction of toluene	Viscosity, Pa*s	uncertainty
298.15	0	.0003856	
298.15	.0856	.0004052	
298.15	.1724	.0004244	
298.15	.2624	.0004439	
298.15	.337	.0004594	
298.15	.433	.0004781	
298.15	.5555	.0004987	
298.15	.66	.0005145	
298.15	.769	.0005308	
298.15	.8831	.0005472	
298.15	1	.0005635	
303.15	0	.0003653	
303.15	.0856	.0003822	
303.15	.1724	.0003996	
303.15	.2624	.0004176	
303.15	.337	.000432	
303.15	.433	.0004494	
303.15	.5555	.0004688	
303.15	.66	.0004844	
303.15	.769	.0005002	
303.15	.8831	.0005168	
303.15	1	.0005344	
308.15	0	.000344	
308.15	.0856	.0003593	
308.15	.1724	.0003756	
308.15	.2624	.0003922	
308.15	.337	.0004061	
308.15	.433	.000423	
308.15	.5555	.0004417	
308.15	.66	.0004575	
308.15	.769	.0004738	
308.15	.8831	.0004909	
308.15	1	.0005091	

System: butanone + toluene; phases: Liquid
Fixed: Pressure, kPa = 101
Property: Speed of sound, m/s (Liquid); method: Pulse-echo method
Temperature, K	Mole fraction of toluene	Speed of sound, m/s	uncertainty
298.15	0	1191.6	
298.15	.0856	1205.5	
298.15	.1724	1218.5	
298.15	.2624	1231.6	
298.15	.337	1241.7	
298.15	.433	1253.4	
298.15	.5555	1264.8	
298.15	.66	1273.5	
298.15	.769	1282.2	
298.15	.8831	1291.2	
298.15	1	1299.8	
303.15	0	1173.5	
303.15	.0856	1185.9	
303.15	.1724	1198.2	
303.15	.2624	1210.5	
303.15	.337	1220.3	
303.15	.433	1231.5	
303.15	.5555	1242.9	
303.15	.66	1251.8	
303.15	.769	1260.7	
303.15	.8831	1269.8	
303.15	1	1279.5	
308.15	0	1153.8	
308.15	.0856	1165.1	
308.15	.1724	1176.8	
308.15	.2624	1188.9	
308.15	.337	1198.7	
308.15	.433	1210.3	
308.15	.5555	1221.9	
308.15	.66	1231.1	
308.15	.769	1240.3	
308.15	.8831	1250.2	
308.15	1	1260.7	

System: acetophenone + toluene; phases: Liquid
Fixed: Pressure, kPa = 101
Property: Mass density, kg/m3 (Liquid); method: Pycnometric method
Temperature, K	Mole fraction of toluene	Mass density, kg/m3	uncertainty
298.15	0	1022.4	.1
298.15	.1093	1006.8	.1
298.15	.2145	991.7	.1
298.15	.3206	975.9	.1
298.15	.4281	959.5	.1
298.15	.5229	944.5	.1
298.15	.6213	928.2	.1
298.15	.7157	912.1	.1
298.15	.8392	890.4	.1
298.15	.9074	878	.1
298.15	1	860.9	.1
303.15	0	1017.9	.1
303.15	.1093	1002.7	.1
303.15	.2145	987.4	.1
303.15	.3206	971.7	.1
303.15	.4281	955.1	.1
303.15	.5229	940	.1
303.15	.6213	923.7	.1
303.15	.7157	907.6	.1
303.15	.8392	885.9	.1
303.15	.9074	873.5	.1
303.15	1	856	.1
308.15	0	1013.5	.1
308.15	.1093	998.7	.1
308.15	.2145	983.5	.1
308.15	.3206	967.8	.1
308.15	.4281	951	1
308.15	.5229	936	.1
308.15	.6213	919.6	.1
308.15	.7157	903.5	.1
308.15	.8392	881.8	.1
308.15	.9074	869.5	.1
308.15	1	851.6	.1

System: acetophenone + toluene; phases: Liquid
Fixed: Pressure, kPa = 101
Property: Viscosity, Pa*s (Liquid); method: Capillary tube (Ostwald; Ubbelohde) method
Temperature, K	Mole fraction of toluene	Viscosity, Pa*s	uncertainty
298.15	0	.0016788	.0000015
298.15	.1093	.0015606	.0000015
298.15	.2145	.0014457	.0000015
298.15	.3206	.0013292	.0000015
298.15	.4281	.0012105	.0000015
298.15	.5229	.0011055	.0000015
298.15	.6213	.0009949	.0000015
298.15	.7157	.0008879	.0000015
298.15	.8392	.0007472	.0000015
298.15	.9074	.0006694	.0000015
298.15	1	.0005635	.0000015
303.15	0	.0015328	.0000015
303.15	.1093	.0014257	.0000015
303.15	.2145	.0013225	.0000015
303.15	.3206	.001218	.0000015
303.15	.4281	.0011121	.0000015
303.15	.5229	.001018	.0000015
303.15	.6213	.0009188	.0000015
303.15	.7157	.0008233	.0000015
303.15	.8392	.0006978	.0000015
303.15	.9074	.0006286	.0000015
303.15	1	.0005344	.0000015
308.15	0	.0014073	.0000015
308.15	.1093	.0013102	.0000015
308.15	.2145	.001217	.0000015
308.15	.3206	.0011228	.0000015
308.15	.4281	.0010272	.0000015
308.15	.5229	.0009425	.0000015
308.15	.6213	.0008535	.0000015
308.15	.7157	.0007678	.0000015
308.15	.8392	.0006554	.0000015
308.15	.9074	.0005933	.0000015
308.15	1	.0005091	.0000015

System: acetophenone + toluene; phases: Liquid
Fixed: Pressure, kPa = 101
Property: Speed of sound, m/s (Liquid); method: Pulse-echo method
Temperature, K	Mole fraction of toluene	Speed of sound, m/s	uncertainty
298.15	0	1476.2	
298.15	.1093	1463.8	
298.15	.2145	1449.6	
298.15	.3206	1434.7	
298.15	.4281	1417.5	
298.15	.5229	1401	
298.15	.6213	1381.9	
298.15	.7157	1362.6	
298.15	.8392	1336.6	
298.15	.9074	1321.1	
298.15	1	1299.8	
303.15	0	1457.2	
303.15	.1093	1440.8	
303.15	.2145	1425.8	
303.15	.3206	1410.6	
303.15	.4281	1394.6	
303.15	.5229	1379	
303.15	.6213	1359.6	
303.15	.7157	1339.8	
303.15	.8392	1313.9	
303.15	.9074	1299.4	
303.15	1	1279.5	
308.15	0	1441.2	
308.15	.1093	1423.3	
308.15	.2145	1407.6	
308.15	.3206	1391.3	
308.15	.4281	1374.8	
308.15	.5229	1358.9	
308.15	.6213	1339.4	
308.15	.7157	1319.7	
308.15	.8392	1294.2	
308.15	.9074	1279.4	
308.15	1	1260.7	
