Measured thermophysical data. Measurements of the Thermal Conductivity of HFC-134a in the Supercritical Region
Source: J. Chem. Eng. Data, 2009, 10.1021/je900210h
Compound 1: ethane, 1,1,1,2-tetrafluoro-, C2H2F4

System: ethane, 1,1,1,2-tetrafluoro-; phases: Fluid (supercritical or subcritical phases)
Property: Thermal conductivity, W/m/K (Fluid (supercritical or subcritical phases)); method: Coaxial cylinder method
Temperature, K	Pressure, kPa	Thermal conductivity, W/m/K	uncertainty
299.29	170	.01287	.0003861
299.63	170	.01279	.0003837
318.97	740	.01489	.0004467
318.97	740	.01486	.0004458
319.14	160	.0146	.000438
345.58	180	.01711	.0005133
346.36	180	.01739	.0005217
348.54	180	.01732	.0005196
351.84	640	.01763	.0005289
363.88	180	.01891	.0005673
365	180	.01891	.0005673
365.41	180	.01893	.0005679
365.69	180	.01893	.0005679
366.52	180	.01892	.0005676
366.8	180	.01893	.0005679
372.42	680	.01975	.0005925
372.43	170	.01968	.0005904
372.43	680	.01965	.0005895
378.07	180	.02003	.0006009
378.63	440	.02017	.0006051
378.74	180	.02012	.0006036
378.9	330	.02026	.0006078
379.17	300	.02023	.0006069
379.43	150	.02035	.0006105
379.72	160	.01996	.0005988
392.65	180	.02136	.0006408
426.86	160	.02469	.0007407
436.44	180	.02542	.0007626
446.25	200	.02665	.0007995
446.25	760	.02661	.0007983
451.17	180	.02683	.0008049
455.69	100	.0268	.000804
455.92	680	.02719	.0008157
466.31	650	.02846	.0008538
476.24	100	.02922	.0008766
496.18	100	.0311	.000933
515.97	100	.03304	.0009912

System: ethane, 1,1,1,2-tetrafluoro-; phases: Fluid (supercritical or subcritical phases)
Property: Thermal conductivity, W/m/K (Fluid (supercritical or subcritical phases)); method: Coaxial cylinder method
Temperature, K	Pressure, kPa	Thermal conductivity, W/m/K	uncertainty
379.43	154	.0231	.000693
375.04	888	.0235	.000705
376.38	2200	.0252	.000756
376.23	2350	.0256	.000768
375.93	2700	.0265	.000795
375.76	3000	.0274	.000822
375.59	3196	.0287	.000861
375.42	3349	.0298	.000894
375.1	3544	.0321	.000963
374.92	3675	.0342	.001026
374.76	3717	.0352	.001056
375.34	3828	.0367	.001101
375.14	3928	.0409	.001227
375.1	3981	.0428	.001284
375.18	4030	.0479	.001437
374.89	4035	.0494	.001482
374.72	4049	.0529	.001587
374.66	4063	.0593	.001779
374.61	4068	.0674	.002022
374.57	4073	.0764	.002292
374.54	4072	.0831	.002493
375.24	4120	.1016	.003048
374.47	4071	.1096	.003288
374.39	4070	.1644	.004932
374.37	4073	.1974	.005922
374.37	4074	.1974	.005922
374.38	4078	.1828	.005484
374.38	4083	.1742	.005226
374.28	4085	.141	.00423
374.31	4090	.1233	.003699
374.32	4093	.1139	.003417
374.34	4097	.1057	.003171
374.36	4100	.0993	.002979
374.38	4105	.0914	.002742
374.4	4110	.0851	.002553
374.18	4090	.0729	.002187
374.19	4100	.0708	.002124
374.21	4120	.068	.00204
374.22	4142	.0659	.001977
374.22	4149	.0654	.001962
374.23	4187	.0642	.001926
374.37	4245	.0643	.001929
374.37	4270	.0643	.001929
374.37	4358	.0641	.001923
374.5	4533	.0637	.001911
374.51	4621	.0635	.001905
374.52	4710	.0617	.001851
374.52	4759	.061	.00183
376.96	2027	.0218	.000654
376.51	2527	.0229	.000687
376.33	3030	.0242	.000726
375.81	3534	.0279	.000837
375.46	4029	.0397	.001191
375.43	4051	.0425	.001275
375.34	4085	.0517	.001551
375.3	4089	.0573	.001719
375.11	4099	.0671	.002013
375.07	4097	.0773	.002319
375.03	4099	.091	.00273
374.99	4107	.1106	.003318
374.97	4112	.1176	.003528
374.96	4117	.1232	.003696
374.96	4119	.1244	.003732
374.96	4126	.1244	.003732
374.97	4132	.1198	.003594
375	4149	.101	.00303
375.03	4155	.091	.00273
375.04	4160	.0861	.002583
375.06	4168	.0796	.002388
375.1	4185	.0704	.002112
375.13	4199	.0643	.001929
375.14	4216	.0612	.001836
375.16	4244	.0586	.001758
375.17	4289	.0565	.001695
375.18	4340	.055	.00165
375.19	4379	.0546	.001638
375.2	4456	.053	.00159
375.19	4458	.0541	.001623
375.19	4551	.0545	.001635
375.19	4557	.0538	.001614
375.18	5054	.0557	.001671
375.18	5057	.055	.00165
375.03	6045	.0576	.001728
375.01	8053	.0615	.001845
374.99	10033	.064	.00192
376.23	3734	.0301	.000903
376.21	3800	.0312	.000936
376.01	3908	.034	.00102
375.99	3936	.0349	.001047
375.95	3993	.0374	.001122
375.65	4023	.0393	.001179
375.61	4059	.0425	.001275
375.6	4065	.0432	.001296
375.53	4097	.0492	.001476
375.51	4107	.0521	.001563
375.46	4118	.0591	.001773
375.4	4126	.0683	.002049
375.37	4128	.0763	.002289
375.33	4129	.087	.00261
375.32	4130	.0916	.002748
375.15	4130	.1055	.003165
375.14	4132	.1072	.003216
375.14	4134	.108	.00324
375.14	4136	.108	.00324
375.14	4138	.108	.00324
375.14	4140	.108	.00324
375.14	4142	.1072	.003216
375.14	4144	.1063	.003189
375.15	4146	.1047	.003141
375.15	4148	.1024	.003072
375.16	4150	.1009	.003027
375.16	4153	.0988	.002964
375.17	4157	.0941	.002823
375.18	4160	.0916	.002748
375.19	4163	.0881	.002643
375.2	4166	.0849	.002547
375.21	4170	.0823	.002469
375.21	4171	.0814	.002442
375.23	4178	.0777	.002331
375.23	4181	.076	.00228
375.24	4189	.0731	.002193
375.28	4208	.0667	.002001
375.3	4229	.0627	.001881
375.31	4254	.0613	.001839
375.31	4265	.061	.00183
375.31	4294	.0605	.001815
375.31	4307	.0603	.001809
375.31	4341	.06	.0018
375.32	4389	.0592	.001776
375.32	4450	.0585	.001755
375.32	4490	.0588	.001764
375.46	4735	.0582	.001746
375.48	4848	.0566	.001698
376.07	200	.0205	.000615
376.06	524	.0208	.000624
376.05	773	.0212	.000636
376.04	1048	.0214	.000642
375.95	2429	.0235	.000705
375.94	2662	.024	.00072
375.9	2970	.0251	.000753
375.87	3165	.0261	.000783
375.87	3264	.0264	.000792
375.8	3504	.029	.00087
375.76	3658	.0306	.000918
375.73	3772	.0319	.000957
375.69	3874	.0343	.001029
375.66	3917	.0361	.001083
375.63	3965	.0378	.001134
375.61	3999	.0395	.001185
375.58	4040	.0421	.001263
375.56	4055	.0434	.001302
375.52	4086	.0475	.001425
375.49	4097	.0508	.001524
375.46	4107	.0545	.001635
375.42	4115	.0611	.001833
375.36	4121	.0721	.002163
375.34	4126	.0773	.002319
375.32	4134	.0856	.002568
375.29	4139	.0943	.002829
375.28	4145	.0986	.002958
375.28	4150	.1002	.003006
375.28	4156	.1002	.003006
375.28	4162	.0994	.002982
375.28	4167	.0984	.002952
375.29	4174	.0955	.002865
375.3	4181	.0927	.002781
375.31	4189	.0889	.002667
375.32	4197	.0848	.002544
375.33	4204	.0816	.002448
375.36	4216	.0746	.002238
375.38	4225	.0686	.002058
375.39	4235	.0668	.002004
375.4	4244	.0645	.001935
375.42	4265	.0608	.001824
375.43	4280	.0596	.001788
375.43	4292	.0588	.001764
375.45	4349	.0567	.001701
375.46	4473	.0555	.001665
375.46	4527	.055	.00165
375.46	4625	.055	.00165
375.46	4681	.0552	.001656
375.18	4942	.0559	.001677
376.61	3210	.0244	.000732
376.6	3210	.0246	.000738
376.59	3210	.0248	.000744
376.56	3210	.0257	.000771
376.55	3302	.0263	.000789
376.53	3468	.0269	.000807
376.51	3504	.0275	.000825
376.5	3593	.0281	.000843
376.48	3675	.0288	.000864
376.46	3783	.0297	.000891
376.44	3783	.0303	.000909
376.42	3872	.0315	.000945
376.41	3872	.0317	.000951
376.4	3872	.0323	.000969
376.11	3913	.0333	.000999
376.1	3941	.0342	.001026
376.08	3975	.0352	.001056
376.06	4011	.0362	.001086
376.04	4039	.0379	.001137
375.99	4072	.0417	.001251
375.92	4120	.0485	.001455
375.87	4132	.0548	.001644
375.83	4141	.06	.0018
375.8	4150	.0656	.001968
375.77	4161	.0731	.002193
375.76	4161	.0752	.002256
375.72	4178	.0857	.002571
375.73	4179	.083	.00249
375.72	4187	.0881	.002643
375.73	4199	.0841	.002523
375.74	4210	.0799	.002397
375.76	4223	.0752	.002256
375.79	4241	.0673	.002019
375.82	4254	.0627	.001881
375.84	4279	.0589	.001767
375.85	4296	.0573	.001719
375.86	4316	.0558	.001674
375.86	4334	.0551	.001653
375.87	4349	.0546	.001638
375.87	4363	.0539	.001617
375.88	4387	.0535	.001605
375.88	4432	.0526	.001578
375.89	4451	.0521	.001563
375.88	4461	.0526	.001578
375.88	4461	.0524	.001572
375.89	4630	.052	.00156
376.16	4754	.0523	.001569
376.15	4789	.0527	.001581
376.15	5037	.0529	.001587
376.15	5092	.0531	.001593
376.15	5216	.0534	.001602
376.15	5296	.0536	.001608
376.14	5520	.054	.00162
376.14	5651	.0543	.001629
376.14	5740	.0545	.001635
376.98	3510	.0274	.000822
376.95	3650	.0285	.000855
376.92	3740	.0295	.000885
376.9	3800	.0304	.000912
376.87	3880	.0318	.000954
376.81	3990	.0346	.001038
376.78	4040	.0364	.001092
376.73	4100	.0395	.001185
376.69	4140	.0427	.001281
376.21	4150	.048	.00144
376.19	4160	.0503	.001509
376.1	4180	.0622	.001866
376.07	4190	.0693	.002079
376.05	4198	.0754	.002262
376.04	4200	.0784	.002352
376.03	4203	.0807	.002421
376.02	4205	.0817	.002451
376.02	4207	.0822	.002466
376.02	4209	.0826	.002478
376.02	4213	.0826	.002478
376.02	4217	.0821	.002463
376.03	4222	.0806	.002418
376.03	4225	.0797	.002391
376.04	4230	.0774	.002322
376.04	4233	.0766	.002298
376.06	4242	.0737	.002211
376.07	4250	.0708	.002124
376.08	4260	.0686	.002058
376.09	4270	.0669	.002007
376.09	4280	.0656	.001968
376.1	4300	.0638	.001914
376.11	4320	.0624	.001872
376.26	4360	.0608	.001824
376.26	4390	.06	.0018
376.54	4470	.059	.00177
376.54	4580	.0586	.001758
376.68	4680	.0583	.001749
376.82	4820	.0577	.001731
376.82	4860	.0575	.001725
376.87	4101	.0452	.001356
376.82	4117	.047	.00141
376.68	4141	.0524	.001572
376.65	4147	.0545	.001635
376.61	4150	.0562	.001686
376.58	4158	.0579	.001737
376.55	4165	.0598	.001794
376.51	4168	.0618	.001854
376.48	4174	.0639	.001917
376.44	4178	.0661	.001983
376.41	4184	.0684	.002052
376.38	4192	.0712	.002136
376.34	4199	.074	.00222
376.31	4210	.077	.00231
376.29	4214	.078	.00234
376.28	4218	.0789	.002367
376.27	4230	.0811	.002433
376.26	4264	.081	.00243
376.28	4267	.0803	.002409
376.29	4279	.0786	.002358
376.34	4305	.0746	.002238
376.44	4354	.0663	.001989
376.52	4404	.0612	.001836
376.57	4451	.0587	.001761
376.87	4504	.0571	.001713
376.89	4548	.0562	.001686
377.73	4701	.055	.00165
377.93	4800	.0547	.001641
377.93	4851	.0547	.001641
377.86	4997	.0548	.001644
378.11	5504	.056	.00168
377.96	6000	.0569	.001707
378.07	6502	.058	.00174
378.05	7003	.0589	.001767
378.18	7450	.0597	.001791
378.16	8004	.0605	.001815
378.29	8408	.0612	.001836
378.27	9008	.062	.00186
378.26	9506	.0627	.001881
378.25	9919	.0632	.001896
378.24	10507	.064	.00192
378.37	10981	.0646	.001938
378.36	11376	.065	.00195
378.34	12420	.0663	.001989
378.33	13441	.0674	.002022
378.31	14505	.0683	.002049
378.29	16500	.0701	.002103
378.27	18500	.0716	.002148
378.25	21005	.0736	.002208
377.58	4079	.0366	.001098
377.55	4126	.039	.00117
377.51	4164	.0415	.001245
377.32	4211	.0466	.001398
377.29	4226	.0494	.001482
377.27	4235	.0513	.001539
377.26	4241	.0529	.001587
377.24	4249	.0555	.001665
377.19	4266	.063	.00189
377.18	4270	.0648	.001944
377.17	4275	.0671	.002013
377.01	4289	.072	.00216
377.01	4294	.0724	.002172
377.01	4307	.0724	.002172
377.01	4309	.072	.00216
377.01	4312	.0717	.002151
377.02	4322	.0706	.002118
377.02	4332	.0691	.002073
377.03	4343	.0674	.002022
377.04	4356	.0661	.001983
377.05	4380	.0636	.001908
377.05	4384	.0634	.001902
377.06	4397	.0625	.001875
377.06	4417	.0617	.001851
377.07	4439	.0606	.001818
377.07	4473	.06	.0018
377.08	4495	.0595	.001785
377.08	4538	.0587	.001761
377.36	4613	.0583	.001749
377.36	4653	.0578	.001734
377.36	4697	.0578	.001734
377.36	4760	.0576	.001728
377.37	4836	.0569	.001707
377.37	4907	.0562	.001686
379.1	4331	.0441	.001323
377.97	4302	.0487	.001461
377.95	4301	.0503	.001509
377.93	4309	.0521	.001563
377.91	4321	.0557	.001671
377.89	4330	.0583	.001749
377.87	4339	.0617	.001851
377.85	4351	.0652	.001956
377.84	4360	.0668	.002004
377.83	4369	.0678	.002034
377.83	4381	.0681	.002043
377.83	4390	.0681	.002043
377.83	4400	.0678	.002034
377.84	4411	.0668	.002004
377.84	4420	.0658	.001974
377.85	4432	.0652	.001956
377.85	4441	.064	.00192
377.86	4451	.0631	.001893
377.86	4460	.0623	.001869
377.87	4470	.0614	.001842
377.87	4479	.0606	.001818
378.02	4500	.0601	.001803
377.89	4518	.0587	.001761
377.89	4531	.0582	.001746
377.9	4541	.0575	.001725
377.9	4551	.057	.00171
377.9	4561	.0566	.001698
377.9	4582	.0563	.001689
378.9	3950	.0317	.000951
378.85	4050	.0339	.001017
378.83	4090	.0351	.001053
378.81	4120	.036	.00108
378.54	4130	.0364	.001092
378.53	4140	.0368	.001104
378.53	4150	.0371	.001113
378.5	4180	.0385	.001155
378.49	4200	.0395	.001185
378.47	4220	.0408	.001224
378.45	4240	.0422	.001266
378.43	4260	.0438	.001314
378.41	4280	.0461	.001383
378.4	4290	.0472	.001416
378.38	4300	.0488	.001464
378.36	4310	.0506	.001518
378.35	4320	.0524	.001572
378.33	4330	.0547	.001641
378.31	4340	.057	.00171
378.29	4350	.0597	.001791
378.28	4360	.0622	.001866
378.27	4370	.0645	.001935
378.26	4380	.0657	.001971
378.26	4390	.0664	.001992
378.25	4395	.0667	.002001
378.25	4400	.0667	.002001
378.26	4410	.0667	.002001
378.26	4420	.0661	.001983
378.26	4430	.0655	.001965
378.27	4440	.0645	.001935
378.27	4450	.0639	.001917
378.27	4460	.0633	.001899
378.28	4470	.0625	.001875
378.28	4480	.0616	.001848
378.29	4490	.0611	.001833
378.29	4500	.0608	.001824
378.29	4510	.0603	.001809
378.29	4520	.0601	.001803
378.29	4530	.0598	.001794
378.3	4540	.0595	.001785
378.3	4550	.0593	.001779
378.3	4570	.0588	.001764
378.3	4590	.0585	.001755
378.31	4620	.0581	.001743
378.31	4626	.0578	.001734
378.31	4650	.0573	.001719
378.31	4688	.0571	.001713
378.31	4730	.0569	.001707
378.32	4770	.0567	.001701
378.59	4860	.0565	.001695
378.59	4900	.0565	.001695
379.5	4165	.0355	.001065
379.5	4175	.0358	.001074
379.48	4200	.0367	.001101
379.47	4224	.0376	.001128
379.45	4254	.0389	.001167
379.43	4282	.0405	.001215
379.42	4288	.0408	.001224
379.4	4309	.0422	.001266
379.4	4317	.0427	.001281
379.39	4330	.0437	.001311
379.37	4346	.0453	.001359
379.36	4355	.0462	.001386
379.34	4369	.0478	.001434
379.33	4376	.0487	.001461
379.32	4386	.0501	.001503
379.3	4396	.0516	.001548
379.29	4404	.053	.00159
379.28	4414	.0545	.001635
379.27	4424	.0559	.001677
379.26	4431	.0573	.001719
379.25	4442	.0593	.001779
379.23	4452	.0608	.001824
379.23	4453	.0614	.001842
379.09	4452	.0625	.001875
379.09	4460	.0627	.001881
379.09	4464	.063	.00189
379.09	4470	.063	.00189
379.09	4475	.063	.00189
379.09	4484	.063	.00189
379.22	4504	.0628	.001884
379.09	4500	.0627	.001881
379.23	4520	.062	.00186
379.23	4530	.0615	.001845
379.24	4540	.0609	.001827
379.24	4547	.0606	.001818
379.24	4560	.0601	.001803
379.24	4570	.0599	.001797
379.25	4600	.0591	.001773
379.25	4620	.0587	.001761
379.25	4642	.0584	.001752
379.26	4662	.0579	.001737
379.26	4680	.0577	.001731
379.26	4703	.0575	.001725
379.26	4739	.0573	.001719
379.26	4766	.0573	.001719
379.26	4806	.057	.00171
379.4	4838	.0567	.001701
379.4	4888	.0562	.001686
379.41	4932	.0558	.001674
379.41	5000	.0554	.001662
379.41	5051	.055	.00165
381.63	4490	.0464	.001392
381.63	4500	.0472	.001416
381.63	4500	.0468	.001404
381.62	4510	.0478	.001434
381.61	4516	.0483	.001449
381.61	4520	.0487	.001461
381.61	4525	.049	.00147
381.6	4530	.0495	.001485
381.58	4569	.0518	.001554
381.56	4600	.0536	.001608
381.55	4612	.0542	.001626
381.53	4627	.0551	.001653
381.53	4640	.0555	.001665
381.53	4650	.056	.00168
381.53	4660	.0562	.001686
381.53	4670	.0565	.001695
381.53	4680	.0565	.001695
381.54	4700	.0562	.001686
381.54	4760	.056	.00168
381.55	4780	.0558	.001674
381.55	4800	.0555	.001665
381.55	4815	.0553	.001659
381.56	4830	.0551	.001653
381.56	4860	.0549	.001647
381.56	4900	.0542	.001626
381.56	4920	.0542	.001626
381.56	4950	.0543	.001629
381.56	4982	.0543	.001629
381.56	5016	.0543	.001629
381.56	5068	.0543	.001629
381.57	5092	.0539	.001617
381.57	5125	.0538	.001614
381.57	5136	.0538	.001614
381.57	5169	.0536	.001608
381.57	5201	.0536	.001608
385.78	3920	.0293	.000879
385.75	4060	.0305	.000915
385.61	4120	.0311	.000933
385.59	4200	.032	.00096
385.57	4260	.0328	.000984
385.42	4310	.0335	.001005
385.41	4360	.0343	.001029
385.39	4410	.0352	.001056
385.37	4460	.0363	.001089
385.36	4500	.0371	.001113
385.34	4540	.0382	.001146
385.33	4580	.0393	.001179
385.31	4610	.0401	.001203
385.3	4640	.0411	.001233
385.29	4670	.0421	.001263
385.28	4700	.0431	.001293
385.26	4730	.0446	.001338
385.25	4760	.0458	.001374
385.23	4800	.0471	.001413
385.22	4820	.048	.00144
385.21	4840	.0488	.001464
385.2	4880	.0505	.001515
385.19	4900	.0512	.001536
385.19	4918	.0518	.001554
385.18	4940	.0522	.001566
385.18	4959	.0526	.001578
385.18	4978	.0528	.001584
385.18	5000	.053	.00159
385.18	5022	.053	.00159
385.18	5042	.053	.00159
385.18	5058	.053	.00159
385.18	5080	.053	.00159
385.18	5100	.053	.00159
385.18	5120	.053	.00159
385.18	5151	.0528	.001584
385.18	5179	.0526	.001578
385.18	5224	.0524	.001572
385.18	5254	.0522	.001566
385.19	5296	.0518	.001554
385.19	5322	.0518	.001554
385.19	5358	.0516	.001548
385.19	5402	.0516	.001548
385.19	5454	.0514	.001542
385.19	5513	.0512	.001536
385.72	5700	.0514	.001542
385.72	5714	.0516	.001548
387.25	6371	.0527	.001581
387.23	6650	.0536	.001608
387.22	7002	.0545	.001635
387.2	7501	.0559	.001677
387.19	7800	.0564	.001692
387.3	8468	.0578	.001734
387.27	9502	.0597	.001791
387.37	11008	.0619	.001857
387.37	11503	.0625	.001875
387.34	13000	.0642	.001926
387.33	13500	.0648	.001944
387.33	14002	.0653	.001959
387.32	14910	.0663	.001989
387.3	16290	.0676	.002028
387.29	17000	.0682	.002046
387.28	18006	.0691	.002073
395.24	4405	.0309	.000927
395.23	4495	.0315	.000945
394.95	4583	.0322	.000966
394.94	4649	.0328	.000984
394.93	4722	.0335	.001005
394.91	4821	.0346	.001038
394.89	4890	.0353	.001059
394.88	4950	.036	.00108
394.88	4978	.0363	.001089
394.6	5055	.0374	.001122
394.57	5176	.039	.00117
394.56	5246	.04	.0012
394.55	5300	.0409	.001227
394.54	5314	.0411	.001233
394.53	5366	.0419	.001257
394.52	5428	.043	.00129
394.5	5527	.0444	.001332
394.49	5583	.0453	.001359
394.49	5626	.0457	.001371
394.49	5641	.046	.00138
394.47	5760	.0472	.001416
394.47	5767	.0472	.001416
394.47	5800	.0476	.001428
394.47	5811	.0476	.001428
394.47	5851	.048	.00144
394.47	5886	.048	.00144
394.46	5940	.0483	.001449
394.46	5980	.0487	.001461
394.46	6044	.0491	.001473
394.46	6100	.0492	.001476
394.45	6140	.0494	.001482
394.45	6200	.0496	.001488
394.45	6260	.0498	.001494
394.45	6300	.05	.0015
394.45	6399	.0503	.001509
394.44	6457	.0507	.001521
394.44	6523	.0509	.001527
394.44	6557	.0511	.001533
394.57	6665	.0513	.001539
394.57	6720	.0515	.001545
394.57	6754	.0515	.001545
394.57	6800	.0515	.001545
394.56	6908	.0519	.001557
394.56	7067	.0523	.001569
394.69	7159	.0526	.001578
394.69	7321	.0528	.001584
394.68	7457	.0533	.001599
394.68	7521	.0535	.001605
394.68	7635	.0537	.001611
394.81	7706	.0538	.001614
394.81	7827	.0541	.001623
406.09	1196	.0236	.000708
405.81	1930	.0243	.000729
405.27	2343	.0247	.000741
405.26	2524	.0249	.000747
405.25	2700	.0252	.000756
405.25	2863	.0254	.000762
405.34	3411	.0264	.000792
405.07	3698	.0271	.000813
405.06	3790	.0274	.000822
405.05	3914	.0278	.000834
404.77	4070	.0283	.000849
404.76	4201	.0287	.000861
404.76	4278	.029	.00087
404.73	4451	.0298	.000894
404.73	4467	.0298	.000894
404.73	4523	.0301	.000903
404.71	4641	.0307	.000921
404.7	4754	.0312	.000936
404.68	4909	.0321	.000963
404.67	5039	.0329	.000987
404.65	5162	.0336	.001008
404.51	5242	.0342	.001026
404.5	5330	.0349	.001047
404.49	5419	.0355	.001065
404.48	5494	.0361	.001083
404.47	5579	.0368	.001104
404.46	5668	.0375	.001125
404.45	5750	.0383	.001149
404.44	5814	.0388	.001164
404.43	5860	.0393	.001179
404.43	5908	.0396	.001188
404.42	5967	.0402	.001206
404.4	6039	.041	.00123
404.4	6080	.0413	.001239
404.38	6342	.0433	.001299
404.34	6434	.044	.00132
404.34	6516	.0446	.001338
404.36	6559	.0449	.001347
404.36	6640	.0453	.001359
404.23	6723	.046	.00138
404.23	6754	.0461	.001383
403.83	6852	.0468	.001404
403.82	6973	.0475	.001425
403.69	7105	.048	.00144
403.68	7203	.0484	.001452
405.49	7506	.049	.00147
403.69	7364	.049	.00147
405.48	7814	.0499	.001497
405.47	8558	.0515	.001545
405.46	8835	.0521	.001563
407.01	10638	.0557	.001671
407	10911	.0562	.001686
406.99	11426	.0569	.001707
406.96	12915	.0591	.001773
406.94	13921	.0603	.001809
406.93	14350	.0608	.001824
406.91	15679	.0623	.001869
406.9	16345	.063	.00189
406.88	18500	.0652	.001956
