Measured thermophysical data. Solubility of Benzoic and Salicylic Acids in Subcritical Water at Temperatures Ranging from (298 to 473) K
Source: J. Chem. Eng. Data, 2010, 10.1021/je900769d
Compound 1: benzoic acid, C7H6O2
Compound 2: water, H2O, purity 99.9%
Compound 3: o-hydroxybenzoic acid, C7H6O3

System: benzoic acid + water; phases: Liquid, Crystal
Fixed: Pressure, kPa = 5000
Property: Mole fraction of benzoic acid (Liquid); method: Chromatography
Temperature, K	Mole fraction of benzoic acid	uncertainty
298	.00222	.000111
323	.00487	.0002435
348	.011	.00055
373	.0404	.00202
398	.108	.0054
423	.131	.00655
473	.136	.0068

System: o-hydroxybenzoic acid + water; phases: Liquid, Crystal
Fixed: Pressure, kPa = 5000
Property: Mole fraction of o-hydroxybenzoic acid (Liquid); method: Chromatography
Temperature, K	Mole fraction of o-hydroxybenzoic acid	uncertainty
298	.000469	.00002345
323	.00642	.000321
348	.0133	.000665
373	.0194	.00097
398	.0831	.004155
423	.102	.0051
