Measured thermophysical data. Molar Excess Volumes and Excess Isentropic Compressibilities of {2-Methylaniline (i) + Benzene (j) + Methylbenzene}, {2-Methylaniline (i) + Benzene (j) + 1,2-Dimethylbenzene (k)}, and {2-Methylaniline (i) + Benzene (j) + 1,4-Dimethylbenzene (k)} at T = 308.15 K
Source: J. Chem. Eng. Data, 2009, 10.1021/je900237e
Compound 1: 2-methylaniline, C7H9N
Compound 2: benzene, C6H6
Compound 3: toluene, C7H8
Compound 4: 1,2-dimethylbenzene, C8H10
Compound 5: 1,4-dimethylbenzene, C8H10

System: 2-methylaniline; phases: Liquid
Fixed: Pressure, kPa = 101.325
Property: Mass density, kg/m3 (Liquid); method: Pycnometric method
Temperature, K	Mass density, kg/m3	uncertainty
298.15	994.28	

System: 2-methylaniline; phases: Liquid
Fixed: Pressure, kPa = 101.325
Property: Speed of sound, m/s (Liquid); method: Pulse-echo method
Temperature, K	Speed of sound, m/s	uncertainty
308.15	1603	1

System: benzene; phases: Liquid
Fixed: Pressure, kPa = 101.325
Property: Mass density, kg/m3 (Liquid); method: Pycnometric method
Temperature, K	Mass density, kg/m3	uncertainty
298.15	873.64	

System: benzene; phases: Liquid
Fixed: Pressure, kPa = 101.325
Property: Speed of sound, m/s (Liquid); method: Pulse-echo method
Temperature, K	Speed of sound, m/s	uncertainty
298.15	1298	1

System: toluene; phases: Liquid
Fixed: Pressure, kPa = 101.325
Property: Mass density, kg/m3 (Liquid); method: Pycnometric method
Temperature, K	Mass density, kg/m3	uncertainty
298.15	862.17	

System: toluene; phases: Liquid
Fixed: Pressure, kPa = 101.325
Property: Speed of sound, m/s (Liquid); method: Pulse-echo method
Temperature, K	Speed of sound, m/s	uncertainty
298.15	1305	1

System: 1,2-dimethylbenzene; phases: Liquid
Fixed: Pressure, kPa = 101.325
Property: Mass density, kg/m3 (Liquid); method: Pycnometric method
Temperature, K	Mass density, kg/m3	uncertainty
298.15	875.9	

System: 1,2-dimethylbenzene; phases: Liquid
Fixed: Pressure, kPa = 101.325
Property: Speed of sound, m/s (Liquid); method: Pulse-echo method
Temperature, K	Speed of sound, m/s	uncertainty
298.15	1344	1

System: 1,4-dimethylbenzene; phases: Liquid
Fixed: Pressure, kPa = 101.325
Property: Mass density, kg/m3 (Liquid); method: Pycnometric method
Temperature, K	Mass density, kg/m3	uncertainty
298.15	858.63	

System: 1,4-dimethylbenzene; phases: Liquid
Fixed: Pressure, kPa = 101.325
Property: Speed of sound, m/s (Liquid); method: Pulse-echo method
Temperature, K	Speed of sound, m/s	uncertainty
298.15	1310	1

System: benzene + 2-methylaniline + toluene; phases: Liquid
Fixed: Temperature, K = 298.15
Fixed: Pressure, kPa = 101
Property: Excess molar volume, m3/mol (Liquid); method: Direct dilatometry
Mole fraction of 2-methylaniline	Mole fraction of benzene	Excess molar volume, m3/mol	uncertainty
.2206	.2329	-.000000043	-.000000000215
.2536	.5792	-.00000006	-.0000000003
.2904	.5182	-.000000065	-.000000000325
.3211	.4819	-.000000069	-.000000000345
.341	.2639	-.00000006	-.0000000003
.4021	.2161	-.000000078	-.00000000039
.4172	.1882	-.00000009	-.00000000045
.5216	.3316	-.000000085	-.000000000425
.6315	.2018	-.000000064	-.00000000032
.6802	.1012	-.000000072	-.00000000036
.701	.082	-.000000072	-.00000000036
.7512	.1111	-.000000052	-.00000000026

System: benzene + 2-methylaniline + toluene; phases: Liquid
Fixed: Temperature, K = 298.15
Fixed: Pressure, kPa = 101
Property: Speed of sound, m/s (Liquid); method: Pulse-echo method
Mole fraction of 2-methylaniline	Mole fraction of benzene	Speed of sound, m/s	uncertainty
.1968	.6017	1096	1
.2357	.5893	1004	1
.2873	.5014	1000	1
.3353	.3859	1193	1
.3981	.4134	952	1
.4356	.3616	1061	1
.4987	.2816	1241	1
.6071	.2699	1129	1
.675	.2513	1174	1
.7081	.1771	1333	1
.7721	.1782	1346	1
.8365	.1121	1444	1

System: benzene + 1,2-dimethylbenzene + 2-methylaniline; phases: Liquid
Fixed: Temperature, K = 298.15
Fixed: Pressure, kPa = 101
Property: Excess molar volume, m3/mol (Liquid); method: Direct dilatometry
Mole fraction of 2-methylaniline	Mole fraction of benzene	Excess molar volume, m3/mol	uncertainty
.1147	.2785	.000000163	.000000000815
.1247	.1143	.000000086	.00000000043
.2206	.2329	.000000118	.00000000059
.2242	.7013	.000000032	.00000000016
.2726	.6243	.000000053	.000000000265
.3385	.3014	.000000121	.000000000605
.3787	.4414	.000000096	.00000000048
.4147	.1457	.000000048	.00000000024
.4846	.3252	.000000085	.000000000425
.5221	.2141	.000000071	.000000000355
.5771	.2998	.000000047	.000000000235
.6442	.0876	.000000037	.000000000185
.7565	.1008	.000000031	.000000000155
.8014	.0679	.000000028	.00000000014

System: benzene + 1,2-dimethylbenzene + 2-methylaniline; phases: Liquid
Fixed: Temperature, K = 298.15
Fixed: Pressure, kPa = 101
Property: Speed of sound, m/s (Liquid); method: Pulse-echo method
Mole fraction of 2-methylaniline	Mole fraction of benzene	Speed of sound, m/s	uncertainty
.0535	.827	1339	1
.1765	.1386	1933	1
.2767	.2196	2215	1
.3176	.4052	1607	1
.3238	.3887	1652	1
.3473	.359	1716	1
.4893	.2936	1646	1
.5316	.1645	2215	1
.5872	.1967	1862	1
.6422	.1452	1958	1
.682	.1407	1842	1
.7412	.0967	1848	1
.7826	.071	1811	1
.8297	.0785	1667	1

System: benzene + 2-methylaniline + 1,4-dimethylbenzene; phases: Liquid
Fixed: Temperature, K = 298.15
Fixed: Pressure, kPa = 101
Property: Excess molar volume, m3/mol (Liquid); method: Direct dilatometry
Mole fraction of 2-methylaniline	Mole fraction of benzene	Excess molar volume, m3/mol	uncertainty
.0697	.6957	.000000109	.000000000545
.1173	.7177	.000000072	.00000000036
.1737	.6019	.000000077	.000000000385
.2521	.5518	.000000069	.000000000345
.294	.5128	.000000065	.000000000325
.3112	.4779	.000000053	.000000000265
.4002	.4186	.000000041	.000000000205
.4667	.4201	.00000007	.00000000035
.5461	.2443	-.000000045	-.000000000225
.6019	.2113	-.000000049	-.000000000245
.6221	.217	-.000000042	-.00000000021
.6586	.184	-.000000048	-.00000000024
.6878	.0436	-.000000063	-.000000000315

System: benzene + 2-methylaniline + 1,4-dimethylbenzene; phases: Liquid
Fixed: Temperature, K = 298.15
Fixed: Pressure, kPa = 101
Property: Speed of sound, m/s (Liquid); method: Pulse-echo method
Mole fraction of 2-methylaniline	Mole fraction of benzene	Speed of sound, m/s	uncertainty
.1459	.5648	1294	1
.1994	.151	1070	1
.2969	.235	1047	1
.3193	.5618	1418	1
.3426	.516	1445	1
.3739	.474	1461	1
.4148	.4068	1476	1
.4647	.3219	1447	1
.5361	.2816	1454	1
.6285	.2438	1472	1
.6691	.2012	1459	1
.7187	.1027	1338	1
.7616	.1521	1477	1
.8287	.0994	1488	1
