Measured thermophysical data. Conductance Studies of NaCl, KCl, NaBr, NaI, NaBPh4, and Bu4NI in Water + 2-Ethoxyethanol Mixtures at 298.15 K
Source: J. Chem. Eng. Data, 2010, 10.1021/je9006184
Compound 1: ethanol, 2-ethoxy-, C4H10O2
Compound 2: sodium chloride, ClNa
Compound 3: potassium chloride, ClK
Compound 4: sodium bromide, BrNa
Compound 5: sodium iodide, INa
Compound 6: sodium tetraphenylboron, C24H20BNa
Compound 7: tetrabutylammonium iodide, C16H36IN
Compound 8: water, H2O

System: ethanol, 2-ethoxy-; phases: Liquid
Fixed: Pressure, kPa = 101.325
Property: Mass density, kg/m3 (Liquid); method: Pycnometric method
Temperature, K	Mass density, kg/m3	uncertainty
298.15	925.27	.02

System: ethanol, 2-ethoxy-; phases: Liquid
Fixed: Pressure, kPa = 101.325
Property: Viscosity, Pa*s (Liquid); method: Capillary tube (Ostwald; Ubbelohde) method
Temperature, K	Viscosity, Pa*s	uncertainty
298.15	.001845	.0000009225

System: ethanol, 2-ethoxy-; phases: Liquid
Fixed: Pressure, kPa = 101.325
Property: Refractive index (Na D-line) (Liquid); method: Standard Abbe refractometry
Temperature, K	Refractive index (Na D-line)	uncertainty
298.15	1.4056	.00002

System: ethanol, 2-ethoxy- + water; phases: Liquid
Fixed: Temperature, K = 298.15
Fixed: Pressure, kPa = 101
Property: Viscosity, Pa*s (Liquid); method: Capillary tube (Ostwald; Ubbelohde) method
Mole fraction of ethanol, 2-ethoxy-	Viscosity, Pa*s	uncertainty
.0109	.0010698	.0000005349
.0249	.0013164	.0000006582
.0499	.0017813	.00000089065
.075	.0022263	.00000111315
.1007	.0026162	.0000013081
.1486	.0031522	.0000015761
.203	.0034729	.00000173645

System: ethanol, 2-ethoxy- + sodium chloride + water; phases: Liquid
Fixed: Temperature, K = 298.15
Fixed: Pressure, kPa = 101
Property: Molar conductivity, S*m2/mol (Liquid); method: given elsewhere
Solvent: Mole fraction of ethanol, 2-ethoxy-	Amount concentration (molarity), mol/dm3 of sodium chloride	Molar conductivity, S*m2/mol	uncertainty
.01	.0017715	.010794	.0000032382
.01	.0024946	.010731	.0000032193
.01	.0035777	.010656	.0000031968
.01	.0050804	.010574	.0000031722
.01	.0065658	.010507	.0000031521
.01	.0079946	.010452	.0000031356
.01	.0093498	.010404	.0000031212
.025	.0013929	.009041	.0000027123
.025	.0020912	.008984	.0000026952
.025	.0031194	.00891	.000002673
.025	.0060114	.008789	.0000026367
.025	.0074678	.00872	.000002616
.025	.008797	.00869	.000002607
.025	.010149	.00865	.000002595
.025	.011491	.008615	.0000025845
.05	.0024154	.006912	.0000020736
.05	.0035415	.006857	.0000020571
.05	.0050208	.006802	.0000020406
.05	.0064341	.006757	.0000020271
.05	.0078291	.006718	.0000020154
.05	.009227	.006689	.0000020067
.05	.010529	.00666	.000001998
.05	.011825	.006634	.0000019902
.075	.0016432	.005668	.0000017004
.075	.0024229	.005628	.0000016884
.075	.0036522	.005576	.0000016728
.075	.0051933	.005526	.0000016578
.075	.0066061	.005488	.0000016464
.075	.0080456	.005454	.0000016362
.075	.0093881	.005426	.0000016278
.075	.0107	.005401	.0000016203
.075	.012042	.005378	.0000016134
.1	.0019086	.004802	.0000014406
.1	.0027034	.004768	.0000014304
.1	.003715	.004733	.0000014199
.1	.0052171	.004689	.0000014067
.1	.0081241	.00462	.000001386
.1	.0095351	.004594	.0000013782
.1	.010889	.004571	.0000013713
.1	.012249	.004548	.0000013644
.15	.0015868	.003829	.0000011487
.15	.0023091	.003796	.0000011388
.15	.0034857	.003753	.0000011259
.15	.0049728	.003709	.0000011127
.15	.0063398	.003676	.0000011028
.15	.0077298	.003646	.0000010938
.15	.0091046	.00362	.000001086
.15	.010374	.003598	.0000010794
.15	.011705	.003578	.0000010734
.2	.0037841	.003126	.0000009378
.2	.0053155	.003078	.0000009234
.2	.0067227	.003044	.0000009132
.2	.0081642	.003011	.0000009033
.2	.0096373	.002984	.0000008952
.2	.010981	.002961	.0000008883
.2	.012285	.00294	.000000882
.2	.013561	.002922	.0000008766

System: ethanol, 2-ethoxy- + potassium chloride + water; phases: Liquid
Fixed: Temperature, K = 298.15
Fixed: Pressure, kPa = 101
Property: Molar conductivity, S*m2/mol (Liquid); method: given elsewhere
Solvent: Mole fraction of ethanol, 2-ethoxy-	Amount concentration (molarity), mol/dm3 of potassium chloride	Molar conductivity, S*m2/mol	uncertainty
.01	.0035376	.012674	.0000038022
.01	.0050828	.012585	.0000037755
.01	.0065231	.012515	.0000037545
.01	.0079938	.012453	.0000037359
.01	.0093555	.012403	.0000037209
.01	.0108	.012354	.0000037062
.01	.012138	.012313	.0000036939
.025	.00060021	.010754	.0000032262
.025	.001104	.010676	.0000032028
.025	.002122	.010578	.0000031734
.025	.002897	.010522	.0000031566
.025	.0039448	.010461	.0000031383
.025	.0055904	.010386	.0000031158
.025	.007064	.010328	.0000030984
.025	.0086718	.010276	.0000030828
.025	.010073	.010236	.0000030708
.025	.011668	.010196	.0000030588
.025	.012419	.010164	.0000030492
.05	.0013663	.008257	.0000024771
.05	.002216	.008196	.0000024588
.05	.0030758	.008148	.0000024444
.05	.0042773	.008094	.0000024282
.05	.0058734	.008033	.0000024099
.05	.0073721	.007986	.0000023958
.05	.0088102	.007945	.0000023835
.05	.010295	.007907	.0000023721
.05	.011712	.007876	.0000023628
.05	.013269	.007836	.0000023508
.075	.0019265	.006607	.0000019821
.075	.0027032	.006564	.0000019692
.075	.0038637	.006511	.0000019533
.075	.0054079	.006457	.0000019371
.075	.0069366	.006414	.0000019242
.075	.0083715	.006378	.0000019134
.075	.0098161	.006343	.0000019029
.075	.011168	.006314	.0000018942
.075	.01274	.006285	.0000018855
.1	.00052886	.005692	.0000017076
.1	.0011422	.005635	.0000016905
.1	.0029224	.005532	.0000016596
.1	.0041907	.005474	.0000016422
.1	.0072957	.005373	.0000016119
.1	.0087294	.005336	.0000016008
.1	.010289	.005299	.0000015897
.1	.011696	.005271	.0000015813
.1	.012933	.005245	.0000015735
.15	.0012062	.004428	.0000013284
.15	.0021228	.004376	.0000013128
.15	.0029228	.004339	.0000013017
.15	.0040737	.004297	.0000012891
.15	.0057588	.004247	.0000012741
.15	.0072285	.004211	.0000012633
.15	.0087177	.004179	.0000012537
.15	.010145	.004152	.0000012456
.15	.011556	.004127	.0000012381
.15	.012922	.004105	.0000012315
.2	.0022035	.003698	.0000011094
.2	.0031217	.003655	.0000010965
.2	.0042824	.003611	.0000010833
.2	.0059114	.00356	.000001068
.2	.0075278	.003519	.0000010557
.2	.0089426	.003488	.0000010464
.2	.01053	.003458	.0000010374
.2	.011918	.003434	.0000010302
.2	.013185	.003413	.0000010239

System: ethanol, 2-ethoxy- + sodium bromide + water; phases: Liquid
Fixed: Temperature, K = 298.15
Fixed: Pressure, kPa = 101
Property: Molar conductivity, S*m2/mol (Liquid); method: given elsewhere
Solvent: Mole fraction of ethanol, 2-ethoxy-	Amount concentration (molarity), mol/dm3 of sodium bromide	Molar conductivity, S*m2/mol	uncertainty
.01	.0021301	.010881	.0000032643
.01	.0031699	.010802	.0000032406
.01	.0045119	.010723	.0000032169
.01	.0061035	.01065	.000003195
.01	.0076579	.010589	.0000031767
.01	.0090555	.010542	.0000031626
.01	.010463	.010497	.0000031491
.01	.011934	.010456	.0000031368
.01	.013292	.010419	.0000031257
.025	.0021545	.0090353	.00000271059
.025	.0029961	.0089833	.00000269499
.025	.0042994	.0089155	.00000267465
.025	.0059441	.0088516	.00000265548
.025	.007402	.0088017	.00000264051
.025	.0089471	.0087557	.00000262671
.025	.010392	.0087185	.00000261555
.025	.011857	.008684	.0000026052
.025	.013124	.0086564	.00000259692
.05	.0020743	.006885	.0000020655
.05	.0029292	.006843	.0000020529
.05	.0041334	.0068	.00000204
.05	.005788	.006748	.0000020244
.05	.0076106	.006701	.0000020103
.05	.0091042	.006668	.0000020004
.05	.010695	.006638	.0000019914
.05	.012111	.006612	.0000019836
.075	.0022764	.005572	.0000016716
.075	.0031781	.005534	.0000016602
.075	.0042435	.005499	.0000016497
.075	.0061111	.005451	.0000016353
.075	.0078002	.005458	.0000016374
.075	.0093451	.005388	.0000016164
.075	.010844	.005364	.0000016092
.075	.012293	.005342	.0000016026
.075	.013787	.005321	.0000015963
.1	.00097186	.004795	.0000014385
.1	.002027	.004739	.0000014217
.1	.0031018	.004697	.0000014091
.1	.0040166	.004667	.0000014001
.1	.0054204	.004632	.0000013896
.1	.0071897	.004596	.0000013788
.1	.0087363	.004567	.0000013701
.1	.010226	.004547	.0000013641
.1	.011727	.004525	.0000013575
.1	.013245	.004504	.0000013512
.1	.014801	.004489	.0000013467
.15	.00077771	.003864	.0000011592
.15	.0017078	.003816	.0000011448
.15	.0029694	.003767	.0000011301
.15	.0043065	.00373	.000001119
.15	.0054589	.003705	.0000011115
.15	.0074034	.003666	.0000010998
.15	.0088442	.00364	.000001092
.15	.010568	.003615	.0000010845
.15	.01234	.003592	.0000010776
.15	.013924	.003573	.0000010719
.15	.015559	.003557	.0000010671
.2	.0011007	.003306	.0000009918
.2	.0019505	.003264	.0000009792
.2	.0029851	.003226	.0000009678
.2	.0040527	.003195	.0000009585
.2	.0055538	.003158	.0000009474
.2	.0069964	.003129	.0000009387
.2	.0085871	.0031	.00000093
.2	.010119	.003077	.0000009231
.2	.011894	.003053	.0000009159
.2	.01341	.003034	.0000009102
.2	.015006	.003016	.0000009048

System: ethanol, 2-ethoxy- + sodium iodide + water; phases: Liquid
Fixed: Temperature, K = 298.15
Fixed: Pressure, kPa = 101
Property: Molar conductivity, S*m2/mol (Liquid); method: given elsewhere
Solvent: Mole fraction of ethanol, 2-ethoxy-	Amount concentration (molarity), mol/dm3 of sodium iodide	Molar conductivity, S*m2/mol	uncertainty
.01	.0017051	.010695	.0000032085
.01	.002519	.010632	.0000031896
.01	.003427	.010574	.0000031722
.01	.0047943	.010507	.0000031521
.01	.0063102	.010447	.0000031341
.01	.0076829	.010399	.0000031197
.01	.0090704	.010357	.0000031071
.01	.010385	.01032	.000003096
.01	.011673	.010271	.0000030813
.025	.0005707	.008888	.0000026664
.025	.001095	.008833	.0000026499
.025	.0025162	.008748	.0000026244
.025	.0036283	.008704	.0000026112
.025	.0050713	.008654	.0000025962
.025	.0066709	.008601	.0000025803
.025	.0084433	.008559	.0000025677
.025	.010158	.008526	.0000025578
.025	.01191	.008493	.0000025479
.025	.013459	.008466	.0000025398
.025	.015016	.008442	.0000025326
.05	.0031978	.006539	.0000019617
.05	.0045714	.006491	.0000019473
.05	.0061054	.006452	.0000019356
.05	.007701	.006412	.0000019236
.05	.0094106	.006393	.0000019179
.05	.011144	.006364	.0000019092
.05	.012663	.006343	.0000019029
.05	.014159	.006324	.0000018972
.05	.015629	.006307	.0000018921
.075	.0025162	.005285	.0000015855
.075	.0036283	.005245	.0000015735
.075	.0050713	.005208	.0000015624
.075	.0066709	.005176	.0000015528
.075	.0084433	.005147	.0000015441
.075	.010158	.005122	.0000015366
.075	.01191	.0051	.00000153
.075	.013459	.005083	.0000015249
.075	.015016	.005067	.0000015201
.1	.00078141	.004545	.0000013635
.1	.0015356	.004506	.0000013518
.1	.0025223	.004467	.0000013401
.1	.0035672	.004434	.0000013302
.1	.0046413	.004409	.0000013227
.1	.0061996	.004378	.0000013134
.1	.0080322	.004346	.0000013038
.1	.0096321	.004325	.0000012975
.1	.011112	.004311	.0000012933
.1	.012484	.004298	.0000012894
.1	.01396	.004288	.0000012864
.15	.00079004	.003653	.0000010959
.15	.0016857	.003611	.0000010833
.15	.0026678	.003579	.0000010737
.15	.0035572	.003555	.0000010665
.15	.0048723	.003526	.0000010578
.15	.0064426	.003499	.0000010497
.15	.00816	.003474	.0000010422
.15	.0096232	.003456	.0000010368
.15	.011352	.003438	.0000010314
.15	.012831	.003424	.0000010272
.15	.01442	.00341	.000001023
.2	.0012988	.003161	.0000009483
.2	.0022702	.003126	.0000009378
.2	.0032987	.003093	.0000009279
.2	.004624	.003062	.0000009186
.2	.0061013	.003033	.0000009099
.2	.0076987	.003007	.0000009021
.2	.0091751	.002986	.0000008958
.2	.010733	.002966	.0000008898
.2	.012311	.002948	.0000008844
.2	.013741	.002934	.0000008802

System: ethanol, 2-ethoxy- + sodium tetraphenylboron + water; phases: Liquid
Fixed: Temperature, K = 298.15
Fixed: Pressure, kPa = 101
Property: Molar conductivity, S*m2/mol (Liquid); method: given elsewhere
Solvent: Mole fraction of ethanol, 2-ethoxy-	Amount concentration (molarity), mol/dm3 of sodium tetraphenylboron	Molar conductivity, S*m2/mol	uncertainty
.01	.00078917	.005982	.0000017946
.01	.0012165	.005942	.0000017826
.01	.0016813	.005908	.0000017724
.01	.0023424	.005868	.0000017604
.01	.0031258	.005825	.0000017475
.01	.0039262	.005794	.0000017382
.01	.0046727	.005765	.0000017295
.01	.0054207	.005739	.0000017217
.01	.0061304	.005719	.0000017157
.01	.0067758	.005701	.0000017103
.025	.0004428	.004969	.0000014907
.025	.00086841	.00493	.000001479
.025	.0015055	.00489	.000001467
.025	.0020821	.004861	.0000014583
.025	.0028858	.004832	.0000014496
.025	.0037889	.004802	.0000014406
.025	.0047145	.004778	.0000014334
.025	.0056323	.004757	.0000014271
.025	.0065993	.004738	.0000014214
.025	.0075232	.004723	.0000014169
.025	.0085056	.004705	.0000014115
.025	.0094053	.004692	.0000014076
.05	.0010056	.003788	.0000011364
.05	.0015468	.003765	.0000011295
.05	.0021309	.003747	.0000011241
.05	.0028947	.003726	.0000011178
.05	.0038091	.003706	.0000011118
.05	.0049017	.003687	.0000011061
.05	.0058486	.003672	.0000011016
.05	.0069911	.003658	.0000010974
.05	.0079622	.003647	.0000010941
.05	.0091106	.003635	.0000010905
.05	.010129	.003629	.0000010887
.075	.0010885	.003085	.0000009255
.075	.0017571	.003061	.0000009183
.075	.0022902	.003045	.0000009135
.075	.0031856	.003025	.0000009075
.075	.0042754	.003004	.0000009012
.075	.0053306	.002987	.0000008961
.075	.006331	.002973	.0000008919
.075	.007507	.002958	.0000008874
.075	.0085455	.002946	.0000008838
.075	.0096485	.002935	.0000008805
.1	.0013913	.002643	.0000007929
.1	.0021928	.002627	.0000007881
.1	.0031756	.00261	.000000783
.1	.0044057	.002593	.0000007779
.1	.005537	.00258	.000000774
.1	.0064438	.002572	.0000007716
.1	.0074313	.002562	.0000007686
.1	.008427	.002554	.0000007662
.1	.0092876	.002548	.0000007644
.1	.010416	.002541	.0000007623
.15	.0011983	.002166	.0000006498
.15	.0019004	.002153	.0000006459
.15	.0025203	.002142	.0000006426
.15	.0032936	.00213	.000000639
.15	.0042316	.002118	.0000006354
.15	.0052036	.002107	.0000006321
.15	.0061643	.002098	.0000006294
.15	.0070586	.002091	.0000006273
.15	.0079708	.002084	.0000006252
.15	.0091867	.002076	.0000006228
.2	.0013044	.001903	.0000005709
.2	.0018825	.001889	.0000005667
.2	.0027047	.001874	.0000005622
.2	.0034009	.001863	.0000005589
.2	.0041761	.001854	.0000005562
.2	.0049856	.001843	.0000005529
.2	.0055632	.001837	.0000005511
.2	.0066593	.001827	.0000005481
.2	.0076902	.001816	.0000005448
.2	.0086482	.001806	.0000005418
.2	.0096355	.001798	.0000005394
.2	.010531	.00179	.000000537

System: ethanol, 2-ethoxy- + tetrabutylammonium iodide + water; phases: Liquid
Fixed: Temperature, K = 298.15
Fixed: Pressure, kPa = 101
Property: Molar conductivity, S*m2/mol (Liquid); method: given elsewhere
Solvent: Mole fraction of ethanol, 2-ethoxy-	Amount concentration (molarity), mol/dm3 of tetrabutylammonium iodide	Molar conductivity, S*m2/mol	uncertainty
.01	.00073345	.008089	.0000024267
.01	.0011258	.008023	.0000024069
.01	.001575	.007961	.0000023883
.01	.0020721	.007903	.0000023709
.01	.0026904	.007838	.0000023514
.01	.0033086	.007779	.0000023337
.01	.0039739	.007722	.0000023166
.01	.0045646	.007675	.0000023025
.01	.0051157	.007634	.0000022902
.01	.0056636	.007594	.0000022782
.025	.00038928	.006555	.0000019665
.025	.00076174	.006497	.0000019491
.025	.0012541	.006438	.0000019314
.025	.0017014	.006389	.0000019167
.025	.0022356	.006339	.0000019017
.025	.0028213	.006291	.0000018873
.025	.0034852	.006241	.0000018723
.025	.0041249	.006196	.0000018588
.025	.0046906	.006162	.0000018486
.025	.005435	.00612	.000001836
.05	.0012696	.004699	.0000014097
.05	.0018725	.004648	.0000013944
.05	.0024252	.004609	.0000013827
.05	.0031109	.004568	.0000013704
.05	.0037972	.004535	.0000013605
.05	.0045026	.004506	.0000013518
.05	.005223	.004475	.0000013425
.05	.0058588	.004447	.0000013341
.05	.0062608	.004431	.0000013293
.05	.0067803	.00441	.000001323
.075	.0015858	.003664	.0000010992
.075	.0021641	.00363	.000001089
.075	.0028967	.003597	.0000010791
.075	.0035226	.003572	.0000010716
.075	.0042738	.003543	.0000010629
.075	.0049153	.00352	.000001056
.075	.0055332	.003499	.0000010497
.075	.0063259	.003474	.0000010422
.1	.00044934	.003177	.0000009531
.1	.00095889	.003136	.0000009408
.1	.0015351	.0031	.00000093
.1	.0022807	.003066	.0000009198
.1	.0029219	.003042	.0000009126
.1	.0037656	.003011	.0000009033
.1	.0044066	.002987	.0000008961
.1	.00517	.002963	.0000008889
.1	.0058255	.002943	.0000008829
.1	.0064401	.002928	.0000008784
.1	.0069279	.002915	.0000008745
.15	.0014638	.002502	.0000007506
.15	.0019964	.002476	.0000007428
.15	.002544	.002458	.0000007374
.15	.0032492	.002433	.0000007299
.15	.0039105	.002416	.0000007248
.15	.0046067	.002394	.0000007182
.15	.005204	.002377	.0000007131
.15	.0058522	.002362	.0000007086
.15	.0063956	.002348	.0000007044
.2	.00202	.002228	.0000006684
.2	.0026474	.002204	.0000006612
.2	.0033513	.00218	.000000654
.2	.0039699	.002161	.0000006483
.2	.0044934	.002145	.0000006435
.2	.0051254	.002126	.0000006378
.2	.0057118	.00211	.000000633
.2	.006302	.002095	.0000006285
