Measured thermophysical data. Transport Properties of Aqueous Solutions of (1R,2S)-(-)- and (1S,2R)-(+)-Ephedrine Hydrochloride at Different Temperatures
Source: J. Chem. Eng. Data, 2010, 10.1021/je9005757
Compound 1: (1R,2S)-(-)-ephedrine hydrochloride, C10H16ClNO
Compound 2: D-ephedrine hydrochloride, C10H15NO
Compound 3: water, H2O

System: (1R,2S)-(-)-ephedrine hydrochloride + water; phases: Liquid
Fixed: Pressure, kPa = 101
Property: Molar conductivity, S*m2/mol (Liquid); method: Shedlovsky-type conductance cell
Temperature, K	Amount concentration (molarity), mol/dm3 of (1R,2S)-(-)-ephedrine hydrochloride	Molar conductivity, S*m2/mol	uncertainty
283.15	.00184	.006571	.000006571
283.15	.002438	.006463	.000006463
283.15	.00303	.006355	.000006355
283.15	.003614	.00628	.00000628
283.15	.004191	.006181	.000006181
283.15	.004761	.006103	.000006103
283.15	.005324	.006044	.000006044
283.15	.005881	.00599	.00000599
283.15	.006431	.005925	.000005925
283.15	.006975	.00586	.00000586
283.15	.007513	.005794	.000005794
283.15	.008044	.005736	.000005736
283.15	.008569	.005685	.000005685
283.15	.009089	.005635	.000005635
283.15	.009602	.005584	.000005584
283.15	.01011	.005537	.000005537
283.15	.010612	.005491	.000005491
283.15	.011108	.005446	.000005446
283.15	.011599	.005401	.000005401
283.15	.012085	.005359	.000005359
283.15	.012565	.00532	.00000532
283.15	.01304	.005281	.000005281
283.15	.01351	.005244	.000005244
283.15	.013975	.00521	.00000521
283.15	.014435	.005176	.000005176
283.15	.01489	.00514	.00000514
283.15	.01534	.005107	.000005107
283.15	.015786	.005075	.000005075
283.15	.016226	.005042	.000005042
283.15	.016663	.005011	.000005011
293.15	.00184	.008375	.000008375
293.15	.002438	.008198	.000008198
293.15	.00303	.008059	.000008059
293.15	.003614	.007907	.000007907
293.15	.004191	.007775	.000007775
293.15	.004761	.007663	.000007663
293.15	.005324	.007564	.000007564
293.15	.005881	.007468	.000007468
293.15	.006431	.007377	.000007377
293.15	.006975	.007288	.000007288
293.15	.007513	.007199	.000007199
293.15	.008044	.007119	.000007119
293.15	.008569	.007044	.000007044
293.15	.009089	.006974	.000006974
293.15	.009602	.006908	.000006908
293.15	.01011	.006846	.000006846
293.15	.010612	.006795	.000006795
293.15	.011108	.006723	.000006723
293.15	.011599	.006663	.000006663
293.15	.012085	.006604	.000006604
293.15	.012565	.006549	.000006549
293.15	.01304	.006498	.000006498
293.15	.01351	.006448	.000006448
293.15	.013975	.0064	.0000064
293.15	.014435	.006354	.000006354
293.15	.01489	.006307	.000006307
293.15	.01534	.00626	.00000626
293.15	.015786	.006217	.000006217
293.15	.016226	.006174	.000006174
293.15	.016663	.006133	.000006133
298.15	.00184	.009463	.000009463
298.15	.002438	.009282	.000009282
298.15	.00303	.009127	.000009127
298.15	.003614	.008991	.000008991
298.15	.004191	.00886	.00000886
298.15	.004761	.008753	.000008753
298.15	.005324	.008653	.000008653
298.15	.005881	.008556	.000008556
298.15	.006431	.008465	.000008465
298.15	.006975	.008374	.000008374
298.15	.007513	.008283	.000008283
298.15	.008044	.008199	.000008199
298.15	.008569	.00812	.00000812
298.15	.009089	.008044	.000008044
298.15	.009602	.007975	.000007975
298.15	.01011	.007908	.000007908
298.15	.010612	.00784	.00000784
298.15	.011108	.007774	.000007774
298.15	.011599	.007709	.000007709
298.15	.012085	.007646	.000007646
298.15	.012565	.007586	.000007586
298.15	.01304	.00753	.00000753
298.15	.01351	.007474	.000007474
298.15	.013975	.007422	.000007422
298.15	.014435	.00737	.00000737
298.15	.01489	.007318	.000007318
298.15	.01534	.007267	.000007267
298.15	.015786	.007217	.000007217
298.15	.016226	.00717	.00000717
298.15	.016663	.007125	.000007125
303.15	.00184	.01041	.00001041
303.15	.002438	.010227	.000010227
303.15	.00303	.010062	.000010062
303.15	.003614	.009914	.000009914
303.15	.004191	.009802	.000009802
303.15	.004761	.009663	.000009663
303.15	.005324	.009567	.000009567
303.15	.005881	.009474	.000009474
303.15	.006431	.009363	.000009363
303.15	.006975	.009271	.000009271
303.15	.007513	.009197	.000009197
303.15	.008044	.00911	.00000911
303.15	.008569	.009028	.000009028
303.15	.009089	.008949	.000008949
303.15	.009602	.008878	.000008878
303.15	.01011	.008807	.000008807
303.15	.010612	.008734	.000008734
303.15	.011108	.008665	.000008665
303.15	.011599	.008596	.000008596
303.15	.012085	.008528	.000008528
303.15	.012565	.008464	.000008464
303.15	.01304	.008437	.000008437
303.15	.01351	.008343	.000008343
303.15	.013975	.008286	.000008286
303.15	.014435	.00823	.00000823
303.15	.01489	.008174	.000008174
303.15	.01534	.008118	.000008118
303.15	.015786	.008064	.000008064
303.15	.016226	.008012	.000008012
303.15	.016663	.007962	.000007962
310.15	.00184	.011948	.000011948
310.15	.002438	.011729	.000011729
310.15	.00303	.011537	.000011537
310.15	.003614	.01139	.00001139
310.15	.004191	.011254	.000011254
310.15	.004761	.011078	.000011078
310.15	.005324	.010964	.000010964
310.15	.005881	.010851	.000010851
310.15	.006431	.010744	.000010744
310.15	.006975	.010635	.000010635
310.15	.007513	.010524	.000010524
310.15	.008044	.010422	.000010422
310.15	.008569	.010326	.000010326
310.15	.009089	.010234	.000010234
310.15	.009602	.010149	.000010149
310.15	.01011	.010066	.000010066
310.15	.010612	.009982	.000009982
310.15	.011108	.009901	.000009901
310.15	.011599	.009821	.000009821
310.15	.012085	.009742	.000009742
310.15	.012565	.009673	.000009673
310.15	.01304	.009602	.000009602
310.15	.01351	.009533	.000009533
310.15	.013975	.009467	.000009467
310.15	.014435	.009401	.000009401
310.15	.01489	.009336	.000009336
310.15	.01534	.009271	.000009271
310.15	.015786	.009208	.000009208
310.15	.016226	.009146	.000009146
310.15	.016663	.009088	.000009088
323.15	.00184	.014954	.000014954
323.15	.002438	.014708	.000014708
323.15	.00303	.014487	.000014487
323.15	.003614	.014273	.000014273
323.15	.004191	.014079	.000014079
323.15	.004761	.013917	.000013917
323.15	.005324	.013766	.000013766
323.15	.005881	.013563	.000013563
323.15	.006431	.01344	.00001344
323.15	.006975	.013315	.000013315
323.15	.007513	.013184	.000013184
323.15	.008044	.013066	.000013066
323.15	.008569	.012954	.000012954
323.15	.009089	.012844	.000012844
323.15	.009602	.012743	.000012743
323.15	.01011	.012643	.000012643
323.15	.010612	.01254	.00001254
323.15	.011108	.01244	.00001244
323.15	.011599	.012342	.000012342
323.15	.012085	.012256	.000012256
323.15	.012565	.01215	.00001215
323.15	.01304	.012062	.000012062
323.15	.01351	.011973	.000011973
323.15	.013975	.01189	.00001189
323.15	.014435	.011808	.000011808
323.15	.01489	.011725	.000011725
323.15	.01534	.011644	.000011644
323.15	.015786	.011564	.000011564
323.15	.016226	.011486	.000011486
323.15	.016663	.011411	.000011411

System: (1R,2S)-(-)-ephedrine hydrochloride + water; phases: Liquid
Fixed: Pressure, kPa = 101
Property: Binary diffusion coefficient, m2/s (Liquid); method: Open capillary
Temperature, K	Amount concentration (molarity), mol/dm3 of (1R,2S)-(-)-ephedrine hydrochloride	Binary diffusion coefficient, m2/s	uncertainty
298.15	.00125	0.00000000115	
298.15	.0025	0.0000000011	
298.15	.00499	0.00000000109	
298.15	.00746	0.000000001028	
298.15	.01	0.000000001005	
310.15	.00125	0.00000000157	
310.15	.0025	0.00000000156	
310.15	.00499	0.000000001501	
310.15	.00746	0.000000001445	
310.15	.01	0.000000001408	

System: water + D-ephedrine hydrochloride; phases: Liquid
Fixed: Pressure, kPa = 101
Property: Molar conductivity, S*m2/mol (Liquid); method: Shedlovsky-type conductance cell
Temperature, K	Amount concentration (molarity), mol/dm3 of D-ephedrine hydrochloride	Molar conductivity, S*m2/mol	uncertainty
283.15	.001841	.006545	.000006545
283.15	.00244	.006422	.000006422
283.15	.003031	.006316	.000006316
283.15	.003615	.006204	.000006204
283.15	.004193	.006101	.000006101
283.15	.004763	.006018	.000006018
283.15	.005327	.005942	.000005942
283.15	.005884	.005866	.000005866
283.15	.006434	.005795	.000005795
283.15	.006978	.005725	.000005725
283.15	.007516	.005655	.000005655
283.15	.008048	.005593	.000005593
283.15	.008573	.005534	.000005534
283.15	.009093	.005477	.000005477
283.15	.009607	.005427	.000005427
283.15	.010115	.005377	.000005377
283.15	.010617	.005329	.000005329
283.15	.011114	.005284	.000005284
283.15	.011605	.005242	.000005242
283.15	.012091	.005196	.000005196
283.15	.012571	.005156	.000005156
283.15	.013046	.005118	.000005118
283.15	.013517	.005078	.000005078
283.15	.013982	.005038	.000005038
283.15	.014442	.005003	.000005003
283.15	.014897	.004966	.000004966
283.15	.015347	.004929	.000004929
283.15	.015793	.004894	.000004894
283.15	.016234	.004861	.000004861
283.15	.01667	.004832	.000004832
293.15	.001841	.00844	.00000844
293.15	.00244	.008268	.000008268
293.15	.003031	.008109	.000008109
293.15	.003615	.007973	.000007973
293.15	.004193	.007849	.000007849
293.15	.004763	.007749	.000007749
293.15	.005327	.007661	.000007661
293.15	.005884	.00757	.00000757
293.15	.006434	.007486	.000007486
293.15	.006978	.007395	.000007395
293.15	.007516	.00731	.00000731
293.15	.008048	.007232	.000007232
293.15	.008573	.007159	.000007159
293.15	.009093	.007089	.000007089
293.15	.009607	.007027	.000007027
293.15	.010115	.006966	.000006966
293.15	.010617	.006904	.000006904
293.15	.011114	.006844	.000006844
293.15	.011605	.006785	.000006785
293.15	.012091	.006729	.000006729
293.15	.012571	.006675	.000006675
293.15	.013046	.006626	.000006626
293.15	.013517	.006576	.000006576
293.15	.013982	.006528	.000006528
293.15	.014442	.006483	.000006483
293.15	.014897	.006437	.000006437
293.15	.015347	.00639	.00000639
293.15	.015793	.006343	.000006343
293.15	.016234	.006302	.000006302
293.15	.01667	.006262	.000006262
298.15	.001841	.009366	.000009366
298.15	.00244	.009179	.000009179
298.15	.003031	.009034	.000009034
298.15	.003615	.008901	.000008901
298.15	.004193	.008778	.000008778
298.15	.004763	.008675	.000008675
298.15	.005327	.008577	.000008577
298.15	.005884	.008481	.000008481
298.15	.006434	.00839	.00000839
298.15	.006978	.008298	.000008298
298.15	.007516	.008205	.000008205
298.15	.008048	.00812	.00000812
298.15	.008573	.00804	.00000804
298.15	.009093	.007965	.000007965
298.15	.009607	.007896	.000007896
298.15	.010115	.007829	.000007829
298.15	.010617	.007761	.000007761
298.15	.011114	.007695	.000007695
298.15	.011605	.00763	.00000763
298.15	.012091	.007567	.000007567
298.15	.012571	.007501	.000007501
298.15	.013046	.00745	.00000745
298.15	.013517	.007395	.000007395
298.15	.013982	.007343	.000007343
298.15	.014442	.007291	.000007291
298.15	.014897	.007239	.000007239
298.15	.015347	.007188	.000007188
298.15	.015793	.007138	.000007138
298.15	.016234	.00709	.00000709
298.15	.01667	.007045	.000007045
303.15	.001841	.010407	.000010407
303.15	.00244	.010201	.000010201
303.15	.003031	.010008	.000010008
303.15	.003615	.009837	.000009837
303.15	.004193	.009703	.000009703
303.15	.004763	.009566	.000009566
303.15	.005327	.009439	.000009439
303.15	.005884	.00932	.00000932
303.15	.006434	.009208	.000009208
303.15	.006978	.009099	.000009099
303.15	.007516	.008991	.000008991
303.15	.008048	.008893	.000008893
303.15	.008573	.0088	.0000088
303.15	.009093	.008713	.000008713
303.15	.009607	.008633	.000008633
303.15	.010115	.008556	.000008556
303.15	.010617	.008478	.000008478
303.15	.011114	.008404	.000008404
303.15	.011605	.008329	.000008329
303.15	.012091	.008257	.000008257
303.15	.012571	.00819	.00000819
303.15	.013046	.008126	.000008126
303.15	.013517	.008064	.000008064
303.15	.013982	.008005	.000008005
303.15	.014442	.007946	.000007946
303.15	.014897	.007888	.000007888
303.15	.015347	.007831	.000007831
303.15	.015793	.007776	.000007776
303.15	.016234	.007722	.000007722
303.15	.01667	.007671	.000007671
310.15	.001841	.012009	.000012009
310.15	.00244	.011774	.000011774
310.15	.003031	.01159	.00001159
310.15	.003615	.011406	.000011406
310.15	.004193	.01122	.00001122
310.15	.004763	.011067	.000011067
310.15	.005327	.010939	.000010939
310.15	.005884	.010794	.000010794
310.15	.006434	.010697	.000010697
310.15	.006978	.010572	.000010572
310.15	.007516	.010463	.000010463
310.15	.008048	.010363	.000010363
310.15	.008573	.010267	.000010267
310.15	.009093	.010175	.000010175
310.15	.009607	.01009	.00001009
310.15	.010115	.010008	.000010008
310.15	.010617	.009923	.000009923
310.15	.011114	.009841	.000009841
310.15	.011605	.00976	.00000976
310.15	.012091	.009679	.000009679
310.15	.012571	.009603	.000009603
310.15	.013046	.009532	.000009532
310.15	.013517	.009461	.000009461
310.15	.013982	.009394	.000009394
310.15	.014442	.009328	.000009328
310.15	.014897	.009261	.000009261
310.15	.015347	.009196	.000009196
310.15	.015793	.009132	.000009132
310.15	.016234	.009069	.000009069
310.15	.01667	.00901	.00000901
323.15	.001841	.015245	.000015245
323.15	.00244	.014894	.000014894
323.15	.003031	.014693	.000014693
323.15	.003615	.014437	.000014437
323.15	.004193	.014224	.000014224
323.15	.004763	.014014	.000014014
323.15	.005327	.013841	.000013841
323.15	.005884	.013677	.000013677
323.15	.006434	.013519	.000013519
323.15	.006978	.013368	.000013368
323.15	.007516	.013216	.000013216
323.15	.008048	.013078	.000013078
323.15	.008573	.012948	.000012948
323.15	.009093	.012827	.000012827
323.15	.009607	.012711	.000012711
323.15	.010115	.012601	.000012601
323.15	.010617	.01249	.00001249
323.15	.011114	.012384	.000012384
323.15	.011605	.012278	.000012278
323.15	.012091	.012174	.000012174
323.15	.012571	.012076	.000012076
323.15	.013046	.011984	.000011984
323.15	.013517	.011894	.000011894
323.15	.013982	.011809	.000011809
323.15	.014442	.011723	.000011723
323.15	.014897	.011638	.000011638
323.15	.015347	.011554	.000011554
323.15	.015793	.011473	.000011473
323.15	.016234	.011393	.000011393
323.15	.01667	.011318	.000011318

System: water + D-ephedrine hydrochloride; phases: Liquid
Fixed: Pressure, kPa = 101
Property: Binary diffusion coefficient, m2/s (Liquid); method: Open capillary
Temperature, K	Amount concentration (molarity), mol/dm3 of D-ephedrine hydrochloride	Binary diffusion coefficient, m2/s	uncertainty
298.15	.001	0.000000001135	
298.15	.0025	0.000000001125	
298.15	.005	0.000000001099	
298.15	.008	0.00000000105	
298.15	.01	0.000000001013	
310.15	.001	0.000000001567	
310.15	.0025	0.00000000153	
310.15	.005	0.00000000148	
310.15	.008	0.00000000142	
310.15	.01	0.000000001379	
