Measured thermophysical data. Solubilities of Isonicotinic Acid in Sulfuric Acid + Water and 4-Methylpyridine + Sulfuric Acid + Water from (293.55 to 361.45) K
Source: J. Chem. Eng. Data, 2010, 10.1021/je900871q
Compound 1: sulfuric acid, H2O4S, purity 99%
Compound 2: water, H2O
Compound 3: 4-pyridinecarboxylic acid, C6H5NO2

System: 4-pyridinecarboxylic acid + sulfuric acid + water; phases: Liquid, Crystal
Fixed: Pressure, kPa = 101
Property: Mole fraction of 4-pyridinecarboxylic acid (Liquid); method: Laser Monitoring Observation
Temperature, K	Solvent: Mass fraction of water	Mole fraction of 4-pyridinecarboxylic acid	uncertainty
298.15	.8	.05035	.0005035
315.25	.8	.05234	.0005234
321.95	.8	.05311	.0005311
328.65	.8	.05383	.0005383
334.85	.8	.05456	.0005456
340.55	.8	.05523	.0005523
345.75	.8	.0559	.000559
351.45	.8	.05659	.0005659
356.35	.8	.05729	.0005729
361.05	.8	.0579	.000579
290.55	.75	.05964	.0005964
297.45	.75	.06072	.0006072
301.45	.75	.0621	.000621
312.15	.75	.06337	.0006337
320.85	.75	.06438	.0006438
326.85	.75	.06514	.0006514
332.25	.75	.06581	.0006581
337.45	.75	.06649	.0006649
342.25	.75	.06716	.0006716
347.35	.75	.06782	.0006782
352.35	.75	.06852	.0006852
357.25	.75	.06921	.0006921
294.55	.7	.06438	.0006438
299.45	.7	.07265	.0007265
320.95	.7	.08101	.0008101
326.25	.7	.08157	.0008157
331.35	.7	.08213	.0008213
336.15	.7	.08265	.0008265
340.65	.7	.08325	.0008325
346.95	.7	.08392	.0008392
351.15	.7	.08459	.0008459
355.45	.7	.08522	.0008522
