Measured thermophysical data. Density, Viscosity, and Refractive Index for Water + 2-Butoxyethanol and + 2-(2-Butoxyethoxy)ethanol at Various Temperatures
Source: J. Chem. Eng. Data, 2010, 10.1021/je900478c
Compound 1: water, H2O
Compound 2: 2-butoxyethanol, C6H14O2
Compound 3: 2-(2-butoxyethoxy)ethanol, C8H18O3
Compound 4: diethylene glycol monohexyl ether, C10H22O3

System: 2-butoxyethanol; phases: Liquid
Property: Mass density, kg/m3 (Liquid); method: Vibrating tube method
Temperature, K	Pressure, kPa	Mass density, kg/m3	uncertainty
313.15	101	884.21	.02
303.15	101	892.68	.02
283.15	101	909.49	.02
323.15	101	875.6	.02
293.15	101	901.18	.02

System: 2-butoxyethanol; phases: Liquid
Property: Viscosity, Pa*s (Liquid); method: Capillary tube (Ostwald; Ubbelohde) method
Temperature, K	Pressure, kPa	Viscosity, Pa*s	uncertainty
283.15	101	.00446	.000014718
293.15	101	.0032878	.00001084974
303.15	101	.0024995	.00000824835
313.15	101	.0019459	.00000642147
323.15	101	.001543	.0000050919

System: 2-butoxyethanol; phases: Liquid
Fixed: Pressure, kPa = 101.325
Property: Refractive index (Na D-line) (Liquid); method: Standard Abbe refractometry
Temperature, K	Refractive index (Na D-line)	uncertainty
283.15	1.4226	
293.15	1.4196	
303.15	1.4157	
313.15	1.41139	
323.15	1.40701	

System: 2-(2-butoxyethoxy)ethanol; phases: Liquid
Property: Mass density, kg/m3 (Liquid); method: Vibrating tube method
Temperature, K	Pressure, kPa	Mass density, kg/m3	uncertainty
313.15	101	937.35	.02
323.15	101	928.85	.02
283.15	101	962.57	.02
293.15	101	954.16	.02
303.15	101	945.74	.02

System: 2-(2-butoxyethoxy)ethanol; phases: Liquid
Property: Viscosity, Pa*s (Liquid); method: Capillary tube (Ostwald; Ubbelohde) method
Temperature, K	Pressure, kPa	Viscosity, Pa*s	uncertainty
283.15	101	.0083013	.00002739429
293.15	101	.0058597	.00001933701
303.15	101	.0043229	.00001426557
313.15	101	.0032955	.00001087515
323.15	101	.0025805	.00000851565

System: 2-(2-butoxyethoxy)ethanol; phases: Liquid
Fixed: Pressure, kPa = 101.325
Property: Refractive index (Na D-line) (Liquid); method: Standard Abbe refractometry
Temperature, K	Refractive index (Na D-line)	uncertainty
283.15	1.4347	
293.15	1.4312	
303.15	1.42805	
313.15	1.424	
323.15	1.4194	

System: diethylene glycol monohexyl ether; phases: Liquid
Property: Mass density, kg/m3 (Liquid); method: Vibrating tube method
Temperature, K	Pressure, kPa	Mass density, kg/m3	uncertainty
283.15	101	942.09	.02
288.15	101	938.05	.02
293.15	101	934.06	.02
303.15	101	926.08	.02
313.15	101	918.17	.02

System: 2-butoxyethanol + water; phases: Liquid
Fixed: Pressure, kPa = 101
Property: Mass density, kg/m3 (Liquid); method: Vibrating tube method
Temperature, K	Mole fraction of 2-butoxyethanol	Mass density, kg/m3	uncertainty
283.15	0	999.7	.02
283.15	0	999.7	.02
293.15	0	998.2	.02
293.15	0	998.2	.02
303.15	0	995.65	.02
303.15	0	995.65	.02
313.15	0	992.21	.02
313.15	0	992.21	.02
323.15	0	988.04	.02
303.15	.1003	962.59	.02
313.15	.1003	955.66	.02
293.15	.1003	969.12	.02
283.15	.1003	975.52	.02
303.15	.2	942.62	.02
293.15	.2	950.15	.02
313.15	.2	934.8	.02
283.15	.2	957.51	.02
323.15	.2	926.83	.02
313.15	.3	921.47	.02
283.15	.3	945.28	.02
303.15	.3	929.57	.02
293.15	.3	937.5	.02
323.15	.3	913.23	.02
313.15	.4	911.3	.02
283.15	.4	935.77	.02
303.15	.4	919.6	.02
293.15	.4	927.76	.02
323.15	.4	902.87	.02
283.15	.5	928.69	.02
293.15	.5	920.54	.02
303.15	.5	912.16	.02
323.15	.5	895.22	.02
313.15	.5	903.78	.02
313.15	.6	898.14	.02
303.15	.6	906.6	.02
293.15	.6	914.96	.02
323.15	.6	889.56	.02
283.15	.6	923.16	.02
293.15	.7	910.49	.02
313.15	.7	893.57	.02
303.15	.7	902.02	.02
323.15	.7	884.96	.02
283.15	.7	918.7	.02
283.15	.7999	915.01	.02
313.15	.7999	889.84	.02
293.15	.7999	906.78	.02
303.15	.7999	898.3	.02
323.15	.7999	881.26	.02
323.15	.9	878.23	.02
313.15	.9	886.83	.02
303.15	.9	895.3	.02
283.15	.9	912.08	.02
293.15	.9	903.8	.02
313.15	1	884.21	.02
303.15	1	892.68	.02
283.15	1	909.49	.02
323.15	1	875.6	.02
293.15	1	901.18	.02
283.15	.0005	999.62	.02
293.15	.0005	998.13	.02
303.15	.0005	995.57	.02
313.15	.0005	992.12	.02
283.15	.001	999.53	.02
293.15	.001	998.01	.02
303.15	.001	995.46	.02
313.15	.001	992.02	.02
283.15	.00201	999.43	.02
293.15	.00201	997.89	.02
303.15	.00201	995.29	.02
313.15	.00201	991.8	.02
283.15	.003	999.37	.02
293.15	.003	997.78	.02
303.15	.003	995.12	.02
313.15	.003	991.58	.02
283.15	.00399	999.24	.02
293.15	.00399	997.6	.02
303.15	.00399	994.89	.02
313.15	.00399	991.31	.02
283.15	.005	999.06	.02
293.15	.005	997.34	.02
303.15	.005	994.59	.02
313.15	.005	990.98	.02
283.15	.00601	998.89	.02
293.15	.00601	997.11	.02
303.15	.00601	994.27	.02
313.15	.00601	990.64	.02
283.15	.00699	998.86	.02
293.15	.00699	996.97	.02
303.15	.00699	994.06	.02
313.15	.00699	990.36	.02
283.15	.00801	998.8	.02
293.15	.00801	996.83	.02
303.15	.00801	993.86	.02
313.15	.00801	990.11	.02
283.15	.00896	998.72	.02
293.15	.00896	996.7	.02
303.15	.00896	993.69	.02
313.15	.00896	989.86	.02
283.15	.00998	998.68	.02
293.15	.00998	996.57	.02
303.15	.00998	993.5	.02
313.15	.00998	989.6	.02
283.15	.01102	998.64	.02
293.15	.01102	996.43	.02
303.15	.01102	993.3	.02
313.15	.01102	989.31	.02
283.15	.01209	998.59	.02
293.15	.01209	996.3	.02
303.15	.01209	993.09	.02
313.15	.01209	988.99	.02
283.15	.01317	998.55	.02
293.15	.01317	996.16	.02
303.15	.01317	992.85	.02
313.15	.01317	988.65	.02
283.15	.01401	998.49	.02
293.15	.01401	996.02	.02
303.15	.01401	992.63	.02
313.15	.01401	988.37	.02
283.15	.01499	998.49	.02
293.15	.01499	995.91	.02
303.15	.01499	992.38	.02
313.15	.01499	988.01	.02
293.15	.01959	994.9	.02
303.15	.01959	990.79	.02
283.15	.01959	998.45	.02
313.15	.01959	985.95	.02
283.15	.02529	997	.02
293.15	.02529	992.94	.02
303.15	.02529	988.38	.02
313.15	.02529	983.21	.02
293.15	.0307	990.88	.02
283.15	.0307	995.31	.02
303.15	.0307	986.03	.02
313.15	.0307	980.66	.02
293.15	.03495	989.28	.02
303.15	.03495	984.22	.02
283.15	.03495	993.94	.02
313.15	.03495	978.71	.02
293.15	.04047	987.22	.02
303.15	.04047	981.99	.02
283.15	.04047	992.16	.02
313.15	.04047	976.24	.02
283.15	.04524	990.59	.02
293.15	.04524	985.5	.02
303.15	.04524	980.12	.02
313.15	.04524	974.25	.02
283.15	.04961	989.23	.02
293.15	.04961	983.99	.02
303.15	.04961	978.47	.02
313.15	.04961	972.5	.02
293.15	.05991	980.54	.02
283.15	.05991	986.08	.02
303.15	.05991	974.75	.02
313.15	.05991	968.52	.02
293.15	.06979	977.49	.02
303.15	.06979	971.48	.02
283.15	.06979	983.28	.02
313.15	.06979	965.02	.02
293.15	.07979	974.61	.02
283.15	.07979	980.63	.02
303.15	.07979	968.38	.02
313.15	.07979	961.77	.02
283.15	.08979	978.05	.02
293.15	.08979	971.87	.02
303.15	.08979	965.46	.02
313.15	.08979	958.67	.02

System: 2-butoxyethanol + water; phases: Liquid
Fixed: Pressure, kPa = 101
Property: Viscosity, Pa*s (Liquid); method: Capillary tube (Ostwald; Ubbelohde) method
Temperature, K	Mole fraction of 2-butoxyethanol	Viscosity, Pa*s	uncertainty
283.15	0	.0013087	.00000431871
283.15	.1003	.0054889	.00001811337
283.15	.2	.0071068	.00002345244
283.15	.3	.007415	.0000244695
283.15	.4	.0072339	.00002387187
283.15	.5	.00683	.000022539
283.15	.6	.0063522	.00002096226
283.15	.7	.0058575	.00001932975
283.15	.7999	.0053597	.00001768701
283.15	.9	.0048846	.00001611918
283.15	1	.00446	.000014718
293.15	0	.0010028	.00000330924
293.15	.1003	.0037909	.00001250997
293.15	.2	.0048544	.00001601952
293.15	.3	.0050794	.00001676202
293.15	.4	.0049945	.00001648185
293.15	.5	.0047608	.00001571064
293.15	.6	.0044755	.00001476915
293.15	.7	.004172	.0000137676
293.15	.7999	.0038645	.00001275285
293.15	.9	.0035598	.00001174734
293.15	1	.0032878	.00001084974
303.15	0	.0007983	.00000263439
303.15	.1003	.0027721	.00000914793
303.15	.2	.0034832	.00001149456
303.15	.3	.0036402	.00001201266
303.15	.4	.0035939	.00001185987
303.15	.5	.0034481	.00001137873
303.15	.6	.0032718	.00001079694
303.15	.7	.0030787	.00001015971
303.15	.7999	.0028791	.00000950103
303.15	.9	.0026793	.00000884169
303.15	1	.0024995	.00000824835
313.15	0	.0006543	.00000215919
313.15	.1003	.0021258	.00000701514
313.15	.2	.0025836	.00000852588
313.15	.3	.0026979	.00000890307
313.15	.4	.002672	.0000088176
313.15	.5	.0025828	.00000852324
313.15	.6	.0024647	.00000813351
313.15	.7	.0023369	.00000771177
313.15	.7999	.0022047	.00000727551
313.15	.9	.0020683	.00000682539
313.15	1	.0019459	.00000642147
323.15	0	.0005492	.00000181236
323.15	.2	.0019792	.00000653136
323.15	.3	.0020537	.00000677721
323.15	.4	.0020385	.00000672705
323.15	.5	.001981	.0000065373
323.15	.6	.0019007	.00000627231
323.15	.7	.0018133	.00000598389
323.15	.7999	.0017213	.00000568029
323.15	.9	.0016287	.00000537471
323.15	1	.001543	.0000050919

System: 2-butoxyethanol + water; phases: Liquid
Fixed: Pressure, kPa = 101
Property: Refractive index (Na D-line) (Liquid); method: Standard Abbe refractometry
Temperature, K	Mole fraction of 2-butoxyethanol	Refractive index (Na D-line)	uncertainty
283.15	0	1.33369	
283.15	.1003	1.3785	
283.15	.2	1.3965	
283.15	.3	1.4061	
283.15	.4	1.4118	
283.15	.5	1.4156	
283.15	.6	1.41823	
283.15	.7	1.4199	
283.15	.7999	1.4212	
283.15	.9	1.4221	
283.15	1	1.4226	
293.15	0	1.33299	
293.15	.1003	1.37658	
293.15	.2	1.39418	
293.15	.3	1.40355	
293.15	.4	1.4091	
293.15	.5	1.4128	
293.15	.6	1.41532	
293.15	.7	1.41695	
293.15	.7999	1.41815	
293.15	.9	1.41905	
293.15	1	1.4196	
303.15	0	1.33194	
303.15	.1003	1.374	
303.15	.2	1.39115	
303.15	.3	1.40025	
303.15	.4	1.40562	
303.15	.5	1.4092	
303.15	.6	1.4116	
303.15	.7	1.41315	
303.15	.7999	1.4143	
303.15	.9	1.4152	
303.15	1	1.4157	
313.15	0	1.33061	
313.15	.1003	1.37118	
313.15	.2	1.3878	
313.15	.3	1.39655	
313.15	.4	1.40175	
313.15	.5	1.4052	
313.15	.6	1.4075	
313.15	.7	1.40898	
313.15	.7999	1.41012	
313.15	.9	1.41095	
313.15	1	1.41139	
323.15	0	1.32904	
323.15	.2	1.38385	
323.15	.3	1.39248	
323.15	.4	1.3976	
323.15	.5	1.401	
323.15	.6	1.4032	
323.15	.7	1.40465	
323.15	.7999	1.40575	
323.15	.9	1.4066	
323.15	1	1.40701	

System: 2-(2-butoxyethoxy)ethanol + water; phases: Liquid
Fixed: Pressure, kPa = 101
Property: Mass density, kg/m3 (Liquid); method: Vibrating tube method
Temperature, K	Mole fraction of 2-(2-butoxyethoxy)ethanol	Mass density, kg/m3	uncertainty
283.15	0	999.7	.02
293.15	0	998.2	.02
303.15	0	995.65	.02
313.15	0	992.21	.02
323.15	0	988.04	.02
283.15	0	999.7	.02
293.15	0	998.2	.02
303.15	0	995.65	.02
313.15	0	992.21	.02
313.15	.1	979.73	.02
323.15	.1	971.95	.02
303.15	.1	987.21	.02
293.15	.1	994.55	.02
283.15	.1	1001.67	.02
313.15	.2	968.47	.02
303.15	.2	976.63	.02
293.15	.2	984.71	.02
283.15	.2	992.63	.02
323.15	.2	960.1	.02
293.15	.2999	977.27	.02
313.15	.2999	960.58	.02
303.15	.2999	968.97	.02
283.15	.2999	985.44	.02
323.15	.2999	951.9	.02
293.15	.4	971.27	.02
283.15	.4	979.51	.02
323.15	.4	945.89	.02
313.15	.4	954.51	.02
303.15	.4	962.91	.02
293.15	.5	966.63	.02
283.15	.5	974.9	.02
313.15	.5	949.82	.02
323.15	.5	941.29	.02
303.15	.5	958.27	.02
313.15	.6	946.32	.02
303.15	.6	954.74	.02
283.15	.6	971.46	.02
293.15	.6	963.17	.02
323.15	.6	937.75	.02
313.15	.7	943.62	.02
323.15	.7	935.03	.02
303.15	.7	952.05	.02
293.15	.7	960.45	.02
283.15	.7	968.77	.02
293.15	.7998	958.25	.02
313.15	.7998	941.34	.02
283.15	.7998	966.62	.02
303.15	.7998	949.8	.02
323.15	.7998	932.8	.02
293.15	.8999	956.18	.02
313.15	.8999	939.34	.02
323.15	.8999	930.8	.02
303.15	.8999	947.72	.02
283.15	.8999	964.58	.02
313.15	1	937.35	.02
323.15	1	928.85	.02
283.15	1	962.57	.02
293.15	1	954.16	.02
303.15	1	945.74	.02
283.15	.00199	1000.2	.02
293.15	.00199	998.59	.02
303.15	.00199	995.87	.02
313.15	.00199	992.68	.02
283.15	.003	1000.41	.02
293.15	.003	998.79	.02
303.15	.003	996.01	.02
313.15	.003	992.86	.02
293.15	.00498	999.2	.02
283.15	.00498	1001.05	.02
303.15	.00498	996.31	.02
313.15	.00498	993.28	.02
293.15	.00617	999.48	.02
283.15	.00617	1001.43	.02
303.15	.00617	996.53	.02
313.15	.00617	993.43	.02
293.15	.00706	999.68	.02
303.15	.00706	996.67	.02
283.15	.00706	1001.75	.02
313.15	.00706	993.51	.02
303.15	.00794	996.81	.02
313.15	.00794	993.62	.02
293.15	.00794	999.88	.02
283.15	.00794	1002	.02
293.15	.00892	1000.11	.02
303.15	.00892	996.95	.02
313.15	.00892	993.66	.02
283.15	.00892	1002.32	.02
303.15	.00993	997.07	.02
293.15	.00993	1000.34	.02
313.15	.00993	993.71	.02
283.15	.00993	1002.65	.02
283.15	.01492	1004.27	.02
303.15	.01492	997.66	.02
313.15	.01492	993.62	.02
293.15	.01492	1001.44	.02
283.15	.02056	1005.74	.02
303.15	.02056	997.51	.02
293.15	.02056	1002.03	.02
313.15	.02056	993.05	.02
303.15	.0238	997.18	.02
283.15	.0238	1006.36	.02
313.15	.0238	992.61	.02
293.15	.0238	1002.2	.02
293.15	.02697	1002.11	.02
303.15	.02697	997	.02
313.15	.02697	992.19	.02
283.15	.02697	1006.66	.02
313.15	.03015	991.64	.02
283.15	.03015	1006.78	.02
293.15	.03015	1001.94	.02
303.15	.03015	996.61	.02
313.15	.03953	989.79	.02
283.15	.03953	1006.53	.02
293.15	.03953	1001.04	.02
303.15	.03953	995.23	.02
293.15	.06038	998.81	.02
303.15	.06038	992.28	.02
283.15	.06038	1005.13	.02
313.15	.06038	986.16	.02
313.15	.07987	983.24	.02
283.15	.07987	1003.42	.02
293.15	.07987	996.64	.02
303.15	.07987	989.68	.02

System: 2-(2-butoxyethoxy)ethanol + water; phases: Liquid
Fixed: Pressure, kPa = 101
Property: Viscosity, Pa*s (Liquid); method: Capillary tube (Ostwald; Ubbelohde) method
Temperature, K	Mole fraction of 2-(2-butoxyethoxy)ethanol	Viscosity, Pa*s	uncertainty
283.15	0	.0013087	.00000431871
283.15	.1	.0086445	.00002852685
283.15	.2	.0123561	.00004077513
283.15	.2999	.0133196	.00004395468
283.15	.4	.013065	.0000431145
283.15	.5	.0123588	.00004078404
283.15	.6	.0114863	.00003790479
283.15	.7	.0105782	.00003490806
283.15	.7998	.0097483	.00003216939
283.15	.8999	.0090379	.00002982507
283.15	1	.0083013	.00002739429
293.15	0	.0010028	.00000330924
293.15	.1	.0056843	.00001875819
293.15	.2	.0079858	.00002635314
293.15	.2999	.0086369	.00002850177
293.15	.4	.0085504	.00002821632
293.15	.5	.0081827	.00002700291
293.15	.6	.0077076	.00002543508
293.15	.7	.0072031	.00002377023
293.15	.7998	.0067269	.00002219877
293.15	.8999	.0063093	.00002082069
293.15	1	.0058597	.00001933701
303.15	0	.0007983	.00000263439
303.15	.1	.003974	.0000131142
303.15	.2	.0054816	.00001808928
303.15	.2999	.0059297	.00001956801
303.15	.4	.0059126	.00001951158
303.15	.5	.0057132	.00001885356
303.15	.6	.0054416	.00001795728
303.15	.7	.0051442	.00001697586
303.15	.7998	.0048575	.00001602975
303.15	.8999	.004601	.0000151833
303.15	1	.0043229	.00001426557
313.15	0	.0006543	.00000215919
313.15	.1	.0029143	.00000961719
313.15	.2	.0039425	.00001301025
313.15	.2999	.0042587	.00001405371
313.15	.4	.0042704	.00001409232
313.15	.5	.0041614	.00001373262
313.15	.6	.0039975	.00001319175
313.15	.7	.0038159	.00001259247
313.15	.7998	.0036376	.00001200408
313.15	.8999	.0034737	.00001146321
313.15	1	.0032955	.00001087515
323.15	0	.0005492	.00000181236
323.15	.1	.0022162	.00000731346
323.15	.2	.0029429	.00000971157
323.15	.2999	.0031732	.00001047156
323.15	.4	.0031954	.00001054482
323.15	.5	.0031332	.00001033956
323.15	.6	.0030333	.00001000989
323.15	.7	.002918	.0000096294
323.15	.7998	.0028037	.00000925221
323.15	.8999	.0026968	.00000889944
323.15	1	.0025805	.00000851565

System: 2-(2-butoxyethoxy)ethanol + water; phases: Liquid
Fixed: Pressure, kPa = 101
Property: Refractive index (Na D-line) (Liquid); method: Standard Abbe refractometry
Temperature, K	Mole fraction of 2-(2-butoxyethoxy)ethanol	Refractive index (Na D-line)	uncertainty
283.15	0	1.33369	
283.15	.1	1.3916	
283.15	.2	1.41105	
283.15	.2999	1.42035	
283.15	.4	1.42548	
283.15	.5	1.4286	
283.15	.6	1.4307	
283.15	.7	1.4323	
283.15	.7998	1.4334	
283.15	.8999	1.4342	
283.15	1	1.4347	
293.15	0	1.33299	
293.15	.1	1.38935	
293.15	.2	1.40833	
293.15	.2999	1.4174	
293.15	.4	1.42235	
293.15	.5	1.42535	
293.15	.6	1.42735	
293.15	.7	1.4289	
293.15	.7998	1.4299	
293.15	.8999	1.4307	
293.15	1	1.4312	
303.15	0	1.33194	
303.15	.1	1.38705	
303.15	.2	1.4057	
303.15	.2999	1.4146	
303.15	.4	1.41942	
303.15	.5	1.4224	
303.15	.6	1.42428	
303.15	.7	1.4258	
303.15	.7998	1.42675	
303.15	.8999	1.4275	
303.15	1	1.42805	
313.15	0	1.33061	
313.15	.1	1.3842	
313.15	.2	1.4022	
313.15	.2999	1.4109	
313.15	.4	1.41568	
313.15	.5	1.4185	
313.15	.6	1.4204	
313.15	.7	1.42185	
313.15	.7998	1.42273	
313.15	.8999	1.4234	
313.15	1	1.424	
323.15	0	1.32904	
323.15	.1	1.3808	
323.15	.2	1.3982	
323.15	.2999	1.4067	
323.15	.4	1.4113	
323.15	.5	1.41405	
323.15	.6	1.4159	
323.15	.7	1.41725	
323.15	.7998	1.41815	
323.15	.8999	1.4188	
323.15	1	1.4194	

System: diethylene glycol monohexyl ether + water; phases: Liquid
Fixed: Pressure, kPa = 101
Property: Mass density, kg/m3 (Liquid); method: Vibrating tube method
Temperature, K	Mole fraction of diethylene glycol monohexyl ether	Mass density, kg/m3	uncertainty
283.15	0	999.7	.02
283.15	.0005	999.68	.02
283.15	.00075	999.67	.02
283.15	.001	999.66	.02
283.15	.00118	999.7	.02
283.15	.00135	999.76	.02
283.15	.0015	999.84	.02
283.15	.00164	999.86	.02
283.15	.00196	999.87	.02
283.15	.00225	999.88	.02
283.15	.01501	995.9	.02
283.15	.01996	994.71	.02
283.15	.02493	993.53	.02
283.15	.03004	992.45	.02
283.15	.03536	991.13	.02
283.15	.03996	990.1	.02
283.15	.04496	989.11	.02
283.15	.0501	988.12	.02
283.15	.05911	986.43	.02
283.15	.06985	984.69	.02
283.15	.07977	983.2	.02
283.15	.08835	982.02	.02
283.15	.09988	980.51	.02
283.15	.13322	976.63	.02
283.15	.2029	970.18	.02
283.15	.28563	964.36	.02
283.15	.35968	960.18	.02
283.15	.45289	955.83	.02
283.15	.54262	952.4	.02
283.15	.67721	948.33	.02
283.15	.82702	945.13	.02
283.15	1	942.09	.02
288.15	0	999.1	.02
288.15	.0005	999.08	.02
288.15	.00075	999.06	.02
288.15	.001	999.07	.02
288.15	.00118	999.09	.02
288.15	.00135	999.14	.02
288.15	.0015	999.17	.02
288.15	.00164	999.18	.02
288.15	.00196	999.15	.02
288.15	.00225	999.08	.02
288.15	.0501	985.54	.02
288.15	.05911	983.76	.02
288.15	.06985	982.01	.02
288.15	.07977	980.24	.02
288.15	.08835	978.92	.02
288.15	.09988	977.4	.02
288.15	.13322	973.14	.02
288.15	.2029	966.49	.02
288.15	.28563	960.42	.02
288.15	.35968	956.18	.02
288.15	.45289	951.8	.02
288.15	.54262	948.39	.02
288.15	.67721	944.25	.02
288.15	.82702	941.05	.02
288.15	1	938.05	.02
293.15	0	998.2	.02
293.15	.0005	998.19	.02
293.15	.00075	998.17	.02
293.15	.001	998.17	.02
293.15	.00118	998.17	.02
293.15	.00135	998.2	.02
293.15	.0015	998.16	.02
293.15	.00164	998.09	.02
293.15	.06985	979.28	.02
293.15	.07977	977.23	.02
293.15	.08835	975.77	.02
293.15	.09988	973.98	.02
293.15	.13322	969.58	.02
293.15	.2029	962.68	.02
293.15	.28563	956.52	.02
293.15	.35968	952.21	.02
293.15	.45289	947.82	.02
293.15	.54262	944.4	.02
293.15	.67721	940.24	.02
293.15	.82702	937.03	.02
293.15	1	934.06	.02
303.15	0	995.65	.02
303.15	.0005	995.64	.02
303.15	.00075	995.59	.02
303.15	.001	995.58	.02
303.15	.00118	995.57	.02
303.15	.00135	995.58	.02
303.15	.0015	995.51	.02
303.15	.13322	962.38	.02
303.15	.2029	955.04	.02
303.15	.28563	948.66	.02
303.15	.35968	944.22	.02
303.15	.45289	939.82	.02
303.15	.54262	936.42	.02
303.15	.67721	932.25	.02
303.15	.82702	929.05	.02
303.15	1	926.08	.02
313.15	0	992.21	.02
313.15	.0005	992.26	.02
313.15	.00075	992.23	.02
313.15	.001	992.18	.02
313.15	.00118	992.11	.02
313.15	.00135	992.03	.02
313.15	.0015	991.94	.02
313.15	.2029	947.26	.02
313.15	.28563	940.71	.02
313.15	.35968	936.21	.02
313.15	.45289	931.76	.02
313.15	.54262	928.33	.02
313.15	.67721	924.21	.02
313.15	.82702	921.02	.02
313.15	1	918.17	.02
