Measured thermophysical data. Kinematic Viscosity of R410A and R407C Refrigerant-Oil Mixtures in the Saturated Liquid Phase with Lubricant Mass Fraction in the Range of (0 to 0.0001)
Source: J. Chem. Eng. Data, 2010, 10.1021/je9009442
Compound 1: 1,1,1,2,2-pentafluoroethane, C2HF5
Compound 2: methane, difluoro-, CH2F2
Compound 3: ethane, 1,1,1,2-tetrafluoro-, C2H2F4

System: methane, difluoro- + 1,1,1,2,2-pentafluoroethane; phases: Liquid, Gas
Fixed: Mass fraction of 1,1,1,2,2-pentafluoroethane = .505
Property: Kinematic viscosity, m2/s (Liquid); method: inclined tube viscometer
Temperature, K	Kinematic viscosity, m2/s	uncertainty
256.15	.000000172	.0000000007224
258.15	.0000001685	.0000000007077
260.15	.0000001652	.00000000069384
262.15	.0000001619	.00000000067998
264.15	.0000001587	.00000000066654
266.15	.0000001556	.00000000065352
268.15	.0000001526	.00000000064092
270.15	.0000001497	.00000000062874
272.15	.0000001468	.00000000061656
274.15	.000000144	.0000000006048
276.15	.0000001413	.00000000059346
278.15	.0000001386	.00000000058212
280.15	.000000136	.0000000005712
282.15	.0000001335	.0000000005607
284.15	.000000131	.0000000005502
286.15	.0000001285	.0000000005397
288.15	.0000001262	.00000000053004
290.15	.0000001238	.00000000051996
292.15	.0000001215	.0000000005103
294.15	.0000001193	.00000000050106
296.15	.0000001171	.00000000049182
298.15	.000000115	.000000000483
300.15	.0000001129	.00000000047418
302.15	.0000001108	.00000000046536
304.15	.0000001088	.00000000045696
306.15	.0000001068	.00000000044856
308.15	.0000001048	.00000000044016
310.15	.0000001029	.00000000043218
312.15	.000000101	.0000000004242
314.15	.0000000992	.00000000041664
316.15	.0000000973	.00000000040866
318.15	.0000000955	.0000000004011
320.15	.0000000938	.00000000039396
322.15	.000000092	.0000000003864
324.15	.0000000903	.00000000037926
326.15	.0000000886	.00000000037212
328.15	.000000087	.0000000003654
330.15	.0000000853	.00000000035826
332.15	.0000000837	.00000000035154
334.15	.0000000821	.00000000034482
336.15	.0000000806	.00000000033852

System: methane, difluoro- + 1,1,1,2,2-pentafluoroethane + ethane, 1,1,1,2-tetrafluoro-; phases: Liquid, Gas
Fixed: Mass fraction of ethane, 1,1,1,2-tetrafluoro- = .51
Fixed: Mass fraction of 1,1,1,2,2-pentafluoroethane = .26
Property: Kinematic viscosity, m2/s (Liquid); method: inclined tube viscometer
Temperature, K	Kinematic viscosity, m2/s	uncertainty
256.15	.0000002117	.00000000088914
258.15	.000000207	.0000000008694
260.15	.0000002024	.00000000085008
262.15	.000000198	.0000000008316
264.15	.0000001936	.00000000081312
266.15	.0000001894	.00000000079548
268.15	.0000001853	.00000000077826
270.15	.0000001814	.00000000076188
272.15	.0000001775	.0000000007455
274.15	.0000001738	.00000000072996
276.15	.0000001702	.00000000071484
278.15	.0000001666	.00000000069972
280.15	.0000001632	.00000000068544
282.15	.0000001599	.00000000067158
284.15	.0000001566	.00000000065772
286.15	.0000001535	.0000000006447
288.15	.0000001504	.00000000063168
290.15	.0000001474	.00000000061908
292.15	.0000001445	.0000000006069
294.15	.0000001417	.00000000059514
296.15	.0000001389	.00000000058338
298.15	.0000001362	.00000000057204
300.15	.0000001336	.00000000056112
302.15	.000000131	.0000000005502
304.15	.0000001285	.0000000005397
306.15	.0000001261	.00000000052962
308.15	.0000001237	.00000000051954
310.15	.0000001213	.00000000050946
312.15	.000000119	.0000000004998
314.15	.0000001167	.00000000049014
316.15	.0000001145	.0000000004809
318.15	.0000001123	.00000000047166
320.15	.0000001101	.00000000046242
322.15	.000000108	.0000000004536
324.15	.0000001059	.00000000044478
326.15	.0000001038	.00000000043596
328.15	.0000001017	.00000000042714
330.15	.0000000996	.00000000041832
332.15	.0000000976	.00000000040992
334.15	.0000000955	.0000000004011
336.15	.0000000935	.0000000003927
