Measured thermophysical data. Temperature Dependence of Limiting Activity Coefficients, Henry s Law Constants, and Related Infinite Dilution Properties of Branched Pentanols in Water. Measurement, Critical Compilation, Correlation, and Recommended Data
Source: J. Chem. Eng. Data, 2010, 10.1021/je901063s
Compound 1: pentan-2-ol, C5H12O
Compound 2: 3-pentanol, C5H12O
Compound 3: 2-methyl-1-butanol, C5H12O
Compound 4: 1-butanol, 3-methyl-, C5H12O
Compound 5: 3-methyl-2-butanol, C5H12O
Compound 6: tert-pentyl alcohol, C5H12O
Compound 7: water, H2O

System: pentan-2-ol + water; phases: Liquid
Fixed: Pressure, kPa = 101
Fixed: Mole fraction of pentan-2-ol = 0
Property: Activity coefficient of pentan-2-ol (Liquid); method: inert gas stripping, headspace analysis in two variants - the classical and the relative, Rayleigh distillation, and circulation still
Temperature, K	Activity coefficient of pentan-2-ol	uncertainty
273.35	58.8	1.764
283.15	73.9	2.217
293.15	89.2	2.676
293.15	86.1	2.583
303.15	104	3.12
303.15	103	3.09
313.15	119	3.57
323.15	129	3.87
333.15	134	4.02
343.15	134	4.02
353.15	124	3.72
363.15	130	3.9
371.15	118	3.54

System: 3-pentanol + water; phases: Liquid
Fixed: Pressure, kPa = 101
Fixed: Mole fraction of 3-pentanol = 0
Property: Activity coefficient of 3-pentanol (Liquid); method: inert gas stripping, headspace analysis in two variants - the classical and the relative, Rayleigh distillation, and circulation still
Temperature, K	Activity coefficient of 3-pentanol	uncertainty
273.35	48.7	1.461
283.15	63.1	1.893
293.15	75.6	2.268
303.15	88.7	2.661
313.15	101	3.03
323.15	108	3.24
333.15	116	3.48
343.15	111	3.33
353.15	120	3.6
363.15	117	3.51
371.15	104	3.12

System: 2-methyl-1-butanol + water; phases: Liquid
Fixed: Pressure, kPa = 101
Fixed: Mole fraction of 2-methyl-1-butanol = 0
Property: Activity coefficient of 2-methyl-1-butanol (Liquid); method: inert gas stripping, headspace analysis in two variants - the classical and the relative, Rayleigh distillation, and circulation still
Temperature, K	Activity coefficient of 2-methyl-1-butanol	uncertainty
273.35	86.3	2.589
283.15	117	3.51
293.15	138	4.14
293.15	134	4.02
303.15	158	4.74
303.15	151	4.53
313.15	163	4.89
313.15	173	5.19
323.15	180	5.4
323.15	173	5.19
333.15	170	5.1
333.15	179	5.37
343.15	169	5.07
353.15	160	4.8
363.15	162	4.86

System: 2-methyl-1-butanol + water; phases: Liquid
Fixed: Pressure, kPa = 101
Fixed: Mole fraction of 2-methyl-1-butanol = 0
Property: Partial molar enthalpy, kJ/mol of 2-methyl-1-butanol (Liquid); method: flow mixing microcalorimeter
Temperature, K	Partial molar enthalpy, kJ/mol of 2-methyl-1-butanol	uncertainty
288.15	-11.18	.2
298.15	-8.27	.1
308.15	-5.38	.05

System: 1-butanol, 3-methyl- + water; phases: Liquid
Fixed: Pressure, kPa = 101
Fixed: Mole fraction of 1-butanol, 3-methyl- = 0
Property: Activity coefficient of 1-butanol, 3-methyl- (Liquid); method: inert gas stripping, headspace analysis in two variants - the classical and the relative, Rayleigh distillation, and circulation still
Temperature, K	Activity coefficient of 1-butanol, 3-methyl-	uncertainty
273.35	94.9	2.847
283.15	126	3.78
293.15	148	4.44
293.15	146	4.38
303.15	161	4.83
303.15	164	4.92
313.15	173	5.19
313.15	175	5.25
323.15	179	5.37
323.15	184	5.52
333.15	182	5.46
333.15	178	5.34
343.15	179	5.37
353.15	164	4.92
371.15	149	4.47

System: tert-pentyl alcohol + water; phases: Liquid
Fixed: Pressure, kPa = 101
Fixed: Mole fraction of tert-pentyl alcohol = 0
Property: Activity coefficient of tert-pentyl alcohol (Liquid); method: inert gas stripping, headspace analysis in two variants - the classical and the relative, Rayleigh distillation, and circulation still
Temperature, K	Activity coefficient of tert-pentyl alcohol	uncertainty
273.35	18.3	.549
283.15	24.5	.735
293.15	31.7	.951
293.15	34.6	1.038
303.15	41.3	1.239
303.15	39.2	1.176
313.15	49	1.47
313.15	46.5	1.395
323.15	52.3	1.569
323.15	56.9	1.707
333.15	59.3	1.779
333.15	61.4	1.842
343.15	64.2	1.926
353.15	67.1	2.013
361.25	75.4	2.262
371.45	73.9	2.217

System: 3-methyl-2-butanol + water; phases: Liquid
Fixed: Pressure, kPa = 101
Fixed: Mole fraction of 3-methyl-2-butanol = 0
Property: Activity coefficient of 3-methyl-2-butanol (Liquid); method: inert gas stripping, headspace analysis in two variants - the classical and the relative, Rayleigh distillation, and circulation still
Temperature, K	Activity coefficient of 3-methyl-2-butanol	uncertainty
273.35	43.5	1.305
283.15	61.5	1.845
293.15	73.9	2.217
303.15	86.5	2.595
313.15	96.6	2.898
323.15	104	3.12
333.15	110	3.3
343.15	111	3.33
353.15	107	3.21
371.15	108	3.24
