Measured thermophysical data. Solubilities and Enthalpies of Solution for Thiourea in Ethanol or Methanol + Water
Source: J. Chem. Eng. Data, 2009, 10.1021/je900543q
Compound 1: thiourea, CH4N2S, purity 99.5%
Compound 2: methanol, CH4O, purity 99.5%
Compound 3: ethanol, C2H6O, purity 99.5%
Compound 4: potassium chloride, ClK, purity 99.5%
Compound 5: water, H2O

System: potassium chloride + water; phases: Liquid, Crystal
Fixed: Pressure, kPa = 101
Property: Mole fraction of potassium chloride (Liquid); method: synthetic method
Temperature, K	Mole fraction of potassium chloride	uncertainty
293.15	.1001	
313.15	.1016	
333.15	.1031	
353.15	.1061	

System: thiourea + water; phases: Liquid
Fixed: Temperature, K = 298.15
Fixed: Pressure, kPa = 101
Property: Molar enthalpy of solution, kJ/mol (Liquid); method: Isoperibol calorimetry
Molality, mol/kg of thiourea	Molar enthalpy of solution, kJ/mol	uncertainty
.445	20.94	.1047

System: thiourea + water; phases: Liquid, Crystal
Property: Mole fraction of thiourea (Liquid); method: Synthetic method
Temperature, K	Pressure, kPa	Mole fraction of thiourea	uncertainty
292.65	101	.02239	.00055975
293.85	101	.02274	.0005685
299.45	101	.02563	.00064075
302.75	101	.02806	.0007015
305.85	101	.02945	.00073625
308.95	101	.03236	.000809
309.4	101	.03306	.0008265
311.65	101	.03451	.00086275
312.55	101	.03502	.0008755
312.75	101	.03528	.000882
313.9	101	.03642	.0009105
314.35	101	.03749	.00093725
315.55	101	.03839	.00095975
316.4	101	.03864	.000966
318.2	101	.03993	.00099825
320	101	.04216	.001054

System: thiourea + ethanol + water; phases: Liquid, Crystal
Fixed: Pressure, kPa = 101
Property: Mole fraction of thiourea (Liquid); method: Synthetic method
Temperature, K	Solvent: Mole fraction of water	Mole fraction of thiourea	uncertainty
292.35	.54	.05368	.001342
294.85	.54	.05855	.00146375
297.8	.54	.06383	.00159575
301.55	.54	.07179	.00179475
304.9	.54	.07919	.00197975
307.6	.54	.08621	.00215525
310.15	.54	.09282	.0023205
312.4	.54	.09809	.00245225
314.75	.54	.1046	.002615
316.65	.54	.1108	.00277
318.35	.54	.1145	.0028625
294	.65	.05268	.001317
296.8	.65	.06129	.00153225
302.05	.65	.06916	.001729
303.25	.65	.07082	.0017705
304.75	.65	.07268	.001817
307.05	.65	.07598	.0018995
308.15	.65	.07877	.00196925
308.95	.65	.08026	.0020065
309.35	.65	.08215	.00205375
311.25	.65	.08583	.00214575
312.85	.65	.08837	.00220925
314.35	.65	.09152	.002288
315.75	.65	.09505	.00237625
316.85	.65	.09868	.002467
318.1	.65	.1029	.0025725
319.3	.65	.1065	.0026625
322.25	.65	.1135	.0028375
322.95	.65	.1153	.0028825
323.75	.65	.1172	.00293
293.05	.76	.05414	.0013535
293.25	.76	.05539	.00138475
298.35	.76	.06128	.001532
302.25	.76	.06512	.001628
304.65	.76	.06905	.00172625
305.95	.76	.07377	.00184425
309.25	.76	.07817	.00195425
314.05	.76	.08761	.00219025
314.95	.76	.09208	.002302
317.35	.76	.09825	.00245625
319.45	.76	.09856	.002464
293.85	.88	.03732	.000933
296.55	.88	.04042	.0010105
300.35	.88	.04456	.001114
304.85	.88	.04761	.00119025
307.35	.88	.05028	.001257
309.15	.88	.05282	.0013205
312.25	.88	.05569	.00139225
312.85	.88	.06	.0015
317.35	.88	.06578	.0016445
323.75	.88	.077	.001925
324.55	.88	.07967	.00199175
326.45	.88	.08322	.0020805
292.65	1	.02239	.00055975
293.85	1	.02274	.0005685
299.45	1	.02563	.00064075
302.75	1	.02806	.0007015
305.85	1	.02945	.00073625
308.95	1	.03236	.000809
309.4	1	.03306	.0008265
311.65	1	.03451	.00086275
312.55	1	.03502	.0008755
312.75	1	.03528	.000882
313.9	1	.03642	.0009105
314.35	1	.03749	.00093725
315.55	1	.03839	.00095975
316.4	1	.03864	.000966
318.2	1	.03993	.00099825
320	1	.04216	.001054

System: thiourea + methanol + water; phases: Liquid, Crystal
Fixed: Pressure, kPa = 101
Property: Mole fraction of thiourea (Liquid); method: Synthetic method
Temperature, K	Solvent: Mole fraction of methanol	Mole fraction of thiourea	uncertainty
293.85	.54	.0563	.0014075
296.2	.54	.06124	.001531
299.35	.54	.06717	.00167925
303.05	.54	.07359	.00183975
306.35	.54	.08078	.0020195
309.15	.54	.08768	.002192
312.25	.54	.09468	.002367
315.05	.54	.1022	.002555
318.45	.54	.111	.002775
321.95	.54	.1217	.0030425
323.15	.54	.1258	.003145
324.55	.54	.1322	.003305
327.25	.54	.1409	.0035225
330.35	.54	.1512	.00378
290.65	.65	.05286	.0013215
294.45	.65	.05963	.00149075
296.25	.65	.06348	.001587
300.65	.65	.0704	.00176
301.75	.65	.07246	.0018115
302.85	.65	.07525	.00188125
305.65	.65	.08095	.00202375
307.95	.65	.08687	.00217175
311.35	.65	.09388	.002347
313.25	.65	.0993	.0024825
316.85	.65	.1086	.002715
318.95	.65	.1152	.00288
321.85	.65	.1233	.0030825
323.85	.65	.1301	.0032525
326.65	.65	.138	.00345
289.75	.76	.05367	.00134175
295.25	.76	.06136	.001534
298.15	.76	.06563	.00164075
300.05	.76	.06914	.0017285
302.35	.76	.07381	.00184525
304.85	.76	.0786	.001965
306.85	.76	.08293	.00207325
308.75	.76	.0872	.00218
310.65	.76	.09115	.00227875
314.25	.76	.099	.002475
315.55	.76	.102	.00255
317.15	.76	.1053	.0026325
320.15	.76	.112	.0028
321.65	.76	.1182	.002955
323.25	.76	.1234	.003085
326.15	.76	.1319	.0032975
329.35	.76	.1422	.003555
330.85	.76	.1483	.0037075
295.65	.88	.05818	.0014545
297.65	.88	.06116	.001529
300.45	.88	.06481	.00162025
302.75	.88	.06783	.00169575
304.25	.88	.07041	.00176025
306.35	.88	.0735	.0018375
308.15	.88	.07652	.001913
310.25	.88	.08064	.002016
312.75	.88	.08589	.00214725
316.05	.88	.09256	.002314
298.65	1	.05336	.001334
301.45	1	.05652	.001413
304.35	1	.06059	.00151475
307.85	1	.06429	.00160725
309.05	1	.06671	.00166775
311.25	1	.07024	.001756
314.55	1	.07608	.001902
319.45	1	.0821	.0020525
321.25	1	.08716	.002179

System: thiourea + ethanol; phases: Liquid
Fixed: Temperature, K = 298.15
Fixed: Pressure, kPa = 101
Property: Molar enthalpy of solution, kJ/mol (Liquid); method: Isoperibol calorimetry
Molality, mol/kg of thiourea	Molar enthalpy of solution, kJ/mol	uncertainty
.174	11.39	.05695
.347	12.04	.0602

System: thiourea + methanol; phases: Liquid
Fixed: Temperature, K = 298.15
Fixed: Pressure, kPa = 101
Property: Molar enthalpy of solution, kJ/mol (Liquid); method: Isoperibol calorimetry
Molality, mol/kg of thiourea	Molar enthalpy of solution, kJ/mol	uncertainty
.25	5.87	.02935
.499	6.85	.03425
.749	9.93	.04965

System: thiourea + methanol; phases: Liquid, Crystal
Property: Mole fraction of thiourea (Liquid); method: Synthetic method
Temperature, K	Pressure, kPa	Mole fraction of thiourea	uncertainty
298.65	101	.05336	.001334
301.45	101	.05652	.001413
304.35	101	.06059	.00151475
307.85	101	.06429	.00160725
309.05	101	.06671	.00166775
311.25	101	.07024	.001756
314.55	101	.07608	.001902
319.45	101	.0821	.0020525
321.25	101	.08716	.002179
