Measured thermophysical data. Enthalpies of Dilution of l-Alanine in Dimethylsulfoxide + Water and Dimethylformamide + Water Mixtures at 298.15 K
Source: J. Chem. Eng. Data, 2010, 10.1021/je9005322
Compound 1: glycine, C2H5NO2, purity 98%
Compound 2: L-alanine, C3H7NO2, purity 98%
Compound 3: L-serine, C3H7NO3, purity 98%
Compound 4: methyl sulfoxide, C2H6OS
Compound 5: N,N-dimethylformamide, C3H7NO
Compound 6: water, H2O, purity 99.99%

System: L-alanine + methyl sulfoxide + water; phases: Liquid
Fixed: Temperature, K = 298.15
Fixed: Pressure, kPa = 101.3
Property: Molar enthalpy of dilution, kJ/mol (Liquid); method: isothermal titration calorimeter
Solvent: Volume fraction of methyl sulfoxide	Initial molality of solute, mol/kg	Final molality of solute, mol/kg	Molar enthalpy of dilution, kJ/mol	uncertainty
0	0	.00617	-.2008	
0	.00617	.01229	-.1975	
0	.01229	.01837	-.1947	
0	.01837	.02441	-.1921	
0	.02441	.03041	-.1894	
0	.03041	.03636	-.1879	
0	.03636	.04227	-.1843	
0	.04227	.04814	-.1818	
0	.04814	.05397	-.1786	
0	.05397	.05975	-.1765	
0	.05975	.06549	-.1737	
0	.06549	.07119	-.1715	
0	.07119	.07685	-.1694	
0	.07685	.08246	-.1676	
0	.08246	.08803	-.1657	
.05	0	.00616	-.1686	
.05	.00616	.01228	-.1649	
.05	.01228	.01836	-.1628	
.05	.01836	.0244	-.1608	
.05	.0244	.03039	-.1582	
.05	.03039	.03634	-.1559	
.05	.03634	.04225	-.1539	
.05	.04225	.04811	-.1514	
.05	.04811	.05394	-.1493	
.05	.05394	.05972	-.147	
.05	.05972	.06545	-.1451	
.05	.06545	.07115	-.1429	
.05	.07115	.0768	-.1411	
.05	.0768	.08241	-.1388	
.05	.08241	.08798	-.1369	
.05	.08798	.09351	-.1357	
.05	.09351	.09899	-.1329	
.05	.09899	.1044	-.1311	
.05	.1044	.1098	-.1295	
.1	0	.00412	-.08471	
.1	.00412	.0082	-.08396	
.1	.0082	.01226	-.08262	
.1	.01226	.01629	-.08184	
.1	.01629	.02029	-.08021	
.1	.02029	.02427	-.07943	
.1	.02427	.02821	-.07767	
.1	.02821	.03213	-.07736	
.1	.03213	.03602	-.07582	
.1	.03602	.03988	-.07444	
.1	.03988	.04371	-.07392	
.1	.04371	.04751	-.07249	
.1	.04751	.05129	-.07135	
.1	.05129	.05504	-.07043	
.1	.05504	.05875	-.06943	
.1	.05875	.06244	-.06854	
.1	.06244	.06611	-.06729	
.1	.06611	.06974	-.06648	
.1	.06974	.07334	-.06541	
.15	0	.00411	-.03179	
.15	.00411	.00819	-.03172	
.15	.00819	.01224	-.03025	
.15	.01224	.01627	-.03104	
.15	.01627	.02026	-.03044	
.15	.02026	.02423	-.02983	
.15	.02423	.02817	-.02945	
.15	.02817	.03208	-.02933	
.15	.03208	.03596	-.02875	
.15	.03596	.03981	-.028	
.15	.03981	.04364	-.02717	
.15	.04364	.04744	-.02647	
.15	.04744	.0512	-.02568	
.15	.0512	.05494	-.02514	
.15	.05494	.05866	-.02446	
.15	.05866	.06234	-.02404	
.15	.06234	.066	-.02335	
.15	.066	.06962	-.02294	
.15	.06962	.07322	-.0225	
.2	0	.00411	-.03187	
.2	.00411	.0082	-.03298	
.2	.0082	.01225	-.03223	
.2	.01225	.01628	-.03208	
.2	.01628	.02027	-.03199	
.2	.02027	.02424	-.03147	
.2	.02424	.02819	-.03081	
.2	.02819	.0321	-.03011	
.2	.0321	.03598	-.02936	
.2	.03598	.03984	-.02913	
.2	.03984	.04367	-.02862	
.2	.04367	.04747	-.02815	
.2	.04747	.05124	-.02717	
.2	.05124	.05498	-.02718	
.2	.05498	.0587	-.02675	
.2	.0587	.06238	-.02563	
.2	.06238	.06604	-.02557	
.2	.06604	.06967	-.025	
.2	.06967	.07327	-.02433	
.25	0	.00819	.07221	
.25	.00819	.01626	.06986	
.25	.01626	.02422	.06783	
.25	.02422	.03206	.06626	
.25	.03206	.03979	.06444	
.25	.03979	.04741	.06331	
.25	.04741	.05492	.06171	
.25	.05492	.06231	.06014	
.25	.06231	.06959	.05876	
.25	.06959	.07675	.05728	
.25	.07675	.08381	.05505	
.25	.08381	.09074	.05467	
.3	0	.00482	.06837	
.3	.00482	.00957	.06691	
.3	.00957	.01426	.06545	
.3	.01426	.01888	.0637	
.3	.01888	.02344	.06207	
.3	.02344	.02792	.06034	
.3	.02792	.03234	.05855	
.3	.03234	.0367	.05723	
.3	.0367	.04098	.05589	
.3	.04098	.0452	.05444	
.3	.0452	.04935	.05272	
.3	.04935	.05344	.05216	

System: L-alanine + N,N-dimethylformamide + water; phases: Liquid
Fixed: Temperature, K = 298.15
Fixed: Pressure, kPa = 101.3
Property: Molar enthalpy of dilution, kJ/mol (Liquid); method: isothermal titration calorimeter
Solvent: Volume fraction of N,N-dimethylformamide	Initial molality of solute, mol/kg	Final molality of solute, mol/kg	Molar enthalpy of dilution, kJ/mol	uncertainty
.05	0	.00411	-.09283	
.05	.00411	.00819	-.08985	
.05	.00819	.01224	-.08862	
.05	.01224	.01626	-.0873	
.05	.01626	.02025	-.08599	
.05	.02025	.02422	-.08488	
.05	.02422	.02815	-.08385	
.05	.02815	.03206	-.08278	
.05	.03206	.03594	-.08205	
.05	.03594	.03979	-.08065	
.05	.03979	.04362	-.07942	
.05	.04362	.04741	-.07801	
.05	.04741	.05118	-.07719	
.05	.05118	.05492	-.07633	
.1	0	.00411	-.0342	
.1	.00411	.00819	-.03327	
.1	.00819	.01224	-.033	
.1	.01224	.01627	-.03298	
.1	.01627	.02027	-.03223	
.1	.02027	.02423	-.03162	
.1	.02423	.02817	-.03157	
.1	.02817	.03208	-.03121	
.1	.03208	.03597	-.03082	
.1	.03597	.03982	-.0306	
.1	.03982	.04365	-.02998	
.1	.04365	.04744	-.02946	
.1	.04744	.05121	-.02931	
.1	.05121	.05495	-.02902	
.15	0	.00411	-.03942	
.15	.00411	.00819	-.03938	
.15	.00819	.01224	-.03974	
.15	.01224	.01626	-.03925	
.15	.01626	.02025	-.03935	
.15	.02025	.02422	-.03887	
.15	.02422	.02816	-.03807	
.15	.02816	.03207	-.03752	
.15	.03207	.03595	-.03718	
.15	.03595	.0398	-.03616	
.15	.0398	.04362	-.0354	
.15	.04362	.04742	-.03527	
.15	.04742	.05119	-.03494	
.15	.05119	.05493	-.03425	
.2	0	.00343	.03685	
.2	.00343	.00683	.0348	
.2	.00683	.01021	.03519	
.2	.01021	.01356	.03412	
.2	.01356	.01689	.03328	
.2	.01689	.0202	.03264	
.2	.0202	.02348	.03219	
.2	.02348	.02674	.03227	
.2	.02674	.02998	.03114	
.2	.02988	.03319	.03075	
.2	.03319	.03638	.0303	
.2	.03638	.03955	.02992	
.2	.03955	.04269	.02987	
.2	.04269	.04581	.02916	
.25	0	.0041	.05086	
.25	.0041	.00816	.04963	
.25	.00816	.01217	.04813	
.25	.01217	.01614	.04695	
.25	.01614	.02007	.04621	
.25	.02007	.02396	.04574	
.25	.02396	.0278	.0449	
.25	.0278	.0316	.0442	
.25	.0316	.03536	.04385	
.25	.03536	.03908	.04344	
.25	.03908	.04275	.04249	
.25	.04275	.04638	.04214	
.25	.04638	.04997	.04175	
.25	.04997	.05352	.04089	
.3	0	.00308	.1478	
.3	.00308	.00612	.1438	
.3	.00612	.00914	.1394	
.3	.00914	.01212	.136	
.3	.01212	.01507	.1318	
.3	.01507	.01799	.1276	
.3	.01799	.02088	.1255	
.3	.02088	.02373	.1217	
.3	.02373	.02655	.1171	
.3	.02655	.02934	.1144	
.3	.02934	.0321	.112	
.3	.0321	.03483	.1087	
.3	.03483	.03752	.1079	
.3	.03752	.04019	.1066	

System: glycine + water; phases: Liquid
Fixed: Temperature, K = 298.15
Fixed: Pressure, kPa = 101.3
Property: Molar enthalpy of dilution, kJ/mol (Liquid); method: isothermal titration calorimetry
Initial molality of solute, mol/kg	Final molality of solute, mol/kg	Molar enthalpy of dilution, kJ/mol	uncertainty
.01704	.02041	.3419	
.02041	.02377	.3414	
.02377	.02712	.341	
.02712	.03046	.3371	
.03046	.03379	.3349	
.03379	.0371	.3311	
.0371	.0404	.3289	
.0404	.04369	.3247	
.04369	.04697	.3223	
.04697	.05023	.3186	
.05023	.05349	.3171	
.05349	.05673	.314	
.05673	.05996	.311	
.05996	.06318	.3094	

System: L-serine + water; phases: Liquid
Fixed: Temperature, K = 298.15
Fixed: Pressure, kPa = 101.3
Property: Molar enthalpy of dilution, kJ/mol (Liquid); method: isothermal titration calorimetry
Initial molality of solute, mol/kg	Final molality of solute, mol/kg	Molar enthalpy of dilution, kJ/mol	uncertainty
0	.00411	.3913	
.00411	.00819	.3848	
.00819	.01225	.3795	
.01225	.01627	.3721	
.01627	.02027	.3672	
.02027	.02424	.3608	
.02424	.02818	.356	
.02818	.03209	.3515	
.03209	.03598	.346	
.03598	.03983	.3411	
.03983	.04366	.3361	
.04366	.04746	.3306	
.04746	.05123	.3268	
.05123	.05497	.3213	
.05497	.05867	.3153	

System: L-alanine + water; phases: Liquid
Fixed: Temperature, K = 298.15
Fixed: Pressure, kPa = 101.3
Property: Molar enthalpy of dilution, kJ/mol (Liquid); method: Isothermal titration calorimeter
Initial molality of solute, mol/kg	Final molality of solute, mol/kg	Molar enthalpy of dilution, kJ/mol	uncertainty
0	.00617	-.2008	
.00617	.01229	-.1975	
.01229	.01837	-.1947	
.01837	.02441	-.1921	
.02441	.03041	-.1894	
.03041	.03636	-.1879	
.03636	.04227	-.1843	
.04227	.04814	-.1818	
.04814	.05397	-.1786	
.05397	.05975	-.1765	
.05975	.06549	-.1737	
.06549	.07119	-.1715	
.07119	.07685	-.1694	
.07685	.08246	-.1676	
.08246	.08803	-.1657	
