Measured thermophysical data. Binary Mutual Diffusion Coefficients of Isoniazid Aqueous Solutions at (298.15 and 310.15) K
Source: J. Chem. Eng. Data, 2009, 10.1021/je900221m
Compound 1: isonicotinic acid hydrazide, C6H7N3O
Compound 2: water, H2O

System: isonicotinic acid hydrazide + water; phases: Liquid
Fixed: Pressure, kPa = 101
Property: Binary diffusion coefficient, m2/s (Liquid); method: Taylor dispersion method
Temperature, K	Amount concentration (molarity), mol/dm3 of isonicotinic acid hydrazide	Binary diffusion coefficient, m2/s	uncertainty
298.15	0	0.000000000826	.000000000004
298.15	.005	0.000000000825	.000000000006
298.15	.01	0.000000000823	.000000000004
298.15	.02	0.000000000821	.000000000004
298.15	.05	0.000000000814	.000000000002
298.15	.1	0.000000000809	.000000000001
310.15	0	0.00000000119	.00000000002
310.15	.005	0.000000001185	.000000000003
310.15	.01	0.00000000115	.000000000002
310.15	.02	0.000000001105	.000000000002
310.15	.05	0.00000000109	.000000000001
310.15	.1	0.000000001042	.000000000002
