Measured thermophysical data. Isothermal Vapor-Liquid Equilibrium of Ternary Mixtures Containing 2-Methyl-1-propanol or 2-Methyl-2-propanol, n-Hexane, and 1-Chlorobutane at 298.15 K
Source: J. Chem. Eng. Data, 2010, 10.1021/je900436f
Compound 1: 2-methyl-1-propanol, C4H10O
Compound 2: 2-methyl-2-propanol, C4H10O
Compound 3: hexane, C6H14
Compound 4: 1-chlorobutane, C4H9Cl

System: 2-methyl-1-propanol; phases: Liquid
Property: Mass density, kg/m3 (Liquid); method: Vibrating tube method
Temperature, K	Pressure, kPa	Mass density, kg/m3	uncertainty
298.15	1.535	797.775	

System: 2-methyl-2-propanol; phases: Liquid
Property: Mass density, kg/m3 (Liquid); method: Vibrating tube method
Temperature, K	Pressure, kPa	Mass density, kg/m3	uncertainty
298.15	5.605	780.885	

System: hexane; phases: Liquid
Property: Mass density, kg/m3 (Liquid); method: Vibrating tube method
Temperature, K	Pressure, kPa	Mass density, kg/m3	uncertainty
298.15	20.22	654.96	

System: 1-chlorobutane; phases: Liquid
Property: Mass density, kg/m3 (Liquid); method: Vibrating tube method
Temperature, K	Pressure, kPa	Mass density, kg/m3	uncertainty
298.15	13.515	880.805	

System: 2-methyl-1-propanol + 1-chlorobutane + hexane; phases: Liquid, Gas
Fixed: Temperature, K = 298.15
Property: Mole fraction of hexane (Liquid); method: Density calibration data
Property: Mole fraction of hexane (Gas); method: Density calibration data
Property: Mole fraction of 2-methyl-1-propanol (Gas); method: Density calibration data
Pressure, kPa	Mole fraction of 2-methyl-1-propanol	Mole fraction of hexane	uncertainty	Mole fraction of hexane	uncertainty	Mole fraction of 2-methyl-1-propanol	uncertainty
8.615	.907	.056	.001	.65	.001	.169	.001
10.26	.833	.063	.001	.521	.001	.139	.001
12.935	.703	.093	.001	.499	.001	.106	.001
13.17	.623	.084	.001	.352	.001	.09	.001
13.195	.537	.066	.001	.255	.001	.09	.001
13.53	.428	.065	.001	.202	.001	.084	.001
13.38	.35	.046	.001	.144	.001	.08	.001
13.475	.25	.037	.001	.108	.001	.08	.001
13.49	.163	.026	.001	.057	.001	.055	.001
15.58	.672	.211	.001	.727	.001	.085	.001
15.99	.609	.202	.001	.643	.001	.08	.001
15.73	.525	.175	.001	.501	.001	.066	.001
15.595	.432	.164	.001	.423	.001	.07	.001
15.1	.367	.127	.001	.339	.001	.069	.001
14.9	.287	.107	.001	.287	.001	.08	.001
14.475	.212	.077	.001	.182	.001	.063	.001
17.16	.558	.319	.001	.774	.001	.07	.001
17.175	.478	.29	.001	.655	.001	.062	.001
18.36	.486	.448	.001	.847	.001	.067	.001
18.245	.47	.402	.001	.791	.001	.067	.001
17.995	.414	.363	.001	.692	.001	.05	.001
17.765	.409	.332	.001	.654	.001	.052	.001
17.41	.306	.292	.001	.537	.001	.053	.001
16.84	.307	.246	.001	.505	.001	.056	.001
16.16	.2	.186	.001	.367	.001	.05	.001
15.72	.202	.155	.001	.328	.001	.05	.001
14.76	.12	.084	.001	.189	.001	.043	.001
13.915	.101	.025	.001	.062	.001	.052	.001
18.832	.38	.484	.001	.788	.001	.07	.001
18.5	.356	.401	.001	.695	.001	.055	.001
19.45	.289	.658	.001	.873	.001	.054	.001
19.46	.264	.614	.001	.808	.001	.057	.001
19.29	.24	.557	.001	.738	.001	.06	.001
19.15	.197	.505	.001	.703	.001	.05	.001
18.62	.173	.419	.001	.591	.001	.053	.001
18.075	.142	.363	.001	.543	.001	.032	.001
17.2	.119	.268	.001	.446	.001	.04	.001
16.42	.103	.2	.001	.361	.001	.04	.001
20.07	.152	.815	.001	.918	.001	.046	.001
20.1	.087	.757	.001	.812	.001	.04	.001
19.95	.128	.682	.001	.767	.001	.05	.001
19.58	.087	.598	.001	.691	.001	.04	.001
19.18	.09	.516	.001	.651	.001	.024	.001
18.515	.106	.41	.001	.573	.001	.03	.001
17.8	.103	.326	.001	.497	.001	.03	.001
17.67	.138	.318	.001	.499	.001	.041	.001
16.415	.104	.2	.001	.367	.001	.03	.001
15.26	.108	.118	.001	.247	.001	.04	.001

System: 2-methyl-1-propanol + 1-chlorobutane + hexane; phases: Liquid
Fixed: Pressure, kPa = 101
Fixed: Temperature, K = 298.15
Property: Mass density, kg/m3 (Liquid); method: Vibrating tube method
Mole fraction of 2-methyl-1-propanol	Mole fraction of hexane	Mass density, kg/m3	uncertainty
.0787	.0365	863.754	
.0621	.097	848.501	
.0367	.8374	681.707	
.031	.9001	670.46	
.1163	.0552	855.51	
.0852	.0963	846.751	
.0956	.2024	817.917	
.0934	.293	795.282	
.0964	.3884	771.988	
.0971	.4801	750.842	
.1007	.5831	727.807	
.1033	.687	705.815	
.1068	.7994	683.124	
.1056	.8295	677.369	
.1984	.0989	836.959	
.2027	.203	809.105	
.2096	.2908	786.347	
.2164	.4041	758.414	
.188	.5047	737.755	
.1934	.6058	715.28	
.1992	.6816	698.948	
.304	.0968	829.079	
.2851	.2036	802.247	
.2919	.2899	779.854	
.2967	.404	751.914	
.308	.4949	730.099	
.3129	.5993	706.723	
.3797	.099	822.442	
.3911	.2016	794.161	
.3961	.3096	766.474	
.3831	.3977	746.251	
.3936	.4957	722.776	
.4855	.0961	814.705	
.497	.1985	786.337	
.4857	.3043	760.359	
.4929	.3995	736.661	
.5887	.0953	806.427	
.6029	.1962	778.099	
.593	.3027	751.758	
.6869	.0932	798.772	
.7049	.193	770.195	
.7828	.0937	790.415	
.8495	.0522	796.279	
.8332	.0927	786.188	
.8946	.054	791.713	

System: 2-methyl-1-propanol + 1-chlorobutane + hexane; phases: Liquid
Fixed: Temperature, K = 298.15
Fixed: Pressure, kPa = 101
Property: Speed of sound, m/s (Liquid); method: Pulse-echo method
Mole fraction of 2-methyl-1-propanol	Mole fraction of hexane	Speed of sound, m/s	uncertainty
.0787	.0365	1112.45	
.0621	.097	1107.31	
.0367	.8374	1077.61	
.031	.9001	1077.38	
.1163	.0552	1110.55	
.0852	.0963	1107.08	
.0956	.2024	1098.81	
.0934	.293	1092.97	
.0964	.3884	1087.88	
.0971	.4801	1084	
.1007	.5831	1080.7	
.1033	.687	1078.44	
.1068	.7994	1077.05	
.1056	.8295	1076.84	
.1984	.0989	1107.86	
.2027	.203	1099.94	
.2096	.2908	1094.38	
.2164	.4041	1088.53	
.188	.5047	1083.79	
.1934	.6058	1080.95	
.1992	.6816	1079.59	
.304	.0968	1111.92	
.2851	.2036	1102.75	
.2919	.2899	1097.36	
.2967	.404	1091.45	
.308	.4949	1088.27	
.3129	.5993	1085.53	
.3797	.099	1115.9	
.3911	.2016	1108.56	
.3961	.3096	1101.81	
.3831	.3977	1096.37	
.3936	.4957	1093.1	
.4855	.0961	1123.49	
.497	.1985	1116.26	
.4857	.3043	1108.43	
.4929	.3995	1104.08	
.5887	.0953	1132.16	
.6029	.1962	1125.44	
.593	.3027	1117.64	
.6869	.0932	1141.7	
.7049	.193	1135.72	
.7828	.0937	1151.92	
.8495	.0522	1163.33	
.8332	.0927	1157.89	
.8946	.054	1168.8	

System: 2-methyl-2-propanol + 1-chlorobutane + hexane; phases: Liquid, Gas
Fixed: Temperature, K = 298.15
Property: Mole fraction of hexane (Liquid); method: Density calibration data
Property: Mole fraction of hexane (Gas); method: Density calibration data
Property: Mole fraction of 2-methyl-2-propanol (Gas); method: Density calibration data
Pressure, kPa	Mole fraction of 2-methyl-2-propanol	Mole fraction of hexane	uncertainty	Mole fraction of hexane	uncertainty	Mole fraction of 2-methyl-2-propanol	uncertainty
12	.874	.093	.001	.405	.001	.439	.001
14.195	.772	.11	.001	.356	.001	.316	.001
14.595	.714	.091	.001	.269	.001	.301	.001
15.015	.631	.077	.001	.201	.001	.296	.001
15.115	.549	.063	.001	.158	.001	.288	.001
15.845	.379	.083	.001	.181	.001	.242	.001
15.855	.284	.071	.001	.141	.001	.21	.001
15.405	.267	.051	.001	.103	.001	.214	.001
16.98	.659	.226	.001	.521	.001	.25	.001
17.025	.601	.203	.001	.439	.001	.237	.001
17.175	.523	.18	.001	.368	.001	.231	.001
17	.447	.155	.001	.313	.001	.234	.001
16.875	.365	.135	.001	.265	.001	.224	.001
16.175	.305	.098	.001	.209	.001	.219	.001
15.78	.27	.055	.001	.12	.001	.214	.001
19.3	.479	.367	.001	.604	.001	.196	.001
18.065	.525	.255	.001	.48	.001	.215	.001
19.505	.503	.405	.001	.678	.001	.186	.001
19.675	.406	.39	.001	.603	.001	.189	.001
18.92	.296	.304	.001	.471	.001	.16	.001
18.26	.255	.244	.001	.405	.001	.17	.001
17.55	.207	.192	.001	.328	.001	.159	.001
16.8	.147	.138	.001	.246	.001	.147	.001
16.195	.09	.095	.001	.182	.001	.114	.001
14.895	.024	.045	.001	.091	.001	.05	.001
20.675	.318	.561	.001	.726	.001	.15	.001
19.975	.314	.432	.001	.601	.001	.154	.001
21.395	.216	.747	.001	.829	.001	.135	.001
20.965	.262	.616	.001	.744	.001	.138	.001
20.805	.244	.559	.001	.681	.001	.138	.001
20.47	.21	.495	.001	.601	.001	.128	.001
19.965	.174	.426	.001	.549	.001	.125	.001
19.315	.139	.354	.001	.487	.001	.12	.001
18.5	.111	.276	.001	.411	.001	.109	.001
17.66	.081	.209	.001	.334	.001	.1	.001
21.43	.096	.866	.001	.847	.001	.109	.001
21.35	.119	.775	.001	.806	.001	.102	.001
21.07	.11	.699	.001	.733	.001	.105	.001
20.815	.089	.614	.001	.668	.001	.102	.001
20.155	.071	.522	.001	.603	.001	.086	.001
19.47	.052	.431	.001	.536	.001	.07	.001
18.62	.04	.34	.001	.461	.001	.061	.001
17.66	.029	.258	.001	.394	.001	.053	.001
16.32	.015	.162	.001	.286	.001	.032	.001

System: 2-methyl-2-propanol + 1-chlorobutane + hexane; phases: Liquid
Fixed: Pressure, kPa = 101
Fixed: Temperature, K = 298.15
Property: Mass density, kg/m3 (Liquid); method: Vibrating tube method
Mole fraction of 2-methyl-2-propanol	Mole fraction of hexane	Mass density, kg/m3	uncertainty
.0358	.9042	668.16	
.0299	.8755	674.162	
.0567	.1033	844.609	
.0593	.0421	861.33	
.0997	.8397	673.43	
.0987	.8089	679.544	
.0996	.6956	701.495	
.0932	.594	723.22	
.0943	.5127	740.714	
.0938	.4113	763.745	
.0916	.2992	790.693	
.0881	.2079	813.508	
.1145	.0796	844.951	
.3028	.1015	819.44	
.3882	.5017	713.146	
.4075	.3818	738.228	
.3996	.2876	761.576	
.3919	.2039	783.331	
.4079	.1001	808.913	
.4912	.401	725.397	
.5061	.2898	750.192	
.4957	.2018	773.25	
.485	.1197	795.845	
.1153	.0373	856.456	
.1947	.7205	687.012	
.1889	.6142	709.204	
.2133	.483	734.917	
.2097	.3878	757.122	
.2057	.2955	779.546	
.1984	.2068	802.324	
.193	.1022	830.5	
.3105	.5766	704.838	
.3049	.5027	721.32	
.2958	.4077	743.547	
.2888	.3176	765.527	
.3057	.1858	796.729	
.5883	.3074	737.633	
.6013	.2001	763.003	
.5891	.1174	786.041	
.6997	.1992	753.627	
.6885	.1171	776.35	
.7861	.1175	766.967	
.8529	.0967	766.498	
.8503	.0547	778.193	
.8926	.0578	773.631	

System: 2-methyl-2-propanol + 1-chlorobutane + hexane; phases: Liquid
Fixed: Temperature, K = 298.15
Fixed: Pressure, kPa = 101
Property: Speed of sound, m/s (Liquid); method: Pulse-echo method
Mole fraction of 2-methyl-2-propanol	Mole fraction of hexane	Speed of sound, m/s	uncertainty
.0358	.9042	1072.69	
.0299	.8755	1073.12	
.0567	.1033	1103.46	
.0593	.0421	1108.38	
.0997	.8397	1068.35	
.0987	.8089	1068.44	
.0996	.6956	1069.72	
.0932	.594	1072.68	
.0943	.5127	1075.36	
.0938	.4113	1079.89	
.0916	.2992	1086.24	
.0881	.2079	1092.4	
.1145	.0796	1100.21	
.3028	.1015	1088.64	
.3882	.5017	1061.51	
.4075	.3818	1065.66	
.3996	.2876	1071.27	
.3919	.2039	1077.35	
.4079	.1001	1085.44	
.4912	.401	1062.35	
.5061	.2898	1068.11	
.4957	.2018	1074.9	
.485	.1197	1082.15	
.1153	.0373	1103.75	
.1947	.7205	1064.61	
.1889	.6142	1066.6	
.2133	.483	1069.37	
.2097	.3878	1073.78	
.2057	.2955	1078.98	
.1984	.2068	1085.03	
.193	.1022	1093.37	
.3105	.5766	1062.26	
.3049	.5027	1064.54	
.2958	.4077	1068.63	
.2888	.3176	1073.64	
.3057	.1858	1081.66	
.5883	.3074	1065.3	
.6013	.2001	1073.27	
.5891	.1174	1081.27	
.6997	.1992	1073.47	
.6885	.1171	1081.81	
.7861	.1175	1084.6	
.8529	.0967	1091.18	
.8503	.0547	1096.35	
.8926	.0578	1099.66	
