Measured thermophysical data. Solid-Liquid Equilibria in Binary Mixtures of 1,8-Cineole with p-Cymene, ?-Pinene, and Camphene
Source: J. Chem. Eng. Data, 2010, 10.1021/je900653p
Compound 1: 1,8-cineole, C10H18O, purity 99.5%
Compound 2: p-cymene, C10H14, purity 98%
Compound 3: camphene, C10H16, purity 98%
Compound 4: (1S)-(-)-.beta.-pinene, C10H16, purity 98%

System: 1,8-cineole; phases: Crystal, Liquid, Air at 1 atmosphere
Property: Normal melting temperature, K (Crystal); method: DSC/DTA
Normal melting temperature, K	uncertainty
274.4	.2

System: p-cymene; phases: Crystal, Liquid, Air at 1 atmosphere
Property: Normal melting temperature, K (Crystal); method: DSC/DTA
Normal melting temperature, K	uncertainty
204.6	.2

System: camphene; phases: Crystal, Liquid, Air at 1 atmosphere
Property: Normal melting temperature, K (Crystal); method: DSC/DTA
Normal melting temperature, K	uncertainty
324.2	.2

System: (1S)-(-)-.beta.-pinene; phases: Crystal, Liquid, Air at 1 atmosphere
Property: Normal melting temperature, K (Crystal); method: DSC/DTA
Normal melting temperature, K	uncertainty
211.6	.2

System: p-cymene + 1,8-cineole; phases: Crystal, Crystal, Liquid, Air at 1 atmosphere
Fixed: Pressure, kPa = 101.325
Property: Eutectic composition: mole fraction of 1,8-cineole (Crystal); method: Derived from phase diagram analysis
Eutectic composition: mole fraction of 1,8-cineole	uncertainty
.124	

System: p-cymene + 1,8-cineole; phases: Crystal, Crystal, Liquid, Air at 1 atmosphere
Fixed: Pressure, kPa = 101.325
Property: Eutectic temperature, K (Crystal); method: Derived from phase diagram analysis
Eutectic temperature, K	uncertainty
200	.2

System: p-cymene + 1,8-cineole; phases: Liquid, Crystal
Fixed: Pressure, kPa = 101
Property: Solid-liquid equilibrium temperature, K (Liquid); method: DSC/DTA
Mole fraction of 1,8-cineole	Solid-liquid equilibrium temperature, K	uncertainty
0	204.6	.2
.0112	204.5	.2
.0251	204.1	.2
.0497	202.9	.2
.0732	202.1	.2

System: p-cymene + 1,8-cineole; phases: Liquid, Crystal
Fixed: Pressure, kPa = 101
Property: Solid-liquid equilibrium temperature, K (Liquid); method: DSC/DTA
Mole fraction of 1,8-cineole	Solid-liquid equilibrium temperature, K	uncertainty
.2041	213.7	.2
.2386	220	.2
.2781	223.5	.2
.3191	228.7	.2
.3422	231.9	.2
.3601	234.4	.2
.3831	234.9	.2
.4109	238.3	.2
.4983	246.2	.2
.5208	247.1	.2
.54	248.4	.2
.5682	249.4	.2
.5811	252.1	.2
.6326	254	.2
.705	259	.2
.8001	264.6	.2
.8545	266.7	.2
.9258	270.8	.2
.9641	272.6	.2
.9759	273.3	.2
.988	273.8	.2
.991	274.1	.2
1	274.4	.2

System: camphene + 1,8-cineole; phases: Crystal, Crystal, Liquid, Air at 1 atmosphere
Fixed: Pressure, kPa = 101.325
Property: Eutectic composition: mole fraction of 1,8-cineole (Crystal); method: Derived from phase diagram analysis
Eutectic composition: mole fraction of 1,8-cineole	uncertainty
.582	

System: camphene + 1,8-cineole; phases: Crystal, Crystal, Liquid, Air at 1 atmosphere
Fixed: Pressure, kPa = 101.325
Property: Eutectic temperature, K (Crystal); method: Derived from phase diagram analysis
Eutectic temperature, K	uncertainty
251.8	.2

System: camphene + 1,8-cineole; phases: Liquid, Crystal
Fixed: Pressure, kPa = 101
Property: Solid-liquid equilibrium temperature, K (Liquid); method: DSC/DTA
Mole fraction of 1,8-cineole	Solid-liquid equilibrium temperature, K	uncertainty
0	324.2	.2
.0566	319.1	.2
.1146	312.9	.2
.1555	307.9	.2
.1976	302.9	.2
.2816	293.2	.2
.3632	283.5	.2
.4291	274.8	.2
.4772	268.6	.2

System: camphene + 1,8-cineole; phases: Liquid, Crystal
Fixed: Pressure, kPa = 101
Property: Solid-liquid equilibrium temperature, K (Liquid); method: DSC/DTA
Mole fraction of 1,8-cineole	Solid-liquid equilibrium temperature, K	uncertainty
.7165	259.8	.2
.8072	265.1	.2
.8563	267.8	.2
.9008	270.7	.2
.9489	271.6	.2
.9666	273.3	.2
1	274.4	.2

System: 1,8-cineole + (1S)-(-)-.beta.-pinene; phases: Crystal, Crystal, Liquid, Air at 1 atmosphere
Fixed: Pressure, kPa = 101.325
Property: Eutectic composition: mole fraction of 1,8-cineole (Crystal); method: Derived from phase diagram analysis
Eutectic composition: mole fraction of 1,8-cineole	uncertainty
.154	

System: 1,8-cineole + (1S)-(-)-.beta.-pinene; phases: Crystal, Crystal, Liquid, Air at 1 atmosphere
Fixed: Pressure, kPa = 101.325
Property: Eutectic temperature, K (Crystal); method: Derived from phase diagram analysis
Eutectic temperature, K	uncertainty
205.6	.2

System: 1,8-cineole + (1S)-(-)-.beta.-pinene; phases: Liquid, Crystal
Fixed: Pressure, kPa = 101
Property: Solid-liquid equilibrium temperature, K (Liquid); method: DSC/DTA
Mole fraction of 1,8-cineole	Solid-liquid equilibrium temperature, K	uncertainty
0	211.6	.2
.0125	210.9	.2
.0256	210.7	.2
.0507	210.2	.2
.0816	209	.2

System: 1,8-cineole + (1S)-(-)-.beta.-pinene; phases: Liquid, Crystal
Fixed: Pressure, kPa = 101
Property: Solid-liquid equilibrium temperature, K (Liquid); method: DSC/DTA
Mole fraction of 1,8-cineole	Solid-liquid equilibrium temperature, K	uncertainty
.2209	216	.2
.2491	221.8	.2
.2699	223.5	.2
.3015	227.7	.2
.3212	230.5	.2
.3503	232.4	.2
.3777	236.8	.2
.3998	238	.2
.4422	242.3	.2
.4704	244.1	.2
.5011	245.4	.2
.5578	250.1	.2
.6092	253.7	.2
.6513	256.9	.2
.6972	259.8	.2
.7695	262.9	.2
.8681	267.4	.2
.8999	269.9	.2
.9633	272.7	.2
.9823	273.8	.2
1	274.4	.2
