Measured thermophysical data. Density, Speed of Sound, and Isentropic Compressibility of Triethanolamine (or N-Methyldiethanolamine) + Water + Ethanol Solutions from t = (15 to 50) deg C
Source: J. Chem. Eng. Data, 2009, 10.1021/je900064e
Compound 1: N-methyldiethanolamine, C5H13NO2
Compound 2: triethanolamine, C6H15NO3
Compound 3: ethanol, C2H6O
Compound 4: water, H2O

System: N-methyldiethanolamine; phases: Liquid
Fixed: Pressure, kPa = 101.325
Property: Mass density, kg/m3 (Liquid); method: Vibrating tube method
Temperature, K	Mass density, kg/m3	uncertainty
298.15	1036.79	
303.15	1033.06	
288.15	1044.32	
293.15	1040.59	
313.15	1025.45	
308.15	1029.26	
318.15	1021.62	
323.15	1018.22	

System: N-methyldiethanolamine; phases: Liquid
Fixed: Pressure, kPa = 101.325
Property: Speed of sound, m/s (Liquid); method: Sing-around technique in a fixed-path interferometer
Temperature, K	Speed of sound, m/s	uncertainty
298.15	1564.1	
303.15	1546	
288.15	1598.8	
293.15	1583.1	
313.15	1516.1	
308.15	1531	
318.15	1503.2	
323.15	1490.4	

System: triethanolamine; phases: Liquid
Fixed: Pressure, kPa = 101.325
Property: Mass density, kg/m3 (Liquid); method: Vibrating tube method
Temperature, K	Mass density, kg/m3	uncertainty
313.15	1112.57	
298.15	1120.99	
288.15	1126.19	
303.15	1118.21	
293.15	1123.42	
308.15	1115.38	
318.15	1109.78	
323.15	1106.93	

System: triethanolamine; phases: Liquid
Fixed: Pressure, kPa = 101.325
Property: Speed of sound, m/s (Liquid); method: Sing-around technique in a fixed-path interferometer
Temperature, K	Speed of sound, m/s	uncertainty
313.15	1587	
298.15	1614.5	
288.15	1631.1	
303.15	1604.5	
293.15	1623.9	
308.15	1595.5	
318.15	1578.8	
323.15	1570.6	

System: ethanol + triethanolamine + water; phases: Liquid
Fixed: Pressure, kPa = 101
Fixed: Solvent: Volume fraction of ethanol = .5
Property: Mass density, kg/m3 (Liquid); method: Vibrating tube method
Temperature, K	Mole fraction of triethanolamine	Mass density, kg/m3	uncertainty
288.15	0	930.86	.083
293.15	0	927.08	.083
298.15	0	923.22	.083
303.15	0	919.31	.083
308.15	0	915.32	.083
313.15	0	911.27	.083
318.15	0	908.03	.083
323.15	0	904.32	.083
288.15	.006	936.1	.083
293.15	.006	933.11	.083
298.15	.006	929.4	.083
303.15	.006	925.33	.083
308.15	.006	922.21	.083
313.15	.006	918.52	.083
318.15	.006	914.4	.083
323.15	.006	910.41	.083
288.15	.0147	940.81	.083
298.15	.0147	934.28	.083
303.15	.0147	931.28	.083
308.15	.0147	928.02	.083
313.15	.0147	923.73	.083
318.15	.0147	919.97	.083
293.15	.0147	937.88	.083
323.15	.0147	915.67	.083
293.15	.0312	953.91	.083
298.15	.0312	950.98	.083
288.15	.0312	957.43	.083
303.15	.0312	947.41	.083
308.15	.0312	943.98	.083
313.15	.0312	940.27	.083
318.15	.0312	937.15	.083
323.15	.0312	933.83	.083
303.15	.1197	1008.59	.083
288.15	.1197	1019.34	.083
293.15	.1197	1015.81	.083
308.15	.1197	1004.92	.083
313.15	.1197	1001.18	.083
298.15	.1197	1012.2	.083
318.15	.1197	997.37	.083
323.15	.1197	993.52	.083
293.15	.2176	1050.59	.083
303.15	.2176	1043.69	.083
308.15	.2176	1040.15	.083
288.15	.2176	1053.97	.083
313.15	.2176	1036.57	.083
318.15	.2176	1032.92	.083
298.15	.2176	1047.17	.083
323.15	.2176	1029.14	.083
293.15	.3336	1074.91	.083
308.15	.3336	1064.92	.083
298.15	.3336	1071.58	.083
313.15	.3336	1062.13	.083
288.15	.3336	1078.71	.083
303.15	.3336	1068.67	.083
318.15	.3336	1059.23	.083
323.15	.3336	1056.44	.083
308.15	.4555	1082.21	.083
293.15	.4555	1091.79	.083
313.15	.4555	1079.14	.083
298.15	.4555	1088.81	.083
318.15	.4555	1076.11	.083
288.15	.4555	1094.79	.083
303.15	.4555	1085.71	.083
323.15	.4555	1072.59	.083
288.15	.5719	1105.63	.083
313.15	.5719	1088.63	.083
293.15	.5719	1102.72	.083
308.15	.5719	1091.09	.083
318.15	.5719	1085.37	.083
303.15	.5719	1094.62	.083
298.15	.5719	1098.62	.083
323.15	.5719	1082.72	.083
313.15	.6589	1094.19	.083
298.15	.6589	1105.03	.083
288.15	.6589	1110.02	.083
303.15	.6589	1101.82	.083
318.15	.6589	1091.15	.083
308.15	.6589	1097.99	.083
293.15	.6589	1107.88	.083
323.15	.6589	1088.06	.083
313.15	.8074	1101.81	.083
288.15	.8074	1117.3	.083
318.15	.8074	1099.02	.083
293.15	.8074	1114.5	.083
308.15	.8074	1104.61	.083
298.15	.8074	1110.88	.083
303.15	.8074	1107.29	.083
323.15	.8074	1096.96	.083
318.15	.8835	1101.99	.083
303.15	.8835	1112	.083
293.15	.8835	1118.52	.083
298.15	.8835	1114.92	.083
288.15	.8835	1121.31	.083
308.15	.8835	1108.86	.083
313.15	.8835	1105.8	.083
323.15	.8835	1100.58	.083

System: ethanol + triethanolamine + water; phases: Liquid
Fixed: Pressure, kPa = 101
Fixed: Solvent: Volume fraction of ethanol = .5
Property: Speed of sound, m/s (Liquid); method: Sing-around technique in a fixed-path interferometer
Temperature, K	Mole fraction of triethanolamine	Speed of sound, m/s	uncertainty
288.15	0	1546.7	.14
293.15	0	1534.1	.14
298.15	0	1521.1	.14
303.15	0	1507.9	.14
308.15	0	1494.5	.14
313.15	0	1480.9	.14
318.15	0	1467	.14
323.15	0	1452.9	.14
288.15	.006	1554.1	.14
293.15	.006	1541.7	.14
298.15	.006	1527.5	.14
303.15	.006	1512.6	.14
308.15	.006	1499.2	.14
313.15	.006	1485.7	.14
318.15	.006	1471.8	.14
323.15	.006	1457.8	.14
288.15	.0147	1560.8	.14
298.15	.0147	1534.5	.14
303.15	.0147	1517.1	.14
308.15	.0147	1503.9	.14
313.15	.0147	1490.4	.14
318.15	.0147	1476.4	.14
293.15	.0147	1546.9	.14
323.15	.0147	1462.6	.14
293.15	.0312	1560	.14
298.15	.0312	1546	.14
288.15	.0312	1572.7	.14
303.15	.0312	1529.1	.14
308.15	.0312	1516.2	.14
313.15	.0312	1502.9	.14
318.15	.0312	1489.3	.14
323.15	.0312	1475.5	.14
303.15	.1197	1579	.14
288.15	.1197	1612.7	.14
293.15	.1197	1601.7	.14
308.15	.1197	1567.3	.14
313.15	.1197	1555.5	.14
298.15	.1197	1590.4	.14
318.15	.1197	1543	.14
323.15	.1197	1529.9	.14
293.15	.2176	1615.6	.14
303.15	.2176	1596	.14
308.15	.2176	1586.2	.14
288.15	.2176	1625.4	.14
313.15	.2176	1575.1	.14
318.15	.2176	1563.8	.14
298.15	.2176	1605.8	.14
323.15	.2176	1552.1	.14
293.15	.3336	1620.8	.14
308.15	.3336	1593.9	.14
298.15	.3336	1611.5	.14
313.15	.3336	1584.4	.14
288.15	.3336	1629.5	.14
303.15	.3336	1601.6	.14
318.15	.3336	1574.4	.14
323.15	.3336	1564.1	.14
308.15	.4555	1594.7	.14
293.15	.4555	1621.9	.14
313.15	.4555	1585.6	.14
298.15	.4555	1612	.14
318.15	.4555	1576.3	.14
288.15	.4555	1630.6	.14
303.15	.4555	1602.8	.14
323.15	.4555	1567.6	.14
288.15	.5719	1630.6	.14
313.15	.5719	1586.1	.14
293.15	.5719	1622.3	.14
308.15	.5719	1594.9	.14
318.15	.5719	1577.6	.14
303.15	.5719	1603	.14
298.15	.5719	1612.5	.14
323.15	.5719	1569	.14
313.15	.6589	1586.4	.14
298.15	.6589	1612.8	.14
288.15	.6589	1631.1	.14
303.15	.6589	1603.2	.14
318.15	.6589	1577.9	.14
308.15	.6589	1595	.14
293.15	.6589	1622.8	.14
323.15	.6589	1569.5	.14
313.15	.8074	1586.7	.14
288.15	.8074	1631.1	.14
318.15	.8074	1578.1	.14
293.15	.8074	1622.9	.14
308.15	.8074	1595.2	.14
298.15	.8074	1613.1	.14
303.15	.8074	1603.7	.14
323.15	.8074	1570	.14
318.15	.8835	1578.6	.14
303.15	.8835	1604	.14
293.15	.8835	1623.2	.14
298.15	.8835	1613.5	.14
288.15	.8835	1631.1	.14
308.15	.8835	1595.3	.14
313.15	.8835	1586.9	.14
323.15	.8835	1570.3	.14

System: ethanol + N-methyldiethanolamine + water; phases: Liquid
Fixed: Pressure, kPa = 101
Fixed: Solvent: Volume fraction of ethanol = .5
Property: Mass density, kg/m3 (Liquid); method: Vibrating tube method
Temperature, K	Mole fraction of N-methyldiethanolamine	Mass density, kg/m3	uncertainty
288.15	0	930.86	.083
293.15	0	927.08	.083
298.15	0	923.22	.083
303.15	0	919.31	.083
308.15	0	915.32	.083
313.15	0	911.27	.083
318.15	0	907.3	.083
323.15	0	903.71	.083
288.15	.0677	963.54	.083
293.15	.0677	959.71	.083
298.15	.0677	955.81	.083
303.15	.0677	951.88	.083
308.15	.0677	947.87	.083
313.15	.0677	943.8	.083
318.15	.0677	939.66	.083
323.15	.0677	935.97	.083
288.15	.1126	978.81	.083
298.15	.1126	971.21	.083
303.15	.1126	967.13	.083
308.15	.1126	963.32	.083
313.15	.1126	959.26	.083
293.15	.1126	975	.083
318.15	.1126	955.11	.083
323.15	.1126	951.32	.083
298.15	.2139	994.66	.083
288.15	.2139	1002.76	.083
303.15	.2139	990.29	.083
308.15	.2139	986.13	.083
313.15	.2139	982.03	.083
318.15	.2139	977.98	.083
293.15	.2139	998.64	.083
323.15	.2139	974.04	.083
303.15	.2801	1001.91	.083
288.15	.2801	1014.1	.083
293.15	.2801	1010.12	.083
308.15	.2801	997.82	.083
298.15	.2801	1005.91	.083
313.15	.2801	993.59	.083
318.15	.2801	989.68	.083
323.15	.2801	985.9	.083
303.15	.4352	1016.96	.083
308.15	.4352	1013.06	.083
288.15	.4352	1028.52	.083
313.15	.4352	1009.11	.083
298.15	.4352	1020.85	.083
318.15	.4352	1005.16	.083
293.15	.4352	1024.67	.083
323.15	.4352	1001.41	.083
308.15	.5524	1018.63	.083
303.15	.5524	1022.48	.083
313.15	.5524	1014.74	.083
288.15	.5524	1033.88	.083
293.15	.5524	1030.11	.083
318.15	.5524	1010.82	.083
298.15	.5524	1026.31	.083
323.15	.5524	1007.46	.083
303.15	.6333	1024.74	.083
293.15	.6333	1032.34	.083
313.15	.6333	1017.3	.083
318.15	.6333	1013.71	.083
288.15	.6333	1036.09	.083
298.15	.6333	1028.55	.083
308.15	.6333	1020.9	.083
323.15	.6333	1010.42	.083
308.15	.7306	1024.29	.083
313.15	.7306	1020.45	.083
303.15	.7306	1028.1	.083
298.15	.7306	1031.89	.083
318.15	.7306	1016.59	.083
288.15	.7306	1039.4	.083
293.15	.7306	1035.67	.083
323.15	.7306	1013.43	.083
293.15	.8579	1037.81	.083
308.15	.8579	1026.72	.083
303.15	.8579	1030.29	.083
318.15	.8579	1019.33	.083
313.15	.8579	1022.99	.083
298.15	.8579	1034.29	.083
288.15	.8579	1041.49	.083
323.15	.8579	1015.87	.083
298.15	.9368	1035.49	.083
318.15	.9368	1020.45	.083
293.15	.9368	1039.48	.083
308.15	.9368	1027.97	.083
303.15	.9368	1031.71	.083
313.15	.9368	1024.19	.083
288.15	.9368	1043.13	.083
323.15	.9368	1017.01	.083

System: ethanol + N-methyldiethanolamine + water; phases: Liquid
Fixed: Pressure, kPa = 101
Fixed: Solvent: Volume fraction of ethanol = .5
Property: Speed of sound, m/s (Liquid); method: Sing-around technique in a fixed-path interferometer
Temperature, K	Mole fraction of N-methyldiethanolamine	Speed of sound, m/s	uncertainty
288.15	0	1546.7	.14
293.15	0	1534.1	.14
298.15	0	1521.1	.14
303.15	0	1507.9	.14
308.15	0	1494.5	.14
313.15	0	1480.9	.14
318.15	0	1467	.14
323.15	0	1452.9	.14
288.15	.0677	1583.9	.14
293.15	.0677	1570.5	.14
298.15	.0677	1557	.14
303.15	.0677	1543.2	.14
308.15	.0677	1529.1	.14
313.15	.0677	1514.9	.14
318.15	.0677	1500.3	.14
323.15	.0677	1485.5	.14
288.15	.1126	1607.3	.14
298.15	.1126	1577.6	.14
303.15	.1126	1563	.14
308.15	.1126	1548.4	.14
313.15	.1126	1533.4	.14
293.15	.1126	1591.8	.14
318.15	.1126	1518.3	.14
323.15	.1126	1502.7	.14
298.15	.2139	1597.4	.14
288.15	.2139	1628.7	.14
303.15	.2139	1581.7	.14
308.15	.2139	1566.4	.14
313.15	.2139	1550.7	.14
318.15	.2139	1534.4	.14
293.15	.2139	1613	.14
323.15	.2139	1518.6	.14
303.15	.2801	1585.9	.14
288.15	.2801	1634.8	.14
293.15	.2801	1617.1	.14
308.15	.2801	1570.3	.14
298.15	.2801	1601.4	.14
313.15	.2801	1554.5	.14
318.15	.2801	1538.5	.14
323.15	.2801	1522.6	.14
303.15	.4352	1588.4	.14
308.15	.4352	1574.2	.14
288.15	.4352	1640	.14
313.15	.4352	1558.1	.14
298.15	.4352	1604.6	.14
318.15	.4352	1542	.14
293.15	.4352	1620.6	.14
323.15	.4352	1526.9	.14
308.15	.5524	1559.8	.14
303.15	.5524	1575.2	.14
313.15	.5524	1544.4	.14
288.15	.5524	1629.2	.14
293.15	.5524	1606.2	.14
318.15	.5524	1528.9	.14
298.15	.5524	1590.7	.14
323.15	.5524	1513.5	.14
303.15	.6333	1569.3	.14
293.15	.6333	1600.3	.14
313.15	.6333	1538.3	.14
318.15	.6333	1522.8	.14
288.15	.6333	1620	.14
298.15	.6333	1584.8	.14
308.15	.6333	1553.8	.14
323.15	.6333	1507.3	.14
308.15	.7306	1548.5	.14
313.15	.7306	1533.2	.14
303.15	.7306	1563.8	.14
298.15	.7306	1579.3	.14
318.15	.7306	1518.2	.14
288.15	.7306	1613.1	.14
293.15	.7306	1595.8	.14
323.15	.7306	1502.8	.14
293.15	.8579	1590	.14
308.15	.8579	1541.1	.14
303.15	.8579	1555.3	.14
318.15	.8579	1510.8	.14
313.15	.8579	1526.9	.14
298.15	.8579	1571.5	.14
288.15	.8579	1606.4	.14
323.15	.8579	1495.6	.14
298.15	.9368	1566.7	.14
318.15	.9368	1504.2	.14
293.15	.9368	1587.5	.14
308.15	.9368	1534.5	.14
303.15	.9368	1547.7	.14
313.15	.9368	1519.3	.14
288.15	.9368	1601.7	.14
323.15	.9368	1490.9	.14
298.15	1	1564.1	.14
303.15	1	1546	.14
288.15	1	1598.8	.14
293.15	1	1583.1	.14
313.15	1	1516.1	.14
308.15	1	1531	.14
318.15	1	1503.2	.14
323.15	1	1490.4	.14

System: ethanol + water; phases: Liquid
Property: Mass density, kg/m3 (Liquid); method: Vibrating tube method
Temperature, K	Pressure, kPa	Volume fraction of ethanol	Mass density, kg/m3	uncertainty
288.15	101	.5	930.86	.083
293.15	101	.5	927.08	.083
298.15	101	.5	923.22	.083
303.15	101	.5	919.31	.083
308.15	101	.5	915.32	.083
313.15	101	.5	911.27	.083
318.15	101	.5	908.03	.083
323.15	101	.5	904.32	.083
318.15	101	.5	907.3	.083
323.15	101	.5	903.71	.083

System: ethanol + water; phases: Liquid
Property: Speed of sound, m/s (Liquid); method: Sing-around technique in a fixed-path interferometer
Temperature, K	Pressure, kPa	Volume fraction of ethanol	Speed of sound, m/s	uncertainty
288.15	101	.5	1546.7	.14
293.15	101	.5	1534.1	.14
298.15	101	.5	1521.1	.14
303.15	101	.5	1507.9	.14
308.15	101	.5	1494.5	.14
313.15	101	.5	1480.9	.14
318.15	101	.5	1467	.14
323.15	101	.5	1452.9	.14
