Measured thermophysical data. Solubility of Budesonide, Hydrocortisone, and Prednisolone in Ethanol + Water Mixtures at 298.2 K
Source: J. Chem. Eng. Data, 2010, 10.1021/je900376r
Compound 1: budesonide, C25H34O6
Compound 2: hydrocortisone, C21H30O5
Compound 3: prednisolone, C21H28O5
Compound 4: ethanol, C2H6O
Compound 5: water, H2O

System: ethanol + water + budesonide; phases: Liquid, Crystal
Fixed: Temperature, K = 298.2
Fixed: Pressure, kPa = 101
Property: Amount concentration (molarity), mol/dm3 of budesonide (Liquid); method: Spectrophotometry
Solvent: Volume fraction of ethanol	Amount concentration (molarity), mol/dm3 of budesonide	uncertainty
0	.000065	
.1	.000186	
.2	.000472	
.3	.001394	
.4	.003298	
.5	.010917	
.6	.019743	
.7	.041461	
.8	.072004	
.9	.081295	
1	.062713	

System: ethanol + water + budesonide; phases: Liquid, Crystal
Fixed: Pressure, kPa = 101
Fixed: Temperature, K = 298.2
Property: Mass density, kg/m3 (Liquid); method: Pycnometric method
Solvent: Mole fraction of ethanol	Mass density, kg/m3	uncertainty
0	1003	
.1	995	
.2	984	
.3	969	
.4	954	
.5	940	
.6	910	
.7	888	
.8	870	
.9	843	
1	799	

System: hydrocortisone + ethanol + water; phases: Liquid, Crystal
Fixed: Temperature, K = 298.2
Fixed: Pressure, kPa = 101
Property: Amount concentration (molarity), mol/dm3 of hydrocortisone (Liquid); method: Spectrophotometry
Solvent: Volume fraction of ethanol	Amount concentration (molarity), mol/dm3 of hydrocortisone	uncertainty
0	.00086	
.1	.001959	
.2	.00309	
.3	.0064	
.4	.014897	
.5	.022538	
.6	.040552	
.7	.062759	
.8	.078345	
.9	.064317	
1	.040552	

System: hydrocortisone + ethanol + water; phases: Liquid, Crystal
Fixed: Pressure, kPa = 101
Fixed: Temperature, K = 298.2
Property: Mass density, kg/m3 (Liquid); method: Pycnometric method
Solvent: Mole fraction of ethanol	Mass density, kg/m3	uncertainty
0	1005	
.1	990	
.2	985	
.3	968	
.4	955	
.5	934	
.6	918	
.7	890	
.8	865	
.9	830	
1	792	

System: prednisolone + ethanol + water; phases: Liquid, Crystal
Fixed: Temperature, K = 298.2
Fixed: Pressure, kPa = 101
Property: Amount concentration (molarity), mol/dm3 of prednisolone (Liquid); method: Spectrophotometry
Solvent: Volume fraction of ethanol	Amount concentration (molarity), mol/dm3 of prednisolone	uncertainty
0	.000756	
.1	.00172	
.2	.003607	
.3	.008712	
.4	.01451	
.5	.026634	
.6	.060482	
.7	.089613	
.8	.11375	
.9	.105427	
1	.067418	

System: prednisolone + ethanol + water; phases: Liquid, Crystal
Fixed: Pressure, kPa = 101
Fixed: Temperature, K = 298.2
Property: Mass density, kg/m3 (Liquid); method: Pycnometric method
Solvent: Mole fraction of ethanol	Mass density, kg/m3	uncertainty
0	1005	
.1	995	
.2	985	
.3	967	
.4	951	
.5	933	
.6	917	
.7	893	
.8	872	
.9	843	
1	803	

System: water + budesonide; phases: Liquid, Crystal
Property: Amount concentration (molarity), mol/dm3 of budesonide (Liquid); method: Spectrophotometry
Temperature, K	Pressure, kPa	Amount concentration (molarity), mol/dm3 of budesonide	uncertainty
298.2	101	.000065	

System: water + budesonide; phases: Liquid, Crystal
Property: Mass density, kg/m3 (Liquid); method: Pycnometric method
Pressure, kPa	Temperature, K	Mass density, kg/m3	uncertainty
101	298.2	1003	

System: ethanol + budesonide; phases: Liquid, Crystal
Property: Amount concentration (molarity), mol/dm3 of budesonide (Liquid); method: Spectrophotometry
Temperature, K	Pressure, kPa	Amount concentration (molarity), mol/dm3 of budesonide	uncertainty
298.2	101	.062713	

System: ethanol + budesonide; phases: Liquid, Crystal
Property: Mass density, kg/m3 (Liquid); method: Pycnometric method
Pressure, kPa	Temperature, K	Mass density, kg/m3	uncertainty
101	298.2	799	

System: hydrocortisone + water; phases: Liquid, Crystal
Property: Amount concentration (molarity), mol/dm3 of hydrocortisone (Liquid); method: Spectrophotometry
Temperature, K	Pressure, kPa	Amount concentration (molarity), mol/dm3 of hydrocortisone	uncertainty
298.2	101	.00086	

System: hydrocortisone + water; phases: Liquid, Crystal
Property: Mass density, kg/m3 (Liquid); method: Pycnometric method
Pressure, kPa	Temperature, K	Mass density, kg/m3	uncertainty
101	298.2	1005	

System: hydrocortisone + ethanol; phases: Liquid, Crystal
Property: Amount concentration (molarity), mol/dm3 of hydrocortisone (Liquid); method: Spectrophotometry
Temperature, K	Pressure, kPa	Amount concentration (molarity), mol/dm3 of hydrocortisone	uncertainty
298.2	101	.040552	

System: hydrocortisone + ethanol; phases: Liquid, Crystal
Property: Mass density, kg/m3 (Liquid); method: Pycnometric method
Pressure, kPa	Temperature, K	Mass density, kg/m3	uncertainty
101	298.2	792	

System: prednisolone + water; phases: Liquid, Crystal
Property: Amount concentration (molarity), mol/dm3 of prednisolone (Liquid); method: Spectrophotometry
Temperature, K	Pressure, kPa	Amount concentration (molarity), mol/dm3 of prednisolone	uncertainty
298.2	101	.000756	

System: prednisolone + water; phases: Liquid, Crystal
Property: Mass density, kg/m3 (Liquid); method: Pycnometric method
Pressure, kPa	Temperature, K	Mass density, kg/m3	uncertainty
101	298.2	1005	

System: prednisolone + ethanol; phases: Liquid, Crystal
Property: Amount concentration (molarity), mol/dm3 of prednisolone (Liquid); method: Spectrophotometry
Temperature, K	Pressure, kPa	Amount concentration (molarity), mol/dm3 of prednisolone	uncertainty
298.2	101	.067418	

System: prednisolone + ethanol; phases: Liquid, Crystal
Property: Mass density, kg/m3 (Liquid); method: Pycnometric method
Pressure, kPa	Temperature, K	Mass density, kg/m3	uncertainty
101	298.2	803	
