Measured thermophysical data. Solubility of 5-Amino-N,N?-bis(2,3-dihydroxypropyl)-2,4,6-triiodobenzene-1,3-dicarboxamide in Ethanol + Water Mixtures
Source: J. Chem. Eng. Data, 2010, 10.1021/je9008156
Compound 1: 5-amino-N,N'-bis(2,3-dihydroxypropyl)-2,4,6-triiodobenzene-1,3-dicarboxamide, C14H16I3N3O6
Compound 2: ethanol, C2H6O, purity 99%
Compound 3: water, H2O, purity 99.9%

System: 5-amino-N,N'-bis(2,3-dihydroxypropyl)-2,4,6-triiodobenzene-1,3-dicarboxamide; phases: Crystal, Liquid, Air at 1 atmosphere
Property: Normal melting temperature, K (Crystal); method: Visual observation
Normal melting temperature, K	uncertainty
466.15	

System: ethanol + water + 5-amino-N,N'-bis(2,3-dihydroxypropyl)-2,4,6-triiodobenzene-1,3-dicarboxamide; phases: Liquid, Crystal
Fixed: Pressure, kPa = 101
Property: Mole fraction of 5-amino-N,N'-bis(2,3-dihydroxypropyl)-2,4,6-triiodobenzene-1,3-dicarboxamide (Liquid); method: Gravimetric Method
Temperature, K	Solvent: Mass fraction of ethanol	Mole fraction of 5-amino-N,N'-bis(2,3-dihydroxypropyl)-2,4,6-triiodobenzene-1,3-dicarboxamide	uncertainty
313.15	0	.0003327	.0000073194
318.15	0	.0004236	.0000093192
323.15	0	.000663	.000014586
328.15	0	.0008727	.0000191994
333.15	0	.0012374	.0000272228
338.15	0	.0017546	.0000386012
343.15	0	.0024649	.0000542278
348.15	0	.0033592	.0000739024
353.15	0	.0045957	.0001011054
313.15	.1	.0005792	.0000127424
318.15	.1	.0007823	.0000172106
323.15	.1	.001016	.000022352
328.15	.1	.0013606	.0000299332
333.15	.1	.0019442	.0000427724
338.15	.1	.0026416	.0000581152
343.15	.1	.0035699	.0000785378
348.15	.1	.0046652	.0001026344
353.15	.1	.0062137	.0001367014
313.15	.13	.0008377	.0000184294
318.15	.13	.001035	.00002277
323.15	.13	.0014015	.000030833
328.15	.13	.0017542	.0000385924
333.15	.13	.0023668	.0000520696
338.15	.13	.0030906	.0000679932
343.15	.13	.0042385	.000093247
348.15	.13	.0051397	.0001130734
353.15	.13	.0074311	.0001634842
313.15	.17	.0007457	.0000164054
318.15	.17	.0009871	.0000217162
323.15	.17	.0014668	.0000322696
328.15	.17	.001882	.000041404
333.15	.17	.0025331	.0000557282
338.15	.17	.0035218	.0000774796
343.15	.17	.004734	.000104148
348.15	.17	.0064747	.0001424434
353.15	.17	.0088535	.000194777
313.15	.2	.0009581	.0000210782
318.15	.2	.0012825	.000028215
323.15	.2	.0016266	.0000357852
328.15	.2	.002237	.000049214
333.15	.2	.0030607	.0000673354
338.15	.2	.0039076	.0000859672
343.15	.2	.0054639	.0001202058
348.15	.2	.0068285	.000150227
353.15	.2	.0093571	.0002058562
313.15	.3	.0007026	.0000154572
318.15	.3	.0010285	.000022627
323.15	.3	.0014051	.0000309122
328.15	.3	.0022854	.0000502788
333.15	.3	.0033806	.0000743732
338.15	.3	.0048945	.000107679
343.15	.3	.0071375	.000157025
348.15	.3	.0101313	.0002228886
353.15	.3	.0143475	.000315645

System: water + 5-amino-N,N'-bis(2,3-dihydroxypropyl)-2,4,6-triiodobenzene-1,3-dicarboxamide; phases: Liquid, Crystal
Property: Mole fraction of 5-amino-N,N'-bis(2,3-dihydroxypropyl)-2,4,6-triiodobenzene-1,3-dicarboxamide (Liquid); method: Gravimetric Method
Temperature, K	Pressure, kPa	Mole fraction of 5-amino-N,N'-bis(2,3-dihydroxypropyl)-2,4,6-triiodobenzene-1,3-dicarboxamide	uncertainty
313.15	101	.0003327	.0000073194
318.15	101	.0004236	.0000093192
323.15	101	.000663	.000014586
328.15	101	.0008727	.0000191994
333.15	101	.0012374	.0000272228
338.15	101	.0017546	.0000386012
343.15	101	.0024649	.0000542278
348.15	101	.0033592	.0000739024
353.15	101	.0045957	.0001011054
