Measured thermophysical data. Solubility of Captopril in 2-Propanol, Acetone, Acetonitrile, Methyl Acetate, Ethyl Acetate, and Butyl Acetate
Source: J. Chem. Eng. Data, 2010, 10.1021/je900401z
Compound 1: 1-[(2S)-3-mercapto-2-methyl-1-oxopropyl]-L-proline, C9H15NO3S, purity 99%
Compound 2: 2-propanol, C3H8O, purity 99.5%
Compound 3: propanone, C3H6O, purity 99.5%
Compound 4: acetonitrile, C2H3N, purity 99.5%
Compound 5: methyl ethanoate, C3H6O2, purity 99.5%
Compound 6: ethyl ethanoate, C4H8O2, purity 99.5%
Compound 7: butyl ethanoate, C6H12O2, purity 99.5%

System: 2-propanol + 1-[(2S)-3-mercapto-2-methyl-1-oxopropyl]-L-proline; phases: Liquid, Crystal
Fixed: Pressure, kPa = 101
Property: Mole fraction of 1-[(2S)-3-mercapto-2-methyl-1-oxopropyl]-L-proline (Liquid); method: Laser Monitoring Technique
Temperature, K	Mole fraction of 1-[(2S)-3-mercapto-2-methyl-1-oxopropyl]-L-proline	uncertainty
278.15	.03146	.0006292
283.15	.04014	.0008028
288.15	.05157	.0010314
293.15	.06564	.0013128
298.15	.08445	.001689
303.15	.1056	.002112
308.15	.1291	.002582
313.15	.1575	.00315

System: propanone + 1-[(2S)-3-mercapto-2-methyl-1-oxopropyl]-L-proline; phases: Liquid, Crystal
Fixed: Pressure, kPa = 101
Property: Mole fraction of 1-[(2S)-3-mercapto-2-methyl-1-oxopropyl]-L-proline (Liquid); method: Laser Monitoring Technique
Temperature, K	Mole fraction of 1-[(2S)-3-mercapto-2-methyl-1-oxopropyl]-L-proline	uncertainty
278.15	.02724	.0005448
283.15	.0337	.000674
288.15	.0409	.000818
293.15	.0498	.000996
298.15	.06079	.0012158
303.15	.07539	.0015078
308.15	.09277	.0018554
313.15	.1149	.002298

System: acetonitrile + 1-[(2S)-3-mercapto-2-methyl-1-oxopropyl]-L-proline; phases: Liquid, Crystal
Fixed: Pressure, kPa = 101
Property: Mole fraction of 1-[(2S)-3-mercapto-2-methyl-1-oxopropyl]-L-proline (Liquid); method: Laser Monitoring Technique
Temperature, K	Mole fraction of 1-[(2S)-3-mercapto-2-methyl-1-oxopropyl]-L-proline	uncertainty
278.15	.00972	.0001944
283.15	.01308	.0002616
288.15	.01814	.0003628
293.15	.02454	.0004908
298.15	.03223	.0006446
303.15	.04379	.0008758
308.15	.06059	.0012118
313.15	.08349	.0016698

System: methyl ethanoate + 1-[(2S)-3-mercapto-2-methyl-1-oxopropyl]-L-proline; phases: Liquid, Crystal
Fixed: Pressure, kPa = 101
Property: Mole fraction of 1-[(2S)-3-mercapto-2-methyl-1-oxopropyl]-L-proline (Liquid); method: Laser Monitoring Technique
Temperature, K	Mole fraction of 1-[(2S)-3-mercapto-2-methyl-1-oxopropyl]-L-proline	uncertainty
278.15	.01484	.0002968
283.15	.01843	.0003686
288.15	.02238	.0004476
293.15	.02716	.0005432
298.15	.03324	.0006648
303.15	.04084	.0008168
308.15	.05037	.0010074
313.15	.06243	.0012486

System: ethyl ethanoate + 1-[(2S)-3-mercapto-2-methyl-1-oxopropyl]-L-proline; phases: Liquid, Crystal
Fixed: Pressure, kPa = 101
Property: Mole fraction of 1-[(2S)-3-mercapto-2-methyl-1-oxopropyl]-L-proline (Liquid); method: Laser Monitoring Technique
Temperature, K	Mole fraction of 1-[(2S)-3-mercapto-2-methyl-1-oxopropyl]-L-proline	uncertainty
278.15	.06147	.0012294
283.15	.07768	.0015536
288.15	.09582	.0019164
293.15	.1213	.002426
298.15	.1513	.003026
303.15	.1885	.00377
308.15	.2356	.004712
313.15	.2946	.005892

System: butyl ethanoate + 1-[(2S)-3-mercapto-2-methyl-1-oxopropyl]-L-proline; phases: Liquid, Crystal
Fixed: Pressure, kPa = 101
Property: Mole fraction of 1-[(2S)-3-mercapto-2-methyl-1-oxopropyl]-L-proline (Liquid); method: Laser Monitoring Technique
Temperature, K	Mole fraction of 1-[(2S)-3-mercapto-2-methyl-1-oxopropyl]-L-proline	uncertainty
278.15	.04624	.0009248
283.15	.05797	.0011594
288.15	.07097	.0014194
293.15	.08678	.0017356
298.15	.1066	.002132
303.15	.1311	.002622
308.15	.1619	.003238
313.15	.2019	.004038
