Measured thermophysical data. Ultrasonic Velocities and Densities of l-Phenylalanine, l-Leucine, l-Glutamic Acid, and l-Proline + 2 mol*L-1 Aqueous NaCl and 2 mol*L-1 Aqueous NaNO3 Solutions from (298.15 to 328.15) K
Source: J. Chem. Eng. Data, 2010, 10.1021/je900909s
Compound 1: L-phenylalanine, C9H11NO2
Compound 2: L-leucine, C6H13NO2
Compound 3: glutamic acid, C5H9NO4
Compound 4: (S)-2-pyrrolidinecarboxylic acid, C5H9NO2
Compound 5: sodium chloride, ClNa
Compound 6: sodium nitrate, NNaO3
Compound 7: water, H2O

System: L-phenylalanine + sodium chloride + water; phases: Liquid
Fixed: Pressure, kPa = 101
Fixed: Solvent: Amount concentration (molarity), mol/dm3 of sodium chloride = 2
Property: Speed of sound, m/s (Liquid); method: Pulse-echo method
Molality, mol/kg of L-phenylalanine	Temperature, K	Speed of sound, m/s	uncertainty
0	298.15	1614.3	.2
.0187	298.15	1615.7	.2
.0374	298.15	1618.3	.2
.0562	298.15	1620.1	.2
.0751	298.15	1620.9	.2
.0941	298.15	1621.7	.2
0	303.15	1620.9	.2
.0187	303.15	1622.3	.2
.0374	303.15	1624.9	.2
.0562	303.15	1627.1	.2
.0751	303.15	1628.5	.2
.0941	303.15	1628.9	.2
0	308.15	1627.6	.2
.0187	308.15	1629	.2
.0374	308.15	1630.3	.2
.0562	308.15	1632.6	.2
.0751	308.15	1634.8	.2
.0941	308.15	1635.7	.2
0	313.15	1633.7	.2
.0187	313.15	1635.9	.2
.0374	313.15	1636.8	.2
.0562	313.15	1638.7	.2
.0751	313.15	1639.7	.2
.0941	313.15	1640.9	.2
0	318.15	1637.3	.2
.0187	318.15	1639.9	.2
.0374	318.15	1641.1	.2
.0562	318.15	1643	.2
.0751	318.15	1644.8	.2
.0941	318.15	1645.5	.2
0	323.15	1640.5	.2
.0187	323.15	1642.9	.2
.0374	323.15	1644.1	.2
.0562	323.15	1646.4	.2
.0751	323.15	1647	.2
.0941	323.15	1648.2	.2
0	328.15	1643.7	.2
.0187	328.15	1644.6	.2
.0374	328.15	1646.9	.2
.0562	328.15	1648.2	.2
.0751	328.15	1649.3	.2
.0941	328.15	1650.3	.2

System: L-phenylalanine + sodium chloride + water; phases: Liquid
Fixed: Pressure, kPa = 101
Fixed: Solvent: Amount concentration (molarity), mol/dm3 of sodium chloride = 2
Property: Mass density, kg/m3 (Liquid); method: Pycnometric method
Molality, mol/kg of L-phenylalanine	Temperature, K	Mass density, kg/m3	uncertainty
0	298.15	1075	.1
.0187	298.15	1075.8	.1
.0374	298.15	1076.7	.1
.0562	298.15	1077.6	.1
.0751	298.15	1078.2	.1
.0941	298.15	1078.9	.1
0	303.15	1073	.1
.0187	303.15	1073.5	.1
.0374	303.15	1074.6	.1
.0562	303.15	1075.6	.1
.0751	303.15	1076.2	.1
.0941	303.15	1077	.1
0	308.15	1070.7	.1
.0187	308.15	1071.2	.1
.0374	308.15	1072.3	.1
.0562	308.15	1073.4	.1
.0751	308.15	1074	.1
.0941	308.15	1074.8	.1
0	313.15	1068.3	.1
.0187	313.15	1068.8	.1
.0374	313.15	1069.9	.1
.0562	313.15	1071.1	.1
.0751	313.15	1071.7	.1
.0941	313.15	1072.5	.1
0	318.15	1065.7	.1
.0187	318.15	1066.3	.1
.0374	318.15	1067.3	.1
.0562	318.15	1068.7	.1
.0751	318.15	1069.2	.1
.0941	318.15	1069.9	.1
0	323.15	1063.1	.1
.0187	323.15	1063.7	.1
.0374	323.15	1064.7	.1
.0562	323.15	1066	.1
.0751	323.15	1066.6	.1
.0941	323.15	1067.1	.1
0	328.15	1060.2	.1
.0187	328.15	1061.1	.1
.0374	328.15	1061.9	.1
.0562	328.15	1063.2	.1
.0751	328.15	1063.7	.1
.0941	328.15	1064.1	.1

System: L-phenylalanine + sodium nitrate + water; phases: Liquid
Fixed: Pressure, kPa = 101
Fixed: Solvent: Amount concentration (molarity), mol/dm3 of sodium nitrate = 2
Property: Speed of sound, m/s (Liquid); method: Pulse-echo method
Molality, mol/kg of L-phenylalanine	Temperature, K	Speed of sound, m/s	uncertainty
0	298.15	1581.4	.2
.018	298.15	1582.8	.2
.0362	298.15	1585	.2
.0543	298.15	1587.2	.2
.0726	298.15	1588.8	.2
.0909	298.15	1590.6	.2
.1094	298.15	1592.7	.2
.128	298.15	1594	.2
.1465	298.15	1597.2	.2
0	303.15	1588.6	.2
.018	303.15	1589.6	.2
.0362	303.15	1592.7	.2
.0543	303.15	1594.9	.2
.0726	303.15	1596.5	.2
.0909	303.15	1599.1	.2
.1094	303.15	1600.7	.2
.128	303.15	1603.5	.2
.1465	303.15	1605.6	.2
0	308.15	1593.2	.2
.018	308.15	1594.4	.2
.0362	308.15	1596.5	.2
.0543	308.15	1598.8	.2
.0726	308.15	1600.5	.2
.0909	308.15	1602	.2
.1094	308.15	1604	.2
.128	308.15	1606.4	.2
.1465	308.15	1608.5	.2
0	313.15	1596.3	.2
.018	313.15	1599	.2
.0362	313.15	1600.9	.2
.0543	313.15	1603.9	.2
.0726	313.15	1605.5	.2
.0909	313.15	1606.1	.2
.1094	313.15	1608.3	.2
.128	313.15	1610.3	.2
.1465	313.15	1612.4	.2
0	318.15	1600.1	.2
.018	318.15	1602.7	.2
.0362	318.15	1605.1	.2
.0543	318.15	1606.7	.2
.0726	318.15	1608.7	.2
.0909	318.15	1610	.2
.1094	318.15	1612.1	.2
.128	318.15	1613.4	.2
.1465	318.15	1615.1	.2
0	323.15	1604.3	.2
.018	323.15	1606.1	.2
.0362	323.15	1608.4	.2
.0543	323.15	1610.1	.2
.0726	323.15	1610.9	.2
.0909	323.15	1612.8	.2
.1094	323.15	1614.3	.2
.128	323.15	1616.3	.2
.1465	323.15	1617.9	.2
0	328.15	1607.1	.2
.018	328.15	1608.8	.2
.0362	328.15	1610.4	.2
.0543	328.15	1611.6	.2
.0726	328.15	1613.5	.2
.0909	328.15	1615.2	.2
.1094	328.15	1616	.2
.128	328.15	1617.6	.2
.1465	328.15	1618.9	.2

System: L-phenylalanine + sodium nitrate + water; phases: Liquid
Fixed: Pressure, kPa = 101
Fixed: Solvent: Amount concentration (molarity), mol/dm3 of sodium nitrate = 2
Property: Mass density, kg/m3 (Liquid); method: Pycnometric method
Molality, mol/kg of L-phenylalanine	Temperature, K	Mass density, kg/m3	uncertainty
0	298.15	1104.2	.1
.018	298.15	1104.6	.1
.0362	298.15	1105.3	.1
.0543	298.15	1106.7	.1
.0726	298.15	1107.7	.1
.0909	298.15	1108.8	.1
.1094	298.15	1109.1	.1
.128	298.15	1109.7	.1
.1465	298.15	1111	.1
0	303.15	1101.7	.1
.018	303.15	1101.9	.1
.0362	303.15	1102.5	.1
.0543	303.15	1104.1	.1
.0726	303.15	1105	.1
.0909	303.15	1106.1	.1
.1094	303.15	1106.5	.1
.128	303.15	1107.2	.1
.1465	303.15	1108.6	.1
0	308.15	1099	.1
.018	308.15	1099.1	.1
.0362	308.15	1099.8	.1
.0543	308.15	1101.4	.1
.0726	308.15	1102.3	.1
.0909	308.15	1103.3	.1
.1094	308.15	1103.8	.1
.128	308.15	1104.6	.1
.1465	308.15	1106	.1
0	313.15	1096.3	.1
.018	313.15	1096.5	.1
.0362	313.15	1097.3	.1
.0543	313.15	1098.8	.1
.0726	313.15	1099.6	.1
.0909	313.15	1100.8	.1
.1094	313.15	1101.2	.1
.128	313.15	1102.1	.1
.1465	313.15	1103.5	.1
0	318.15	1093.4	.1
.018	318.15	1093.8	.1
.0362	318.15	1094.6	.1
.0543	318.15	1096	.1
.0726	318.15	1096.9	.1
.0909	318.15	1098.1	.1
.1094	318.15	1098.4	.1
.128	318.15	1099.4	.1
.1465	318.15	1100.7	.1
0	323.15	1090.4	.1
.018	323.15	1091.1	.1
.0362	323.15	1092.1	.1
.0543	323.15	1093.2	.1
.0726	323.15	1094.4	.1
.0909	323.15	1095.5	.1
.1094	323.15	1095.7	.1
.128	323.15	1096.7	.1
.1465	323.15	1098	.1
0	328.15	1087.2	.1
.018	328.15	1088.4	.1
.0362	328.15	1089.5	.1
.0543	328.15	1090.2	.1
.0726	328.15	1091.7	.1
.0909	328.15	1092.8	.1
.1094	328.15	1092.9	.1
.128	328.15	1093.9	.1
.1465	328.15	1095.1	.1

System: L-leucine + sodium chloride + water; phases: Liquid
Fixed: Pressure, kPa = 101
Fixed: Solvent: Amount concentration (molarity), mol/dm3 of sodium chloride = 2
Property: Speed of sound, m/s (Liquid); method: Pulse-echo method
Molality, mol/kg of L-leucine	Temperature, K	Speed of sound, m/s	uncertainty
0	298.15	1614.3	.2
.0186	298.15	1619	.2
.0374	298.15	1620.3	.2
.0562	298.15	1621.5	.2
.075	298.15	1623.5	.2
.094	298.15	1626	.2
.113	298.15	1628.9	.2
0	303.15	1620.9	.2
.0186	303.15	1625.1	.2
.0374	303.15	1626.3	.2
.0562	303.15	1628	.2
.075	303.15	1630.1	.2
.094	303.15	1632.6	.2
.113	303.15	1633.3	.2
0	308.15	1627.6	.2
.0186	308.15	1631.9	.2
.0374	308.15	1633.7	.2
.0562	308.15	1634.6	.2
.075	308.15	1636.8	.2
.094	308.15	1638	.2
.113	308.15	1639.7	.2
0	313.15	1633.7	.2
.0186	313.15	1637.3	.2
.0374	313.15	1638.4	.2
.0562	313.15	1640.5	.2
.075	313.15	1641.5	.2
.094	313.15	1643.1	.2
.113	313.15	1643.8	.2
0	318.15	1637.3	.2
.0186	318.15	1640.9	.2
.0374	318.15	1642.7	.2
.0562	318.15	1644.2	.2
.075	318.15	1645.7	.2
.094	318.15	1648	.2
.113	318.15	1648.8	.2
0	323.15	1640.5	.2
.0186	323.15	1644.2	.2
.0374	323.15	1645.9	.2
.0562	323.15	1647	.2
.075	323.15	1648.4	.2
.094	323.15	1651.1	.2
.113	323.15	1652	.2
0	328.15	1642.7	.2
.0186	328.15	1646.7	.2
.0374	328.15	1648	.2
.0562	328.15	1649.6	.2
.075	328.15	1650.5	.2
.094	328.15	1652.4	.2
.113	328.15	1654.3	.2

System: L-leucine + sodium chloride + water; phases: Liquid
Fixed: Pressure, kPa = 101
Fixed: Solvent: Amount concentration (molarity), mol/dm3 of sodium chloride = 2
Property: Mass density, kg/m3 (Liquid); method: Pycnometric method
Molality, mol/kg of L-leucine	Temperature, K	Mass density, kg/m3	uncertainty
0	298.15	1075	.1
.0186	298.15	1075.3	.1
.0374	298.15	1075.7	.1
.0562	298.15	1076.2	.1
.075	298.15	1076.8	.1
.094	298.15	1077.4	.1
.113	298.15	1077.6	.1
0	303.15	1073	.1
.0186	303.15	1073.4	.1
.0374	303.15	1073.7	.1
.0562	303.15	1073.9	.1
.075	303.15	1074.4	.1
.094	303.15	1075.1	.1
.113	303.15	1075.5	.1
0	308.15	1070.7	.1
.0186	308.15	1071.29	.1
.0374	308.15	1071.5	.1
.0562	308.15	1071.5	.1
.075	308.15	1072	.1
.094	308.15	1072.7	.1
.113	308.15	1073.2	.1
0	313.15	1068.3	.1
.0186	313.15	1069	.1
.0374	313.15	1069.2	.1
.0562	313.15	1069.1	.1
.075	313.15	1069.6	.1
.094	313.15	1070.4	.1
.113	313.15	1070.8	.1
0	318.15	1065.7	.1
.0186	318.15	1066.5	.1
.0374	318.15	1066.8	.1
.0562	318.15	1066.7	.1
.075	318.15	1067.3	.1
.094	318.15	1068	.1
.113	318.15	1068.3	.1
0	323.15	1063.1	.1
.0186	323.15	1063.8	.1
.0374	323.15	1064.3	.1
.0562	323.15	1064.2	.1
.075	323.15	1064.9	.1
.094	323.15	1065.5	.1
.113	323.15	1065.6	.1
0	328.15	1060.2	.1
.0186	328.15	1060.9	.1
.0374	328.15	1061.6	.1
.0562	328.15	1061.6	.1
.075	328.15	1062.5	.1
.094	328.15	1063.1	.1
.113	328.15	1062.9	.1

System: L-leucine + sodium nitrate + water; phases: Liquid
Fixed: Pressure, kPa = 101
Fixed: Solvent: Amount concentration (molarity), mol/dm3 of sodium nitrate = 2
Property: Speed of sound, m/s (Liquid); method: Pulse-echo method
Molality, mol/kg of L-leucine	Temperature, K	Speed of sound, m/s	uncertainty
0	298.15	1581.4	.2
.0182	298.15	1584.3	.2
.0364	298.15	1585.7	.2
.0547	298.15	1588.7	.2
.0731	298.15	1589.8	.2
.0915	298.15	1593.1	.2
.1101	298.15	1594.1	.2
.1287	298.15	1596	.2
.1474	298.15	1598.1	.2
0	303.15	1588.6	.2
.0182	303.15	1590.7	.2
.0364	303.15	1591.9	.2
.0547	303.15	1594.7	.2
.0731	303.15	1595.8	.2
.0915	303.15	1597	.2
.1101	303.15	1598.2	.2
.1287	303.15	1601	.2
.1474	303.15	1603.7	.2
0	308.15	1593.2	.2
.0182	308.15	1597.1	.2
.0364	308.15	1598.5	.2
.0547	308.15	1599.5	.2
.0731	308.15	1600.9	.2
.0915	308.15	1603.2	.2
.1101	308.15	1604.4	.2
.1287	308.15	1606.2	.2
.1474	308.15	1608.7	.2
0	313.15	1596.3	.2
.0182	313.15	1600.7	.2
.0364	313.15	1601.9	.2
.0547	313.15	1603.9	.2
.0731	313.15	1605	.2
.0915	313.15	1606.3	.2
.1101	313.15	1608	.2
.1287	313.15	1610	.2
.1474	313.15	1611.2	.2
0	318.15	1600.1	.2
.0182	318.15	1604	.2
.0364	318.15	1605	.2
.0547	318.15	1606.5	.2
.0731	318.15	1608	.2
.0915	318.15	1609.8	.2
.1101	318.15	1610.4	.2
.1287	318.15	1612.5	.2
.1474	318.15	1614.4	.2
0	323.15	1604.3	.2
.0182	323.15	1606.3	.2
.0364	323.15	1607.2	.2
.0547	323.15	1608.7	.2
.0731	323.15	1610.3	.2
.0915	323.15	1611.7	.2
.1101	323.15	1612.9	.2
.1287	323.15	1614.9	.2
.1474	323.15	1615.7	.2
0	328.15	1607.1	.2
.0182	328.15	1608.4	.2
.0364	328.15	1609.6	.2
.0547	328.15	1610.9	.2
.0731	328.15	1611.6	.2
.0915	328.15	1613.1	.2
.1101	328.15	1614.4	.2
.1287	328.15	1615.7	.2
.1474	328.15	1618.1	.2

System: L-leucine + sodium nitrate + water; phases: Liquid
Fixed: Pressure, kPa = 101
Fixed: Solvent: Amount concentration (molarity), mol/dm3 of sodium nitrate = 2
Property: Mass density, kg/m3 (Liquid); method: Pycnometric method
Molality, mol/kg of L-leucine	Temperature, K	Mass density, kg/m3	uncertainty
0	298.15	1104.2	.1
.0182	298.15	1104.6	.1
.0364	298.15	1105.2	.1
.0547	298.15	1105.5	.1
.0731	298.15	1105.4	.1
.0915	298.15	1105.6	.1
.1101	298.15	1105.9	.1
.1287	298.15	1106.5	.1
.1474	298.15	1106.7	.1
0	303.15	1101.7	.1
.0182	303.15	1102.4	.1
.0364	303.15	1102.8	.1
.0547	303.15	1102.9	.1
.0731	303.15	1102.8	.1
.0915	303.15	1102.9	.1
.1101	303.15	1103.3	.1
.1287	303.15	1104	.1
.1474	303.15	1104.1	.1
0	308.15	1099	.1
.0182	308.15	1100	.1
.0364	308.15	1100.2	.1
.0547	308.15	1100.2	.1
.0731	308.15	1100	.1
.0915	308.15	1100.1	.1
.1101	308.15	1100.6	.1
.1287	308.15	1101.3	.1
.1474	308.15	1101.3	.1
0	313.15	1096.3	.1
.0182	313.15	1097.2	.1
.0364	313.15	1097.4	.1
.0547	313.15	1097.3	.1
.0731	313.15	1097.1	.1
.0915	313.15	1097.2	.1
.1101	313.15	1097.7	.1
.1287	313.15	1098.4	.1
.1474	313.15	1098.4	.1
0	318.15	1093.4	.1
.0182	318.15	1094.2	.1
.0364	318.15	1094.3	.1
.0547	318.15	1094.2	.1
.0731	318.15	1094	.1
.0915	318.15	1094.3	.1
.1101	318.15	1094.7	.1
.1287	318.15	1095.4	.1
.1474	318.15	1095.4	.1
0	323.15	1090.4	.1
.0182	323.15	1091	.1
.0364	323.15	1091	.1
.0547	323.15	1091	.1
.0731	323.15	1090.8	.1
.0915	323.15	1091.2	.1
.1101	323.15	1091.5	.1
.1287	323.15	1092.3	.1
.1474	323.15	1092.2	.1
0	328.15	1087.2	.1
.0182	328.15	1087.5	.1
.0364	328.15	1087.5	.1
.0547	328.15	1087.6	.1
.0731	328.15	1087.5	.1
.0915	328.15	1088.1	.1
.1101	328.15	1088.2	.1
.1287	328.15	1089	.1
.1474	328.15	1089	.1

System: glutamic acid + sodium chloride + water; phases: Liquid
Fixed: Pressure, kPa = 101
Fixed: Solvent: Amount concentration (molarity), mol/dm3 of sodium chloride = 2
Property: Speed of sound, m/s (Liquid); method: Pulse-echo method
Molality, mol/kg of glutamic acid	Temperature, K	Speed of sound, m/s	uncertainty
0	298.15	1614.3	.2
.0093	298.15	1615.4	.2
.0186	298.15	1615.7	.2
.028	298.15	1616.4	.2
.0373	298.15	1616.7	.2
.0467	298.15	1617.2	.2
.0561	298.15	1618	.2
0	303.15	1620.9	.2
.0093	303.15	1621.6	.2
.0186	303.15	1622.8	.2
.028	303.15	1623.4	.2
.0373	303.15	1624	.2
.0467	303.15	1624.4	.2
.0561	303.15	1624.8	.2
0	308.15	1627.6	.2
.0093	308.15	1628	.2
.0186	308.15	1628.5	.2
.028	308.15	1629.2	.2
.0373	308.15	1630	.2
.0467	308.15	1630.5	.2
.0561	308.15	1631.2	.2
0	313.15	1633.7	.2
.0093	313.15	1634.7	.2
.0186	313.15	1635.4	.2
.028	313.15	1636	.2
.0373	313.15	1636.4	.2
.0467	313.15	1636.8	.2
.0561	313.15	1637.6	.2
0	318.15	1637.3	.2
.0093	318.15	1638	.2
.0186	318.15	1638.8	.2
.028	318.15	1639.5	.2
.0373	318.15	1640.4	.2
.0467	318.15	1640.8	.2
.0561	318.15	1641.6	.2
0	323.15	1640.5	.2
.0093	323.15	1642	.2
.0186	323.15	1642.5	.2
.028	323.15	1643.1	.2
.0373	323.15	1643.3	.2
.0467	323.15	1643.6	.2
.0561	323.15	1644.1	.2
0	328.15	1643.7	.2
.0093	328.15	1644.4	.2
.0186	328.15	1645.2	.2
.028	328.15	1645.7	.2
.0373	328.15	1645.5	.2
.0467	328.15	1646	.2
.0561	328.15	1646.8	.2

System: glutamic acid + sodium chloride + water; phases: Liquid
Fixed: Pressure, kPa = 101
Fixed: Solvent: Amount concentration (molarity), mol/dm3 of sodium chloride = 2
Property: Mass density, kg/m3 (Liquid); method: Pycnometric method
Molality, mol/kg of glutamic acid	Temperature, K	Mass density, kg/m3	uncertainty
0	298.15	1075	.1
.0093	298.15	1075.3	.1
.0186	298.15	1076	.1
.028	298.15	1076.7	.1
.0373	298.15	1077	.1
.0467	298.15	1077.4	.1
.0561	298.15	1078.1	.1
0	303.15	1073	.1
.0093	303.15	1073.1	.1
.0186	303.15	1074	.1
.028	303.15	1074.5	.1
.0373	303.15	1074.7	.1
.0467	303.15	1075.2	.1
.0561	303.15	1076	.1
0	308.15	1070.7	.1
.0093	308.15	1070.8	.1
.0186	308.15	1071.7	.1
.028	308.15	1072.2	.1
.0373	308.15	1072.4	.1
.0467	308.15	1072.9	.1
.0561	308.15	1073.7	.1
0	313.15	1068.3	.1
.0093	313.15	1068.4	.1
.0186	313.15	1069.4	.1
.028	313.15	1069.8	.1
.0373	313.15	1070	.1
.0467	313.15	1070.5	.1
.0561	313.15	1071.3	.1
0	318.15	1065.7	.1
.0093	318.15	1065.9	.1
.0186	318.15	1066.8	.1
.028	318.15	1067.2	.1
.0373	318.15	1067.5	.1
.0467	318.15	1068	.1
.0561	318.15	1068.7	.1
0	323.15	1063.1	.1
.0093	323.15	1063.3	.1
.0186	323.15	1064	.1
.028	323.15	1064.5	.1
.0373	323.15	1064.9	.1
.0467	323.15	1065.4	.1
.0561	323.15	1066.1	.1
0	328.15	1060.2	.1
.0093	328.15	1060.6	.1
.0186	328.15	1061.1	.1
.028	328.15	1061.7	.1
.0373	328.15	1062.3	.1
.0467	328.15	1062.7	.1
.0561	328.15	1063.4	.1

System: glutamic acid + sodium nitrate + water; phases: Liquid
Fixed: Pressure, kPa = 101
Fixed: Solvent: Amount concentration (molarity), mol/dm3 of sodium nitrate = 2
Property: Speed of sound, m/s (Liquid); method: Pulse-echo method
Molality, mol/kg of glutamic acid	Temperature, K	Speed of sound, m/s	uncertainty
0	298.15	1581.4	.2
.0091	298.15	1582.5	.2
.0182	298.15	1583.2	.2
.0272	298.15	1584.3	.2
.0364	298.15	1584.7	.2
.0455	298.15	1585.8	.2
.0546	298.15	1587.5	.2
0	303.15	1588.6	.2
.0091	303.15	1589.6	.2
.0182	303.15	1590.7	.2
.0272	303.15	1591.6	.2
.0364	303.15	1592.7	.2
.0455	303.15	1593.5	.2
.0546	303.15	1594.7	.2
0	308.15	1593.2	.2
.0091	308.15	1594.3	.2
.0182	308.15	1595.4	.2
.0272	308.15	1596	.2
.0364	308.15	1597.9	.2
.0455	308.15	1599.3	.2
.0546	308.15	1600.2	.2
0	313.15	1596.3	.2
.0091	313.15	1597.6	.2
.0182	313.15	1598.8	.2
.0272	313.15	1600	.2
.0364	313.15	1601.3	.2
.0455	313.15	1602.4	.2
.0546	313.15	1604.1	.2
0	318.15	1600.1	.2
.0091	318.15	1601.7	.2
.0182	318.15	1602.6	.2
.0272	318.15	1603.6	.2
.0364	318.15	1604.7	.2
.0455	318.15	1606	.2
.0546	318.15	1607.9	.2
0	323.15	1604.3	.2
.0091	323.15	1605.1	.2
.0182	323.15	1606.4	.2
.0272	323.15	1607.1	.2
.0364	323.15	1608	.2
.0455	323.15	1608.9	.2
.0546	323.15	1609.7	.2
0	328.15	1607.1	.2
.0091	328.15	1607.9	.2
.0182	328.15	1608.3	.2
.0272	328.15	1609.2	.2
.0364	328.15	1610.1	.2
.0455	328.15	1610.7	.2
.0546	328.15	1611.2	.2

System: glutamic acid + sodium nitrate + water; phases: Liquid
Fixed: Pressure, kPa = 101
Fixed: Solvent: Amount concentration (molarity), mol/dm3 of sodium nitrate = 2
Property: Mass density, kg/m3 (Liquid); method: Pycnometric method
Molality, mol/kg of glutamic acid	Temperature, K	Mass density, kg/m3	uncertainty
0	298.15	1104.2	.1
.0091	298.15	1104.7	.1
.0182	298.15	1104.6	.1
.0272	298.15	1106.2	.1
.0364	298.15	1106.3	.1
.0455	298.15	1107.3	.1
.0546	298.15	1108.2	.1
0	303.15	1101.7	.1
.0091	303.15	1102.2	.1
.0182	303.15	1101.9	.1
.0272	303.15	1103.3	.1
.0364	303.15	1103.6	.1
.0455	303.15	1104.8	.1
.0546	303.15	1105.6	.1
0	308.15	1099	.1
.0091	308.15	1099.5	.1
.0182	308.15	1099.1	.1
.0272	308.15	1100.3	.1
.0364	308.15	1100.8	.1
.0455	308.15	1102.1	.1
.0546	308.15	1102.8	.1
0	313.15	1096.3	.1
.0091	313.15	1096.5	.1
.0182	313.15	1096.3	.1
.0272	313.15	1097.2	.1
.0364	313.15	1098	.1
.0455	313.15	1099.3	.1
.0546	313.15	1099.8	.1
0	318.15	1093.4	.1
.0091	318.15	1093.1	.1
.0182	318.15	1093.3	.1
.0272	318.15	1094	.1
.0364	318.15	1095	.1
.0455	318.15	1096.4	.1
.0546	318.15	1096.6	.1
0	323.15	1090.4	.1
.0091	323.15	1089.5	.1
.0182	323.15	1090.3	.1
.0272	323.15	1090.7	.1
.0364	323.15	1092	.1
.0455	323.15	1093.4	.1
.0546	323.15	1093.1	.1
0	328.15	1087.2	.1
.0091	328.15	1085.5	.1
.0182	328.15	1087.2	.1
.0272	328.15	1087.2	.1
.0364	328.15	1088.9	.1
.0455	328.15	1090.3	.1
.0546	328.15	1089.4	.1

System: (S)-2-pyrrolidinecarboxylic acid + sodium chloride + water; phases: Liquid
Fixed: Pressure, kPa = 101
Fixed: Solvent: Amount concentration (molarity), mol/dm3 of sodium chloride = 2
Property: Speed of sound, m/s (Liquid); method: Pulse-echo method
Molality, mol/kg of (S)-2-pyrrolidinecarboxylic acid	Temperature, K	Speed of sound, m/s	uncertainty
0	298.15	1614.3	.2
.1893	298.15	1625.3	.2
.3854	298.15	1636.7	.2
.5881	298.15	1650.5	.2
.7988	298.15	1663.6	.2
1.0166	298.15	1676.5	.2
1.2426	298.15	1687.6	.2
1.4782	298.15	1697.7	.2
1.7234	298.15	1708.8	.2
0	303.15	1620.9	.2
.1893	303.15	1631.3	.2
.3854	303.15	1643.2	.2
.5881	303.15	1656.3	.2
.7988	303.15	1668.4	.2
1.0166	303.15	1681.2	.2
1.2426	303.15	1691.4	.2
1.4782	303.15	1701.7	.2
1.7234	303.15	1713.2	.2
0	308.15	1627.6	.2
.1893	308.15	1637.6	.2
.3854	308.15	1649.1	.2
.5881	308.15	1662.1	.2
.7988	308.15	1672.9	.2
1.0166	308.15	1684.9	.2
1.2426	308.15	1695.4	.2
1.4782	308.15	1705.6	.2
1.7234	308.15	1716	.2
0	313.15	1633.7	.2
.1893	313.15	1641.6	.2
.3854	313.15	1655.1	.2
.5881	313.15	1666.1	.2
.7988	313.15	1676.9	.2
1.0166	313.15	1688.3	.2
1.2426	313.15	1699	.2
1.4782	313.15	1709.2	.2
1.7234	313.15	1720	.2
0	318.15	1637.3	.2
.1893	318.15	1646	.2
.3854	318.15	1658.8	.2
.5881	318.15	1669.3	.2
.7988	318.15	1678.9	.2
1.0166	318.15	1690.5	.2
1.2426	318.15	1701.2	.2
1.4782	318.15	1711.6	.2
1.7234	318.15	1722.5	.2
0	323.15	1640.5	.2
.1893	323.15	1649.7	.2
.3854	323.15	1662	.2
.5881	323.15	1671.2	.2
.7988	323.15	1682.1	.2
1.0166	323.15	1692	.2
1.2426	323.15	1702.8	.2
1.4782	323.15	1712.8	.2
1.7234	323.15	1724	.2
0	328.15	1643.7	.2
.1893	328.15	1653.6	.2
.3854	328.15	1665.2	.2
.5881	328.15	1673.6	.2
.7988	328.15	1684	.2
1.0166	328.15	1694.4	.2
1.2426	328.15	1704.6	.2
1.4782	328.15	1715.2	.2
1.7234	328.15	1725.6	.2

System: (S)-2-pyrrolidinecarboxylic acid + sodium chloride + water; phases: Liquid
Fixed: Pressure, kPa = 101
Fixed: Solvent: Amount concentration (molarity), mol/dm3 of sodium chloride = 2
Property: Mass density, kg/m3 (Liquid); method: Pycnometric method
Molality, mol/kg of (S)-2-pyrrolidinecarboxylic acid	Temperature, K	Mass density, kg/m3	uncertainty
0	298.15	1075	.1
.1893	298.15	1079.7	.1
.3854	298.15	1083.9	.1
.5881	298.15	1089.2	.1
.7988	298.15	1093.6	.1
1.0166	298.15	1098.8	.1
1.2426	298.15	1103.9	.1
1.4782	298.15	1108.3	.1
1.7234	298.15	1112.6	.1
0	303.15	1073	.1
.1893	303.15	1077.4	.1
.3854	303.15	1081.7	.1
.5881	303.15	1087	.1
.7988	303.15	1091.5	.1
1.0166	303.15	1096.5	.1
1.2426	303.15	1101.6	.1
1.4782	303.15	1105.6	.1
1.7234	303.15	1110.1	.1
0	308.15	1070.7	.1
.1893	308.15	1075.1	.1
.3854	308.15	1079.4	.1
.5881	308.15	1084.6	.1
.7988	308.15	1089.2	.1
1.0166	308.15	1094.1	.1
1.2426	308.15	1099.2	.1
1.4782	308.15	1102.9	.1
1.7234	308.15	1107.5	.1
0	313.15	1068.3	.1
.1893	313.15	1072.7	.1
.3854	313.15	1077	.1
.5881	313.15	1082.2	.1
.7988	313.15	1086.8	.1
1.0166	313.15	1091.5	.1
1.2426	313.15	1096.7	.1
1.4782	313.15	1100.3	.1
1.7234	313.15	1104.9	.1
0	318.15	1065.7	.1
.1893	318.15	1070.3	.1
.3854	318.15	1074.5	.1
.5881	318.15	1079.6	.1
.7988	318.15	1084.2	.1
1.0166	318.15	1088.8	.1
1.2426	318.15	1094.1	.1
1.4782	318.15	1097.8	.1
1.7234	318.15	1102.3	.1
0	323.15	1063.1	.1
.1893	323.15	1067.8	.1
.3854	323.15	1071.8	.1
.5881	323.15	1077	.1
.7988	323.15	1081.5	.1
1.0166	323.15	1085.9	.1
1.2426	323.15	1091.4	.1
1.4782	323.15	1095.3	.1
1.7234	323.15	1099.7	.1
0	328.15	1060.2	.1
.1893	328.15	1065.1	.1
.3854	328.15	1069	.1
.5881	328.15	1074.3	.1
.7988	328.15	1078.6	.1
1.0166	328.15	1082.9	.1
1.2426	328.15	1088.6	.1
1.4782	328.15	1092.9	.1
1.7234	328.15	1097.1	.1

System: (S)-2-pyrrolidinecarboxylic acid + sodium nitrate + water; phases: Liquid
Fixed: Pressure, kPa = 101
Fixed: Solvent: Amount concentration (molarity), mol/dm3 of sodium nitrate = 2
Property: Speed of sound, m/s (Liquid); method: Pulse-echo method
Molality, mol/kg of (S)-2-pyrrolidinecarboxylic acid	Temperature, K	Speed of sound, m/s	uncertainty
0	298.15	1581.4	.2
.1841	298.15	1594.6	.2
.3748	298.15	1607.1	.2
.5725	298.15	1619.4	.2
.7773	298.15	1631.5	.2
.9898	298.15	1643.5	.2
1.211	298.15	1655.2	.2
1.4404	298.15	1665.6	.2
1.6789	298.15	1675.9	.2
0	303.15	1588.6	.2
.1841	303.15	1600.3	.2
.3748	303.15	1612.9	.2
.5725	303.15	1624.4	.2
.7773	303.15	1636.7	.2
.9898	303.15	1648.9	.2
1.211	303.15	1659.6	.2
1.4404	303.15	1670.2	.2
1.6789	303.15	1680.9	.2
0	308.15	1593.2	.2
.1841	308.15	1605.4	.2
.3748	308.15	1617.5	.2
.5725	308.15	1629.6	.2
.7773	308.15	1641.2	.2
.9898	308.15	1653.5	.2
1.211	308.15	1664	.2
1.4404	308.15	1675.1	.2
1.6789	308.15	1684.6	.2
0	313.15	1596.3	.2
.1841	313.15	1609.8	.2
.3748	313.15	1620.8	.2
.5725	313.15	1633.2	.2
.7773	313.15	1644.8	.2
.9898	313.15	1657.5	.2
1.211	313.15	1667.6	.2
1.4404	313.15	1678.9	.2
1.6789	313.15	1688.7	.2
0	318.15	1600.1	.2
.1841	318.15	1611.6	.2
.3748	318.15	1623.2	.2
.5725	318.15	1634.8	.2
.7773	318.15	1647.2	.2
.9898	318.15	1659.2	.2
1.211	318.15	1670.2	.2
1.4404	318.15	1680.9	.2
1.6789	318.15	1691.2	.2
0	323.15	1604.3	.2
.1841	323.15	1614	.2
.3748	323.15	1625.2	.2
.5725	323.15	1637.6	.2
.7773	323.15	1649.1	.2
.9898	323.15	1661.5	.2
1.211	323.15	1672.4	.2
1.4404	323.15	1683.1	.2
1.6789	323.15	1693.2	.2
0	328.15	1607.1	.2
.1841	328.15	1616.1	.2
.3748	328.15	1627.6	.2
.5725	328.15	1639.6	.2
.7773	328.15	1651.2	.2
.9898	328.15	1663.6	.2
1.211	328.15	1674.9	.2
1.4404	328.15	1685.2	.2
1.6789	328.15	1695.2	.2

System: (S)-2-pyrrolidinecarboxylic acid + sodium nitrate + water; phases: Liquid
Fixed: Pressure, kPa = 101
Fixed: Solvent: Amount concentration (molarity), mol/dm3 of sodium nitrate = 2
Property: Mass density, kg/m3 (Liquid); method: Pycnometric method
Molality, mol/kg of (S)-2-pyrrolidinecarboxylic acid	Temperature, K	Mass density, kg/m3	uncertainty
0	298.15	1104.2	.1
.1841	298.15	1109.2	.1
.3748	298.15	1113.2	.1
.5725	298.15	1117.2	.1
.7773	298.15	1121.3	.1
.9898	298.15	1125.5	.1
1.211	298.15	1129.1	.1
1.4404	298.15	1133.1	.1
1.6789	298.15	1137.2	.1
0	303.15	1101.7	.1
.1841	303.15	1106.6	.1
.3748	303.15	1110.2	.1
.5725	303.15	1114.3	.1
.7773	303.15	1118.6	.1
.9898	303.15	1122.7	.1
1.211	303.15	1126.3	.1
1.4404	303.15	1130.2	.1
1.6789	303.15	1134.4	.1
0	308.15	1099	.1
.1841	308.15	1103.9	.1
.3748	308.15	1107.1	.1
.5725	308.15	1111.4	.1
.7773	308.15	1115.7	.1
.9898	308.15	1119.8	.1
1.211	308.15	1123.3	.1
1.4404	308.15	1127.2	.1
1.6789	308.15	1131.4	.1
0	313.15	1096.3	.1
.1841	313.15	1100.9	.1
.3748	313.15	1104.1	.1
.5725	313.15	1108.5	.1
.7773	313.15	1112.7	.1
.9898	313.15	1116.8	.1
1.211	313.15	1120.4	.1
1.4404	313.15	1124.3	.1
1.6789	313.15	1128.4	.1
0	318.15	1093.4	.1
.1841	318.15	1097.8	.1
.3748	318.15	1101.1	.1
.5725	318.15	1105.6	.1
.7773	318.15	1109.7	.1
.9898	318.15	1113.8	.1
1.211	318.15	1117.4	.1
1.4404	318.15	1121.3	.1
1.6789	318.15	1125.4	.1
0	323.15	1090.4	.1
.1841	323.15	1094.5	.1
.3748	323.15	1098	.1
.5725	323.15	1102.7	.1
.7773	323.15	1106.5	.1
.9898	323.15	1110.8	.1
1.211	323.15	1114.5	.1
1.4404	323.15	1118.2	.1
1.6789	323.15	1122.3	.1
0	328.15	1087.2	.1
.1841	328.15	1091	.1
.3748	328.15	1095	.1
.5725	328.15	1099.8	.1
.7773	328.15	1103.2	.1
.9898	328.15	1107.7	.1
1.211	328.15	1111.5	.1
1.4404	328.15	1115.2	.1
1.6789	328.15	1119.1	.1

System: sodium chloride + water; phases: Liquid
Property: Speed of sound, m/s (Liquid); method: Pulse-echo method
Temperature, K	Pressure, kPa	Amount concentration (molarity), mol/dm3 of sodium chloride	Speed of sound, m/s	uncertainty
298.15	101	2	1614.3	.2
303.15	101	2	1620.9	.2
308.15	101	2	1627.6	.2
313.15	101	2	1633.7	.2
318.15	101	2	1637.3	.2
323.15	101	2	1640.5	.2
328.15	101	2	1643.7	.2
328.15	101	2	1642.7	.2

System: sodium chloride + water; phases: Liquid
Property: Mass density, kg/m3 (Liquid); method: Pycnometric method
Temperature, K	Pressure, kPa	Amount concentration (molarity), mol/dm3 of sodium chloride	Mass density, kg/m3	uncertainty
298.15	101	2	1075	.1
303.15	101	2	1073	.1
308.15	101	2	1070.7	.1
313.15	101	2	1068.3	.1
318.15	101	2	1065.7	.1
323.15	101	2	1063.1	.1
328.15	101	2	1060.2	.1

System: sodium nitrate + water; phases: Liquid
Property: Speed of sound, m/s (Liquid); method: Pulse-echo method
Temperature, K	Pressure, kPa	Amount concentration (molarity), mol/dm3 of sodium nitrate	Speed of sound, m/s	uncertainty
298.15	101	2	1581.4	.2
303.15	101	2	1588.6	.2
308.15	101	2	1593.2	.2
313.15	101	2	1596.3	.2
318.15	101	2	1600.1	.2
323.15	101	2	1604.3	.2
328.15	101	2	1607.1	.2

System: sodium nitrate + water; phases: Liquid
Property: Mass density, kg/m3 (Liquid); method: Pycnometric method
Temperature, K	Pressure, kPa	Amount concentration (molarity), mol/dm3 of sodium nitrate	Mass density, kg/m3	uncertainty
298.15	101	2	1104.2	.1
303.15	101	2	1101.7	.1
308.15	101	2	1099	.1
313.15	101	2	1096.3	.1
318.15	101	2	1093.4	.1
323.15	101	2	1090.4	.1
328.15	101	2	1087.2	.1
