Measured thermophysical data. Surface Tension of the NaF + AlF3 + AlPO4 and NaF + AlF3+ NaVO3 Molten Systems
Source: J. Chem. Eng. Data, 2010, 10.1021/je901079k
Compound 1: aluminum fluoride, AlF3
Compound 2: sodium hydrogen fluoride, F2HNa
Compound 3: sodium metavanadate, NaO3V
Compound 4: aluminium phosphate, AlO4P

System: sodium hydrogen fluoride + aluminum fluoride + aluminium phosphate; phases: Liquid, Air at 1 atmosphere
Property: Surface tension liquid-gas, N/m (Liquid); method: Maximal bubble pressure
Mole fraction of sodium hydrogen fluoride	Mole fraction of aluminum fluoride	Temperature, K	Surface tension liquid-gas, N/m	uncertainty
.75	.25	1370.15	.1228949	.0018434235
.75	.25	1339.15	.1271822	.001907733
.75	.25	1318.15	.1300865	.0019512975
.75	.25	1299.15	.1327142	.001990713
.7425	.2475	1370.15	.1206934996	.001810402494
.7425	.2475	1350.15	.1243586769	.0018653801535
.7425	.2475	1331.15	.1270069311	.0019051039665
.7425	.2475	1309.15	.1291555911	.0019373338665
.7425	.2475	1302.15	.1310033451	.0019650501765
.7143	.2857	1368.15	.110868	.00166302
.7143	.2857	1348.15	.11382	.0017073
.7143	.2857	1329.15	.1166244	.001749366
.7143	.2857	1318.15	.118248	.00177372
.7143	.2857	1297.15	.1213476	.001820214
.7072	.2828	1297.15	.1185225	.0017778375
.7072	.2828	1321.15	.1158965	.0017384475
.7072	.2828	1345.15	.1147334	.001721001
.7072	.2828	1380.15	.1127983	.0016919745
.7072	.2828	1406.15	.1119425	.0016791375
.6667	.3333	1274.15	.1059277	.0015889155
.6667	.3333	1297.15	.1045871	.0015688065
.6667	.3333	1319.15	.1031446	.001547169
.6667	.3333	1340.15	.1015733	.0015235995
.66	.33	1256.15	.1064421	.0015966315
.66	.33	1280.15	.1047019	.0015705285
.66	.33	1301.15	.1031456	.001547184
.66	.33	1324.15	.1018119	.0015271785
.66	.33	1344.15	.1005777016	.001508665524
.6	.4	1130.15	.092042	.00138063
.6	.4	1159.15	.089606	.00134409
.6	.4	1184.15	.087506	.00131259
.6	.4	1215.15	.084944	.00127416
.6	.4	1239.65	.082844	.00124266
.594	.396	1148.15	.0908589	.0013628835
.594	.396	1175.15	.0899238	.001348857
.594	.396	1201.15	.089024	.00133536
.594	.396	1225.15	.0883884	.001325826
.735	.245	1372.15	.1194897	.0017923455
.735	.245	1351.15	.1222477	.0018337155
.735	.245	1331.15	.1240463	.0018606945
.735	.245	1310.15	.1284345	.0019265175
.735	.245	1286.15	.131117	.001966755
.7275	.2425	1370.15	.1197061301	.0017955919515
.7275	.2425	1353.15	.1218092528	.001827138792
.7275	.2425	1333.15	.1236184301	.0018542764515
.7275	.2425	1312.15	.126958272	.00190437408
.7275	.2425	1291.15	.1301568075	.0019523521125
.7	.28	1276.15	.1195003	.0017925045
.7	.28	1302.15	.1170578	.001755867
.7	.28	1322.15	.1162191	.0017432865
.7	.28	1344.15	.1148308	.001722462
.7	.28	1365.15	.11329	.00169935
.7	.28	1384.15	.1122279159	.0016834187385
.6929	.2771	1276.15	.1185259	.0017778885
.6929	.2771	1296.15	.1172182	.001758273
.6929	.2771	1319.15	.1144284	.001716426
.6929	.2771	1339.15	.1140587	.0017108805
.6929	.2771	1358.15	.112491	.001687365
.6534	.3266	1258.15	.1048213	.0015723195
.6534	.3266	1280.15	.1035997	.0015539955
.6534	.3266	1301.15	.1023304	.001534956
.6534	.3266	1324.15	.1013504	.001520256
.6534	.3266	1344.15	.1002123006	.001503184509
.6534	.3266	1353.15	.09871757385	.00148076360775
.6467	.3233	1197.15	.1069903	.0016048545
.6467	.3233	1222.15	.1056333	.0015844995
.6467	.3233	1240.15	.1046256	.001569384
.6467	.3233	1264.15	.1036339	.0015545085
.6467	.3233	1284.15	.1030679733	.0015460195995
.6467	.3233	1305.15	.1018167533	.0015272512995
.6467	.3233	1326.15	.1013957349	.0015209360235
.588	.392	1111.15	.0936532	.001404798
.588	.392	1142.15	.0930965	.0013964475
.588	.392	1169.15	.0919697	.0013795455
.588	.392	1196.15	.0912529	.0013687935
.588	.392	1221.15	.0904838	.001357257
.582	.388	1080.15	.0923898	.001385847
.582	.388	1111.15	.0915747	.0013736205
.582	.388	1140.15	.0901226	.001351839
.582	.388	1162.15	.08906	.0013359
.582	.388	1181.15	.0878955	.0013184325
.7125	.2375	1347.15	.124294	.00186441
.7125	.2375	1328.15	.1261247	.0018918705
.7125	.2375	1309.15	.1273066	.001909599
.7125	.2375	1288.15	.1312559	.0019688385
.7125	.2375	1268.15	.1332642	.001998963
.6786	.2714	1248.15	.1177451	.0017661765
.6786	.2714	1272.15	.1153612	.001730418
.6786	.2714	1315.15	.1124942	.001687413
.6786	.2714	1336.15	.1114612	.001671918
.6786	.2714	1357.15	.1102727	.0016540905
.6786	.2714	1295.15	.1140341113	.0017105116695
.6334	.3166	1233.15	.1052118	.001578177
.6334	.3166	1255.15	.1035828	.001553742
.6334	.3166	1274.15	.1024424	.001536636
.6334	.3166	1292.15	.1011558	.001517337
.57	.38	1050.15	.0958313	.0014374695
.57	.38	1078.15	.0948392	.001422588
.57	.38	1102.15	.0938656	.001407984
.57	.38	1120.15	.0930269	.0013954035
.57	.38	1143.15	.0912669	.0013690035

System: sodium hydrogen fluoride + aluminum fluoride + sodium metavanadate; phases: Liquid, Air at 1 atmosphere
Property: Surface tension liquid-gas, N/m (Liquid); method: Maximal bubble pressure
Mole fraction of sodium hydrogen fluoride	Mole fraction of aluminum fluoride	Temperature, K	Surface tension liquid-gas, N/m	uncertainty
.75	.25	1370.15	.1228949	.0018434235
.75	.25	1339.15	.1271822	.001907733
.75	.25	1318.15	.1300865	.0019512975
.75	.25	1299.15	.1327142	.001990713
.7425	.2475	1380.15	.122825	.001842375
.7425	.2475	1361.15	.1254214	.001881321
.7425	.2475	1338.15	.1284707	.0019270605
.7425	.2475	1317.15	.1322796	.001984194
.7425	.2475	1297.15	.1357272	.002035908
.7143	.2857	1368.15	.110868	.00166302
.7143	.2857	1348.15	.11382	.0017073
.7143	.2857	1329.15	.1166244	.001749366
.7143	.2857	1318.15	.118248	.00177372
.7143	.2857	1297.15	.1213476	.001820214
.7072	.2828	1352.15	.1165613	.0017484195
.7072	.2828	1334.15	.1191276	.001786914
.7072	.2828	1315.15	.1221731	.0018325965
.7072	.2828	1297.15	.1247373	.0018710595
.7072	.2828	1284.15	.1272026	.001908039
.6667	.3333	1274.15	.1059277	.0015889155
.6667	.3333	1297.15	.1045871	.0015688065
.6667	.3333	1319.15	.1031446	.001547169
.6667	.3333	1340.15	.1015733	.0015235995
.66	.33	1297.15	.1017108	.001525662
.66	.33	1276.15	.1057059	.0015855885
.66	.33	1255.15	.108691	.001630365
.66	.33	1246.15	.1127274	.001690911
.6	.4	1130.15	.092042	.00138063
.6	.4	1159.15	.089606	.00134409
.6	.4	1184.15	.087506	.00131259
.6	.4	1215.15	.084944	.00127416
.6	.4	1239.65	.082844	.00124266
.5888	.392	1158.15	.0849219	.0012738285
.5888	.392	1141.15	.0876593	.0013148895
.5888	.392	1122.15	.0908194	.001362291
.5888	.392	1103.15	.0936139	.0014042085
.735	.245	1389.15	.1231414	.001847121
.735	.245	1371.15	.1263113	.0018946695
.735	.245	1350.15	.1289445	.0019341675
.735	.245	1330.15	.1321565	.0019823475
.735	.245	1298.15	.1348335	.0020225025
.7275	.2425	1374.15	.1238602	.001857903
.7275	.2425	1355.15	.1275217	.0019128255
.7275	.2425	1335.15	.1307833	.0019617495
.7275	.2425	1316.15	.133126	.00199689
.7275	.2425	1295.15	.136348	.00204522
.7	.28	1358.15	.1147064	.001720596
.7	.28	1334.15	.1187697	.0017815455
.7	.28	1314.15	.1223108	.001834662
.7	.28	1300.15	.1248653	.0018729795
.7	.28	1283.15	.1284624	.001926936
.6929	.2771	1333.15	.118851	.001782765
.6929	.2771	1314.15	.121835	.001827525
.6929	.2771	1295.15	.124834	.00187251
.6929	.2771	1277.15	.1272407	.0019086105
.6534	.3266	1306.15	.09898	.0014847
.6534	.3266	1285.15	.1036682	.001555023
.6534	.3266	1266.15	.1076697	.0016150455
.6534	.3266	1248.15	.1108631	.0016629465
.6467	.3233	1293.15	.1050098	.001575147
.6467	.3233	1274.15	.1082016	.001623024
.6467	.3233	1256.15	.110845	.001662675
.6467	.3233	1237.15	.1127638	.001691457
.582	.388	1155.15	.0852521	.0012787815
.582	.388	1139.15	.0878202	.001317303
.582	.388	1122.15	.0902057	.0013530855
.582	.388	1103.15	.0929041	.0013935615
.57	.38	1151.15	.0913744	.001370616
.57	.38	1139.15	.092827	.001392405
.57	.38	1122.15	.0961631	.0014424465
.57	.38	1104.15	.0984362	.001476543
.7125	.2375	1378.15	.1219754	.001829631
.7125	.2375	1359.15	.1247026	.001870539
.7125	.2375	1336.15	.1284033	.0019260495
.7125	.2375	1316.15	.1310639	.0019659585
.7125	.2375	1297.15	.1340199	.0020102985
.6786	.2714	1327.15	.1155249	.0017328735
.6786	.2714	1307.15	.1191841	.0017877615
.6786	.2714	1287.15	.1229667	.0018445005
.6786	.2714	1269.15	.1259276	.001888914
.64	.32	1291.15	.1062887	.0015943305
.64	.32	1273.15	.1083762	.001625643
.64	.32	1255.15	.1109981	.0016649715
.64	.32	1236.15	.113214	.00169821

System: sodium hydrogen fluoride + aluminum fluoride; phases: Liquid, Air at 1 atmosphere
Property: Surface tension liquid-gas, N/m (Liquid); method: Maximal bubble pressure
Mole fraction of sodium hydrogen fluoride	Temperature, K	Surface tension liquid-gas, N/m	uncertainty
.75	1370.15	.1228949	.0018434235
.75	1339.15	.1271822	.001907733
.75	1318.15	.1300865	.0019512975
.75	1299.15	.1327142	.001990713
.7143	1368.15	.110868	.00166302
.7143	1348.15	.11382	.0017073
.7143	1329.15	.1166244	.001749366
.7143	1318.15	.118248	.00177372
.7143	1297.15	.1213476	.001820214
.6667	1274.15	.1059277	.0015889155
.6667	1297.15	.1045871	.0015688065
.6667	1319.15	.1031446	.001547169
.6667	1340.15	.1015733	.0015235995
.6	1130.15	.092042	.00138063
.6	1159.15	.089606	.00134409
.6	1184.15	.087506	.00131259
.6	1215.15	.084944	.00127416
.6	1239.65	.082844	.00124266
