Measured thermophysical data. Measurements and Correlation of Liquid-Liquid Equilibria Containing Dimethyl Carbonate and Diethyl Carbonate at T = 298.15 K
Source: J. Chem. Eng. Data, 2010, 10.1021/je900740u
Compound 1: water, H2O
Compound 2: dimethyl carbonate, C3H6O3, purity 99.2%
Compound 3: diethyl carbonate, C5H10O3, purity 99%

System: diethyl carbonate + dimethyl carbonate + water; phases: Liquid mixture 1, Liquid mixture 2
Fixed: Temperature, K = 298.15
Fixed: Pressure, kPa = 101
Property: Mole fraction of water (Liquid mixture 1); method: Chromatography
Property: Mole fraction of water (Liquid mixture 2); method: Chromatography
Property: Mole fraction of dimethyl carbonate (Liquid mixture 2); method: Chromatography
Mole fraction of dimethyl carbonate	Mole fraction of water	uncertainty	Mole fraction of water	uncertainty	Mole fraction of dimethyl carbonate	uncertainty
.8661	.1339		.9771		.0229	
.1203	.0286		.9956		.002	
.237	.0303		.9939		.0042	
.3543	.0332		.991		.007	
.4455	.0449		.9892		.0089	
.5174	.0554		.9878		.0104	
.6082	.0693		.9857		.0126	
.6781	.0714		.9851		.0137	
.7336	.0851		.984		.015	
0	.0474		.9978		0	
