Measured thermophysical data. Densities and Viscosities of Binary Mixtures of n-Butanol with 2-Butanol, Isobutanol, and tert-Butanol from (303.15 to 343.15) K
Source: J. Chem. Eng. Data, 2010, 10.1021/je900722m
Compound 1: water, H2O, purity 99.95%
Compound 2: 1-butanol, C4H10O, purity 99.9%
Compound 3: 2-butanol, dl-, C4H10O, purity 99.5%
Compound 4: 2-methyl-1-propanol, C4H10O, purity 99.8%
Compound 5: 2-methyl-2-propanol, C4H10O, purity 99.7%

System: 1-butanol; phases: Liquid
Fixed: Pressure, kPa = 101.325
Property: Mass density, kg/m3 (Liquid); method: Vibrating tube method
Temperature, K	Mass density, kg/m3	uncertainty
303.15	802.213	.03
308.15	798.343	.03
313.15	794.425	.03
318.15	790.465	.03
323.15	786.456	.03
328.15	782.399	.03
333.15	778.281	.03
338.15	774.098	.03
343.15	769.845	.03

System: 1-butanol; phases: Liquid
Fixed: Pressure, kPa = 101.325
Property: Viscosity, Pa*s (Liquid); method: Capillary tube (Ostwald; Ubbelohde) method
Temperature, K	Viscosity, Pa*s	uncertainty
303.15	.00229623	.000004
308.15	.00202526	.000004
313.15	.00179538	.000004
318.15	.00159531	.000004
323.15	.00141704	.000004
328.15	.00127144	.000004
333.15	.00113808	.000004
338.15	.00102754	.000004
343.15	.00093058	.000004

System: 2-butanol, dl-; phases: Liquid
Fixed: Pressure, kPa = 101.325
Property: Mass density, kg/m3 (Liquid); method: Vibrating tube method
Temperature, K	Mass density, kg/m3	uncertainty
303.15	798.351	.03
308.15	794.052	.03
313.15	789.658	.03
318.15	785.159	.03
323.15	780.552	.03
328.15	775.832	.03
333.15	770.993	.03
338.15	766.038	.03
343.15	760.962	.03

System: 2-butanol, dl-; phases: Liquid
Fixed: Pressure, kPa = 101.325
Property: Viscosity, Pa*s (Liquid); method: Capillary tube (Ostwald; Ubbelohde) method
Temperature, K	Viscosity, Pa*s	uncertainty
303.15	.00260661	.000004
308.15	.0021625	.000004
313.15	.00184044	.000004
318.15	.00155705	.000004
323.15	.00133271	.000004
328.15	.00115079	.000004
333.15	.0010017	.000004
338.15	.0008779	.000004
343.15	.00077691	.000004

System: 2-methyl-1-propanol; phases: Liquid
Fixed: Pressure, kPa = 101.325
Property: Mass density, kg/m3 (Liquid); method: Vibrating tube method
Temperature, K	Mass density, kg/m3	uncertainty
303.15	794.064	.03
308.15	790.123	.03
313.15	786.12	.03
318.15	782.061	.03
323.15	777.932	.03
328.15	773.732	.03
333.15	769.448	.03
338.15	765.079	.03
343.15	760.611	.03

System: 2-methyl-1-propanol; phases: Liquid
Fixed: Pressure, kPa = 101.325
Property: Viscosity, Pa*s (Liquid); method: Capillary tube (Ostwald; Ubbelohde) method
Temperature, K	Viscosity, Pa*s	uncertainty
303.15	.00264897	.000004
308.15	.00227982	.000004
313.15	.00196532	.000004
318.15	.00169206	.000004
323.15	.00148249	.000004
328.15	.00126753	.000004
333.15	.00111629	.000004
338.15	.00098514	.000004
343.15	.00087674	.000004

System: 2-methyl-2-propanol; phases: Liquid
Fixed: Pressure, kPa = 101.325
Property: Mass density, kg/m3 (Liquid); method: Vibrating tube method
Temperature, K	Mass density, kg/m3	uncertainty
308.15	770.365	.03
313.15	765.07	.03
318.15	759.675	.03
323.15	754.193	.03
328.15	748.621	.03
333.15	742.954	.03
338.15	737.19	.03
343.15	731.313	.03

System: 2-methyl-2-propanol; phases: Liquid
Fixed: Pressure, kPa = 101.325
Property: Viscosity, Pa*s (Liquid); method: Capillary tube (Ostwald; Ubbelohde) method
Temperature, K	Viscosity, Pa*s	uncertainty
308.15	.00269048	.000004
313.15	.00214229	.000004
318.15	.00173689	.000004
323.15	.00142842	.000004
328.15	.00119635	.000004
333.15	.00101597	.000004
338.15	.00087338	.000004
343.15	.00076033	.000004

System: 1-butanol + 2-butanol, dl-; phases: Liquid
Fixed: Pressure, kPa = 101
Property: Mass density, kg/m3 (Liquid); method: Vibrating tube method
Temperature, K	Mole fraction of 1-butanol	Mass density, kg/m3	uncertainty
303.15	.1008	798.816	.03
303.15	.2005	799.24	.03
303.15	.3002	799.646	.03
303.15	.4006	800.045	.03
303.15	.5004	800.435	.03
303.15	.6005	800.827	.03
303.15	.6999	801.204	.03
303.15	.7989	801.568	.03
303.15	.8988	801.909	.03
308.15	.1008	794.588	.03
308.15	.2005	795.059	.03
308.15	.3002	795.516	.03
308.15	.4006	795.957	.03
308.15	.5004	796.396	.03
308.15	.6005	796.828	.03
308.15	.6999	797.242	.03
308.15	.7989	797.635	.03
308.15	.8988	798.014	.03
313.15	.1008	790.266	.03
313.15	.2005	790.801	.03
313.15	.3002	791.313	.03
313.15	.4006	791.795	.03
313.15	.5004	792.279	.03
313.15	.6005	792.762	.03
313.15	.6999	793.224	.03
313.15	.7989	793.655	.03
313.15	.8988	794.069	.03
318.15	.1008	785.851	.03
318.15	.2005	786.455	.03
318.15	.3002	787.036	.03
318.15	.4006	787.575	.03
318.15	.5004	788.113	.03
318.15	.6005	788.64	.03
318.15	.6999	789.157	.03
318.15	.7989	789.625	.03
318.15	.8988	790.08	.03
323.15	.1008	781.329	.03
323.15	.2005	782.01	.03
323.15	.3002	782.667	.03
323.15	.4006	783.274	.03
323.15	.5004	783.873	.03
323.15	.6005	784.456	.03
323.15	.6999	785.021	.03
323.15	.7989	785.535	.03
323.15	.8988	786.04	.03
328.15	.1008	776.706	.03
328.15	.2005	777.468	.03
328.15	.3002	778.208	.03
328.15	.4006	778.887	.03
328.15	.5004	779.553	.03
328.15	.6005	780.198	.03
328.15	.6999	780.817	.03
328.15	.7989	781.386	.03
328.15	.8988	781.936	.03
333.15	.1008	771.968	.03
333.15	.2005	772.822	.03
333.15	.3002	773.649	.03
333.15	.4006	774.407	.03
333.15	.5004	775.144	.03
333.15	.6005	775.861	.03
333.15	.6999	776.534	.03
333.15	.7989	777.165	.03
333.15	.8988	777.765	.03
338.15	.1008	767.116	.03
338.15	.2005	768.057	.03
338.15	.3002	768.985	.03
338.15	.4006	769.83	.03
338.15	.5004	770.644	.03
338.15	.6005	771.436	.03
338.15	.6999	772.174	.03
338.15	.7989	772.85	.03
338.15	.8988	773.53	.03
343.15	.1008	762.161	.03
343.15	.2005	763.194	.03
343.15	.3002	764.213	.03
343.15	.4006	765.15	.03
343.15	.5004	766.048	.03
343.15	.6005	766.918	.03
343.15	.6999	767.729	.03
343.15	.7989	768.484	.03
343.15	.8988	769.214	.03

System: 1-butanol + 2-butanol, dl-; phases: Liquid
Fixed: Pressure, kPa = 101
Property: Viscosity, Pa*s (Liquid); method: Capillary tube (Ostwald; Ubbelohde) method
Temperature, K	Mole fraction of 1-butanol	Viscosity, Pa*s	uncertainty
303.15	.1008	.00315657	.000004
303.15	.2005	.00308006	.000004
303.15	.3002	.00302736	.000004
303.15	.4006	.00298718	.000004
303.15	.5004	.00295578	.000004
303.15	.6005	.00293237	.000004
303.15	.6999	.00291166	.000004
303.15	.7989	.00289419	.000004
303.15	.8988	.00287534	.000004
308.15	.1008	.00267933	.000004
308.15	.2005	.00265038	.000004
308.15	.3002	.00262598	.000004
308.15	.4006	.00260939	.000004
308.15	.5004	.00259547	.000004
308.15	.6005	.0025832	.000004
308.15	.6999	.00257015	.000004
308.15	.7989	.002557	.000004
308.15	.8988	.00254462	.000004
313.15	.1008	.00231164	.000004
313.15	.2005	.00229875	.000004
313.15	.3002	.00228792	.000004
313.15	.4006	.00228343	.000004
313.15	.5004	.00227831	.000004
313.15	.6005	.00227457	.000004
313.15	.6999	.00227196	.000004
313.15	.7989	.00226823	.000004
313.15	.8988	.00226444	.000004
318.15	.1008	.00198203	.000004
318.15	.2005	.00198146	.000004
318.15	.3002	.00198096	.000004
318.15	.4006	.00198187	.000004
318.15	.5004	.00198578	.000004
318.15	.6005	.00199214	.000004
318.15	.6999	.00199937	.000004
318.15	.7989	.00200656	.000004
318.15	.8988	.00201252	.000004
323.15	.1008	.00172306	.000004
323.15	.2005	.00173688	.000004
323.15	.3002	.00175036	.000004
323.15	.4006	.00176291	.000004
323.15	.5004	.0017728	.000004
323.15	.6005	.00178238	.000004
323.15	.6999	.00178985	.000004
323.15	.7989	.00179489	.000004
323.15	.8988	.00179776	.000004
328.15	.1008	.00150616	.000004
328.15	.2005	.00152539	.000004
328.15	.3002	.00154317	.000004
328.15	.4006	.00156011	.000004
328.15	.5004	.00157586	.000004
328.15	.6005	.00159003	.000004
328.15	.6999	.00160209	.000004
328.15	.7989	.00161233	.000004
328.15	.8988	.00162057	.000004
333.15	.1008	.00132701	.000004
333.15	.2005	.00134906	.000004
333.15	.3002	.00136882	.000004
333.15	.4006	.00138745	.000004
333.15	.5004	.00140467	.000004
333.15	.6005	.00142108	.000004
333.15	.6999	.00143446	.000004
333.15	.7989	.00144686	.000004
333.15	.8988	.00145652	.000004
338.15	.1008	.00117772	.000004
338.15	.2005	.00120143	.000004
338.15	.3002	.00122368	.000004
338.15	.4006	.00124195	.000004
338.15	.5004	.00125838	.000004
338.15	.6005	.00127461	.000004
338.15	.6999	.00128972	.000004
338.15	.7989	.00130224	.000004
338.15	.8988	.00131542	.000004
343.15	.1008	.0010549	.000004
343.15	.2005	.00107966	.000004
343.15	.3002	.00110235	.000004
343.15	.4006	.00112126	.000004
343.15	.5004	.00113832	.000004
343.15	.6005	.00115523	.000004
343.15	.6999	.00117075	.000004
343.15	.7989	.0011839	.000004
343.15	.8988	.00119714	.000004

System: 1-butanol + 2-methyl-1-propanol; phases: Liquid
Fixed: Pressure, kPa = 101
Property: Mass density, kg/m3 (Liquid); method: Vibrating tube method
Temperature, K	Mole fraction of 1-butanol	Mass density, kg/m3	uncertainty
303.15	.101	794.896	.03
303.15	.2029	795.74	.03
303.15	.3008	796.558	.03
303.15	.4	797.382	.03
303.15	.5	798.209	.03
303.15	.5999	799.026	.03
303.15	.6999	799.838	.03
303.15	.7993	800.635	.03
303.15	.8995	801.426	.03
308.15	.101	790.969	.03
308.15	.2029	791.819	.03
308.15	.3008	792.643	.03
308.15	.4	793.476	.03
308.15	.5	794.307	.03
308.15	.5999	795.132	.03
308.15	.6999	795.953	.03
308.15	.7993	796.757	.03
308.15	.8995	797.554	.03
313.15	.101	786.977	.03
313.15	.2029	787.84	.03
313.15	.3008	788.67	.03
313.15	.4	789.511	.03
313.15	.5	790.349	.03
313.15	.5999	791.184	.03
313.15	.6999	792.012	.03
313.15	.7993	792.829	.03
313.15	.8995	793.633	.03
318.15	.101	782.93	.03
318.15	.2029	783.806	.03
318.15	.3008	784.646	.03
318.15	.4	785.496	.03
318.15	.5	786.344	.03
318.15	.5999	787.188	.03
318.15	.6999	788.027	.03
318.15	.7993	788.855	.03
318.15	.8995	789.67	.03
323.15	.101	778.816	.03
323.15	.2029	779.704	.03
323.15	.3008	780.558	.03
323.15	.4	781.419	.03
323.15	.5	782.279	.03
323.15	.5999	783.136	.03
323.15	.6999	783.985	.03
323.15	.7993	784.825	.03
323.15	.8995	785.654	.03
328.15	.101	774.633	.03
328.15	.2029	775.537	.03
328.15	.3008	776.405	.03
328.15	.4	777.281	.03
328.15	.5	778.156	.03
328.15	.5999	779.026	.03
328.15	.6999	779.893	.03
328.15	.7993	780.744	.03
328.15	.8995	781.588	.03
333.15	.101	770.368	.03
333.15	.2029	771.292	.03
333.15	.3008	772.177	.03
333.15	.4	773.068	.03
333.15	.5	773.961	.03
333.15	.5999	774.846	.03
333.15	.6999	775.732	.03
333.15	.7993	776.596	.03
333.15	.8995	777.457	.03
338.15	.101	766.021	.03
338.15	.2029	766.966	.03
338.15	.3008	767.871	.03
338.15	.4	768.778	.03
338.15	.5	769.689	.03
338.15	.5999	770.594	.03
338.15	.6999	771.495	.03
338.15	.7993	772.378	.03
338.15	.8995	773.258	.03
343.15	.101	761.578	.03
343.15	.2029	762.548	.03
343.15	.3008	763.474	.03
343.15	.4	764.4	.03
343.15	.5	765.333	.03
343.15	.5999	766.26	.03
343.15	.6999	767.182	.03
343.15	.7993	768.085	.03
343.15	.8995	768.986	.03

System: 1-butanol + 2-methyl-1-propanol; phases: Liquid
Fixed: Pressure, kPa = 101
Property: Viscosity, Pa*s (Liquid); method: Capillary tube (Ostwald; Ubbelohde) method
Temperature, K	Mole fraction of 1-butanol	Viscosity, Pa*s	uncertainty
303.15	.101	.00344699	.000004
303.15	.2029	.00344254	.000004
303.15	.3008	.00338909	.000004
303.15	.4	.00331336	.000004
303.15	.5	.00323686	.000004
303.15	.5999	.0031662	.000004
303.15	.6999	.00310184	.000004
303.15	.7993	.00304014	.000004
303.15	.8995	.00297068	.000004
308.15	.101	.00298727	.000004
308.15	.2029	.00298299	.000004
308.15	.3008	.00293869	.000004
308.15	.4	.00287101	.000004
308.15	.5	.00280392	.000004
308.15	.5999	.00275196	.000004
308.15	.6999	.00270785	.000004
308.15	.7993	.00266926	.000004
308.15	.8995	.0026205	.000004
313.15	.101	.00259084	.000004
313.15	.2029	.00258744	.000004
313.15	.3008	.00256195	.000004
313.15	.4	.00251139	.000004
313.15	.5	.00246227	.000004
313.15	.5999	.00242406	.000004
313.15	.6999	.00239065	.000004
313.15	.7993	.0023634	.000004
313.15	.8995	.00232668	.000004
318.15	.101	.00223646	.000004
318.15	.2029	.00223377	.000004
318.15	.3008	.00221913	.000004
318.15	.4	.00219056	.000004
318.15	.5	.00215799	.000004
318.15	.5999	.00212912	.000004
318.15	.6999	.00211111	.000004
318.15	.7993	.00209397	.000004
318.15	.8995	.00206837	.000004
323.15	.101	.00196351	.000004
323.15	.2029	.00195756	.000004
323.15	.3008	.0019511	.000004
323.15	.4	.00193068	.000004
323.15	.5	.00191005	.000004
323.15	.5999	.00188983	.000004
323.15	.6999	.00187738	.000004
323.15	.7993	.00186383	.000004
323.15	.8995	.00184257	.000004
328.15	.101	.00168019	.000004
328.15	.2029	.00169164	.000004
328.15	.3008	.00168904	.000004
328.15	.4	.00168442	.000004
328.15	.5	.00167349	.000004
328.15	.5999	.00166839	.000004
328.15	.6999	.00166179	.000004
328.15	.7993	.00165768	.000004
328.15	.8995	.0016504	.000004
333.15	.101	.00150693	.000004
333.15	.2029	.00152338	.000004
333.15	.3008	.00152021	.000004
333.15	.4	.00151077	.000004
333.15	.5	.00149922	.000004
333.15	.5999	.00148941	.000004
333.15	.6999	.00148754	.000004
333.15	.7993	.00148374	.000004
333.15	.8995	.00147976	.000004
338.15	.101	.00134203	.000004
338.15	.2029	.00136255	.000004
338.15	.3008	.00136088	.000004
338.15	.4	.00135675	.000004
338.15	.5	.0013511	.000004
338.15	.5999	.00134309	.000004
338.15	.6999	.00134102	.000004
338.15	.7993	.00133822	.000004
338.15	.8995	.0013345	.000004
343.15	.101	.00120391	.000004
343.15	.2029	.00122635	.000004
343.15	.3008	.00122992	.000004
343.15	.4	.00122773	.000004
343.15	.5	.00122492	.000004
343.15	.5999	.00121803	.000004
343.15	.6999	.00121533	.000004
343.15	.7993	.00121336	.000004
343.15	.8995	.00121079	.000004

System: 1-butanol + 2-methyl-2-propanol; phases: Liquid
Fixed: Pressure, kPa = 101
Property: Mass density, kg/m3 (Liquid); method: Vibrating tube method
Temperature, K	Mole fraction of 1-butanol	Mass density, kg/m3	uncertainty
308.15	.1017	774.752	.03
308.15	.2006	778.293	.03
308.15	.3008	781.316	.03
308.15	.4005	784.068	.03
308.15	.5011	786.651	.03
308.15	.6002	789.119	.03
308.15	.6975	791.52	.03
308.15	.7987	793.957	.03
308.15	.8978	796.247	.03
313.15	.1017	769.698	.03
313.15	.2006	773.439	.03
313.15	.3008	776.66	.03
313.15	.4005	779.566	.03
313.15	.5011	782.289	.03
313.15	.6002	784.884	.03
313.15	.6975	787.385	.03
313.15	.7987	789.899	.03
313.15	.8978	792.264	.03
318.15	.1017	764.541	.03
318.15	.2006	768.484	.03
318.15	.3008	771.902	.03
318.15	.4005	774.974	.03
318.15	.5011	777.844	.03
318.15	.6002	780.565	.03
318.15	.6975	783.18	.03
318.15	.7987	785.795	.03
318.15	.8978	788.241	.03
323.15	.1017	759.283	.03
323.15	.2006	763.421	.03
323.15	.3008	767.037	.03
323.15	.4005	770.272	.03
323.15	.5011	773.307	.03
323.15	.6002	776.162	.03
323.15	.6975	778.901	.03
323.15	.7987	781.617	.03
323.15	.8978	784.158	.03
328.15	.1017	753.923	.03
328.15	.2006	758.252	.03
328.15	.3008	762.068	.03
328.15	.4005	765.483	.03
328.15	.5011	768.677	.03
328.15	.6002	771.695	.03
328.15	.6975	774.542	.03
328.15	.7987	777.372	.03
328.15	.8978	780.002	.03
333.15	.1017	748.453	.03
333.15	.2006	752.974	.03
333.15	.3008	756.986	.03
333.15	.4005	760.579	.03
333.15	.5011	763.946	.03
333.15	.6002	767.111	.03
333.15	.6975	770.1	.03
333.15	.7987	773.05	.03
333.15	.8978	775.796	.03
338.15	.1017	742.882	.03
338.15	.2006	747.587	.03
338.15	.3008	751.795	.03
338.15	.4005	755.568	.03
338.15	.5011	759.113	.03
338.15	.6002	762.433	.03
338.15	.6975	765.569	.03
338.15	.7987	768.651	.03
338.15	.8978	771.52	.03
343.15	.1017	737.201	.03
343.15	.2006	742.083	.03
343.15	.3008	746.492	.03
343.15	.4005	750.446	.03
343.15	.5011	754.166	.03
343.15	.6002	757.655	.03
343.15	.6975	760.941	.03
343.15	.7987	764.169	.03
343.15	.8978	767.155	.03

System: 1-butanol + 2-methyl-2-propanol; phases: Liquid
Fixed: Pressure, kPa = 101
Property: Viscosity, Pa*s (Liquid); method: Capillary tube (Ostwald; Ubbelohde) method
Temperature, K	Mole fraction of 1-butanol	Viscosity, Pa*s	uncertainty
308.15	.1017	.00343827	.000004
308.15	.2006	.00337395	.000004
308.15	.3008	.00330204	.000004
308.15	.4005	.00322041	.000004
308.15	.5011	.00312544	.000004
308.15	.6002	.00302112	.000004
308.15	.6975	.00291242	.000004
308.15	.7987	.00279093	.000004
308.15	.8978	.00266655	.000004
313.15	.1017	.00278672	.000004
313.15	.2006	.00276348	.000004
313.15	.3008	.00273251	.000004
313.15	.4005	.00269287	.000004
313.15	.5011	.00264038	.000004
313.15	.6002	.00257726	.000004
313.15	.6975	.00250791	.000004
313.15	.7987	.00242922	.000004
313.15	.8978	.00234722	.000004
318.15	.1017	.00229907	.000004
318.15	.2006	.00230186	.000004
318.15	.3008	.00229812	.000004
318.15	.4005	.002284	.000004
318.15	.5011	.00225797	.000004
318.15	.6002	.00222325	.000004
318.15	.6975	.00218159	.000004
318.15	.7987	.00213066	.000004
318.15	.8978	.00207632	.000004
323.15	.1017	.00192183	.000004
323.15	.2006	.00194188	.000004
323.15	.3008	.00195569	.000004
323.15	.4005	.00195691	.000004
323.15	.5011	.00195016	.000004
323.15	.6002	.00193395	.000004
323.15	.6975	.00190977	.000004
323.15	.7987	.00187689	.000004
323.15	.8978	.00184061	.000004
328.15	.1017	.00163534	.000004
328.15	.2006	.00166627	.000004
328.15	.3008	.00169011	.000004
328.15	.4005	.00170411	.000004
328.15	.5011	.00170905	.000004
328.15	.6002	.0017035	.000004
328.15	.6975	.00169216	.000004
328.15	.7987	.00167231	.000004
328.15	.8978	.00165002	.000004
333.15	.1017	.00140591	.000004
333.15	.2006	.0014392	.000004
333.15	.3008	.00146587	.000004
333.15	.4005	.00148647	.000004
333.15	.5011	.00149963	.000004
333.15	.6002	.00150416	.000004
333.15	.6975	.00150125	.000004
333.15	.7987	.00149213	.000004
333.15	.8978	.0014777	.000004
338.15	.1017	.00122104	.000004
338.15	.2006	.00125365	.000004
338.15	.3008	.00128244	.000004
338.15	.4005	.00130635	.000004
338.15	.5011	.00132377	.000004
338.15	.6002	.00133471	.000004
338.15	.6975	.0013394	.000004
338.15	.7987	.00134013	.000004
338.15	.8978	.00133485	.000004
343.15	.1017	.00106998	.000004
343.15	.2006	.00110273	.000004
343.15	.3008	.00113072	.000004
343.15	.4005	.00115571	.000004
343.15	.5011	.00117653	.000004
343.15	.6002	.00119056	.000004
343.15	.6975	.0012004	.000004
343.15	.7987	.00120662	.000004
343.15	.8978	.00120807	.000004
