Measured thermophysical data. Absolute Total Vapor Pressure of Gallium Dichloride
Source: J. Chem. Eng. Data, 2010, 10.1021/je9008574
Compound 1: gallium dichloride, Cl2Ga, purity 99.999%

System: gallium dichloride; phases: Crystal, Gas
Property: Vapor or sublimation pressure, kPa (Crystal); method: Torsion effusion method
Temperature, K	Vapor or sublimation pressure, kPa	uncertainty
394	.0002455	
396	.0002951	
399	.0003388	
405	.0006761	
410.5	.000871	
415.5	.001259	
421.5	.002138	
426	.003162	
430	.004365	
434	.006026	
438	.007586	
441	.00871	
398	.0002951	
405	.0005888	
409	.0007762	
413	.0009772	
416	.001413	
420	.00195	
424.5	.002512	
428.5	.003388	
432.5	.004365	
436	.005623	
441	.007762	
390	.0002399	
398	.0004169	
402.5	.0006607	
406.5	.0008913	
411.5	.001318	
415.5	.001905	
418.5	.002399	
422.5	.003236	
427.5	.004571	
432	.006457	
436	.008318	
386	.0001514	
391.5	.0002399	
394	.0003311	
398	.0004467	
402	.0007244	
407.5	.000955	
410.5	.001259	
415.5	.001862	
420	.00263	
424	.003802	
428.5	.004677	
432	.006761	
437	.008913	
440	.01096	
386	.0001514	
389	.0002089	
394	.0003311	
397.5	.000389	
401	.0005129	
405.5	.0007762	
409	.001023	
413	.001445	
417.5	.002089	
419	.002399	
421.5	.00302	
425.5	.004266	
430	.005248	
435.5	.007943	
439	.01	
383.5	.0001202	
388.5	.0001778	
393.5	.000302	
399	.0004786	
403	.0006607	
410.5	.001072	
413.5	.001514	
416.5	.001905	
418	.002138	
421.5	.002951	
426	.004266	
430.5	.006026	
436	.008318	
440	.01072	
384	.0001202	
386	.0001778	
392	.000302	
398.5	.0004786	
403	.0006607	
406	.000955	
410	.001202	
413.5	.001445	
416	.001778	
419	.002138	
422.5	.00302	
426	.004074	
429	.005248	
432	.006457	
372	.00004571	
375	.00006166	
379	.0000912	
384	.000123	
387	.0001862	
391.5	.0002754	
397.5	.0005248	
402	.0007413	
404	.0007762	
411.5	.001549	
415	.002138	
421	.003388	
426	.003981	
429	.005129	
433	.007079	
374	.0000309	
378	.00004571	
385	.0001072	
390.5	.0001549	
395	.0002754	
399.5	.0003802	
406	.0006761	
414.5	.001288	
417	.001549	
422	.002138	
428	.003236	
431	.003715	
436	.005495	
375	.00004571	
381	.00007762	
387.5	.000123	
391	.0001698	
394	.0002138	
396.5	.000309	
399	.0003388	
403	.0004786	
408	.0007079	
414	.001202	
417	.001585	
421	.002138	
424.5	.002818	
427.5	.003467	
378.5	.00006166	
382.5	.0000912	
386.5	.000123	
391	.0001862	
395	.0002754	
399.5	.0003981	
403.5	.0005495	
407.5	.0007762	
411	.001023	
414	.001259	
416.5	.001549	
417.5	.001698	
422	.002344	
426	.00309	
430	.004365	
434	.005495	
375	.00003388	
381.5	.00006761	
386.5	.0001023	
393	.0001862	
399.5	.000302	
402.5	.000389	
409	.0007079	
414	.001072	
416.5	.001288	
423.5	.002291	
427	.002754	
430	.003311	
