Measured thermophysical data. Excess Molar Enthalpies of Diethyl Malonate + (Methanol, + Ethanol, + 1-Propanol, and + 2-Propanol) at T = (288.2, 298.2, 313.2, and 328.2) K and p = 101.3 kPa
Source: J. Chem. Eng. Data, 2010, 10.1021/je9003806
Compound 1: diethyl malonate, C7H12O4, purity 99.9%
Compound 2: methanol, CH4O, purity 99.8%
Compound 3: ethanol, C2H6O, purity 99.7%
Compound 4: 1-propanol, C3H8O, purity 99.5%
Compound 5: 2-propanol, C3H8O, purity 99.5%

System: diethyl malonate; phases: Liquid
Fixed: Pressure, kPa = 101.325
Property: Mass density, kg/m3 (Liquid); method: Vibrating tube method
Temperature, K	Mass density, kg/m3	uncertainty
278.15	1071.036	.005
288.14	1060.326	.005
298.15	1049.603	.005
313.15	1033.498	.005
328.15	1017.336	.005
338.15	1006.505	.005
348.15	995.631	.005
358.15	984.697	.005

System: methanol + diethyl malonate; phases: Liquid
Fixed: Pressure, kPa = 101.3
Property: Excess molar enthalpy (molar enthalpy of mixing), kJ/mol (Liquid); method: Flow calorimetry
Temperature, K	Mole fraction of diethyl malonate	Excess molar enthalpy (molar enthalpy of mixing), kJ/mol	uncertainty
288.2	.05	.276	.00276
288.2	.0996	.513	.00513
288.2	.1496	.698	.00698
288.2	.2011	.858	.00858
288.2	.2515	.989	.00989
288.2	.3009	1.093	.01093
288.2	.3506	1.175	.01175
288.2	.3988	1.25	.0125
288.2	.4486	1.295	.01295
288.2	.4993	1.311	.01311
288.2	.55	1.319	.01319
288.2	.5995	1.285	.01285
288.2	.6464	1.256	.01256
288.2	.698	1.18	.0118
288.2	.7453	1.093	.01093
288.2	.7969	.978	.00978
288.2	.8536	.796	.00796
288.2	.903	.582	.00582
288.2	.95	.335	.00335
298.2	.05	.307	.00307
298.2	.0996	.555	.00555
298.2	.1496	.763	.00763
298.2	.2011	.937	.00937
298.2	.2515	1.083	.01083
298.2	.3009	1.198	.01198
298.2	.3506	1.286	.01286
298.2	.3988	1.361	.01361
298.2	.4486	1.402	.01402
298.2	.4993	1.426	.01426
298.2	.55	1.435	.01435
298.2	.5995	1.408	.01408
298.2	.6464	1.352	.01352
298.2	.698	1.272	.01272
298.2	.7453	1.184	.01184
298.2	.7969	1.016	.01016
298.2	.8536	.768	.00768
298.2	.903	.586	.00586
298.2	.95	.323	.00323
313.2	.05	.339	.00339
313.2	.0996	.61	.0061
313.2	.1496	.851	.00851
313.2	.2011	1.042	.01042
313.2	.2515	1.198	.01198
313.2	.3009	1.33	.0133
313.2	.3506	1.434	.01434
313.2	.3988	1.509	.01509
313.2	.4486	1.563	.01563
313.2	.4993	1.58	.0158
313.2	.55	1.575	.01575
313.2	.5995	1.543	.01543
313.2	.6464	1.486	.01486
313.2	.698	1.387	.01387
313.2	.7453	1.268	.01268
313.2	.7969	1.086	.01086
313.2	.8536	.844	.00844
313.2	.903	.602	.00602
313.2	.95	.301	.00301
328.2	.05	.365	.00365
328.2	.0996	.673	.00673
328.2	.1496	.926	.00926
328.2	.2011	1.146	.01146
328.2	.2515	1.324	.01324
328.2	.3009	1.459	.01459
328.2	.3506	1.572	.01572
328.2	.3988	1.647	.01647
328.2	.4486	1.703	.01703
328.2	.4993	1.709	.01709
328.2	.55	1.713	.01713
328.2	.5995	1.657	.01657
328.2	.6464	1.591	.01591
328.2	.698	1.475	.01475
328.2	.7453	1.321	.01321
328.2	.7969	1.163	.01163
328.2	.8536	.893	.00893
328.2	.903	.607	.00607
328.2	.95	.198	.00198

System: ethanol + methanol; phases: Liquid
Fixed: Pressure, kPa = 101.3
Property: Excess molar enthalpy (molar enthalpy of mixing), kJ/mol (Liquid); method: Flow calorimetry
Temperature, K	Mole fraction of methanol	Excess molar enthalpy (molar enthalpy of mixing), kJ/mol	uncertainty
288.2	.0501	.397	.00397
288.2	.1004	.702	.00702
288.2	.1491	.974	.00974
288.2	.1995	1.178	.01178
288.2	.2507	1.329	.01329
288.2	.2985	1.454	.01454
288.2	.3517	1.564	.01564
288.2	.399	1.63	.0163
288.2	.4509	1.676	.01676
288.2	.4985	1.7	.017
288.2	.5503	1.692	.01692
288.2	.6013	1.653	.01653
288.2	.6504	1.588	.01588
288.2	.6967	1.503	.01503
288.2	.7465	1.371	.01371
288.2	.8002	1.188	.01188
288.2	.8497	.972	.00972
288.2	.9027	.688	.00688
288.2	.9498	.375	.00375
298.2	.0501	.423	.00423
298.2	.1004	.775	.00775
298.2	.1491	1.033	.01033
298.2	.1995	1.261	.01261
298.2	.2507	1.446	.01446
298.2	.2985	1.586	.01586
298.2	.3517	1.701	.01701
298.2	.399	1.778	.01778
298.2	.4509	1.821	.01821
298.2	.4985	1.848	.01848
298.2	.5503	1.828	.01828
298.2	.6013	1.789	.01789
298.2	.6504	1.716	.01716
298.2	.6967	1.613	.01613
298.2	.7465	1.473	.01473
298.2	.8002	1.265	.01265
298.2	.8497	1.014	.01014
298.2	.9027	.721	.00721
298.2	.9498	.396	.00396
313.2	.0501	.476	.00476
313.2	.1004	.859	.00859
313.2	.1491	1.168	.01168
313.2	.1995	1.41	.0141
313.2	.2507	1.62	.0162
313.2	.2985	1.78	.0178
313.2	.3517	1.898	.01898
313.2	.399	1.981	.01981
313.2	.4509	2.032	.02032
313.2	.4985	2.045	.02045
313.2	.5503	2.031	.02031
313.2	.6013	1.962	.01962
313.2	.6504	1.875	.01875
313.2	.6967	1.764	.01764
313.2	.7465	1.59	.0159
313.2	.8002	1.347	.01347
313.2	.8497	1.084	.01084
313.2	.9027	.747	.00747
313.2	.9498	.441	.00441
328.2	.0501	.497	.00497
328.2	.1004	.929	.00929
328.2	.1491	1.271	.01271
328.2	.1995	1.531	.01531
328.2	.2507	1.757	.01757
328.2	.2985	1.926	.01926
328.2	.3517	2.053	.02053
328.2	.399	2.134	.02134
328.2	.4509	2.184	.02184
328.2	.4985	2.203	.02203
328.2	.5503	2.165	.02165
328.2	.6013	2.087	.02087
328.2	.6504	1.994	.01994
328.2	.6967	1.85	.0185
328.2	.7465	1.658	.01658
328.2	.8002	1.392	.01392
328.2	.8497	1.125	.01125
328.2	.9027	.777	.00777
328.2	.9498	.424	.00424

System: ethanol + 1-propanol; phases: Liquid
Fixed: Pressure, kPa = 101.3
Property: Excess molar enthalpy (molar enthalpy of mixing), kJ/mol (Liquid); method: Flow calorimetry
Temperature, K	Mole fraction of 1-propanol	Excess molar enthalpy (molar enthalpy of mixing), kJ/mol	uncertainty
288.2	.0499	.487	.00487
288.2	.1004	.866	.00866
288.2	.2513	1.595	.01595
288.2	.3	1.738	.01738
288.2	.3491	1.853	.01853
288.2	.3982	1.935	.01935
288.2	.451	1.976	.01976
288.2	.499	1.998	.01998
288.2	.5503	1.982	.01982
288.2	.6002	1.932	.01932
288.2	.6479	1.862	.01862
288.2	.6986	1.755	.01755
288.2	.7525	1.575	.01575
288.2	.797	1.399	.01399
288.2	.8506	1.126	.01126
288.2	.9003	.821	.00821
288.2	.9527	.438	.00438
298.2	.0499	.534	.00534
298.2	.1004	.941	.00941
298.2	.1588	1.315	.01315
298.2	.209	1.575	.01575
298.2	.2513	1.751	.01751
298.2	.3	1.908	.01908
298.2	.3491	2.029	.02029
298.2	.3982	2.11	.0211
298.2	.451	2.156	.02156
298.2	.499	2.175	.02175
298.2	.5503	2.142	.02142
298.2	.6002	2.08	.0208
298.2	.6479	1.992	.01992
298.2	.6986	1.872	.01872
298.2	.7525	1.669	.01669
298.2	.797	1.473	.01473
298.2	.8506	1.173	.01173
298.2	.9003	.826	.00826
298.2	.9527	.435	.00435
313.2	.0499	.578	.00578
313.2	.1004	1.045	.01045
313.2	.1588	1.444	.01444
313.2	.209	1.738	.01738
313.2	.2513	1.915	.01915
313.2	.3	2.094	.02094
313.2	.3491	2.231	.02231
313.2	.3982	2.32	.0232
313.2	.451	2.363	.02363
313.2	.499	2.371	.02371
313.2	.5503	2.338	.02338
313.2	.6002	2.256	.02256
313.2	.6479	2.14	.0214
313.2	.6986	1.967	.01967
313.2	.7525	1.747	.01747
313.2	.797	1.511	.01511
313.2	.8506	1.188	.01188
313.2	.9003	.856	.00856
313.2	.9527	.432	.00432
328.2	.0499	.597	.00597
328.2	.1004	1.112	.01112
328.2	.1588	1.554	.01554
328.2	.209	1.872	.01872
328.2	.2513	2.054	.02054
328.2	.3	2.244	.02244
328.2	.3491	2.387	.02387
328.2	.3982	2.482	.02482
328.2	.451	2.525	.02525
328.2	.499	2.517	.02517
328.2	.5503	2.477	.02477
328.2	.6002	2.374	.02374
328.2	.6479	2.255	.02255
328.2	.6986	2.064	.02064
328.2	.7525	1.817	.01817
328.2	.797	1.569	.01569
328.2	.8506	1.23	.0123
328.2	.9003	.854	.00854
328.2	.9527	.418	.00418

System: ethanol + 2-propanol; phases: Liquid
Fixed: Pressure, kPa = 101.3
Property: Excess molar enthalpy (molar enthalpy of mixing), kJ/mol (Liquid); method: Flow calorimetry
Temperature, K	Mole fraction of 2-propanol	Excess molar enthalpy (molar enthalpy of mixing), kJ/mol	uncertainty
288.2	.0511	.607	.00607
288.2	.1001	1.022	.01022
288.2	.1511	1.347	.01347
288.2	.2012	1.619	.01619
288.2	.2494	1.803	.01803
288.2	.3015	1.965	.01965
288.2	.3507	2.091	.02091
288.2	.3998	2.161	.02161
288.2	.4484	2.188	.02188
288.2	.5003	2.193	.02193
288.2	.5513	2.173	.02173
288.2	.6007	2.097	.02097
288.2	.6478	2.019	.02019
288.2	.6977	1.88	.0188
288.2	.7508	1.667	.01667
288.2	.8007	1.444	.01444
288.2	.8468	1.196	.01196
288.2	.9023	.773	.00773
288.2	.9537	.403	.00403
298.2	.0511	.632	.00632
298.2	.1001	1.102	.01102
298.2	.1511	1.465	.01465
298.2	.2012	1.753	.01753
298.2	.2494	1.955	.01955
298.2	.3015	2.134	.02134
298.2	.3507	2.266	.02266
298.2	.3998	2.344	.02344
298.2	.4484	2.38	.0238
298.2	.5003	2.369	.02369
298.2	.5513	2.342	.02342
298.2	.6007	2.257	.02257
298.2	.6478	2.175	.02175
298.2	.6977	2.015	.02015
298.2	.7508	1.804	.01804
298.2	.8007	1.584	.01584
298.2	.8468	1.292	.01292
298.2	.9023	.918	.00918
298.2	.9537	.465	.00465
313.2	.0511	.659	.00659
313.2	.1001	1.16	.0116
313.2	.1511	1.581	.01581
313.2	.2012	1.877	.01877
313.2	.2494	2.134	.02134
313.2	.3015	2.329	.02329
313.2	.3507	2.451	.02451
313.2	.3998	2.534	.02534
313.2	.4484	2.578	.02578
313.2	.5003	2.556	.02556
313.2	.5513	2.51	.0251
313.2	.6007	2.433	.02433
313.2	.6478	2.321	.02321
313.2	.6977	2.137	.02137
313.2	.7508	1.888	.01888
313.2	.8007	1.636	.01636
313.2	.8468	1.339	.01339
313.2	.9023	.892	.00892
313.2	.9537	.436	.00436
328.2	.0511	.681	.00681
328.2	.1001	1.22	.0122
328.2	.1511	1.631	.01631
328.2	.2012	1.977	.01977
328.2	.2494	2.223	.02223
328.2	.3015	2.412	.02412
328.2	.3507	2.555	.02555
328.2	.3998	2.636	.02636
328.2	.4484	2.674	.02674
328.2	.5003	2.664	.02664
328.2	.5513	2.595	.02595
328.2	.6007	2.496	.02496
328.2	.6478	2.348	.02348
328.2	.6977	2.161	.02161
328.2	.7508	1.901	.01901
328.2	.8007	1.618	.01618
328.2	.8468	1.264	.01264
328.2	.9023	.845	.00845
328.2	.9537	.391	.00391
