Measured thermophysical data. Phase Behavior for the Aqueous Two-Phase Systems Containing the Ionic Liquid 1-Butyl-3-methylimidazolium Tetrafluoroborate and Kosmotropic Salts
Source: J. Chem. Eng. Data, 2010, 10.1021/je900533h
Compound 1: 1-butyl-3-methylimidazolium tetrafluoroborate, C8H15BF4N2
Compound 2: trisodium phosphate, Na3O4P
Compound 3: sodium carbonate, CNa2O3
Compound 4: sodium dihydrogen phosphate anhydrous, H2NaO4P
Compound 5: sodium sulfate, Na2O4S
Compound 6: sodium chloride, ClNa
Compound 7: water, H2O

System: trisodium phosphate + water + 1-butyl-3-methylimidazolium tetrafluoroborate; phases: Liquid mixture 1, Liquid mixture 2
Fixed: Pressure, kPa = 101
Fixed: Temperature, K = 298.15
Property: Mass fraction of 1-butyl-3-methylimidazolium tetrafluoroborate (Liquid mixture 1); method: Titration method
Mass fraction of trisodium phosphate	Mass fraction of 1-butyl-3-methylimidazolium tetrafluoroborate	uncertainty
.0021	.7675	.0005
.0026	.7292	.0005
.0031	.6867	.0005
.0037	.6301	.0005
.0039	.6227	.0005
.0041	.6009	.0005
.0049	.5604	.0005
.0066	.5197	.0005
.0091	.4754	.0005
.0109	.4337	.0005
.0128	.3857	.0005
.0132	.3789	.0005
.0164	.3286	.0005
.0181	.3055	.0005
.0223	.2617	.0005
.0267	.2369	.0005
.0315	.2083	.0005
.0397	.1737	.0005

System: sodium carbonate + water + 1-butyl-3-methylimidazolium tetrafluoroborate; phases: Liquid mixture 1, Liquid mixture 2
Fixed: Pressure, kPa = 101
Fixed: Temperature, K = 298.15
Property: Mass fraction of 1-butyl-3-methylimidazolium tetrafluoroborate (Liquid mixture 1); method: Titration method
Mass fraction of sodium carbonate	Mass fraction of 1-butyl-3-methylimidazolium tetrafluoroborate	uncertainty
.0054	.6751	.0005
.0066	.6165	.0005
.0074	.5961	.0005
.0093	.531	.0005
.0153	.4422	.0005
.0167	.4169	.0005
.0212	.3593	.0005
.0231	.3292	.0005
.0276	.2726	.0005
.0398	.2222	.0005
.0479	.1781	.0005
.0601	.1395	.0005
.071	.1118	.0005
.0816	.0938	.0005
.0877	.0857	.0005
.0997	.0735	.0005
.11	.0634	.0005
.1402	.0424	.0005
.1542	.0345	.0005
.1708	.027	.0005

System: sodium carbonate + water + 1-butyl-3-methylimidazolium tetrafluoroborate; phases: Liquid mixture 1, Liquid mixture 2
Fixed: Pressure, kPa = 101
Property: Mass fraction of 1-butyl-3-methylimidazolium tetrafluoroborate (Liquid mixture 1); method: Titration method
Temperature, K	Mass fraction of sodium carbonate	Mass fraction of 1-butyl-3-methylimidazolium tetrafluoroborate	uncertainty
313.15	.0054	.6715	.0005
313.15	.0066	.6165	.0005
313.15	.0074	.5961	.0005
313.15	.0093	.531	.0005
313.15	.0153	.4422	.0005
313.15	.0167	.4169	.0005
313.15	.0212	.3593	.0005
313.15	.0231	.3292	.0005
313.15	.0276	.2726	.0005
313.15	.0398	.2222	.0005
313.15	.0479	.1781	.0005
313.15	.0601	.1395	.0005
313.15	.071	.1118	.0005
313.15	.0816	.0938	.0005
313.15	.0877	.0857	.0005
313.15	.0997	.0735	.0005
313.15	.11	.0634	.0005
313.15	.1402	.0424	.0005
313.15	.1542	.0345	.0005
313.15	.1708	.027	.0005
333.15	.0111	.627	.0005
333.15	.0116	.5379	.0005
333.15	.0179	.4737	.0005
333.15	.0221	.4211	.0005
333.15	.0258	.3751	.0005
333.15	.0306	.3332	.0005
333.15	.034	.3015	.0005
333.15	.0421	.2511	.0005
333.15	.0464	.2262	.0005
333.15	.0537	.1967	.0005
333.15	.0701	.1517	.0005
333.15	.0769	.1303	.0005
333.15	.0885	.1097	.0005
333.15	.0994	.0949	.0005
333.15	.1045	.0874	.0005
333.15	.1147	.0749	.0005
333.15	.1335	.0575	.0005
333.15	.1485	.0451	.0005
333.15	.1643	.0355	.0005
333.15	.181	.0274	.0005

System: sodium carbonate + water + 1-butyl-3-methylimidazolium tetrafluoroborate; phases: Liquid mixture 2, Liquid mixture 1
Fixed: Temperature, K = 298.15
Fixed: Pressure, kPa = 101
Property: Mass fraction of 1-butyl-3-methylimidazolium tetrafluoroborate (Liquid mixture 2); method: Titration method
Property: Mass fraction of 1-butyl-3-methylimidazolium tetrafluoroborate (Liquid mixture 1); method: Titration method
Property: Mass fraction of sodium carbonate (Liquid mixture 1); method: Titration method
Mass fraction of sodium carbonate	Mass fraction of 1-butyl-3-methylimidazolium tetrafluoroborate	uncertainty	Mass fraction of 1-butyl-3-methylimidazolium tetrafluoroborate	uncertainty	Mass fraction of sodium carbonate	uncertainty
.178	.0291	.0005	.6834	.0005	.0048	.0005
.1989	.0258	.0005	.6867	.0005	.0047	.0005
.2405	.0225	.0005	.6958	.0005	.0044	.0005

System: water + sodium sulfate + 1-butyl-3-methylimidazolium tetrafluoroborate; phases: Liquid mixture 1, Liquid mixture 2
Fixed: Pressure, kPa = 101
Fixed: Temperature, K = 298.15
Property: Mass fraction of 1-butyl-3-methylimidazolium tetrafluoroborate (Liquid mixture 1); method: Titration method
Mass fraction of sodium sulfate	Mass fraction of 1-butyl-3-methylimidazolium tetrafluoroborate	uncertainty
.0069	.6018	.0005
.0125	.48	.0005
.0142	.4361	.0005
.0169	.3928	.0005
.0206	.3533	.0005
.0212	.3351	.0005
.0263	.2809	.0005
.0287	.263	.0005
.0554	.1745	.0005
.0647	.1517	.0005
.0715	.1382	.0005
.079	.1257	.0005
.0855	.1118	.0005
.0961	.0933	.0005
.131	.0692	.0005
.1891	.0395	.0005
.2299	.0243	.0005

System: sodium dihydrogen phosphate anhydrous + water + 1-butyl-3-methylimidazolium tetrafluoroborate; phases: Liquid mixture 1, Liquid mixture 2
Fixed: Pressure, kPa = 101
Fixed: Temperature, K = 298.15
Property: Mass fraction of 1-butyl-3-methylimidazolium tetrafluoroborate (Liquid mixture 1); method: Titration method
Mass fraction of sodium dihydrogen phosphate anhydrous	Mass fraction of 1-butyl-3-methylimidazolium tetrafluoroborate	uncertainty
.0084	.5696	.0005
.0148	.4849	.0005
.0163	.4723	.0005
.0181	.4507	.0005
.0198	.4302	.0005
.0229	.4004	.0005
.0254	.3764	.0005
.028	.3497	.0005
.0293	.335	.0005
.0353	.2916	.0005
.0379	.2734	.0005
.0463	.2406	.0005
.0565	.2025	.0005
.0595	.1918	.0005
.0648	.1803	.0005
.0692	.1756	.0005
.0867	.1429	.0005
.116	.1185	.0005
.1443	.0947	.0005
.1735	.0773	.0005

System: sodium dihydrogen phosphate anhydrous + water + 1-butyl-3-methylimidazolium tetrafluoroborate; phases: Liquid mixture 1, Liquid mixture 2
Fixed: Pressure, kPa = 101
Property: Mass fraction of 1-butyl-3-methylimidazolium tetrafluoroborate (Liquid mixture 1); method: Titration method
Temperature, K	Mass fraction of sodium dihydrogen phosphate anhydrous	Mass fraction of 1-butyl-3-methylimidazolium tetrafluoroborate	uncertainty
313.15	.0085	.6966	.0005
313.15	.0122	.6095	.0005
313.15	.0178	.5464	.0005
313.15	.0246	.5211	.0005
313.15	.0389	.4068	.0005
313.15	.0425	.3771	.0005
313.15	.0551	.3043	.0005
313.15	.0558	.2904	.0005
313.15	.0629	.2546	.0005
313.15	.0658	.2441	.0005
313.15	.0785	.2043	.0005
313.15	.1046	.1541	.0005
313.15	.1312	.1259	.0005
313.15	.1741	.0897	.0005
313.15	.2012	.073	.0005
333.15	.0119	.6312	.0005
333.15	.0297	.4787	.0005
333.15	.0452	.4196	.0005
333.15	.0514	.3824	.0005
333.15	.0628	.3369	.0005
333.15	.0688	.3251	.0005
333.15	.0803	.2816	.0005
333.15	.0832	.2658	.0005
333.15	.0967	.244	.0005
333.15	.1081	.2202	.0005
333.15	.1276	.1695	.0005
333.15	.1431	.1448	.0005
333.15	.1518	.1412	.0005
333.15	.1658	.1193	.0005
333.15	.1732	.1098	.0005
333.15	.1942	.1	.0005
333.15	.1872	.0966	.0005
333.15	.2016	.0918	.0005

System: sodium dihydrogen phosphate anhydrous + water + 1-butyl-3-methylimidazolium tetrafluoroborate; phases: Liquid mixture 2, Liquid mixture 1
Fixed: Temperature, K = 298.15
Fixed: Pressure, kPa = 101
Property: Mass fraction of 1-butyl-3-methylimidazolium tetrafluoroborate (Liquid mixture 2); method: Titration method
Property: Mass fraction of 1-butyl-3-methylimidazolium tetrafluoroborate (Liquid mixture 1); method: Titration method
Property: Mass fraction of sodium dihydrogen phosphate anhydrous (Liquid mixture 1); method: Titration method
Mass fraction of sodium dihydrogen phosphate anhydrous	Mass fraction of 1-butyl-3-methylimidazolium tetrafluoroborate	uncertainty	Mass fraction of 1-butyl-3-methylimidazolium tetrafluoroborate	uncertainty	Mass fraction of sodium dihydrogen phosphate anhydrous	uncertainty
.2728	.033	.0005	.6368	.0005	.005	.0005
.3131	.0143	.0005	.6423	.0005	.0047	.0005
.3405	.0016	.0005	.6498	.0005	.0043	.0005

System: sodium chloride + water + 1-butyl-3-methylimidazolium tetrafluoroborate; phases: Liquid mixture 1, Liquid mixture 2
Fixed: Pressure, kPa = 101
Fixed: Temperature, K = 298.15
Property: Mass fraction of 1-butyl-3-methylimidazolium tetrafluoroborate (Liquid mixture 1); method: Titration method
Mass fraction of sodium chloride	Mass fraction of 1-butyl-3-methylimidazolium tetrafluoroborate	uncertainty
.0255	.7298	.0005
.0279	.6836	.0005
.0282	.6524	.0005
.0303	.6338	.0005
.0316	.6125	.0005
.0397	.5376	.0005
.0478	.4807	.0005
.0542	.4501	.0005
.0654	.3681	.0005
.0711	.3391	.0005
.0802	.3151	.0005
.0863	.2907	.0005
.0937	.2711	.0005
.0989	.2543	.0005
