Measured thermophysical data. Solubility of Carbon Dioxide in Aqueous Solutions of N-Methyldiethanolamine  and Piperazine in the High Gas Loading Region
Source: J. Chem. Eng. Data, 2009, 10.1021/je900083k
Compound 1: N-methyldiethanolamine, C5H13NO2, purity 98.5%
Compound 2: piperazine, C4H10N2, purity 99%
Compound 3: carbon dioxide, CO2
Compound 4: water, H2O

System: N-methyldiethanolamine + piperazine + water; phases: Liquid
Fixed: Pressure, kPa = 101
Property: Mass density, kg/m3 (Liquid); method: Vibrating tube method
Molality, mol/kg of N-methyldiethanolamine	Molality, mol/kg of piperazine	Temperature, K	Mass density, kg/m3	uncertainty
2.227	1.966	289	1026	
2.227	1.966	291	1025	
2.227	1.966	293	1024	
2.227	1.966	295.1	1023	
2.227	1.966	297.1	1023	
2.227	1.966	299.1	1022	
2.227	1.966	301.1	1021	
2.227	1.966	303.1	1020	
4.213	2.01	289	1037	
4.213	2.01	291	1036	
4.213	2.01	293	1035	
4.213	2.01	295.1	1034	
4.213	2.01	297.1	1033	
4.213	2.01	299.1	1032	
4.213	2.01	301.1	1031	
4.213	2.01	303.1	1030	
7.831	2.072	289	1049	
7.831	2.072	291	1047	
7.831	2.072	293	1046	
7.831	2.072	295.1	1045	
7.831	2.072	297.1	1044	
7.831	2.072	299.1	1042	
7.831	2.072	301.1	1041	
7.831	2.072	303.1	1040	
