Measured thermophysical data. Solubility of Fumaric Acid in Propan-2-ol, Ethanol, Acetone, Propan-1-ol, and Water
Source: J. Chem. Eng. Data, 2009, 10.1021/je9001637
Compound 1: fumaric acid, C4H4O4, purity 99%
Compound 2: 2-propanol, C3H8O
Compound 3: ethanol, C2H6O
Compound 4: propanone, C3H6O
Compound 5: 1-propanol, C3H8O

System: 2-propanol + fumaric acid; phases: Liquid, Crystal
Fixed: Pressure, kPa = 101
Property: Mole fraction of fumaric acid (Liquid); method: Titration method
Temperature, K	Mole fraction of fumaric acid	uncertainty
279	.01092	.000546
285	.01378	.000689
291	.01685	.0008425
297	.02023	.0010115
303	.02359	.0011795
309	.02725	.0013625
315	.03097	.0015485
321	.03492	.001746
327	.0391	.001955
333	.04348	.002174
342	.05379	.0026895
351	.06562	.003281

System: ethanol + fumaric acid; phases: Liquid, Crystal
Fixed: Pressure, kPa = 101
Property: Mole fraction of fumaric acid (Liquid); method: Titration method
Temperature, K	Mole fraction of fumaric acid	uncertainty
279	.01256	.000628
285	.01403	.0007015
291	.01568	.000784
297	.01783	.0008915
303	.0205	.001025
309	.02328	.001164
315	.02666	.001333
321	.03049	.0015245
327	.03441	.0017205
333	.03831	.0019155
343	.04343	.0021715

System: propanone + fumaric acid; phases: Liquid, Crystal
Fixed: Pressure, kPa = 101
Property: Mole fraction of fumaric acid (Liquid); method: Titration method
Temperature, K	Mole fraction of fumaric acid	uncertainty
279	.003437	.00017185
285	.004191	.00020955
291	.004985	.00024925
297	.005831	.00029155
303	.00673	.0003365
309	.007677	.00038385
315	.008671	.00043355
321	.009722	.0004861
327	.01083	.0005415
333	.012	.0006

System: 1-propanol + fumaric acid; phases: Liquid, Crystal
Fixed: Pressure, kPa = 101
Property: Mole fraction of fumaric acid (Liquid); method: Titration method
Temperature, K	Mole fraction of fumaric acid	uncertainty
279	.00847	.0004235
285	.01025	.0005125
291	.01217	.0006085
297	.01425	.0007125
303	.01648	.000824
309	.01891	.0009455
315	.02152	.001076
321	.02433	.0012165
327	.02736	.001368
333	.03062	.001531
339	.03546	.001773
345	.03984	.001992
351.8	.04859	.0024295
