Measured thermophysical data. Isothermal Vapor-Liquid Equilibrium at 333.15 K and Excess Molar Volumes, Refractive Indices, and Excess Molar Enthalpies at 303.15 K for the Binary and Ternary Mixtures of Di-isopropyl Ether, Ethanol, and 2,2,4-Trimethylpentane
Source: J. Chem. Eng. Data, 2009, 10.1021/je9001416
Compound 1: isopropyl ether, C6H14O
Compound 2: ethanol, C2H6O
Compound 3: 2,2,4-trimethylpentane, C8H18

System: ethanol + isopropyl ether; phases: Gas, Liquid
Fixed: Temperature, K = 333.15
Property: Mole fraction of isopropyl ether (Gas); method: Chromatography
Mole fraction of isopropyl ether	Mole fraction of isopropyl ether	uncertainty
.0201	.0995	.0001
.0398	.1534	.0001
.0596	.2098	.0001
.0795	.2604	.0001
.1194	.3404	.0001
.1694	.3934	.0001
.229	.4571	.0001
.2891	.4849	.0001
.3492	.5223	.0001
.4095	.5568	.0001
.469	.5918	.0001
.5292	.6298	.0001
.5889	.6653	.0001
.6498	.6994	.0001
.7099	.7328	.0001
.7694	.7669	.0001
.8301	.8072	.0001
.8804	.8491	.0001
.9196	.8841	.0001
.9398	.909	.0001
.9606	.9361	.0001
.9811	.9621	.0001

System: ethanol + isopropyl ether; phases: Liquid
Fixed: Temperature, K = 303.15
Fixed: Pressure, kPa = 101
Property: Mass density, kg/m3 (Liquid); method: Vibrating tube method
Mole fraction of isopropyl ether	Mass density, kg/m3	uncertainty
0	781.99	.005
.0495	776.55	.005
.0994	771.45	.005
.2002	762.41	.005
.2997	754.04	.005
.4003	746.63	.005
.5012	740.01	.005
.6012	734.1	.005
.7018	728.75	.005
.804	723.6	.005
.8996	718.96	.005
.9505	716.37	.005
1	713.78	.005

System: ethanol + isopropyl ether; phases: Liquid
Fixed: Temperature, K = 303.15
Fixed: Pressure, kPa = 101
Property: Refractive index (Na D-line) (Liquid); method: Standard Abbe refractometry
Mole fraction of isopropyl ether	Refractive index (Na D-line)	uncertainty
0	1.35733	.00005
.0495	1.35854	.00005
.0994	1.35989	.00005
.2002	1.36147	.00005
.2997	1.36232	.00005
.4003	1.36325	.00005
.5012	1.36309	.00005
.6012	1.36285	.00005
.7018	1.36225	.00005
.804	1.36246	.00005
.8996	1.36213	.00005
.9505	1.36303	.00005
1	1.36425	.00005

System: ethanol + isopropyl ether; phases: Liquid
Fixed: Pressure, kPa = 101
Fixed: Temperature, K = 303.15
Property: Excess molar enthalpy (molar enthalpy of mixing), kJ/mol (Liquid); method: Flow calorimetry
Mole fraction of isopropyl ether	Excess molar enthalpy (molar enthalpy of mixing), kJ/mol	uncertainty
.0212	.010048	.00010048
.0437	.021906	.00021906
.0676	.037741	.00037741
.0931	.057098	.00057098
.1204	.079274	.00079274
.1497	.105006	.00105006
.1811	.134259	.00134259
.215	.16678	.0016678
.2516	.201984	.00201984
.2912	.240109	.00240109
.3343	.276573	.00276573
.3813	.318279	.00318279
.4328	.359941	.00359941
.4894	.400777	.00400777
.5521	.43413	.0043413
.6217	.460345	.00460345
.6995	.470996	.00470996
.7871	.441139	.00441139
.8864	.327487	.00327487

System: isopropyl ether + 2,2,4-trimethylpentane; phases: Gas, Liquid
Fixed: Temperature, K = 333.15
Property: Mole fraction of isopropyl ether (Gas); method: Chromatography
Mole fraction of isopropyl ether	Mole fraction of isopropyl ether	uncertainty
.0202	.0669	.0001
.0396	.1232	.0001
.06	.1718	.0001
.0793	.2093	.0001
.1188	.2899	.0001
.1692	.378	.0001
.2292	.4634	.0001
.2893	.5366	.0001
.349	.6058	.0001
.4093	.652	.0001
.469	.7002	.0001
.5292	.7434	.0001
.5887	.7814	.0001
.65	.8246	.0001
.709	.8596	.0001
.7697	.8856	.0001
.8297	.9203	.0001
.8804	.9445	.0001
.9197	.9625	.0001
.9392	.9724	.0001
.9592	.9817	.0001
.9802	.9906	.0001

System: isopropyl ether + 2,2,4-trimethylpentane; phases: Liquid
Fixed: Temperature, K = 303.15
Fixed: Pressure, kPa = 101
Property: Mass density, kg/m3 (Liquid); method: Vibrating tube method
Mole fraction of isopropyl ether	Mass density, kg/m3	uncertainty
0	684.1	.005
.0614	685.5	.005
.1204	686.92	.005
.2365	689.82	.005
.3486	692.78	.005
.4525	695.6	.005
.5542	698.54	.005
.6497	701.45	.005
.7437	704.5	.005
.8322	707.61	.005
.9187	710.76	.005
.9598	712.33	.005
1	713.78	.005

System: isopropyl ether + 2,2,4-trimethylpentane; phases: Liquid
Fixed: Temperature, K = 303.15
Fixed: Pressure, kPa = 101
Property: Refractive index (Na D-line) (Liquid); method: Standard Abbe refractometry
Mole fraction of isopropyl ether	Refractive index (Na D-line)	uncertainty
0	1.3865	.00005
.0614	1.38505	.00005
.1204	1.38372	.00005
.2365	1.38115	.00005
.3486	1.37862	.00005
.4525	1.37619	.00005
.5542	1.37383	.00005
.6497	1.37172	.00005
.7437	1.36963	.00005
.8322	1.36774	.00005
.9187	1.36596	.00005
.9598	1.36512	.00005
1	1.36425	.00005

System: isopropyl ether + 2,2,4-trimethylpentane; phases: Liquid
Fixed: Pressure, kPa = 101
Fixed: Temperature, K = 303.15
Property: Excess molar enthalpy (molar enthalpy of mixing), kJ/mol (Liquid); method: Flow calorimetry
Mole fraction of isopropyl ether	Excess molar enthalpy (molar enthalpy of mixing), kJ/mol	uncertainty
.0577	.038985	.00038985
.1144	.074367	.00074367
.1702	.105905	.00105905
.2252	.132161	.00132161
.2793	.154011	.00154011
.3326	.171411	.00171411
.385	.184701	.00184701
.4367	.192864	.00192864
.4875	.197047	.00197047
.5376	.197589	.00197589
.587	.193209	.00193209
.6356	.185485	.00185485
.6835	.173749	.00173749
.7307	.158983	.00158983
.7772	.141119	.00141119
.823	.118744	.00118744
.8682	.093364	.00093364
.9128	.065084	.00065084
.9567	.033243	.00033243

System: ethanol + 2,2,4-trimethylpentane; phases: Liquid
Fixed: Temperature, K = 303.15
Fixed: Pressure, kPa = 101
Property: Mass density, kg/m3 (Liquid); method: Vibrating tube method
Mole fraction of ethanol	Mass density, kg/m3	uncertainty
0	684.1	.005
.061	685.45	.005
.1201	687.2	.005
.2363	691.81	.005
.3467	697.27	.005
.453	703.74	.005
.5525	711.14	.005
.6502	720.18	.005
.7431	730.88	.005
.8322	744.05	.005
.9176	760.58	.005
.9599	770.78	.005
1	781.99	.005

System: ethanol + 2,2,4-trimethylpentane; phases: Liquid
Fixed: Temperature, K = 303.15
Fixed: Pressure, kPa = 101
Property: Refractive index (Na D-line) (Liquid); method: Standard Abbe refractometry
Mole fraction of ethanol	Refractive index (Na D-line)	uncertainty
0	1.3865	.00005
.0498	1.38633	.00005
.0992	1.38632	.00005
.1997	1.38482	.00005
.2998	1.38404	.00005
.4005	1.38109	.00005
.499	1.37746	.00005
.5999	1.37322	.00005
.7	1.36851	.00005
.8001	1.36386	.00005
.8999	1.36145	.00005
.9508	1.35789	.00005
1	1.35733	.00005

System: ethanol + isopropyl ether + 2,2,4-trimethylpentane; phases: Liquid
Fixed: Pressure, kPa = 101
Fixed: Temperature, K = 303.15
Property: Mass density, kg/m3 (Liquid); method: Vibrating tube method
Mole fraction of isopropyl ether	Mole fraction of ethanol	Mass density, kg/m3	uncertainty
.0546	.4923	713.97	.005
.0454	.4009	706.26	.005
.0345	.3153	699.97	.005
.0253	.2313	694.82	.005
.0162	.1508	690.27	.005
.1641	.3829	710.73	.005
.1337	.3125	704.27	.005
.1047	.2463	699.03	.005
.0766	.1809	694.11	.005
.0247	.0567	686.78	.005
.2752	.2727	707.93	.005
.2232	.2231	702.51	.005
.175	.1757	697.59	.005
.1283	.1292	693.54	.005
.084	.0835	689.74	.005
.3126	.1331	700.48	.005
.2447	.1044	696.33	.005
.1794	.0768	692.74	.005
.0578	.0255	686.44	.005
.3145	.0357	695.04	.005
.231	.0258	691.96	.005
.1505	.0173	689.1	.005
.037	.5526	718.13	.005
.0284	.6571	728.12	.005
.0189	.7669	740.94	.005
.1383	.4616	716.1	.005
.1125	.5627	723.78	.005
.0859	.6663	733.25	.005
.0298	.8852	760.98	.005
.2797	.3732	715.78	.005
.2357	.4715	722.18	.005
.1908	.5731	729.81	.005
.1448	.6755	739	.005
.0978	.7811	749.98	.005
.4028	.3832	722.84	.005
.3379	.4823	728.95	.005
.2722	.5835	736.31	.005
.2059	.6848	744.75	.005
.0694	.8938	766.89	.005
.5331	.3939	730.27	.005
.4448	.4939	736.2	.005
.3566	.5941	743	.005
.2678	.6949	750.64	.005
.1789	.7961	759.65	.005
.354	.0541	696.92	.005
.4506	.0447	699.47	.005
.5526	.0365	701.93	.005
.6578	.0276	704.98	.005
.7672	.018	707.7	.005
.3635	.163	704	.005
.462	.1375	705.77	.005
.5636	.1107	707.8	.005
.6662	.0849	709.17	.005
.8861	.0277	712.32	.005
.3734	.2793	712.66	.005
.4725	.235	713.27	.005
.5719	.1911	714.03	.005
.6752	.1448	714.01	.005
.7793	.0999	714.33	.005
.4826	.3379	722.47	.005
.5832	.2724	721.09	.005
.6852	.205	719.38	.005
.8945	.0686	716.11	.005
.5949	.3564	729.31	.005
.6944	.2688	725.7	.005
.7955	.1797	721.76	.005

System: ethanol + isopropyl ether + 2,2,4-trimethylpentane; phases: Liquid
Fixed: Pressure, kPa = 101
Fixed: Temperature, K = 303.15
Property: Refractive index (Na D-line) (Liquid); method: Standard Abbe refractometry
Mole fraction of isopropyl ether	Mole fraction of ethanol	Refractive index (Na D-line)	uncertainty
.0546	.4923	1.37502	.00005
.0454	.4009	1.37785	.00005
.0345	.3153	1.3797	.00005
.0253	.2313	1.38587	.00005
.0162	.1508	1.3859	.00005
.1641	.3829	1.3762	.00005
.1337	.3125	1.3854	.00005
.1047	.2463	1.37966	.00005
.0766	.1809	1.38157	.00005
.0247	.0567	1.38539	.00005
.2752	.2727	1.37482	.00005
.2232	.2231	1.37713	.00005
.175	.1757	1.3794	.00005
.1283	.1292	1.38133	.00005
.084	.0835	1.38398	.00005
.3126	.1331	1.37724	.00005
.2447	.1044	1.37889	.00005
.1794	.0768	1.38098	.00005
.0578	.0255	1.38477	.00005
.3145	.0357	1.37789	.00005
.231	.0258	1.38083	.00005
.1505	.0173	1.38277	.00005
.037	.5526	1.37373	.00005
.0284	.6571	1.37066	.00005
.0189	.7669	1.36669	.00005
.1383	.4616	1.37375	.00005
.1125	.5627	1.37159	.00005
.0859	.6663	1.36891	.00005
.0298	.8852	1.36141	.00005
.2797	.3732	1.37267	.00005
.2357	.4715	1.3712	.00005
.1908	.5731	1.36928	.00005
.1448	.6755	1.36717	.00005
.0978	.7811	1.3644	.00005
.4028	.3832	1.36916	.00005
.3379	.4823	1.36813	.00005
.2722	.5835	1.36692	.00005
.2059	.6848	1.36533	.00005
.0694	.8938	1.3604	.00005
.5331	.3939	1.36561	.00005
.4448	.4939	1.36521	.00005
.3566	.5941	1.36456	.00005
.2678	.6949	1.36347	.00005
.1789	.7961	1.36195	.00005
.354	.0541	1.37709	.00005
.4506	.0447	1.3748	.00005
.5526	.0365	1.37228	.00005
.6578	.0276	1.37043	.00005
.7672	.018	1.36734	.00005
.3635	.163	1.37488	.00005
.462	.1375	1.37354	.00005
.5636	.1107	1.37071	.00005
.6662	.0849	1.36891	.00005
.8861	.0277	1.3646	.00005
.3734	.2793	1.37214	.00005
.4725	.235	1.37114	.00005
.5719	.1911	1.3691	.00005
.6752	.1448	1.36754	.00005
.7793	.0999	1.36583	.00005
.4826	.3379	1.368	.00005
.5832	.2724	1.36717	.00005
.6852	.205	1.36634	.00005
.8945	.0686	1.36356	.00005
.5949	.3564	1.36501	.00005
.6944	.2688	1.36456	.00005
.7955	.1797	1.36396	.00005

System: ethanol + isopropyl ether + 2,2,4-trimethylpentane; phases: Gas, Liquid
Fixed: Temperature, K = 333.15
Property: Mole fraction of isopropyl ether (Gas); method: Chromatography
Mole fraction of isopropyl ether	Mole fraction of ethanol	Mole fraction of isopropyl ether	uncertainty
.0196	.8002	.0358	.0001
.0202	.179	.023	.0001
.0299	.6999	.0501	.0001
.0303	.0722	.0396	.0001
.0305	.2726	.0351	.0001
.0396	.3627	.0606	.0001
.0398	.5995	.0582	.0001
.0496	.4504	.048	.0001
.0599	.5413	.0831	.0001
.07	.8995	.181	.0001
.0702	.0296	.1131	.0001
.0899	.2108	.1035	.0001
.1	.0994	.1255	.0001
.1196	.6001	.1621	.0001
.1203	.2797	.1355	.0001
.1495	.1505	.175	.0001
.1498	.5003	.1861	.0001
.1792	.4198	.2075	.0001
.1796	.0228	.2828	.0001
.1802	.7996	.3948	.0001
.1998	.2006	.2238	.0001
.2094	.089	.256	.0001
.21	.6998	.3298	.0001
.2695	.7009	.4087	.0001
.2697	.0297	.3826	.0001
.28	.5997	.3713	.0001
.2801	.1194	.3208	.0001
.3492	.151	.3825	.0001
.3502	.5001	.4215	.0001
.359	.0417	.46	.0001
.3596	.5997	.465	.0001
.3991	.0618	.479	.0001
.3998	.1807	.4254	.0001
.4009	.299	.4266	.0001
.42	.3999	.4628	.0001
.4508	.4991	.5272	.0001
.4996	.049	.5888	.0001
.4999	.2503	.5162	.0001
.5006	.15	.5228	.0001
.251	.2491	.2746	.0001
.5392	.4007	.5859	.0001
.5986	.2013	.5979	.0001
.5988	.1216	.6129	.0001
.6007	.0389	.681	.0001
.6982	.091	.7082	.0001
.6995	.0299	.7695	.0001
.7016	.1483	.6854	.0001
.8002	.1004	.7757	.0001
.8007	.0188	.8527	.0001
.9018	.0279	.9033	.0001

System: ethanol + isopropyl ether + 2,2,4-trimethylpentane; phases: Gas, Liquid
Fixed: Temperature, K = 333.15
Property: Mole fraction of ethanol (Gas); method: Chromatography
Mole fraction of isopropyl ether	Mole fraction of ethanol	Mole fraction of ethanol	uncertainty
.0599	.5413	.5781	.0001
.0496	.4504	.5482	.0001
.0396	.3627	.5723	.0001
.0305	.2726	.5373	.0001
.0202	.179	.5062	.0001
.1792	.4198	.5088	.0001
.1203	.2797	.4972	.0001
.0899	.2108	.4893	.0001
.0303	.0722	.4273	.0001
.251	.2491	.4285	.0001
.1998	.2006	.4283	.0001
.1495	.1505	.4267	.0001
.1	.0994	.4143	.0001
.3492	.151	.3385	.0001
.2801	.1194	.3458	.0001
.2094	.089	.3442	.0001
.0702	.0296	.2841	.0001
.359	.0417	.1899	.0001
.2697	.0297	.1835	.0001
.1796	.0228	.1902	.0001
.0398	.5995	.5984	.0001
.0299	.6999	.6225	.0001
.0196	.8002	.6861	.0001
.1498	.5003	.5332	.0001
.1196	.6001	.5651	.0001
.42	.3999	.4063	.0001
.3502	.5001	.4507	.0001
.28	.5997	.5059	.0001
.21	.6998	.5534	.0001
.07	.8995	.7372	.0001
.5392	.4007	.3687	.0001
.4508	.4991	.4274	.0001
.3596	.5997	.4925	.0001
.2695	.7009	.5523	.0001
.1802	.7996	.564	.0001
.3991	.0618	.2385	.0001
.4996	.049	.1771	.0001
.6007	.0389	.1166	.0001
.6995	.0299	.0789	.0001
.8007	.0188	.0458	.0001
.3998	.1807	.3388	.0001
.5006	.15	.2843	.0001
.5988	.1216	.2333	.0001
.6982	.091	.1767	.0001
.9018	.0279	.0583	.0001
.4009	.299	.3855	.0001
.4999	.2503	.33	.0001
.5986	.2013	.2858	.0001
.7016	.1483	.2302	.0001
.8002	.1004	.1706	.0001
