Measured thermophysical data. Density of Crystalline Alkali Chlorides and Their Eutectic Mixtures Near the Melting Point
Source: J. Chem. Eng. Data, 2010, 10.1021/je901030f
Compound 1: sodium chloride, ClNa
Compound 2: potassium chloride, ClK
Compound 3: rubidium chloride (RbCl), ClRb
Compound 4: cesium chloride, ClCs

System: sodium chloride; phases: Crystal
Fixed: Pressure, kPa = 101.325
Property: Mass density, kg/m3 (Crystal); method: Buoyancy - hydrostatic balance with magnetic suspension - one sinker
Temperature, K	Mass density, kg/m3	uncertainty
1013	1931.2	9.656
1023	1905.8	9.529
1033	1890.4	9.452
1043	1888.3	9.4415
1053	1882	9.41
1063	1884.9	9.4245
1073	1889.8	9.449

System: potassium chloride; phases: Crystal
Fixed: Pressure, kPa = 101.325
Property: Mass density, kg/m3 (Crystal); method: Buoyancy - hydrostatic balance with magnetic suspension - one sinker
Temperature, K	Mass density, kg/m3	uncertainty
973	1805.8	9.029
983	1803.6	9.018
993	1800.6	9.003
1003	1797.1	8.9855
1013	1794.5	8.9725
1023	1793.6	8.968
1033	1793.6	8.968
1043	1796.6	8.983

System: rubidium chloride (RbCl); phases: Crystal
Fixed: Pressure, kPa = 101.325
Property: Mass density, kg/m3 (Crystal); method: Buoyancy - hydrostatic balance with magnetic suspension - one sinker
Temperature, K	Mass density, kg/m3	uncertainty
903	2578.4	12.892
913	2573.5	12.8675
923	2567.8	12.839
933	2562.2	12.811
943	2556.1	12.7805
953	2551.7	12.7585
963	2548.6	12.743
973	2547.6	12.738
983	2550.3	12.7515
993	2556.4	12.782

System: cesium chloride; phases: Crystal
Fixed: Pressure, kPa = 101.325
Property: Mass density, kg/m3 (Crystal); method: Buoyancy - hydrostatic balance with magnetic suspension - one sinker
Temperature, K	Mass density, kg/m3	uncertainty
843	3074.5	15.3725
853	3067.6	15.338
863	3060.2	15.301
873	3052.4	15.262
883	3046	15.23
893	3040.9	15.2045
903	3039.5	15.1975
913	3041.8	15.209
