Measured thermophysical data. Hydrophobic-Hydrophilic Solvation of Variously Substituted N-Alkylureas in Aqueous Solution: A Calorimetric Study at a Temperature of 298.15 K
Source: J. Chem. Eng. Data, 2009, 10.1021/je9003405
Compound 1: 1,1-dimethylurea, C3H8N2O
Compound 2: 1,1-diethylurea, C5H12N2O
Compound 3: 1,3-dimethylurea, C3H8N2O
Compound 4: 1,3-diethylurea, C5H12N2O
Compound 5: N,N,N',N'-tetramethylurea, C5H12N2O
Compound 6: N,N'-dimethyl-N-methylurea, C4H10N2O
Compound 7: urea, tetraethyl-, C9H20N2O
Compound 8: water, H2O

System: 1,1-dimethylurea + water; phases: Liquid
Fixed: Pressure, kPa = 101
Property: Molar enthalpy of solution, kJ/mol (Liquid); method: Flow calorimetry
Temperature, K	Molality, mol/kg of 1,1-dimethylurea	Molar enthalpy of solution, kJ/mol	uncertainty
296.84	1.269	12	
296.84	1.396	11.77	
296.84	1.946	11.46	
296.84	2.315	11.71	
296.84	2.811	11.8	
296.84	2.847	11.88	
296.84	3.077	11.8	
306.89	.327	12.96	
306.89	.791	12.82	
306.89	.865	12.67	
306.89	1.033	12.82	
316.95	.414	13.76	
316.95	.716	13.72	
316.95	.893	13.65	
316.95	1.043	13.71	

System: 1,1-diethylurea + water; phases: Liquid
Fixed: Pressure, kPa = 101
Property: Molar enthalpy of solution, kJ/mol (Liquid); method: Flow calorimetry
Temperature, K	Molality, mol/kg of 1,1-diethylurea	Molar enthalpy of solution, kJ/mol	uncertainty
296.84	1.474	2.95	
296.84	1.791	2.51	
296.84	1.92	2.82	
296.84	1.939	2.44	
296.84	1.989	2.83	
296.84	2.321	2.84	
306.89	.217	4.68	
306.89	.325	4.62	
306.89	.619	4.49	
306.89	.771	4.42	
316.95	.694	7.33	
316.95	.706	7.27	
316.95	.758	7.32	
316.95	.961	7.3	
316.95	1.058	7.17	

System: 1,3-dimethylurea + water; phases: Liquid
Fixed: Pressure, kPa = 101
Property: Molar enthalpy of solution, kJ/mol (Liquid); method: Flow calorimetry
Temperature, K	Molality, mol/kg of 1,3-dimethylurea	Molar enthalpy of solution, kJ/mol	uncertainty
296.84	1	.75	
296.84	1.24	.63	
296.84	1.246	.69	
296.84	1.559	.79	
296.84	1.746	.61	
306.89	1.099	2.29	
306.89	1.142	2.25	
306.89	1.389	2.26	
306.89	1.579	2.19	
306.89	1.773	2.17	
316.95	.771	3.39	
316.95	1.085	3.4	
316.95	1.299	3.3	
316.95	1.513	3.29	

System: 1,3-diethylurea + water; phases: Liquid
Fixed: Pressure, kPa = 101
Property: Molar enthalpy of solution, kJ/mol (Liquid); method: Flow calorimetry
Temperature, K	Molality, mol/kg of 1,3-diethylurea	Molar enthalpy of solution, kJ/mol	uncertainty
296.84	.61	.19	
296.84	.738	.14	
296.84	.987	.18	
296.84	1.134	.12	
306.89	.529	2.68	
306.89	.584	2.7	
306.89	.94	2.83	
306.89	1.372	2.19	
316.95	.519	5.12	
316.95	.717	4.97	
316.95	.768	5.18	
316.95	1.078	5.23	

System: N,N,N',N'-tetramethylurea + water; phases: Liquid
Fixed: Pressure, kPa = 101
Property: Molar enthalpy of solution, kJ/mol (Liquid); method: Flow calorimetry
Temperature, K	Molality, mol/kg of N,N,N',N'-tetramethylurea	Molar enthalpy of solution, kJ/mol	uncertainty
296.84	.65	-24.24	
296.84	.787	-24.3	
296.84	.858	-23.79	
296.84	.999	-23.94	
296.84	1.512	-23.84	
306.89	1.121	-23.21	
306.89	1.567	-22.2	
306.89	1.732	-23.27	
306.89	1.834	-23.23	
316.95	.699	-21.19	
316.95	1.006	-21.29	
316.95	1.01	-20.69	
316.95	1.442	-21.63	
316.95	1.657	-20.96	

System: N,N'-dimethyl-N-methylurea + water; phases: Liquid
Fixed: Pressure, kPa = 101
Property: Molar enthalpy of solution, kJ/mol (Liquid); method: Flow calorimetry
Temperature, K	Molality, mol/kg of N,N'-dimethyl-N-methylurea	Molar enthalpy of solution, kJ/mol	uncertainty
296.84	1.018	-1.76	
296.84	1.152	-1.77	
296.84	1.174	-1.77	
296.84	1.714	-1.79	
296.84	1.73	-1.83	
306.89	1.219	.083	
306.89	1.457	.082	
306.89	1.599	.086	
306.89	1.632	.079	
316.95	.21	1.53	
316.95	.275	1.58	
316.95	1.414	1.51	
316.95	1.466	1.46	
316.95	1.7	1.57	

System: urea, tetraethyl- + water; phases: Liquid
Fixed: Pressure, kPa = 101
Property: Molar enthalpy of solution, kJ/mol (Liquid); method: Flow calorimetry
Temperature, K	Molality, mol/kg of urea, tetraethyl-	Molar enthalpy of solution, kJ/mol	uncertainty
296.84	.723	-27.59	
296.84	.776	-27.48	
296.84	1.029	-27.74	
296.84	1.035	-27.74	
306.89	.406	-22.38	
306.89	.657	-22.07	
306.89	.826	-22.19	
306.89	.841	-21.64	
316.95	.473	-18.32	
316.95	.501	-18.25	
316.95	.922	-18.29	
316.95	.931	-18.09	
316.95	.951	-18	
