Measured thermophysical data. Simultaneous Measurements on Helium and Nitrogen with a Newly Designed Viscometer-Densimeter over a Wide Range of Temperature and Pressure
Source: J. Chem. Eng. Data, 2009, 10.1021/je900131q
Compound 1: helium, He
Compound 2: nitrogen, N2

System: helium; phases: Fluid (supercritical or subcritical phases)
Property: Mass density, kg/m3 (Fluid (supercritical or subcritical phases)); method: Buoyancy - hydrostatic balance with magnetic suspension - one sinker
Temperature, K	Pressure, kPa	Mass density, kg/m3	uncertainty
293.279	121.33	.19895	.00019895
293.277	244.14	.39719	.00039719
293.281	366.7	.59542	.00059542
293.269	489.97	.79365	.00079365
293.269	613.45	.99623	.00099623
293.243	1220.6	1.9766	.0019766
293.257	1827.3	2.9512	.0029512
293.144	2446	3.967	.003967
293.166	3742.6	5.9981	.0059981
293.15	4995.9	7.9672	.0079672
293.166	6273.4	9.9566	.0099566
293.17	6273.7	9.9551	.0099551
293.158	7587	11.953	.011953
293.182	8870.2	13.894	.013894
293.151	10227	15.922	.015922
293.177	12237	18.892	.018892
293.15	14320	21.908	.021908
293.187	16436	24.919	.024919
293.172	18562	27.894	.027894
293.198	20757	30.907	.030907
293.149	22973	33.811	.033811
293.162	25225	36.795	.036795
293.129	27527	39.805	.039805
293.164	30150	43.152	.043152
293.21	30175	43.241	.043241
293.213	30175	43.243	.043243

System: helium; phases: Fluid (supercritical or subcritical phases)
Property: Mass density, kg/m3 (Fluid (supercritical or subcritical phases)); method: Buoyancy - hydrostatic balance with magnetic suspension - one sinker
Temperature, K	Pressure, kPa	Mass density, kg/m3	uncertainty
293.277	121.3	.19968	.00019968
293.278	244.19	.39791	.00039791
293.277	366.66	.59687	.00059687
293.273	490.02	.79727	.00079727
293.257	613.3	.99551	.00099551
293.253	1220.7	1.978	.001978
293.251	1827.1	2.949	.002949
293.155	2466.2	3.9699	.0039699
293.177	2466.6	3.9663	.0039663
293.157	3742.3	5.9974	.0059974
293.159	4996.2	7.965	.007965
293.162	6273.2	9.9551	.0099551
293.168	7587.3	11.953	.011953
293.173	8869.8	13.892	.013892
293.175	10228	15.928	.015928
293.173	12237	18.892	.018892
293.162	14320	21.907	.021907
293.182	16436	24.919	.024919
293.181	18563	27.897	.027897
293.191	18564	27.893	.027893
293.196	20756	30.909	.030909
293.16	22974	33.812	.033812
293.183	22975	33.81	.03381
293.153	25224	36.797	.036797
293.141	27529	39.804	.039804
293.161	30149	43.152	.043152
293.208	30174	43.24	.04324
293.218	30175	43.244	.043244

System: helium; phases: Fluid (supercritical or subcritical phases)
Property: Mass density, kg/m3 (Fluid (supercritical or subcritical phases)); method: Buoyancy - hydrostatic balance with magnetic suspension - one sinker
Temperature, K	Pressure, kPa	Mass density, kg/m3	uncertainty
293.15	122.25	.19885	.00019885
293.151	122.25	.19885	.00019885
293.156	245.73	.40445	.00040445
293.155	245.73	.40368	.00040368
293.15	366.53	.60087	.00060087
293.15	366.51	.59858	.00059858
293.155	483	.79119	.00079119
293.154	482.99	.79042	.00079042
293.158	613.17	1.0037	.0010037
293.158	613.18	1.0029	.0010029
293.151	1219.9	1.9866	.0019866
293.151	1219.9	1.9866	.0019866
293.151	1827.6	2.9711	.0029711
293.151	1827.5	2.9695	.0029695
293.157	2447.5	3.9693	.0039693
293.157	2447.5	3.9647	.0039647
293.15	3714.3	5.9857	.0059857
293.15	3714.2	5.9819	.0059819
293.151	4978.6	7.974	.007974
293.151	4978.7	7.9747	.0079747
293.16	6263.9	9.9737	.0099737
293.16	6263.9	9.9745	.0099745
293.15	7564.2	11.972	.011972
293.149	7564.1	11.972	.011972
293.152	8842.9	13.917	.013917
293.152	8842.9	13.915	.013915
293.167	10198	15.951	.015951
293.172	10198	15.945	.015945
293.149	12231	18.954	.018954
293.148	12231	18.954	.018954
293.147	14296	21.953	.021953
293.147	14295	21.949	.021949
293.146	16374	24.913	.024913
293.145	16374	24.912	.024912
293.149	18460	27.833	.027833
293.149	18460	27.831	.027831
293.147	20744	30.973	.030973
293.145	20744	30.969	.030969
293.152	22883	33.861	.033861
293.148	22880	33.856	.033856
293.152	25329	37.097	.037097
293.152	25329	37.099	.037099

System: helium; phases: Fluid (supercritical or subcritical phases)
Property: Viscosity, Pa*s (Fluid (supercritical or subcritical phases)); method: Vibrating wire viscometer
Temperature, K	Pressure, kPa	Viscosity, Pa*s	uncertainty
293.279	121.33	.000019548	.000000058644
293.277	244.14	.000019577	.000000058731
293.281	366.7	.000019592	.000000058776
293.269	489.97	.000019595	.000000058785
293.269	613.45	.0000196	.0000000588
293.243	1220.6	.000019594	.000000058782
293.257	1827.3	.000019594	.000000058782
293.144	2446	.000019585	.000000058755
293.166	3742.6	.000019581	.000000058743
293.15	4995.9	.000019568	.000000058704
293.166	6273.4	.000019569	.000000058707
293.17	6273.7	.000019572	.000000058716
293.158	7587	.000019573	.000000058719
293.182	8870.2	.000019573	.000000058719
293.151	10227	.000019568	.000000058704
293.177	12237	.000019577	.000000058731
293.15	14320	.000019589	.000000058767
293.187	16436	.000019612	.000000058836
293.172	18562	.000019624	.000000058872
293.198	20757	.000019657	.000000058971
293.149	22973	.000019675	.000000059025
293.162	25225	.000019709	.000000059127
293.129	27527	.000019749	.000000059247
293.164	30150	.000019799	.000000059397
293.21	30175	.000019793	.000000059379
293.213	30175	.000019789	.000000059367

System: helium; phases: Fluid (supercritical or subcritical phases)
Property: Viscosity, Pa*s (Fluid (supercritical or subcritical phases)); method: Vibrating wire viscometer
Temperature, K	Pressure, kPa	Viscosity, Pa*s	uncertainty
293.277	121.3	.000019544	.000000058632
293.278	244.19	.000019581	.000000058743
293.277	366.66	.000019586	.000000058758
293.273	490.02	.000019599	.000000058797
293.257	613.3	.000019597	.000000058791
293.253	1220.7	.000019596	.000000058788
293.251	1827.1	.000019588	.000000058764
293.155	2466.2	.000019585	.000000058755
293.177	2466.6	.000019588	.000000058764
293.157	3742.3	.000019581	.000000058743
293.159	4996.2	.000019571	.000000058713
293.162	6273.2	.000019569	.000000058707
293.168	7587.3	.000019572	.000000058716
293.173	8869.8	.000019567	.000000058701
293.175	10228	.000019579	.000000058737
293.173	12237	.000019584	.000000058752
293.162	14320	.000019591	.000000058773
293.182	16436	.000019608	.000000058824
293.181	18563	.000019638	.000000058914
293.191	18564	.000019631	.000000058893
293.196	20756	.000019653	.000000058959
293.16	22974	.000019675	.000000059025
293.183	22975	.000019681	.000000059043
293.153	25224	.000019721	.000000059163
293.141	27529	.000019747	.000000059241
293.161	30149	.000019797	.000000059391
293.208	30174	.000019797	.000000059391
293.218	30175	.000019801	.000000059403

System: helium; phases: Fluid (supercritical or subcritical phases)
Property: Viscosity, Pa*s (Fluid (supercritical or subcritical phases)); method: Vibrating wire viscometer
Temperature, K	Pressure, kPa	Viscosity, Pa*s	uncertainty
293.15	122.25	.000019541	.000000058623
293.151	122.25	.00001954	.00000005862
293.156	245.73	.000019576	.000000058728
293.155	245.73	.000019576	.000000058728
293.15	366.53	.00001959	.00000005877
293.15	366.51	.000019587	.000000058761
293.155	483	.000019586	.000000058758
293.154	482.99	.000019587	.000000058761
293.158	613.17	.000019591	.000000058773
293.158	613.18	.000019592	.000000058776
293.151	1219.9	.000019586	.000000058758
293.151	1219.9	.000019587	.000000058761
293.151	1827.6	.000019583	.000000058749
293.151	1827.5	.000019583	.000000058749
293.157	2447.5	.000019578	.000000058734
293.157	2447.5	.000019576	.000000058728
293.15	3714.3	.000019564	.000000058692
293.15	3714.2	.000019567	.000000058701
293.151	4978.6	.000019561	.000000058683
293.151	4978.7	.000019561	.000000058683
293.16	6263.9	.000019555	.000000058665
293.16	6263.9	.000019557	.000000058671
293.15	7564.2	.000019553	.000000058659
293.149	7564.1	.000019552	.000000058656
293.152	8842.9	.00001955	.00000005865
293.152	8842.9	.00001955	.00000005865
293.167	10198	.000019553	.000000058659
293.172	10198	.000019553	.000000058659
293.149	12231	.00001956	.00000005868
293.148	12231	.000019556	.000000058668
293.147	14296	.000019569	.000000058707
293.147	14295	.000019574	.000000058722
293.146	16374	.000019581	.000000058743
293.145	16374	.000019584	.000000058752
293.149	18460	.0000196	.0000000588
293.149	18460	.000019602	.000000058806
293.147	20744	.000019625	.000000058875
293.145	20744	.000019623	.000000058869
293.152	22883	.000019656	.000000058968
293.148	22880	.000019655	.000000058965
293.152	25329	.000019688	.000000059064
293.152	25329	.00001969	.00000005907

System: nitrogen; phases: Fluid (supercritical or subcritical phases)
Property: Mass density, kg/m3 (Fluid (supercritical or subcritical phases)); method: Buoyancy - hydrostatic balance with magnetic suspension - one sinker
Temperature, K	Pressure, kPa	Mass density, kg/m3	uncertainty
293.176	69.618	.79943	.00079943
293.164	87.057	1.0006	.0010006
293.163	174.08	2.0011	.0020011
293.153	260.16	2.9879	.0029879
293.17	347.38	3.995	.003995
293.151	434.63	4.9978	.0049978
293.166	434.86	5.0007	.0050007
293.146	867.69	9.9877	.0099877
293.107	1737.3	20.04	.02004
293.125	3456.5	39.956	.039956
293.119	5188.4	60.007	.060007
293.124	6932.1	80.084	.080084
293.114	8684.1	100.062	.100062
293.161	10467	120.042	.120042
293.109	12288	140.108	.140108
293.13	14176	160.309	.160309
293.118	16079	180.081	.180081
293.144	18079	200.088	.200088
293.159	20166	220.109	.220109
293.118	22359	240.226	.240226
293.116	24666	260.273	.260273
293.158	27067	279.903	.279903
293.164	30306	304.692	.304692
293.166	30306	304.691	.304691

System: nitrogen; phases: Fluid (supercritical or subcritical phases)
Property: Mass density, kg/m3 (Fluid (supercritical or subcritical phases)); method: Buoyancy - hydrostatic balance with magnetic suspension - one sinker
Temperature, K	Pressure, kPa	Mass density, kg/m3	uncertainty
293.151	168.17	1.9327	.0019327
293.151	168.17	1.9327	.0019327
293.151	257.04	2.9569	.0029569
293.151	257.03	2.9592	.0029592
293.149	348.6	4.0116	.0040116
293.149	348.59	4.0063	.0040063
293.149	438.44	5.0442	.0050442
293.149	438.45	5.045	.005045
293.152	865.04	9.9572	.0099572
293.152	865.03	9.9564	.0099564
293.145	1741.7	20.088	.020088
293.141	1741.7	20.088	.020088
293.154	3452.3	39.892	.039892
293.154	3452.3	39.892	.039892
293.143	5191.3	60.033	.060033
293.14	5190.1	60.028	.060028
293.156	6917.3	79.905	.079905
293.145	6919.8	79.938	.079938
293.139	6919.9	79.937	.079937
293.159	8683.4	100.03	.10003
293.154	8683.4	100.04	.10004
293.159	10724	122.91	.12291
293.159	10724	122.9	.1229

System: nitrogen; phases: Fluid (supercritical or subcritical phases)
Property: Mass density, kg/m3 (Fluid (supercritical or subcritical phases)); method: Buoyancy - hydrostatic balance with magnetic suspension - one sinker
Temperature, K	Pressure, kPa	Mass density, kg/m3	uncertainty
423.105	100.56	.79993	.00079993
423.107	125.69	.99956	.00099956
423.114	251.45	1.9998	.0019998
423.103	377.31	2.9994	.0029994
423.115	503.26	3.9997	.0039997
423.097	629.65	5.0007	.0050007
423.094	1261.4	9.9995	.0099995
423.086	2533.5	20.001	.020001
423.097	5117.5	40.01	.04001
423.086	7760.6	60.009	.060009
423.106	10470	79.969	.079969
423.108	13263	99.939	.099939
423.119	16171	120.044	.120044
423.089	19172	140.043	.140043
423.098	22320	160.186	.160186
423.09	25569	180.07	.18007
423.158	30225	206.975	.206975
423.151	30228	206.995	.206995
423.154	30257	207.176	.207176

System: nitrogen; phases: Fluid (supercritical or subcritical phases)
Property: Viscosity, Pa*s (Fluid (supercritical or subcritical phases)); method: Vibrating wire viscometer
Temperature, K	Pressure, kPa	Viscosity, Pa*s	uncertainty
293.176	69.618	.000017487	.000000052461
293.164	87.057	.000017504	.000000052512
293.163	174.08	.000017531	.000000052593
293.153	260.16	.000017545	.000000052635
293.17	347.38	.000017559	.000000052677
293.151	434.63	.000017565	.000000052695
293.166	434.86	.000017573	.000000052719
293.146	867.69	.000017634	.000000052902
293.107	1737.3	.00001776	.00000005328
293.125	3456.5	.000018067	.000000054201
293.119	5188.4	.000018427	.000000055281
293.124	6932.1	.000018843	.000000056529
293.114	8684.1	.000019307	.000000057921
293.161	10467	.000019832	.000000059496
293.109	12288	.000020393	.000000061179
293.13	14176	.000021009	.000000063027
293.118	16079	.00002168	.00000006504
293.144	18079	.000022383	.000000067149
293.159	20166	.000023165	.000000069495
293.118	22359	.000023994	.000000071982
293.116	24666	.000024902	.000000074706
293.158	27067	.000025851	.000000077553
293.164	30306	.000027134	.000000081402
293.166	30306	.000027137	.000000081411

System: nitrogen; phases: Fluid (supercritical or subcritical phases)
Property: Viscosity, Pa*s (Fluid (supercritical or subcritical phases)); method: Vibrating wire viscometer
Temperature, K	Pressure, kPa	Viscosity, Pa*s	uncertainty
293.151	168.17	.000017545	.000000052635
293.151	168.17	.000017544	.000000052632
293.151	257.04	.000017553	.000000052659
293.151	257.03	.00001755	.00000005265
293.149	348.6	.000017563	.000000052689
293.149	348.59	.000017571	.000000052713
293.149	438.44	.000017579	.000000052737
293.149	438.45	.000017577	.000000052731
293.152	865.04	.00001763	.00000005289
293.152	865.03	.000017631	.000000052893
293.145	1741.7	.000017752	.000000053256
293.141	1741.7	.000017755	.000000053265
293.154	3452.3	.000018048	.000000054144
293.154	3452.3	.000018046	.000000054138
293.143	5191.3	.000018402	.000000055206
293.14	5190.1	.000018408	.000000055224
293.156	6917.3	.000018813	.000000056439
293.145	6919.8	.000018811	.000000056433
293.139	6919.9	.000018811	.000000056433
293.159	8683.4	.000019276	.000000057828
293.154	8683.4	.00001928	.00000005784
293.159	10724	.00001987	.00000005961
293.159	10724	.000019867	.000000059601

System: nitrogen; phases: Fluid (supercritical or subcritical phases)
Property: Viscosity, Pa*s (Fluid (supercritical or subcritical phases)); method: Vibrating wire viscometer
Temperature, K	Pressure, kPa	Viscosity, Pa*s	uncertainty
423.105	100.56	.000022935	.000000068805
423.107	125.69	.000022949	.000000068847
423.114	251.45	.000022985	.000000068955
423.103	377.31	.00002301	.00000006903
423.115	503.26	.000023029	.000000069087
423.097	629.65	.000023036	.000000069108
423.094	1261.4	.000023089	.000000069267
423.086	2533.5	.000023201	.000000069603
423.097	5117.5	.000023473	.000000070419
423.086	7760.6	.000023815	.000000071445
423.106	10470	.000024197	.000000072591
423.108	13263	.000024643	.000000073929
423.119	16171	.000025134	.000000075402
423.089	19172	.000025686	.000000077058
423.098	22320	.000026293	.000000078879
423.09	25569	.000026946	.000000080838
423.158	30225	.000027911	.000000083733
423.151	30228	.000027915	.000000083745
423.154	30257	.000027916	.000000083748
