Measured thermophysical data. Enthalpies of Solution of 1-Butyl-3-methylimidazolium Tetrafluoroborate in 15 Solvents at 298.15 K
Source: J. Chem. Eng. Data, 2010, 10.1021/je9005079
Compound 1: water, H2O
Compound 2: methanol, CH4O
Compound 3: acetonitrile, C2H3N
Compound 4: formamide, CH3NO
Compound 5: methyl sulfoxide, C2H6OS
Compound 6: 1-butyl-3-methylimidazolium tetrafluoroborate, C8H15BF4N2
Compound 7: ethanol, C2H6O
Compound 8: 1,2-ethanediol, C2H6O2
Compound 9: 2-chloroethanol, C2H5ClO
Compound 10: 2-methoxyethanol, C3H8O2
Compound 11: 4-methyl-1,3-dioxolan-2-one, C4H6O3
Compound 12: nitromethane, CH3NO2
Compound 13: propanone, C3H6O
Compound 14: N,N-dimethylformamide, C3H7NO
Compound 15: N,N-dimethylacetamide, C4H9NO
Compound 16: aniline, C6H7N

System: water + 1-butyl-3-methylimidazolium tetrafluoroborate; phases: Liquid
Fixed: Pressure, kPa = 101
Fixed: Temperature, K = 298.15
Property: Molar enthalpy of solution, kJ/mol (Liquid); method: Thermometric 2225 precision solution calorimeter
Molality, mol/kg of 1-butyl-3-methylimidazolium tetrafluoroborate	Molar enthalpy of solution, kJ/mol	uncertainty
.003	16.6	.16
.004	16.71	.04
.005	16.73	.07
.006	16.89	.05
.008	16.65	.01
.009	16.72	.02
.012	16.56	.01

System: water + 1-butyl-3-methylimidazolium tetrafluoroborate; phases: Liquid
Fixed: Pressure, kPa = 101
Fixed: Temperature, K = 298.15
Property: Molar enthalpy of solution, kJ/mol (Liquid); method: Thermometriic 2225 precision solution calorimeter
Mole fraction of 1-butyl-3-methylimidazolium tetrafluoroborate	Molar enthalpy of solution, kJ/mol	uncertainty
0	16.64	.08

System: methanol + 1-butyl-3-methylimidazolium tetrafluoroborate; phases: Liquid
Fixed: Pressure, kPa = 101
Fixed: Temperature, K = 298.15
Property: Molar enthalpy of solution, kJ/mol (Liquid); method: Thermometric 2225 precision solution calorimeter
Molality, mol/kg of 1-butyl-3-methylimidazolium tetrafluoroborate	Molar enthalpy of solution, kJ/mol	uncertainty
.003	18.92	.02
.006	18.88	.01
.008	18.58	.02
.009	18.95	.63
.012	18.74	.02
.013	18.87	.01
.015	18.58	.02

System: methanol + 1-butyl-3-methylimidazolium tetrafluoroborate; phases: Liquid
Fixed: Pressure, kPa = 101
Fixed: Temperature, K = 298.15
Property: Molar enthalpy of solution, kJ/mol (Liquid); method: Thermometriic 2225 precision solution calorimeter
Mole fraction of 1-butyl-3-methylimidazolium tetrafluoroborate	Molar enthalpy of solution, kJ/mol	uncertainty
0	18.79	.26

System: acetonitrile + 1-butyl-3-methylimidazolium tetrafluoroborate; phases: Liquid
Fixed: Pressure, kPa = 101
Fixed: Temperature, K = 298.15
Property: Molar enthalpy of solution, kJ/mol (Liquid); method: Thermometric 2225 precision solution calorimeter
Molality, mol/kg of 1-butyl-3-methylimidazolium tetrafluoroborate	Molar enthalpy of solution, kJ/mol	uncertainty
.004	-4.7	.03
.006	-4.76	0
.007	-4.67	.05
.009	-4.74	.01
.012	-4.72	.01
.013	-4.67	.01
.014	-4.68	.02

System: acetonitrile + 1-butyl-3-methylimidazolium tetrafluoroborate; phases: Liquid
Fixed: Pressure, kPa = 101
Fixed: Temperature, K = 298.15
Property: Molar enthalpy of solution, kJ/mol (Liquid); method: Thermometriic 2225 precision solution calorimeter
Mole fraction of 1-butyl-3-methylimidazolium tetrafluoroborate	Molar enthalpy of solution, kJ/mol	uncertainty
0	-4.72	.05

System: formamide + 1-butyl-3-methylimidazolium tetrafluoroborate; phases: Liquid
Fixed: Pressure, kPa = 101
Fixed: Temperature, K = 298.15
Property: Molar enthalpy of solution, kJ/mol (Liquid); method: Thermometric 2225 precision solution calorimeter
Molality, mol/kg of 1-butyl-3-methylimidazolium tetrafluoroborate	Molar enthalpy of solution, kJ/mol	uncertainty
.003	6.94	.06
.004	7.07	.06
.005	7.1	.06
.006	6.83	.04
.008	6.92	.01
.01	6.83	0
.011	6.85	.02

System: formamide + 1-butyl-3-methylimidazolium tetrafluoroborate; phases: Liquid
Fixed: Pressure, kPa = 101
Fixed: Temperature, K = 298.15
Property: Molar enthalpy of solution, kJ/mol (Liquid); method: Thermometriic 2225 precision solution calorimeter
Mole fraction of 1-butyl-3-methylimidazolium tetrafluoroborate	Molar enthalpy of solution, kJ/mol	uncertainty
0	6.95	.11

System: methyl sulfoxide + 1-butyl-3-methylimidazolium tetrafluoroborate; phases: Liquid
Fixed: Pressure, kPa = 101
Fixed: Temperature, K = 298.15
Property: Molar enthalpy of solution, kJ/mol (Liquid); method: Thermometric 2225 precision solution calorimeter
Molality, mol/kg of 1-butyl-3-methylimidazolium tetrafluoroborate	Molar enthalpy of solution, kJ/mol	uncertainty
.002	-6.58	.02
.004	-6.52	.02
.005	-6.45	.02
.007	-6.58	.02
.009	-6.58	.02
.01	-6.46	0
.011	-6.5	0

System: methyl sulfoxide + 1-butyl-3-methylimidazolium tetrafluoroborate; phases: Liquid
Fixed: Pressure, kPa = 101
Fixed: Temperature, K = 298.15
Property: Molar enthalpy of solution, kJ/mol (Liquid); method: Thermometriic 2225 precision solution calorimeter
Mole fraction of 1-butyl-3-methylimidazolium tetrafluoroborate	Molar enthalpy of solution, kJ/mol	uncertainty
0	-6.52	.06

System: ethanol + 1-butyl-3-methylimidazolium tetrafluoroborate; phases: Liquid
Fixed: Pressure, kPa = 101
Fixed: Temperature, K = 298.15
Property: Molar enthalpy of solution, kJ/mol (Liquid); method: Thermometriic 2225 precision solution calorimeter
Mole fraction of 1-butyl-3-methylimidazolium tetrafluoroborate	Molar enthalpy of solution, kJ/mol	uncertainty
0	23.03	.21

System: 1,2-ethanediol + 1-butyl-3-methylimidazolium tetrafluoroborate; phases: Liquid
Fixed: Pressure, kPa = 101
Fixed: Temperature, K = 298.15
Property: Molar enthalpy of solution, kJ/mol (Liquid); method: Thermometriic 2225 precision solution calorimeter
Mole fraction of 1-butyl-3-methylimidazolium tetrafluoroborate	Molar enthalpy of solution, kJ/mol	uncertainty
0	16.54	.16

System: 2-chloroethanol + 1-butyl-3-methylimidazolium tetrafluoroborate; phases: Liquid
Fixed: Pressure, kPa = 101
Fixed: Temperature, K = 298.15
Property: Molar enthalpy of solution, kJ/mol (Liquid); method: Thermometriic 2225 precision solution calorimeter
Mole fraction of 1-butyl-3-methylimidazolium tetrafluoroborate	Molar enthalpy of solution, kJ/mol	uncertainty
0	26.96	.07

System: 2-methoxyethanol + 1-butyl-3-methylimidazolium tetrafluoroborate; phases: Liquid
Fixed: Pressure, kPa = 101
Fixed: Temperature, K = 298.15
Property: Molar enthalpy of solution, kJ/mol (Liquid); method: Thermometriic 2225 precision solution calorimeter
Mole fraction of 1-butyl-3-methylimidazolium tetrafluoroborate	Molar enthalpy of solution, kJ/mol	uncertainty
0	-4.18	.03

System: 4-methyl-1,3-dioxolan-2-one + 1-butyl-3-methylimidazolium tetrafluoroborate; phases: Liquid
Fixed: Pressure, kPa = 101
Fixed: Temperature, K = 298.15
Property: Molar enthalpy of solution, kJ/mol (Liquid); method: Thermometriic 2225 precision solution calorimeter
Mole fraction of 1-butyl-3-methylimidazolium tetrafluoroborate	Molar enthalpy of solution, kJ/mol	uncertainty
0	-2.29	.03

System: nitromethane + 1-butyl-3-methylimidazolium tetrafluoroborate; phases: Liquid
Fixed: Pressure, kPa = 101
Fixed: Temperature, K = 298.15
Property: Molar enthalpy of solution, kJ/mol (Liquid); method: Thermometriic 2225 precision solution calorimeter
Mole fraction of 1-butyl-3-methylimidazolium tetrafluoroborate	Molar enthalpy of solution, kJ/mol	uncertainty
0	-3.74	.11

System: propanone + 1-butyl-3-methylimidazolium tetrafluoroborate; phases: Liquid
Fixed: Pressure, kPa = 101
Fixed: Temperature, K = 298.15
Property: Molar enthalpy of solution, kJ/mol (Liquid); method: Thermometriic 2225 precision solution calorimeter
Mole fraction of 1-butyl-3-methylimidazolium tetrafluoroborate	Molar enthalpy of solution, kJ/mol	uncertainty
0	-9.95	.03

System: N,N-dimethylformamide + 1-butyl-3-methylimidazolium tetrafluoroborate; phases: Liquid
Fixed: Pressure, kPa = 101
Fixed: Temperature, K = 298.15
Property: Molar enthalpy of solution, kJ/mol (Liquid); method: Thermometriic 2225 precision solution calorimeter
Mole fraction of 1-butyl-3-methylimidazolium tetrafluoroborate	Molar enthalpy of solution, kJ/mol	uncertainty
0	-13.31	.08

System: N,N-dimethylacetamide + 1-butyl-3-methylimidazolium tetrafluoroborate; phases: Liquid
Fixed: Pressure, kPa = 101
Fixed: Temperature, K = 298.15
Property: Molar enthalpy of solution, kJ/mol (Liquid); method: Thermometriic 2225 precision solution calorimeter
Mole fraction of 1-butyl-3-methylimidazolium tetrafluoroborate	Molar enthalpy of solution, kJ/mol	uncertainty
0	-13.49	.03

System: aniline + 1-butyl-3-methylimidazolium tetrafluoroborate; phases: Liquid
Fixed: Pressure, kPa = 101
Fixed: Temperature, K = 298.15
Property: Molar enthalpy of solution, kJ/mol (Liquid); method: Thermometriic 2225 precision solution calorimeter
Mole fraction of 1-butyl-3-methylimidazolium tetrafluoroborate	Molar enthalpy of solution, kJ/mol	uncertainty
0	-15.87	.08
