Measured thermophysical data. Solubility of Sucralose in Different Solvents from (283.15 to 333.15) K
Source: J. Chem. Eng. Data, 2010, 10.1021/je9008427
Compound 1: sucralose, C12H19Cl3O8
Compound 2: water, H2O
Compound 3: methanol, CH4O, purity 99.5%
Compound 4: ethanol, C2H6O, purity 99.7%
Compound 5: 2-propanol, C3H8O, purity 99.7%

System: water + sucralose; phases: Liquid, Crystal
Fixed: Pressure, kPa = 101
Property: Mole fraction of sucralose (Liquid); method: Chromatography
Temperature, K	Mole fraction of sucralose	uncertainty
283.15	.01069	
288.15	.01154	
293.15	.01231	
298.15	.01463	
303.15	.01642	
308.15	.01824	
313.15	.01954	
318.15	.0223	
323.15	.0259	
328.15	.02849	
333.15	.03143	

System: methanol + sucralose; phases: Liquid, Crystal
Fixed: Pressure, kPa = 101
Property: Mole fraction of sucralose (Liquid); method: Chromatography
Temperature, K	Mole fraction of sucralose	uncertainty
283.15	.03074	
288.15	.03154	
293.15	.03281	
298.15	.03431	
303.15	.03615	
308.15	.03833	
313.15	.04147	
318.15	.0449	
323.15	.04853	
328.15	.05238	
333.15	.0596	

System: ethanol + sucralose; phases: Liquid, Crystal
Fixed: Pressure, kPa = 101
Property: Mole fraction of sucralose (Liquid); method: Chromatography
Temperature, K	Mole fraction of sucralose	uncertainty
283.15	.008431	
288.15	.009764	
293.15	.012	
298.15	.01433	
303.15	.01583	
308.15	.01841	
313.15	.02017	
318.15	.02279	
323.15	.02484	
328.15	.02808	
333.15	.03221	

System: 2-propanol + sucralose; phases: Liquid, Crystal
Fixed: Pressure, kPa = 101
Property: Mole fraction of sucralose (Liquid); method: Chromatography
Temperature, K	Mole fraction of sucralose	uncertainty
283.15	.003609	
288.15	.003894	
293.15	.004401	
298.15	.005334	
303.15	.006236	
308.15	.007886	
313.15	.008536	
318.15	.01102	
323.15	.01276	
328.15	.01497	
333.15	.01708	
