Measured thermophysical data. Liquid-Liquid Equilibrium for Ternary Mixtures of Hexane + Aromatic Compounds + [EMpy][ESO4] at T = 298.15 K
Source: J. Chem. Eng. Data, 2010, 10.1021/je900557u
Compound 1: hexane, C6H14
Compound 2: toluene, C7H8
Compound 3: ethylbenzene, C8H10
Compound 4: 1-ethyl-3-methylpyridinium ethylsulfate, C10H17NO4S

System: hexane; phases: Liquid
Fixed: Pressure, kPa = 101.325
Property: Mass density, kg/m3 (Liquid); method: Vibrating tube method
Temperature, K	Mass density, kg/m3	uncertainty
298.15	655.19	.026

System: hexane; phases: Liquid
Fixed: Pressure, kPa = 101.325
Property: Refractive index (Na D-line) (Liquid); method: Other
Temperature, K	Refractive index (Na D-line)	uncertainty
298.15	1.37234	.00005

System: toluene; phases: Liquid
Fixed: Pressure, kPa = 101.325
Property: Mass density, kg/m3 (Liquid); method: Vibrating tube method
Temperature, K	Mass density, kg/m3	uncertainty
298.15	862.17	.026

System: toluene; phases: Liquid
Fixed: Pressure, kPa = 101.325
Property: Refractive index (Na D-line) (Liquid); method: Other
Temperature, K	Refractive index (Na D-line)	uncertainty
298.15	1.49399	.00005

System: ethylbenzene; phases: Liquid
Fixed: Pressure, kPa = 101.325
Property: Mass density, kg/m3 (Liquid); method: Vibrating tube method
Temperature, K	Mass density, kg/m3	uncertainty
298.15	862.51	.026

System: ethylbenzene; phases: Liquid
Fixed: Pressure, kPa = 101.325
Property: Refractive index (Na D-line) (Liquid); method: Other
Temperature, K	Refractive index (Na D-line)	uncertainty
298.15	1.49304	.00005

System: 1-ethyl-3-methylpyridinium ethylsulfate; phases: Liquid
Fixed: Pressure, kPa = 101.325
Property: Mass density, kg/m3 (Liquid); method: Vibrating tube method
Temperature, K	Mass density, kg/m3	uncertainty
298.15	1219.61	.026

System: 1-ethyl-3-methylpyridinium ethylsulfate; phases: Liquid
Fixed: Pressure, kPa = 101.325
Property: Refractive index (Na D-line) (Liquid); method: Other
Temperature, K	Refractive index (Na D-line)	uncertainty
298.15	1.50591	.00005

System: toluene + hexane + 1-ethyl-3-methylpyridinium ethylsulfate; phases: Liquid mixture 1, Liquid mixture 2
Fixed: Temperature, K = 298.15
Property: Mass density, kg/m3 (Liquid mixture 1); method: Vibrating tube method
Mole fraction of hexane	Mole fraction of toluene	Mass density, kg/m3	uncertainty
.009	0	1217.17	.026
.016	.026	1213.66	.026
.011	.05	1210.76	.026
.016	.099	1201.39	.026
.006	.115	1199.76	.026
.006	.149	1193.42	.026
.002	.202	1184.76	.026
.003	.217	1181.19	.026
.003	.251	1173.73	.026
0	.307	1161.68	.026

System: toluene + hexane + 1-ethyl-3-methylpyridinium ethylsulfate; phases: Liquid mixture 1, Liquid mixture 2
Fixed: Temperature, K = 298.15
Fixed: Pressure, kPa = 101
Property: Mole fraction of hexane (Liquid mixture 1); method: Other
Property: Mole fraction of toluene (Liquid mixture 2); method: Other
Property: Mole fraction of hexane (Liquid mixture 2); method: Other
Mole fraction of toluene	Mole fraction of hexane	uncertainty	Mole fraction of toluene	uncertainty	Mole fraction of hexane	uncertainty
.062	.938	.006	.019	.006	.012	.006
.114	.886	.006	.038	.006	.014	.006
.172	.828	.006	.062	.006	.013	.006
.233	.767	.006	.085	.006	.012	.006
.289	.711	.006	.108	.006	.01	.006
.354	.646	.006	.129	.006	.009	.006
.499	.501	.006	.173	.006	.005	.006
.878	.122	.006	.285	.006	0	.006

System: ethylbenzene + hexane + 1-ethyl-3-methylpyridinium ethylsulfate; phases: Liquid mixture 1, Liquid mixture 2
Fixed: Temperature, K = 298.15
Property: Mass density, kg/m3 (Liquid mixture 1); method: Vibrating tube method
Mole fraction of hexane	Mole fraction of ethylbenzene	Mass density, kg/m3	uncertainty
.009	0	1217.17	.026
.006	.037	1211.46	.026
.005	.058	1208.22	.026
.002	.078	1205.13	.026
.001	.121	1196.53	.026
0	.168	1185.88	.026

System: ethylbenzene + hexane + 1-ethyl-3-methylpyridinium ethylsulfate; phases: Liquid mixture 1, Liquid mixture 2
Fixed: Temperature, K = 298.15
Fixed: Pressure, kPa = 101
Property: Mole fraction of hexane (Liquid mixture 1); method: Other
Property: Mole fraction of ethylbenzene (Liquid mixture 2); method: Other
Property: Mole fraction of hexane (Liquid mixture 2); method: Other
Mole fraction of ethylbenzene	Mole fraction of hexane	uncertainty	Mole fraction of ethylbenzene	uncertainty	Mole fraction of hexane	uncertainty
.082	.918	.006	.01	.006	.008	.006
.137	.863	.006	.017	.006	.007	.006
.197	.803	.006	.029	.006	.007	.006
.262	.738	.006	.043	.006	.006	.006
.336	.664	.006	.058	.006	.005	.006
.542	.458	.006	.098	.006	.003	.006
.657	.343	.006	.116	.006	.002	.006

System: toluene + hexane; phases: Liquid
Fixed: Temperature, K = 298.15
Fixed: Pressure, kPa = 101
Property: Mass density, kg/m3 (Liquid); method: Vibrating tube method
Mole fraction of hexane	Mass density, kg/m3	uncertainty
0	862.17	.026
.083	841.73	.026
.1713	820.75	.026
.298	791.72	.026
.396	770.3	.026
.5011	748.44	.026
.5949	729.53	.026
.6973	709.61	.026
.7961	691.1	.026
.8946	673.45	.026
1	655.19	.026

System: ethylbenzene + hexane; phases: Liquid
Fixed: Temperature, K = 298.15
Fixed: Pressure, kPa = 101
Property: Mass density, kg/m3 (Liquid); method: Vibrating tube method
Mole fraction of hexane	Mass density, kg/m3	uncertainty
0	862.51	.026
.0903	843.13	.026
.1776	824.35	.026
.2675	805.21	.026
.3777	781.93	.026
.4931	757.81	.026
.5929	737.22	.026
.6947	716.43	.026
.7984	695.45	.026
.8942	676.28	.026
1	655.19	.026
