Measured thermophysical data. Solubilities of (?,Z)-2-Amino-?-(methoxyimino)-4-thiazole-ethanethioic Acid S-2-Benzothiazolyl Ester in Pure Solvents and a Mixture of Acetonitrile and Dichloromethane
Source: J. Chem. Eng. Data, 2010, 10.1021/je900784v
Compound 1: (alphaZ)-2-amino-alpha-(methoxyimino)-4-thiazoleethanethioic acid S-2-benzothiazolyl ester, C13H10N4O2S3
Compound 2: ethanol, C2H6O
Compound 3: 1-propanol, C3H8O
Compound 4: 1-butanol, C4H10O
Compound 5: 1-pentanol, C5H12O
Compound 6: 2-propanol, C3H8O
Compound 7: 2-methyl-1-propanol, C4H10O
Compound 8: 3-methyl-1-butanol, C5H12O
Compound 9: acetonitrile, C2H3N
Compound 10: dichloromethane, CH2Cl2

System: ethanol + (alphaZ)-2-amino-alpha-(methoxyimino)-4-thiazoleethanethioic acid S-2-benzothiazolyl ester; phases: Liquid, Crystal
Fixed: Pressure, kPa = 101
Property: Mole fraction of (alphaZ)-2-amino-alpha-(methoxyimino)-4-thiazoleethanethioic acid S-2-benzothiazolyl ester (Liquid); method: laser monitoring observation technique
Temperature, K	Mole fraction of (alphaZ)-2-amino-alpha-(methoxyimino)-4-thiazoleethanethioic acid S-2-benzothiazolyl ester	uncertainty
277.67	.0002032	.000004064
283.11	.0002481	.000004962
288.17	.0003254	.000006508
293.09	.0003989	.000007978
298.17	.0005167	.000010334
303.09	.0006877	.000013754

System: 1-propanol + (alphaZ)-2-amino-alpha-(methoxyimino)-4-thiazoleethanethioic acid S-2-benzothiazolyl ester; phases: Liquid, Crystal
Fixed: Pressure, kPa = 101
Property: Mole fraction of (alphaZ)-2-amino-alpha-(methoxyimino)-4-thiazoleethanethioic acid S-2-benzothiazolyl ester (Liquid); method: laser monitoring observation technique
Temperature, K	Mole fraction of (alphaZ)-2-amino-alpha-(methoxyimino)-4-thiazoleethanethioic acid S-2-benzothiazolyl ester	uncertainty
277.85	.0002259	.000004518
283.17	.000256	.00000512
288.13	.0003321	.000006642
293.17	.0004143	.000008286
297.97	.0005444	.000010888
302.81	.0007899	.000015798

System: 1-butanol + (alphaZ)-2-amino-alpha-(methoxyimino)-4-thiazoleethanethioic acid S-2-benzothiazolyl ester; phases: Liquid, Crystal
Fixed: Pressure, kPa = 101
Property: Mole fraction of (alphaZ)-2-amino-alpha-(methoxyimino)-4-thiazoleethanethioic acid S-2-benzothiazolyl ester (Liquid); method: laser monitoring observation technique
Temperature, K	Mole fraction of (alphaZ)-2-amino-alpha-(methoxyimino)-4-thiazoleethanethioic acid S-2-benzothiazolyl ester	uncertainty
278.11	.000262	.00000524
283.53	.0003204	.000006408
288.37	.0004244	.000008488
293.03	.000525	.0000105
297.73	.0006623	.000013246
303.71	.0009618	.000019236

System: 1-pentanol + (alphaZ)-2-amino-alpha-(methoxyimino)-4-thiazoleethanethioic acid S-2-benzothiazolyl ester; phases: Liquid, Crystal
Fixed: Pressure, kPa = 101
Property: Mole fraction of (alphaZ)-2-amino-alpha-(methoxyimino)-4-thiazoleethanethioic acid S-2-benzothiazolyl ester (Liquid); method: laser monitoring observation technique
Temperature, K	Mole fraction of (alphaZ)-2-amino-alpha-(methoxyimino)-4-thiazoleethanethioic acid S-2-benzothiazolyl ester	uncertainty
278.27	.0002834	.000005668
283.33	.0003395	.00000679
288.15	.0004334	.000008668
293.23	.0005644	.000011288
298.17	.0007442	.000014884
303.15	.0009922	.000019844

System: 2-propanol + (alphaZ)-2-amino-alpha-(methoxyimino)-4-thiazoleethanethioic acid S-2-benzothiazolyl ester; phases: Liquid, Crystal
Fixed: Pressure, kPa = 101
Property: Mole fraction of (alphaZ)-2-amino-alpha-(methoxyimino)-4-thiazoleethanethioic acid S-2-benzothiazolyl ester (Liquid); method: laser monitoring observation technique
Temperature, K	Mole fraction of (alphaZ)-2-amino-alpha-(methoxyimino)-4-thiazoleethanethioic acid S-2-benzothiazolyl ester	uncertainty
277.91	.0001165	.00000233
283.21	.000142	.00000284
288.05	.0001681	.000003362
293.19	.0002106	.000004212
298.13	.000283	.00000566
303.13	.000365	.0000073

System: 2-methyl-1-propanol + (alphaZ)-2-amino-alpha-(methoxyimino)-4-thiazoleethanethioic acid S-2-benzothiazolyl ester; phases: Liquid, Crystal
Fixed: Pressure, kPa = 101
Property: Mole fraction of (alphaZ)-2-amino-alpha-(methoxyimino)-4-thiazoleethanethioic acid S-2-benzothiazolyl ester (Liquid); method: laser monitoring observation technique
Temperature, K	Mole fraction of (alphaZ)-2-amino-alpha-(methoxyimino)-4-thiazoleethanethioic acid S-2-benzothiazolyl ester	uncertainty
277.67	.0001482	.000002964
283.07	.0001711	.000003422
287.99	.0002064	.000004128
292.79	.000268	.00000536
297.77	.0003452	.000006904
304.27	.0005305	.00001061

System: 3-methyl-1-butanol + (alphaZ)-2-amino-alpha-(methoxyimino)-4-thiazoleethanethioic acid S-2-benzothiazolyl ester; phases: Liquid, Crystal
Fixed: Pressure, kPa = 101
Property: Mole fraction of (alphaZ)-2-amino-alpha-(methoxyimino)-4-thiazoleethanethioic acid S-2-benzothiazolyl ester (Liquid); method: laser monitoring observation technique
Temperature, K	Mole fraction of (alphaZ)-2-amino-alpha-(methoxyimino)-4-thiazoleethanethioic acid S-2-benzothiazolyl ester	uncertainty
277.65	.0001828	.000003656
283.07	.0002153	.000004306
288.37	.0002864	.000005728
293.03	.0003707	.000007414
298.17	.0004724	.000009448
302.63	.0006223	.000012446

System: acetonitrile + dichloromethane + (alphaZ)-2-amino-alpha-(methoxyimino)-4-thiazoleethanethioic acid S-2-benzothiazolyl ester; phases: Liquid, Crystal
Fixed: Pressure, kPa = 101
Property: Mole fraction of (alphaZ)-2-amino-alpha-(methoxyimino)-4-thiazoleethanethioic acid S-2-benzothiazolyl ester (Liquid); method: laser monitoring observation technique
Temperature, K	Solvent: Mole fraction of dichloromethane	Mole fraction of (alphaZ)-2-amino-alpha-(methoxyimino)-4-thiazoleethanethioic acid S-2-benzothiazolyl ester	uncertainty
279.71	.296	.0005106	.000010212
283.27	.296	.0005847	.000011694
288.17	.296	.0007556	.000015112
293.09	.296	.0009323	.000018646
298.57	.296	.001181	.00002362
303.33	.296	.001461	.00002922
