Measured thermophysical data. Apparent Molar Volumes and Electrical Conductance of Ionic Liquids [Cnmim]Br (n = 8, 10, 12) in Ethylene Glycol, N,N-Dimethylformamide, and Dimethylsulfoxide at 298.15 K
Source: J. Chem. Eng. Data, 2009, 10.1021/je9002306
Compound 1: methyl sulfoxide, C2H6OS
Compound 2: 1,2-ethanediol, C2H6O2
Compound 3: N,N-dimethylformamide, C3H7NO
Compound 4: 1-methyl-3-octylimidazolium bromide, C12H23BrN2
Compound 5: 1-decyl-3-methylimidazolium bromide, C14H27BrN2
Compound 6: 1-dodecyl-3-methylimidazolium bromide, C16H31BrN2

System: methyl sulfoxide + 1-methyl-3-octylimidazolium bromide; phases: Liquid
Fixed: Pressure, kPa = 101.3
Fixed: Temperature, K = 298.15
Property: Mass density, kg/m3 (Liquid); method: Vibrating tube method
Molality, mol/kg of 1-methyl-3-octylimidazolium bromide	Mass density, kg/m3	uncertainty
0	1095.332	.003
.003697	1095.431	.003
.007705	1095.536	.003
.01147	1095.634	.003
.01568	1095.742	.003
.01953	1095.84	.003
.02373	1095.946	.003
.02785	1096.051	.003
.03185	1096.15	.003
.03581	1096.248	.003
.03956	1096.34	.003

System: methyl sulfoxide + 1-methyl-3-octylimidazolium bromide; phases: Liquid
Fixed: Pressure, kPa = 101.3
Fixed: Temperature, K = 298.15
Property: Molar conductivity, S*m2/mol (Liquid); method: Wayne-Kerr 6430B Auto Balance Bridge
Amount concentration (molarity), mol/dm3 of 1-methyl-3-octylimidazolium bromide	Molar conductivity, S*m2/mol	uncertainty
.0002816	.003566	.0000007132
.0003649	.003551	.0000007102
.0004495	.00354	.000000708
.0005343	.003529	.0000007058
.000601	.003521	.0000007042
.000699	.00351	.000000702
.0007785	.003501	.0000007002
.0008592	.003493	.0000006986
.0009426	.003485	.000000697

System: methyl sulfoxide + 1-decyl-3-methylimidazolium bromide; phases: Liquid
Fixed: Pressure, kPa = 101.3
Fixed: Temperature, K = 298.15
Property: Mass density, kg/m3 (Liquid); method: Vibrating tube method
Molality, mol/kg of 1-decyl-3-methylimidazolium bromide	Mass density, kg/m3	uncertainty
0	1095.332	.003
.005147	1095.402	.003
.00868	1095.455	.003
.01336	1095.529	.003
.01682	1095.585	.003
.02087	1095.652	.003
.02779	1095.77	.003
.03347	1095.87	.003
.04096	1096	.003
.04462	1096.07	.003
.05299	1096.22	.003

System: methyl sulfoxide + 1-decyl-3-methylimidazolium bromide; phases: Liquid
Fixed: Pressure, kPa = 101.3
Fixed: Temperature, K = 298.15
Property: Molar conductivity, S*m2/mol (Liquid); method: Wayne-Kerr 6430B Auto Balance Bridge
Amount concentration (molarity), mol/dm3 of 1-decyl-3-methylimidazolium bromide	Molar conductivity, S*m2/mol	uncertainty
.0002071	.003508	.0000007016
.0003447	.003485	.000000697
.0004551	.003472	.0000006944
.000577	.003459	.0000006918
.0006934	.003446	.0000006892
.0008066	.003433	.0000006866
.0008974	.003426	.0000006852
.001043	.003413	.0000006826
.001234	.003397	.0000006794

System: methyl sulfoxide + 1-dodecyl-3-methylimidazolium bromide; phases: Liquid
Fixed: Pressure, kPa = 101.3
Fixed: Temperature, K = 298.15
Property: Mass density, kg/m3 (Liquid); method: Vibrating tube method
Molality, mol/kg of 1-dodecyl-3-methylimidazolium bromide	Mass density, kg/m3	uncertainty
0	1095.347	.003
.00268	1095.355	.003
.004967	1095.363	.003
.007868	1095.374	.003
.01038	1095.384	.003
.01304	1095.395	.003
.016	1095.407	.003
.01873	1095.419	.003
.02082	1095.428	.003
.02457	1095.445	.003
.02736	1095.458	.003

System: methyl sulfoxide + 1-dodecyl-3-methylimidazolium bromide; phases: Liquid
Fixed: Pressure, kPa = 101.3
Fixed: Temperature, K = 298.15
Property: Molar conductivity, S*m2/mol (Liquid); method: Wayne-Kerr 6430B Auto Balance Bridge
Amount concentration (molarity), mol/dm3 of 1-dodecyl-3-methylimidazolium bromide	Molar conductivity, S*m2/mol	uncertainty
.0003026	.003442	.0000006884
.0003758	.003429	.0000006858
.0004555	.003416	.0000006832
.0005343	.003406	.0000006812
.0006078	.003397	.0000006794
.0006771	.003389	.0000006778
.0007464	.003381	.0000006762
.0008059	.003374	.0000006748
.0009021	.003365	.000000673

System: 1,2-ethanediol + 1-methyl-3-octylimidazolium bromide; phases: Liquid
Fixed: Pressure, kPa = 101.3
Fixed: Temperature, K = 298.15
Property: Mass density, kg/m3 (Liquid); method: Vibrating tube method
Molality, mol/kg of 1-methyl-3-octylimidazolium bromide	Mass density, kg/m3	uncertainty
0	1109.957	.003
.006765	1110.043	.003
.007869	1110.057	.003
.01325	1110.124	.003
.0167	1110.217	.003
.02074	1110.252	.003
.02364	1110.338	.003
.03075	1110.387	.003
.03492	1110.425	.003
.03798	1110.48	.003

System: 1,2-ethanediol + 1-methyl-3-octylimidazolium bromide; phases: Liquid
Fixed: Pressure, kPa = 101.3
Fixed: Temperature, K = 298.15
Property: Molar conductivity, S*m2/mol (Liquid); method: Wayne-Kerr 6430B Auto Balance Bridge
Amount concentration (molarity), mol/dm3 of 1-methyl-3-octylimidazolium bromide	Molar conductivity, S*m2/mol	uncertainty
.0003384	.000678	.0000001356
.0004129	.000677	.0000001354
.0004841	.000675	.000000135
.0005608	.000674	.0000001348
.0006367	.000673	.0000001346
.0007095	.000672	.0000001344
.0007842	.000671	.0000001342
.0008592	.00067	.000000134
.0009615	.000669	.0000001338
.001054	.000668	.0000001336

System: 1,2-ethanediol + 1-decyl-3-methylimidazolium bromide; phases: Liquid
Fixed: Pressure, kPa = 101.3
Fixed: Temperature, K = 298.15
Property: Mass density, kg/m3 (Liquid); method: Vibrating tube method
Molality, mol/kg of 1-decyl-3-methylimidazolium bromide	Mass density, kg/m3	uncertainty
0	1109.977	.003
.005851	1109.988	.003
.0106	1109.996	.003
.01551	1110.003	.003
.01977	1110.009	.003
.02479	1110.014	.003
.02646	1110.019	.003
.03544	1110.022	.003
.03722	1110.024	.003
.04453	1110.026	.003

System: 1,2-ethanediol + 1-decyl-3-methylimidazolium bromide; phases: Liquid
Fixed: Pressure, kPa = 101.3
Fixed: Temperature, K = 298.15
Property: Molar conductivity, S*m2/mol (Liquid); method: Wayne-Kerr 6430B Auto Balance Bridge
Amount concentration (molarity), mol/dm3 of 1-decyl-3-methylimidazolium bromide	Molar conductivity, S*m2/mol	uncertainty
.0003546	.000667	.0000001334
.0004359	.000666	.0000001332
.0005147	.000664	.0000001328
.0005865	.000663	.0000001326
.0006739	.000661	.0000001322
.0007633	.00066	.000000132
.0008415	.000659	.0000001318
.0009056	.000658	.0000001316
.0009847	.000657	.0000001314
.001065	.000656	.0000001312

System: 1,2-ethanediol + 1-dodecyl-3-methylimidazolium bromide; phases: Liquid
Fixed: Pressure, kPa = 101.3
Fixed: Temperature, K = 298.15
Property: Mass density, kg/m3 (Liquid); method: Vibrating tube method
Molality, mol/kg of 1-dodecyl-3-methylimidazolium bromide	Mass density, kg/m3	uncertainty
0	1109.947	.003
.003873	1109.909	.003
.007663	1109.872	.003
.01013	1109.847	.003
.0133	1109.815	.003
.0168	1109.78	.003
.02023	1109.746	.003
.03123	1109.635	.003
.03429	1109.604	.003

System: 1,2-ethanediol + 1-dodecyl-3-methylimidazolium bromide; phases: Liquid
Fixed: Pressure, kPa = 101.3
Fixed: Temperature, K = 298.15
Property: Molar conductivity, S*m2/mol (Liquid); method: Wayne-Kerr 6430B Auto Balance Bridge
Amount concentration (molarity), mol/dm3 of 1-dodecyl-3-methylimidazolium bromide	Molar conductivity, S*m2/mol	uncertainty
.000348	.000654	.0000001308
.0004233	.000653	.0000001306
.0004995	.000652	.0000001304
.0005785	.00065	.00000013
.0006521	.000649	.0000001298
.0007213	.000648	.0000001296
.0008076	.000646	.0000001292
.0008687	.000645	.000000129
.0009337	.000644	.0000001288
.001012	.000643	.0000001286

System: N,N-dimethylformamide + 1-methyl-3-octylimidazolium bromide; phases: Liquid
Fixed: Pressure, kPa = 101.3
Fixed: Temperature, K = 298.15
Property: Mass density, kg/m3 (Liquid); method: Vibrating tube method
Molality, mol/kg of 1-methyl-3-octylimidazolium bromide	Mass density, kg/m3	uncertainty
0	944.305	.003
.0036	944.562	.003
.00742	944.824	.003
.01114	945.075	.003
.01485	945.316	.003
.01862	945.557	.003
.02243	945.792	.003
.02634	946.03	.003
.03009	946.26	.003
.03685	946.653	.003
.04079	946.877	.003

System: N,N-dimethylformamide + 1-methyl-3-octylimidazolium bromide; phases: Liquid
Fixed: Pressure, kPa = 101.3
Fixed: Temperature, K = 298.15
Property: Molar conductivity, S*m2/mol (Liquid); method: Wayne-Kerr 6430B Auto Balance Bridge
Amount concentration (molarity), mol/dm3 of 1-methyl-3-octylimidazolium bromide	Molar conductivity, S*m2/mol	uncertainty
.0002813	.007841	.0000015682
.0003412	.007808	.0000015616
.0003997	.007775	.000001555
.0004885	.007732	.0000015464
.0005571	.0077	.00000154
.0006412	.007663	.0000015326
.0007099	.007638	.0000015276
.0007743	.007612	.0000015224
.000834	.00759	.000001518
.0008925	.007568	.0000015136

System: N,N-dimethylformamide + 1-decyl-3-methylimidazolium bromide; phases: Liquid
Fixed: Pressure, kPa = 101.3
Fixed: Temperature, K = 298.15
Property: Mass density, kg/m3 (Liquid); method: Vibrating tube method
Molality, mol/kg of 1-decyl-3-methylimidazolium bromide	Mass density, kg/m3	uncertainty
0	944.305	.003
.004548	944.601	.003
.009331	944.904	.003
.01416	945.206	.003
.01889	945.493	.003
.02351	945.774	.003
.02843	946.065	.003
.03329	946.353	.003
.03813	946.64	.003
.04346	946.942	.003
.04852	947.237	.003

System: N,N-dimethylformamide + 1-decyl-3-methylimidazolium bromide; phases: Liquid
Fixed: Pressure, kPa = 101.3
Fixed: Temperature, K = 298.15
Property: Molar conductivity, S*m2/mol (Liquid); method: Wayne-Kerr 6430B Auto Balance Bridge
Amount concentration (molarity), mol/dm3 of 1-decyl-3-methylimidazolium bromide	Molar conductivity, S*m2/mol	uncertainty
.0001732	.007794	.0000015588
.0002484	.007742	.0000015484
.0003119	.007708	.0000015416
.0003859	.007672	.0000015344
.0004585	.007636	.0000015272
.0005275	.007607	.0000015214
.0005939	.007575	.000001515
.0006636	.007549	.0000015098
.0007275	.007523	.0000015046
.0007761	.007502	.0000015004

System: N,N-dimethylformamide + 1-dodecyl-3-methylimidazolium bromide; phases: Liquid
Fixed: Pressure, kPa = 101.3
Fixed: Temperature, K = 298.15
Property: Mass density, kg/m3 (Liquid); method: Vibrating tube method
Molality, mol/kg of 1-dodecyl-3-methylimidazolium bromide	Mass density, kg/m3	uncertainty
0	944.305	.003
.003861	944.545	.003
.008055	944.798	.003
.0123	945.047	.003
.01627	945.277	.003
.02032	945.508	.003
.02446	945.745	.003
.02703	945.89	.003
.03337	946.237	.003
.03725	946.45	.003
.04099	946.651	.003

System: N,N-dimethylformamide + 1-dodecyl-3-methylimidazolium bromide; phases: Liquid
Fixed: Pressure, kPa = 101.3
Fixed: Temperature, K = 298.15
Property: Molar conductivity, S*m2/mol (Liquid); method: Wayne-Kerr 6430B Auto Balance Bridge
Amount concentration (molarity), mol/dm3 of 1-dodecyl-3-methylimidazolium bromide	Molar conductivity, S*m2/mol	uncertainty
.0001357	.007691	.0000015382
.0001826	.007656	.0000015312
.0002263	.007631	.0000015262
.0002718	.007605	.000001521
.0003169	.007581	.0000015162
.0003578	.007564	.0000015128
.0004043	.007541	.0000015082
.0004399	.007527	.0000015054
.0004725	.00751	.000001502
.0005219	.007494	.0000014988
