Measured thermophysical data. Surface Tension Data of Aqueous Binary Mixtures of Methyl, Ethyl, Propyl, and Butyl Acetates at 298.15 K
Source: J. Chem. Eng. Data, 2010, 10.1021/je900962v
Compound 1: ethanoic acid, methyl ester, C3H6O2, purity 99%
Compound 2: ethyl ethanoate, C4H8O2, purity 99.87%
Compound 3: propyl ethanoate, C5H10O2, purity 99.5%
Compound 4: acetic acid, butyl ester, C6H12O2, purity 99.5%
Compound 5: water, H2O, purity 99.9%

System: ethanoic acid, methyl ester; phases: Liquid, Air at 1 atmosphere
Property: Surface tension liquid-gas, N/m (Liquid); method: Drop volume
Temperature, K	Surface tension liquid-gas, N/m	uncertainty
298.15	.02479	.00004

System: ethyl ethanoate; phases: Liquid, Air at 1 atmosphere
Property: Surface tension liquid-gas, N/m (Liquid); method: Drop volume
Temperature, K	Surface tension liquid-gas, N/m	uncertainty
298.15	.02393	.00004

System: propyl ethanoate; phases: Liquid, Air at 1 atmosphere
Property: Surface tension liquid-gas, N/m (Liquid); method: Drop volume
Temperature, K	Surface tension liquid-gas, N/m	uncertainty
298.15	.02422	.00004

System: acetic acid, butyl ester; phases: Liquid, Air at 1 atmosphere
Property: Surface tension liquid-gas, N/m (Liquid); method: Drop volume
Temperature, K	Surface tension liquid-gas, N/m	uncertainty
298.15	.02491	.00004

System: water; phases: Liquid, Air at 1 atmosphere
Property: Surface tension liquid-gas, N/m (Liquid); method: Drop volume
Temperature, K	Surface tension liquid-gas, N/m	uncertainty
298.15	.07157	.00004

System: ethanoic acid, methyl ester + water; phases: Liquid, Air at 1 atmosphere
Fixed: Temperature, K = 298.15
Property: Surface tension liquid-gas, N/m (Liquid); method: Drop volume
Mole fraction of ethanoic acid, methyl ester	Surface tension liquid-gas, N/m	uncertainty
0	.07157	.00004
.004	.06187	.00004
.0047	.06057	.00004
.0056	.05967	.00004
.0069	.05762	.00004
.0093	.05472	.00004
.0115	.05325	.00004
.0147	.04991	.00004
.0183	.04818	.00004
.0214	.04668	.00004
.0245	.04435	.00004
.029	.04263	.00004
.0341	.04026	.00004
.0433	.03664	.00004
.0523	.03349	.00004
.0586	.03161	.00004
.0702	.02912	.00004
1	.02479	.00004

System: ethyl ethanoate + water; phases: Liquid, Air at 1 atmosphere
Fixed: Temperature, K = 298.15
Property: Surface tension liquid-gas, N/m (Liquid); method: Drop volume
Mole fraction of ethyl ethanoate	Surface tension liquid-gas, N/m	uncertainty
0	.07157	.00004
.0011	.06208	.00004
.0013	.06095	.00004
.0014	.06043	.00004
.0017	.05933	.00004
.0018	.0588	.00004
.0025	.05664	.00004
.0033	.05417	.00004
.0044	.05116	.00004
.0054	.04898	.00004
.0061	.04792	.00004
.008	.04422	.00004
.0089	.04331	.00004
.0118	.04137	.00004
.0141	.03897	.00004
1	.02393	.00004

System: propyl ethanoate + water; phases: Liquid, Air at 1 atmosphere
Fixed: Temperature, K = 298.15
Property: Surface tension liquid-gas, N/m (Liquid); method: Drop volume
Mole fraction of propyl ethanoate	Surface tension liquid-gas, N/m	uncertainty
0	.07157	.00004
.00017	.06586	.00004
.00023	.06454	.00004
.00031	.06264	.00004
.00031	.06323	.00004
.00038	.06164	.00004
.00041	.06143	.00004
.00049	.06029	.00004
.00052	.0594	.00004
.00057	.05902	.00004
.00071	.05747	.00004
.00074	.05694	.00004
.00083	.05617	.00004
.00103	.05438	.00004
.00104	.0537	.00004
.00114	.05349	.00004
.00116	.05322	.00004
.00142	.05093	.00004
.00142	.05111	.00004
.00158	.04917	.00004
.00159	.0493	.00004
.00208	.04676	.00004
.00239	.04544	.00004
.00318	.04265	.00004
.00355	.04131	.00004
.00367	.04063	.00004
.0038	.04055	.00004
1	.02422	.00004

System: acetic acid, butyl ester + water; phases: Liquid, Air at 1 atmosphere
Fixed: Temperature, K = 298.15
Property: Surface tension liquid-gas, N/m (Liquid); method: Drop volume
Mole fraction of acetic acid, butyl ester	Surface tension liquid-gas, N/m	uncertainty
0	.07157	.00004
.0000797	.06374	.00004
.0000799	.06449	.00004
.0000876	.06371	.00004
.0000881	.0643	.00004
.000104	.0626	.00004
.000124	.06181	.00004
.000131	.06147	.00004
.000142	.06115	.00004
.000173	.0593	.00004
.000216	.0575	.00004
.000274	.05553	.00004
.000343	.05331	.00004
.000439	.05112	.00004
.000536	.04909	.00004
.00067	.0469	.00004
.000754	.04557	.00004
.00081	.04442	.00004
.000933	.0431	.00004
1	.02491	.00004
