Measured thermophysical data. Activity Coefficients at Infinite Dilution of Alkanes, Alkenes, and Alkyl Benzenes in Glycerol Using Gas-Liquid Chromatography
Source: J. Chem. Eng. Data, 2010, 10.1021/je900686n
Compound 1: glycerol, C3H8O3
Compound 2: hexane, C6H14, purity 99%
Compound 3: heptane, C7H16, purity 99%
Compound 4: octane, C8H18, purity 99%
Compound 5: nonane, C9H20, purity 99%
Compound 6: decane, C10H22, purity 99%
Compound 7: cyclohexane, C6H12, purity 99%
Compound 8: methylcyclohexane, C7H14, purity 99%
Compound 9: 2,2,4-trimethylpentane, C8H18, purity 99%
Compound 10: cyclohexene, C6H10, purity 99%
Compound 11: styrene, C8H8, purity 99%
Compound 12: benzene, C6H6, purity 99%
Compound 13: toluene, C7H8, purity 99%
Compound 14: ethylbenzene, C8H10, purity 99%
Compound 15: 1,2-dimethylbenzene, C8H10, purity 99%
Compound 16: 1,3-dimethylbenzene, C8H10, purity 99%
Compound 17: 1,4-dimethylbenzene, C8H10, purity 99%

System: glycerol + hexane; phases: Liquid, Gas
Fixed: Mole fraction of hexane = 0
Property: Activity coefficient of hexane (Liquid); method: Chromatography
Temperature, K	Activity coefficient of hexane	uncertainty
303.15	413.74	20.687
313.15	382.52	19.126
323.15	340.01	17.0005
333.15	315.78	15.789
343.15	268.43	13.4215

System: glycerol + heptane; phases: Liquid, Gas
Fixed: Mole fraction of heptane = 0
Property: Activity coefficient of heptane (Liquid); method: Chromatography
Temperature, K	Activity coefficient of heptane	uncertainty
303.15	580.21	29.0105
313.15	527.48	26.374
323.15	450.11	22.5055
333.15	385.89	19.2945
343.15	304.34	15.217

System: glycerol + octane; phases: Liquid, Gas
Fixed: Mole fraction of octane = 0
Property: Activity coefficient of octane (Liquid); method: Chromatography
Temperature, K	Activity coefficient of octane	uncertainty
303.15	677.12	33.856
313.15	601.45	30.0725
323.15	511.31	25.5655
333.15	445.23	22.2615
343.15	379.3	18.965

System: glycerol + nonane; phases: Liquid, Gas
Fixed: Mole fraction of nonane = 0
Property: Activity coefficient of nonane (Liquid); method: Chromatography
Temperature, K	Activity coefficient of nonane	uncertainty
303.15	845.57	42.2785
313.15	751.6	37.58
323.15	691.1	34.555
333.15	640.03	32.0015
343.15	559.41	27.9705

System: glycerol + decane; phases: Liquid, Gas
Fixed: Mole fraction of decane = 0
Property: Activity coefficient of decane (Liquid); method: Chromatography
Temperature, K	Activity coefficient of decane	uncertainty
303.15	1045.61	52.2805
313.15	881.37	44.0685
323.15	798.19	39.9095
333.15	701.28	35.064
343.15	611.72	30.586

System: glycerol + cyclohexane; phases: Liquid, Gas
Fixed: Mole fraction of cyclohexane = 0
Property: Activity coefficient of cyclohexane (Liquid); method: Chromatography
Temperature, K	Activity coefficient of cyclohexane	uncertainty
303.15	231.9	11.595
313.15	204.42	10.221
323.15	180.92	9.046
333.15	165.78	8.289
343.15	145.46	7.273

System: glycerol + methylcyclohexane; phases: Liquid, Gas
Fixed: Mole fraction of methylcyclohexane = 0
Property: Activity coefficient of methylcyclohexane (Liquid); method: Chromatography
Temperature, K	Activity coefficient of methylcyclohexane	uncertainty
303.15	281.27	14.0635
313.15	264.01	13.2005
323.15	239.12	11.956
333.15	203.24	10.162
343.15	182.73	9.1365

System: glycerol + 2,2,4-trimethylpentane; phases: Liquid, Gas
Fixed: Mole fraction of 2,2,4-trimethylpentane = 0
Property: Activity coefficient of 2,2,4-trimethylpentane (Liquid); method: Chromatography
Temperature, K	Activity coefficient of 2,2,4-trimethylpentane	uncertainty
303.15	635.76	31.788
313.15	584.53	29.2265
323.15	496.94	24.847
333.15	405.81	20.2905
343.15	328.93	16.4465

System: glycerol + cyclohexene; phases: Liquid, Gas
Fixed: Mole fraction of cyclohexene = 0
Property: Activity coefficient of cyclohexene (Liquid); method: Chromatography
Temperature, K	Activity coefficient of cyclohexene	uncertainty
303.15	183.16	9.158
313.15	155.97	7.7985
323.15	126.13	6.3065
333.15	110.2	5.51
343.15	88.38	4.419

System: glycerol + styrene; phases: Liquid, Gas
Fixed: Mole fraction of styrene = 0
Property: Activity coefficient of styrene (Liquid); method: Chromatography
Temperature, K	Activity coefficient of styrene	uncertainty
303.15	124.66	6.233
313.15	102.51	5.1255
323.15	81.69	4.0845
333.15	61.53	3.0765
343.15	44.46	2.223

System: glycerol + benzene; phases: Liquid, Gas
Fixed: Mole fraction of benzene = 0
Property: Activity coefficient of benzene (Liquid); method: Chromatography
Temperature, K	Activity coefficient of benzene	uncertainty
303.15	60.11	3.0055
313.15	55.86	2.793
323.15	51.09	2.5545
333.15	45.11	2.2555
343.15	37.87	1.8935

System: glycerol + toluene; phases: Liquid, Gas
Fixed: Mole fraction of toluene = 0
Property: Activity coefficient of toluene (Liquid); method: Chromatography
Temperature, K	Activity coefficient of toluene	uncertainty
303.15	128.42	6.421
313.15	110.67	5.5335
323.15	91.07	4.5535
333.15	76.07	3.8035
343.15	60.04	3.002

System: glycerol + ethylbenzene; phases: Liquid, Gas
Fixed: Mole fraction of ethylbenzene = 0
Property: Activity coefficient of ethylbenzene (Liquid); method: Chromatography
Temperature, K	Activity coefficient of ethylbenzene	uncertainty
303.15	161.76	8.088
313.15	141.18	7.059
323.15	120.4	6.02
333.15	102.14	5.107
343.15	89.73	4.4865

System: glycerol + 1,2-dimethylbenzene; phases: Liquid, Gas
Fixed: Mole fraction of 1,2-dimethylbenzene = 0
Property: Activity coefficient of 1,2-dimethylbenzene (Liquid); method: Chromatography
Temperature, K	Activity coefficient of 1,2-dimethylbenzene	uncertainty
303.15	139.38	6.969
313.15	121.12	6.056
323.15	98.75	4.9375
333.15	83.71	4.1855
343.15	68.54	3.427

System: glycerol + 1,3-dimethylbenzene; phases: Liquid, Gas
Fixed: Mole fraction of 1,3-dimethylbenzene = 0
Property: Activity coefficient of 1,3-dimethylbenzene (Liquid); method: Chromatography
Temperature, K	Activity coefficient of 1,3-dimethylbenzene	uncertainty
303.15	146.79	7.3395
313.15	127.03	6.3515
323.15	105.98	5.299
333.15	93.19	4.6595
343.15	76.12	3.806

System: glycerol + 1,4-dimethylbenzene; phases: Liquid, Gas
Fixed: Mole fraction of 1,4-dimethylbenzene = 0
Property: Activity coefficient of 1,4-dimethylbenzene (Liquid); method: Chromatography
Temperature, K	Activity coefficient of 1,4-dimethylbenzene	uncertainty
303.15	155.15	7.7575
313.15	131.32	6.566
323.15	115.48	5.774
333.15	100.1	5.005
343.15	85.04	4.252
