Measured thermophysical data. Solubility of d-Aspartic Acid and l-Aspartic Acid in Aqueous Salt Solutions from (293 to 343) K
Source: J. Chem. Eng. Data, 2010, 10.1021/je9007102
Compound 1: L-aspartic acid, C4H7NO4, purity 98.5%
Compound 2: water, H2O, purity 99.9%
Compound 3: sodium chloride, ClNa, purity 99.8%

System: L-aspartic acid + sodium chloride + water; phases: Liquid, Crystal 1
Fixed: Pressure, kPa = 101
Property: Solid-liquid equilibrium temperature, K (Liquid); method: Laser Detection
Mole fraction of L-aspartic acid	Solvent: Molality, mol/kg of sodium chloride	Solid-liquid equilibrium temperature, K	uncertainty
.0005588	0	292.96	.05
.0007081	0	298.44	.05
.0008619	0	303.58	.05
.001032	0	308.56	.05
.001206	0	313.75	.05
.001398	0	318.25	.05
.001646	0	323.56	.05
.001922	0	328.47	.05
.002216	0	333.25	.05
.002557	0	338.08	.05
.0006314	.1646	293.86	.05
.0007606	.1646	298.36	.05
.0009131	.1646	303.24	.05
.001076	.1646	308.17	.05
.001251	.1646	313.24	.05
.001452	.1646	317.68	.05
.001716	.1646	323.05	.05
.001997	.1646	327.84	.05
.002288	.1646	332.95	.05
.002669	.1646	337.85	.05
.0006943	.4581	294.03	.05
.0008249	.4581	298.65	.05
.0009738	.4581	303.35	.05
.001138	.4581	308.07	.05
.001341	.4581	312.98	.05
.001577	.4581	317.98	.05
.001834	.4581	323.05	.05
.002108	.4581	328.04	.05
.002438	.4581	333.33	.05
.002821	.4581	338.06	.05
.0007202	.8956	292.9	.05
.0008772	.8956	298.64	.05
.001052	.8956	303.83	.05
.001238	.8956	308.7	.05
.00145	.8956	313.54	.05
.001667	.8956	318.3	.05
.001929	.8956	323.46	.05
.002242	.8956	328.37	.05
.00258	.8956	333.35	.05
.002942	.8956	338.19	.05
.0008032	2.4036	293.34	.05
.000932	2.4036	298.1	.05
.001105	2.4036	304.04	.05
.001271	2.4036	308.26	.05
.001483	2.4036	313.45	.05
.001728	2.4036	318.44	.05
.001995	2.4036	323.44	.05
.002301	2.4036	328.46	.05
.00266	2.4036	333.27	.05
.003048	2.4036	338.08	.05
.0008414	3.0446	293.7	.05
.0009523	3.0446	298.13	.05
.001107	3.0446	302.8	.05
.001278	3.0446	307.86	.05
.001499	3.0446	312.93	.05
.001742	3.0446	317.9	.05
.002032	3.0446	323	.05
.002348	3.0446	328.24	.05
.002691	3.0446	333.03	.05
.003087	3.0446	337.76	.05

System: L-aspartic acid + water; phases: Liquid, Crystal 1
Property: Solid-liquid equilibrium temperature, K (Liquid); method: Laser Detection
Mole fraction of L-aspartic acid	Pressure, kPa	Solid-liquid equilibrium temperature, K	uncertainty
.0005588	101	292.96	.05
.0007081	101	298.44	.05
.0008619	101	303.58	.05
.001032	101	308.56	.05
.001206	101	313.75	.05
.001398	101	318.25	.05
.001646	101	323.56	.05
.001922	101	328.47	.05
.002216	101	333.25	.05
.002557	101	338.08	.05
