Measured thermophysical data. Density, Viscosity, Refractive Index and Conductivity of 1-Allyl-3-methylimidazolium Chloride + Water Mixture
Source: J. Chem. Eng. Data, 2010, 10.1021/je900545v
Compound 1: 1-allyl-3-methylimidazolium chloride, C7H11ClN2
Compound 2: water, H2O

System: 1-allyl-3-methylimidazolium chloride; phases: Liquid
Property: Mass density, kg/m3 (Liquid); method: Pycnometric method
Temperature, K	Pressure, kPa	Mass density, kg/m3	uncertainty
298.15	101	1166	.002

System: 1-allyl-3-methylimidazolium chloride; phases: Liquid
Property: Electrical conductivity, S/m (Liquid); method: DDSJ-308A Conductometer
Temperature, K	Pressure, kPa	Electrical conductivity, S/m	uncertainty
298.15	101	.00695	.0002085

System: 1-allyl-3-methylimidazolium chloride; phases: Liquid
Property: Viscosity, Pa*s (Liquid); method: Capillary tube (Ostwald; Ubbelohde) method
Temperature, K	Pressure, kPa	Viscosity, Pa*s	uncertainty
298.15	101	.821	

System: water + 1-allyl-3-methylimidazolium chloride; phases: Liquid
Fixed: Pressure, kPa = 101
Property: Mass density, kg/m3 (Liquid); method: Pycnometric method
Temperature, K	Mole fraction of 1-allyl-3-methylimidazolium chloride	Mass density, kg/m3	uncertainty
298.15	.000171	1005	.002
298.15	.000362	1007.5	.002
298.15	.000553	1001	.002
298.15	.000754	1004.5	.002
298.15	.001151	1004	.002
298.15	.001575	1004.7	.002
298.15	.002478	1003	.002
298.15	.003359	1004.2	.002
298.15	.004859	1005	.002
298.15	.006386	1006	.002
298.15	.008102	1007.6	.002
298.15	.009949	1008.5	.002
298.15	.011785	1011.6	.002
298.15	.01373	1016.5	.002
298.15	.017654	1017.2	.002
298.15	.021561	1021.8	.002
298.15	.025652	1024	.002
298.15	.02973	1026	.002
298.15	.033936	1029.2	.002
298.15	.044424	1040	.002
298.15	.055355	1046.8	.002
298.15	.066464	1054.2	.002
298.15	.078572	1061.8	.002
298.15	.091376	1073	.002
298.15	.11428	1084.1	.002
298.15	.136948	1092	.002
298.15	.161616	1100	.002
298.15	.186711	1105.8	.002
298.15	.211044	1110.2	.002
298.15	.224487	1108.9	.002
298.15	.323337	1127.8	.002
298.15	.508319	1132.8	.002
298.15	1	1166	.002

System: water + 1-allyl-3-methylimidazolium chloride; phases: Liquid
Fixed: Pressure, kPa = 101
Property: Viscosity, Pa*s (Liquid); method: Capillary tube (Ostwald; Ubbelohde) method
Temperature, K	Mole fraction of 1-allyl-3-methylimidazolium chloride	Viscosity, Pa*s	uncertainty
298.15	.000171	.0008974	
298.15	.000362	.0008946	
298.15	.000553	.0008979	
298.15	.000754	.0008954	
298.15	.001151	.0009008	
298.15	.001575	.0009038	
298.15	.002478	.0009234	
298.15	.003359	.0009356	
298.15	.004859	.0009802	
298.15	.006386	.0009919	
298.15	.008102	.0010435	
298.15	.009949	.0010606	
298.15	.011785	.0010932	
298.15	.01373	.0011289	
298.15	.017654	.0011932	
298.15	.021561	.0012521	
298.15	.025652	.0013222	
298.15	.02973	.0013941	
298.15	.033936	.0014726	
298.15	.044424	.0016769	
298.15	.055355	.0018997	
298.15	.066464	.0021658	
298.15	.078572	.0024752	
298.15	.091376	.0031181	
298.15	.11428	.003867	
298.15	.136948	.0048056	
298.15	.161616	.0059742	
298.15	.186711	.0074412	
298.15	.211044	.0079004	
298.15	.224487	.0085184	
298.15	.323337	.018	
298.15	.508319	.048	
298.15	1	.821	

System: water + 1-allyl-3-methylimidazolium chloride; phases: Liquid
Fixed: Pressure, kPa = 101
Property: Refractive index (Na D-line) (Liquid); method: Standard Abbe refractometry
Temperature, K	Mole fraction of 1-allyl-3-methylimidazolium chloride	Refractive index (Na D-line)	uncertainty
298.15	.000171	1.3329	.0003
298.15	.000362	1.333	.0003
298.15	.000553	1.3333	.0003
298.15	.000754	1.3336	.0003
298.15	.001151	1.334	.0003
298.15	.001575	1.3346	.0003
298.15	.002478	1.336	.0003
298.15	.003359	1.3375	.0003
298.15	.004859	1.34	.0003
298.15	.006386	1.3421	.0003
298.15	.008102	1.3452	.0003
298.15	.009949	1.347	.0003
298.15	.011785	1.3495	.0003
298.15	.01373	1.352	.0003
298.15	.017654	1.3574	.0003
298.15	.021561	1.3635	.0003
298.15	.025652	1.3676	.0003
298.15	.02973	1.373	.0003
298.15	.033936	1.3775	.0003
298.15	.044424	1.3888	.0003
298.15	.055355	1.3995	.0003
298.15	.066464	1.4084	.0003
298.15	.078572	1.4176	.0003
298.15	.091376	1.4315	.0003
298.15	.11428	1.4464	.0003
298.15	.136948	1.4574	.0003
298.15	.161616	1.4673	.0003
298.15	.186711	1.4742	.0003
298.15	.211044	1.4831	.0003

System: water + 1-allyl-3-methylimidazolium chloride; phases: Liquid
Fixed: Pressure, kPa = 101
Property: Electrical conductivity, S/m (Liquid); method: DDSJ-308A Conductometer
Temperature, K	Mole fraction of 1-allyl-3-methylimidazolium chloride	Electrical conductivity, S/m	uncertainty
298.15	.000171	.07945	.0023835
298.15	.000362	.16874	.0050622
298.15	.000553	.2582	.007746
298.15	.000754	.345	.01035
298.15	.001151	.5035	.015105
298.15	.001575	.6654	.019962
298.15	.002478	.969	.02907
298.15	.003359	1.2365	.037095
298.15	.004859	1.6548	.049644
298.15	.006386	2.656	.07968
298.15	.008102	3.025	.09075
298.15	.009949	3.288	.09864
298.15	.011785	3.688	.11064
298.15	.01373	3.937	.11811
298.15	.017654	4.652	.13956
298.15	.021561	5.329	.15987
298.15	.025652	5.975	.17925
298.15	.02973	6.227	.18681
298.15	.033936	7.154	.21462
298.15	.044424	6.83	.2049
298.15	.055355	7.664	.22992
298.15	.066464	7.922	.23766
298.15	.078572	7.467	.22401
298.15	.091376	7.202	.21606
298.15	.11428	6.48	.1944
298.15	.136948	5.672	.17016
298.15	.161616	4.917	.14751
298.15	.186711	4.128	.12384
298.15	.211044	3.913	.11739
298.15	.224487	3.816	.11448
298.15	.323337	2.634	.07902
298.15	.508319	.00974	.0002922
298.15	1	.00695	.0002085
