Measured thermophysical data. Heat Capacities and Nonisothermal Thermal Decomposition Reaction Kinetics of d-Mannitol
Source: J. Chem. Eng. Data, 2010, 10.1021/je900285w
Compound 1: D-mannitol, C6H14O6, purity 99%

System: D-mannitol; phases: Crystal, Liquid, Air at 1 atmosphere
Property: Normal melting temperature, K (Crystal); method: DSC/DTA
Normal melting temperature, K	uncertainty
437.25	.12

System: D-mannitol; phases: Crystal, Liquid, Air at 1 atmosphere
Property: Molar enthalpy of transition or fusion, kJ/mol (Crystal); method: DSC/DTA
Molar enthalpy of transition or fusion, kJ/mol	uncertainty
54.69	1.64

System: D-mannitol; phases: Crystal
Fixed: Pressure, kPa = 101.325
Property: Molar heat capacity at constant pressure, J/K/mol (Crystal); method: Small (less than 1 g) adiabatic calorimetry
Temperature, K	Molar heat capacity at constant pressure, J/K/mol	uncertainty
80.423	71.86	.14372
84.12	75.82	.15164
87.056	79	.158
90.044	82.17	.16434
93.087	85.24	.17048
96.038	88	.176
99.046	90.89	.18178
102.114	93.72	.18744
105.11	96.44	.19288
108.048	98.92	.19784
111.055	101.4	.2028
114.135	104	.208
117.157	106.5	.213
120.114	109	.218
123.128	111.5	.223
126.215	113.8	.2276
129.264	116.1	.2322
132.272	118.9	.2378
135.239	120.9	.2418
138.177	123	.246
141.2	125.4	.2508
144.278	127.8	.2556
147.31	129.9	.2598
150.305	132.2	.2644
153.283	134.4	.2688
156.234	136.7	.2734
159.247	138.8	.2776
162.366	141.7	.2834
165.486	143.2	.2864
168.579	146.4	.2928
171.607	149.2	.2984
174.593	150.8	.3016
177.598	152.9	.3058
180.587	156.6	.3132
183.607	159.2	.3184
186.661	162.1	.3242
189.701	165	.33
192.754	168.2	.3364
195.811	170.5	.341
198.931	173.9	.3478
202.132	176.6	.3532
205.296	180.9	.3618
208.404	184.3	.3686
211.462	187.3	.3746
214.486	189.7	.3794
217.577	192.1	.3842
220.743	195.4	.3908
223.878	198.8	.3976
226.994	202.7	.4054
230.035	204.2	.4084
233.085	207.6	.4152
236.153	210.5	.421
239.218	213.4	.4268
242.239	215.7	.4314
245.326	217.7	.4354
248.419	220	.44
251.418	221.4	.4428
254.484	223.2	.4464
257.613	226.2	.4524
260.729	228	.456
263.828	230.7	.4614
266.983	233.6	.4672
270.148	236.1	.4722
273.218	239.5	.479
276.28	242.1	.4842
279.347	245.4	.4908
282.412	248.6	.4972
285.438	251.6	.5032
288.45	253.1	.5062
291.426	256	.512
294.392	259	.518
297.492	260.6	.5212
300.607	262.6	.5252
303.635	264.9	.5298
306.662	266.7	.5334
309.687	268.4	.5368
312.777	270.6	.5412
315.921	272.9	.5458
319.056	275.3	.5506
322.187	277.9	.5558
325.301	280.3	.5606
328.401	282.6	.5652
331.486	284.8	.5696
334.561	286.1	.5722
337.627	289	.578
340.677	291.4	.5828
343.777	293.3	.5866
346.921	295.5	.591
350.053	297.6	.5952
353.164	299.6	.5992
356.265	301.3	.6026
359.31	303.7	.6074
362.514	305.8	.6116
365.683	308.4	.6168
368.863	310.2	.6204
372.042	311.9	.6238
375.21	314	.628
378.348	316.7	.6334
381.444	319	.638
384.52	320.9	.6418
387.645	322.7	.6454

System: D-mannitol; phases: Crystal
Fixed: Pressure, kPa = 101.325
Property: Molar heat capacity at constant pressure, J/K/mol (Crystal); method: Small (less than 1 g) adiabatic calorimetry
Temperature, K	Molar heat capacity at constant pressure, J/K/mol	uncertainty
80	70.46	.14092
85	76.73	.15346
90	82.37	.16474
95	87.51	.17502
100	92.23	.18446
105	96.64	.19328
110	100.8	.2016
115	104.8	.2096
120	108.7	.2174
125	112.5	.225
130	116.2	.2324
135	120	.24
140	123.8	.2476
145	127.7	.2554
150	131.6	.2632
155	135.6	.2712
160	139.7	.2794
165	143.9	.2878
170	148.2	.2964
175	152.5	.305
180	156.9	.3138
185	161.4	.3228
190	166	.332
195	170.6	.3412
200	175.2	.3504
205	179.9	.3598
210	184.6	.3692
215	189.3	.3786
220	193.9	.3878
225	198.6	.3972
230	203.2	.4064
235	207.8	.4156
