Measured thermophysical data. Transport Properties in 1,4-Dioxane + Water + Saturated KCl Critical Mixture by Measuring Viscosity and Electrical Conductivity
Source: J. Chem. Eng. Data, 2010, 10.1021/je900351t
Compound 1: 1,4-dioxane, C4H8O2, purity 99.99%
Compound 2: potassium chloride, ClK, purity 99.5%
Compound 3: water, H2O

System: 1,4-dioxane + potassium chloride + water; phases: Liquid mixture 1, Liquid mixture 2
Fixed: Pressure, kPa = 101
Property: Liquid-liquid equilibrium temperature, K (Liquid mixture 1); method: Visual observation
Solvent: Mass fraction of water	Molality, mol/kg of potassium chloride	Liquid-liquid equilibrium temperature, K	uncertainty
.2	.47	313.973	.002
.25	.488	312.567	.002
.3282	.55	311.032	.002
.4	.792	311.17	.002
.45	1.154	312.357	.002
.5	1.446	314.122	.002
.6	2.039	327.365	.002
.55	1.771	317.565	.002
.57	1.906	324.325	.002

System: 1,4-dioxane + potassium chloride + water; phases: Liquid
Fixed: Pressure, kPa = 101
Property: Viscosity, Pa*s (Liquid); method: Capillary tube (Ostwald; Ubbelohde) method
Temperature, K	Solvent: Mass fraction of water	Molality, mol/kg of potassium chloride	Viscosity, Pa*s	uncertainty
298.151	.2	.47	.00221289	.0000002
298.662	.2	.47	.00218623	.0000002
299.086	.2	.47	.0021645	.0000002
299.585	.2	.47	.00213915	.0000002
300.144	.2	.47	.00211133	.0000002
300.676	.2	.47	.00208529	.0000002
301.174	.2	.47	.00206139	.0000002
301.674	.2	.47	.00203768	.0000002
302.165	.2	.47	.00201452	.0000002
302.641	.2	.47	.00199254	.0000002
303.037	.2	.47	.00197457	.0000002
303.64	.2	.47	.00194757	.0000002
304.07	.2	.47	.00192846	.0000002
304.597	.2	.47	.00190557	.0000002
305.172	.2	.47	.00188109	.0000002
305.653	.2	.47	.00186058	.0000002
306.176	.2	.47	.00183951	.0000002
306.662	.2	.47	.00181902	.0000002
307.152	.2	.47	.00179905	.0000002
307.758	.2	.47	.00177496	.0000002
308.287	.2	.47	.00175435	.0000002
308.76	.2	.47	.00173594	.0000002
309.23	.2	.47	.00171803	.0000002
309.814	.2	.47	.00169588	.0000002
310.358	.2	.47	.00167603	.0000002
310.731	.2	.47	.00166248	.0000002
311.239	.2	.47	.00164416	.0000002
311.581	.2	.47	.00163197	.0000002
311.923	.2	.47	.00161994	.0000002
312.274	.2	.47	.00160771	.0000002
312.519	.2	.47	.00159935	.0000002
312.898	.2	.47	.00158623	.0000002
313.227	.2	.47	.00157505	.0000002
313.428	.2	.47	.00156037	.0000002
313.67	.2	.47	.00156019	.0000002
298.153	.4	.792	.00210047	.0000002
298.752	.4	.792	.00207064	.0000002
299.16	.4	.792	.00204582	.0000002
299.653	.4	.792	.00202725	.0000002
300.151	.4	.792	.00200367	.0000002
300.69	.4	.792	.00197892	.0000002
301.322	.4	.792	.00195018	.0000002
301.82	.4	.792	.00192792	.0000002
302.167	.4	.792	.00191265	.0000002
302.674	.4	.792	.00189055	.0000002
302.973	.4	.792	.00187566	.0000002
303.444	.4	.792	.00185735	.0000002
303.843	.4	.792	.00184078	.0000002
304.153	.4	.792	.00182715	.0000002
304.713	.4	.792	.00180485	.0000002
305.07	.4	.792	.00179035	.0000002
305.355	.4	.792	.00177893	.0000002
305.921	.4	.792	.00175667	.0000002
306.19	.4	.792	.00174593	.0000002
306.636	.4	.792	.00172861	.0000002
307.209	.4	.792	.00170762	.0000002
307.73	.4	.792	.00168728	.0000002
308.092	.4	.792	.00167366	.0000002
308.683	.4	.792	.00165201	.0000002
309.281	.4	.792	.00163051	.0000002
309.611	.4	.792	.00161871	.0000002
309.96	.4	.792	.00160646	.0000002
310.15	.4	.792	.0015998	.0000002
310.613	.4	.792	.00158346	.0000002
311.11	.4	.792	.00156676	.0000002
306.35	.6	2.039	.00157987	.0000002
307.259	.6	2.039	.00155013	.0000002
308.246	.6	2.039	.0015162	.0000002
309.264	.6	2.039	.00148201	.0000002
310.392	.6	2.039	.00144758	.0000002
311.252	.6	2.039	.00142127	.0000002
312.048	.6	2.039	.00139902	.0000002
312.758	.6	2.039	.00137676	.0000002
313.499	.6	2.039	.00135785	.0000002
314.207	.6	2.039	.0013358	.0000002
314.859	.6	2.039	.00131812	.0000002
315.467	.6	2.039	.00130141	.0000002
316.217	.6	2.039	.00127876	.0000002
316.883	.6	2.039	.00126414	.0000002
317.486	.6	2.039	.00125186	.0000002
318.166	.6	2.039	.00123113	.0000002
318.972	.6	2.039	.00121277	.0000002
319.59	.6	2.039	.00119701	.0000002
320.04	.6	2.039	.0011863	.0000002
320.502	.6	2.039	.0011758	.0000002
321.091	.6	2.039	.00116145	.0000002
321.62	.6	2.039	.00114904	.0000002
322.27	.6	2.039	.00113452	.0000002
322.76	.6	2.039	.00112337	.0000002
323.248	.6	2.039	.00111269	.0000002
323.72	.6	2.039	.00110322	.0000002
324.101	.6	2.039	.00109434	.0000002
324.721	.6	2.039	.00108212	.0000002
325.31	.6	2.039	.00107055	.0000002
325.705	.6	2.039	.001061	.0000002
326.028	.6	2.039	.00105486	.0000002
326.351	.6	2.039	.00104765	.0000002
326.75	.6	2.039	.00103924	.0000002
327.06	.6	2.039	.00103364	.0000002
298.158	.25	.488	.00215543	.0000002
298.706	.25	.488	.00212772	.0000002
299.162	.25	.488	.00210509	.0000002
299.66	.25	.488	.00208044	.0000002
300.153	.25	.488	.00205688	.0000002
300.902	.25	.488	.00202199	.0000002
301.565	.25	.488	.00199119	.0000002
302.305	.25	.488	.00195743	.0000002
302.954	.25	.488	.00192846	.0000002
303.436	.25	.488	.00190736	.0000002
304.167	.25	.488	.00187575	.0000002
304.852	.25	.488	.00184694	.0000002
305.163	.25	.488	.00183395	.0000002
305.696	.25	.488	.00181209	.0000002
306.255	.25	.488	.00178945	.0000002
306.812	.25	.488	.00176731	.0000002
307.151	.25	.488	.00175391	.0000002
307.653	.25	.488	.0017345	.0000002
308.154	.25	.488	.0017153	.0000002
308.814	.25	.488	.00169048	.0000002
309.17	.25	.488	.00167732	.0000002
309.68	.25	.488	.00165861	.0000002
310.164	.25	.488	.00164114	.0000002
310.843	.25	.488	.00161703	.0000002
311.151	.25	.488	.00160617	.0000002
311.68	.25	.488	.00158785	.0000002
312.223	.25	.488	.00156936	.0000002
298.243	.45	1.154	.0021588	.0000002
298.685	.45	1.154	.00213775	.0000002
299.31	.45	1.154	.002105	.0000002
300.132	.45	1.154	.0020635	.0000002
300.632	.45	1.154	.00203825	.0000002
301.113	.45	1.154	.00201351	.0000002
301.576	.45	1.154	.00198909	.0000002
302.102	.45	1.154	.00196481	.0000002
302.654	.45	1.154	.00194134	.0000002
303.142	.45	1.154	.00191802	.0000002
303.608	.45	1.154	.00189678	.0000002
304.202	.45	1.154	.00187046	.0000002
304.686	.45	1.154	.00184828	.0000002
305.274	.45	1.154	.00182737	.0000002
305.674	.45	1.154	.00180699	.0000002
306.19	.45	1.154	.00178659	.0000002
306.703	.45	1.154	.0017664	.0000002
307.181	.45	1.154	.00174677	.0000002
307.56	.45	1.154	.00173207	.0000002
307.992	.45	1.154	.00171561	.0000002
308.343	.45	1.154	.00170509	.0000002
308.541	.45	1.154	.00169371	.0000002
308.97	.45	1.154	.00167986	.0000002
309.215	.45	1.154	.0016686	.0000002
309.501	.45	1.154	.0016591	.0000002
309.841	.45	1.154	.00164972	.0000002
310.065	.45	1.154	.00164096	.0000002
310.618	.45	1.154	.00162139	.0000002
310.934	.45	1.154	.00160844	.0000002
311.274	.45	1.154	.00159894	.0000002
311.565	.45	1.154	.00159015	.0000002
311.829	.45	1.154	.00158986	.0000002
311.921	.45	1.154	.00158482	.0000002
312.32	.45	1.154	.00157178	.0000002
300.194	.55	1.771	.00188857	.0000002
300.662	.55	1.771	.00186866	.0000002
301.173	.55	1.771	.00184675	.0000002
301.77	.55	1.771	.00182181	.0000002
302.28	.55	1.771	.00180076	.0000002
302.786	.55	1.771	.00178007	.0000002
303.256	.55	1.771	.00176174	.0000002
303.759	.55	1.771	.00174142	.0000002
304.248	.55	1.771	.00172232	.0000002
304.758	.55	1.771	.0017037	.0000002
305.271	.55	1.771	.00168332	.0000002
305.758	.55	1.771	.00166526	.0000002
306.231	.55	1.771	.00164777	.0000002
306.771	.55	1.771	.00162829	.0000002
307.272	.55	1.771	.00161027	.0000002
307.545	.55	1.771	.001601	.0000002
307.972	.55	1.771	.00158607	.0000002
308.287	.55	1.771	.00157293	.0000002
308.708	.55	1.771	.00156063	.0000002
309.102	.55	1.771	.00154734	.0000002
309.586	.55	1.771	.00153147	.0000002
309.917	.55	1.771	.00152023	.0000002
310.278	.55	1.771	.00150861	.0000002
310.563	.55	1.771	.00149923	.0000002
310.958	.55	1.771	.00148657	.0000002
311.202	.55	1.771	.00148026	.0000002
311.59	.55	1.771	.00146663	.0000002
311.921	.55	1.771	.00145626	.0000002
312.2	.55	1.771	.00144769	.0000002
312.59	.55	1.771	.00143708	.0000002
312.881	.55	1.771	.00142678	.0000002
313.22	.55	1.771	.00141664	.0000002
313.548	.55	1.771	.0014069	.0000002
313.965	.55	1.771	.00139458	.0000002
314.305	.55	1.771	.00138759	.0000002
314.58	.55	1.771	.0013767	.0000002
314.85	.55	1.771	.00136974	.0000002
315.231	.55	1.771	.00135737	.0000002
315.552	.55	1.771	.00134897	.0000002
315.86	.55	1.771	.00134165	.0000002
316.231	.55	1.771	.00133007	.0000002
316.51	.55	1.771	.00132238	.0000002
316.896	.55	1.771	.0013208	.0000002
317.485	.55	1.771	.00129958	.0000002
298.205	.3282	.55	.00213371	.0000002
298.827	.3282	.55	.00210267	.0000002
299.311	.3282	.55	.0020789	.0000002
299.82	.3282	.55	.00205427	.0000002
300.294	.3282	.55	.00203169	.0000002
300.83	.3282	.55	.00200672	.0000002
301.59	.3282	.55	.00197155	.0000002
301.986	.3282	.55	.00195361	.0000002
302.48	.3282	.55	.00193166	.0000002
302.968	.3282	.55	.00191009	.0000002
303.505	.3282	.55	.00188678	.0000002
304.066	.3282	.55	.00186287	.0000002
304.49	.3282	.55	.00184506	.0000002
305.155	.3282	.55	.00181753	.0000002
305.615	.3282	.55	.0017988	.0000002
306.012	.3282	.55	.00178284	.0000002
306.274	.3282	.55	.00177241	.0000002
306.701	.3282	.55	.00175553	.0000002
307.01	.3282	.55	.00174347	.0000002
307.31	.3282	.55	.0017319	.0000002
307.647	.3282	.55	.001719	.0000002
307.975	.3282	.55	.00170653	.0000002
308.283	.3282	.55	.00169494	.0000002
308.52	.3282	.55	.0016861	.0000002
308.806	.3282	.55	.00167582	.0000002
309.04	.3282	.55	.00166689	.0000002
309.275	.3282	.55	.00165828	.0000002
309.52	.3282	.55	.0016494	.0000002
309.8	.3282	.55	.00163932	.0000002
310.043	.3282	.55	.00163062	.0000002
310.32	.3282	.55	.00162083	.0000002
298.15	.5	1.446	.00203157	.0000002
298.802	.5	1.446	.00200381	.0000002
299.26	.5	1.446	.00198163	.0000002
299.783	.5	1.446	.00195739	.0000002
300.283	.5	1.446	.0019375	.0000002
300.76	.5	1.446	.00191397	.0000002
301.28	.5	1.446	.00189116	.0000002
301.754	.5	1.446	.00187251	.0000002
302.255	.5	1.446	.00184945	.0000002
302.772	.5	1.446	.00182805	.0000002
303.258	.5	1.446	.00180758	.0000002
303.749	.5	1.446	.00178824	.0000002
304.305	.5	1.446	.00176562	.0000002
304.772	.5	1.446	.00174688	.0000002
305.29	.5	1.446	.00172673	.0000002
305.771	.5	1.446	.0017082	.0000002
306.16	.5	1.446	.00169342	.0000002
306.757	.5	1.446	.00167121	.0000002
307.251	.5	1.446	.00165401	.0000002
307.762	.5	1.446	.00163593	.0000002
308.267	.5	1.446	.00161795	.0000002
308.48	.5	1.446	.00160879	.0000002
308.843	.5	1.446	.00159602	.0000002
309.282	.5	1.446	.00158077	.0000002
309.683	.5	1.446	.00156549	.0000002
310.137	.5	1.446	.0015517	.0000002
310.615	.5	1.446	.0015356	.0000002
310.95	.5	1.446	.00152467	.0000002
311.365	.5	1.446	.00151029	.0000002
311.72	.5	1.446	.00150084	.0000002
312.12	.5	1.446	.00148667	.0000002
312.51	.5	1.446	.00147434	.0000002
312.952	.5	1.446	.00146066	.0000002
313.226	.5	1.446	.00145242	.0000002
313.529	.5	1.446	.00144415	.0000002
313.648	.5	1.446	.00145383	.0000002
313.913	.5	1.446	.00143363	.0000002
302.22	.57	1.906	.00177342	.0000002
303.166	.57	1.906	.00173775	.0000002
304.213	.57	1.906	.0016952	.0000002
305.16	.57	1.906	.00166344	.0000002
306.05	.57	1.906	.00162848	.0000002
307.285	.57	1.906	.00158526	.0000002
308.179	.57	1.906	.00155513	.0000002
308.882	.57	1.906	.001531	.0000002
309.86	.57	1.906	.00149965	.0000002
310.86	.57	1.906	.0014674	.0000002
311.835	.57	1.906	.00143732	.0000002
312.834	.57	1.906	.00140732	.0000002
313.853	.57	1.906	.00137893	.0000002
314.754	.57	1.906	.00135198	.0000002
315.766	.57	1.906	.00132399	.0000002
316.628	.57	1.906	.0013007	.0000002
317.632	.57	1.906	.00127416	.0000002
318.87	.57	1.906	.00124246	.0000002
319.86	.57	1.906	.00121785	.0000002
320.825	.57	1.906	.00119473	.0000002
321.75	.57	1.906	.0011731	.0000002
322.5	.57	1.906	.00116113	.0000002
323.123	.57	1.906	.00114464	.0000002
324.197	.57	1.906	.00111765	.0000002

System: 1,4-dioxane + potassium chloride + water; phases: Liquid
Fixed: Pressure, kPa = 101
Property: Electrical conductivity, S/m (Liquid); method: Alternating current cell with electrodes
Temperature, K	Solvent: Mass fraction of water	Molality, mol/kg of potassium chloride	Electrical conductivity, S/m	uncertainty
298.151	.2	.47	.0898	.000898
298.662	.2	.47	.0947	.000947
299.086	.2	.47	.0996	.000996
299.585	.2	.47	.1014	.001014
300.144	.2	.47	.1068	.001068
300.676	.2	.47	.113	.00113
301.174	.2	.47	.1188	.001188
301.674	.2	.47	.1246	.001246
302.165	.2	.47	.1303	.001303
302.641	.2	.47	.1358	.001358
303.037	.2	.47	.1403	.001403
303.64	.2	.47	.1473	.001473
304.07	.2	.47	.1523	.001523
304.597	.2	.47	.1584	.001584
305.172	.2	.47	.1651	.001651
305.653	.2	.47	.1706	.001706
306.176	.2	.47	.1767	.001767
306.662	.2	.47	.1823	.001823
307.152	.2	.47	.188	.00188
307.758	.2	.47	.195	.00195
308.287	.2	.47	.2011	.002011
308.76	.2	.47	.2066	.002066
309.23	.2	.47	.2121	.002121
309.814	.2	.47	.2188	.002188
310.358	.2	.47	.2251	.002251
310.731	.2	.47	.2294	.002294
311.239	.2	.47	.2353	.002353
311.581	.2	.47	.2393	.002393
311.923	.2	.47	.2432	.002432
312.274	.2	.47	.2473	.002473
312.519	.2	.47	.2501	.002501
312.898	.2	.47	.2545	.002545
313.227	.2	.47	.2583	.002583
313.428	.2	.47	.2607	.002607
313.67	.2	.47	.2635	.002635
298.153	.4	.792	1.758	.01758
298.752	.4	.792	1.791	.01791
299.16	.4	.792	1.813	.01813
299.653	.4	.792	1.835	.01835
300.151	.4	.792	1.862	.01862
300.69	.4	.792	1.887	.01887
301.322	.4	.792	1.919	.01919
301.82	.4	.792	1.954	.01954
302.167	.4	.792	1.967	.01967
302.674	.4	.792	1.998	.01998
302.973	.4	.792	2.013	.02013
303.444	.4	.792	2.037	.02037
303.843	.4	.792	2.058	.02058
304.153	.4	.792	2.076	.02076
304.713	.4	.792	2.106	.02106
305.07	.4	.792	2.123	.02123
305.355	.4	.792	2.141	.02141
305.921	.4	.792	2.169	.02169
306.19	.4	.792	2.185	.02185
306.636	.4	.792	2.204	.02204
307.209	.4	.792	2.237	.02237
307.73	.4	.792	2.264	.02264
308.092	.4	.792	2.287	.02287
308.683	.4	.792	2.315	.02315
309.281	.4	.792	2.347	.02347
309.611	.4	.792	2.367	.02367
309.96	.4	.792	2.38	.0238
310.15	.4	.792	2.3871	.023871
310.613	.4	.792	2.421	.02421
311.11	.4	.792	2.444	.02444
306.35	.6	2.039	9.306	.09306
307.259	.6	2.039	9.417	.09417
308.246	.6	2.039	9.527	.09527
309.264	.6	2.039	9.652	.09652
310.392	.6	2.039	9.819	.09819
311.252	.6	2.039	9.924	.09924
312.048	.6	2.039	9.991	.09991
312.758	.6	2.039	10.11	.1011
313.499	.6	2.039	10.19	.1019
314.207	.6	2.039	10.27	.1027
314.859	.6	2.039	10.36	.1036
315.467	.6	2.039	10.44	.1044
316.217	.6	2.039	10.56	.1056
316.883	.6	2.039	10.65	.1065
317.486	.6	2.039	10.69	.1069
318.166	.6	2.039	10.78	.1078
318.972	.6	2.039	10.88	.1088
319.59	.6	2.039	10.94	.1094
320.04	.6	2.039	10.99	.1099
320.502	.6	2.039	11.08	.1108
321.091	.6	2.039	11.15	.1115
321.62	.6	2.039	11.19	.1119
322.27	.6	2.039	11.27	.1127
322.76	.6	2.039	11.34	.1134
323.248	.6	2.039	11.39	.1139
323.72	.6	2.039	11.45	.1145
324.101	.6	2.039	11.49	.1149
324.721	.6	2.039	11.56	.1156
325.31	.6	2.039	11.64	.1164
325.705	.6	2.039	11.68	.1168
326.028	.6	2.039	11.72	.1172
326.351	.6	2.039	11.78	.1178
326.75	.6	2.039	11.87	.1187
327.06	.6	2.039	11.87	.1187
298.158	.25	.488	.1773	.001773
298.706	.25	.488	.1836	.001836
299.162	.25	.488	.1891	.001891
299.66	.25	.488	.1951	.001951
300.153	.25	.488	.203	.00203
300.902	.25	.488	.2059	.002059
301.565	.25	.488	.221	.00221
302.305	.25	.488	.226	.00226
302.954	.25	.488	.233	.00233
303.436	.25	.488	.2391	.002391
304.167	.25	.488	.247	.00247
304.852	.25	.488	.255	.00255
305.163	.25	.488	.26	.0026
305.696	.25	.488	.265	.00265
306.255	.25	.488	.272	.00272
306.812	.25	.488	.2781	.002781
307.151	.25	.488	.2819	.002819
307.653	.25	.488	.288	.00288
308.154	.25	.488	.294	.00294
308.814	.25	.488	.3001	.003001
309.17	.25	.488	.306	.00306
309.68	.25	.488	.311	.00311
310.164	.25	.488	.3167	.003167
310.843	.25	.488	.325	.00325
311.151	.25	.488	.329	.00329
311.68	.25	.488	.334	.00334
312.223	.25	.488	.341	.00341
298.243	.45	1.154	2.612	.02612
298.685	.45	1.154	2.635	.02635
299.31	.45	1.154	2.678	.02678
300.132	.45	1.154	2.738	.02738
300.632	.45	1.154	2.773	.02773
301.113	.45	1.154	2.792	.02792
301.576	.45	1.154	2.843	.02843
302.102	.45	1.154	2.87	.0287
302.654	.45	1.154	2.907	.02907
303.142	.45	1.154	2.943	.02943
303.608	.45	1.154	2.979	.02979
304.202	.45	1.154	3.01	.0301
304.686	.45	1.154	3.055	.03055
305.274	.45	1.154	3.102	.03102
305.674	.45	1.154	3.12	.0312
306.19	.45	1.154	3.158	.03158
306.703	.45	1.154	3.197	.03197
307.181	.45	1.154	3.225	.03225
307.56	.45	1.154	3.25	.0325
307.992	.45	1.154	3.2882	.032882
308.343	.45	1.154	3.303	.03303
308.541	.45	1.154	3.313	.03313
308.97	.45	1.154	3.34	.0334
309.215	.45	1.154	3.363	.03363
309.501	.45	1.154	3.373	.03373
309.841	.45	1.154	3.395	.03395
310.065	.45	1.154	3.417	.03417
310.618	.45	1.154	3.46	.0346
310.934	.45	1.154	3.47	.0347
311.274	.45	1.154	3.49	.0349
311.565	.45	1.154	3.509	.03509
311.829	.45	1.154	3.529	.03529
311.921	.45	1.154	3.527	.03527
312.32	.45	1.154	3.552	.03552
300.194	.55	1.771	5.642	.05642
300.662	.55	1.771	5.702	.05702
301.173	.55	1.771	5.743	.05743
301.77	.55	1.771	5.835	.05835
302.28	.55	1.771	5.887	.05887
302.786	.55	1.771	5.919	.05919
303.256	.55	1.771	5.958	.05958
303.759	.55	1.771	6.04	.0604
304.248	.55	1.771	6.09	.0609
304.758	.55	1.771	6.133	.06133
305.271	.55	1.771	6.186	.06186
305.758	.55	1.771	6.236	.06236
306.231	.55	1.771	6.295	.06295
306.771	.55	1.771	6.351	.06351
307.272	.55	1.771	6.402	.06402
307.545	.55	1.771	6.43	.0643
307.972	.55	1.771	6.475	.06475
308.287	.55	1.771	6.507	.06507
308.708	.55	1.771	6.55	.0655
309.102	.55	1.771	6.591	.06591
309.586	.55	1.771	6.621	.06621
309.917	.55	1.771	6.675	.06675
310.278	.55	1.771	6.712	.06712
310.563	.55	1.771	6.741	.06741
310.958	.55	1.771	6.782	.06782
311.202	.55	1.771	6.807	.06807
311.59	.55	1.771	6.847	.06847
311.921	.55	1.771	6.882	.06882
312.2	.55	1.771	6.91	.0691
312.59	.55	1.771	6.961	.06961
312.881	.55	1.771	6.989	.06989
313.22	.55	1.771	7.015	.07015
313.548	.55	1.771	7.069	.07069
313.965	.55	1.771	7.092	.07092
314.305	.55	1.771	7.137	.07137
314.58	.55	1.771	7.166	.07166
314.85	.55	1.771	7.183	.07183
315.231	.55	1.771	7.243	.07243
315.552	.55	1.771	7.276	.07276
315.86	.55	1.771	7.288	.07288
316.231	.55	1.771	7.356	.07356
316.51	.55	1.771	7.375	.07375
316.896	.55	1.771	7.395	.07395
317.485	.55	1.771	7.455	.07455
298.205	.3282	.55	.795	.00795
298.827	.3282	.55	.817	.00817
299.311	.3282	.55	.83	.0083
299.82	.3282	.55	.84	.0084
300.294	.3282	.55	.86	.0086
300.83	.3282	.55	.88	.0088
301.59	.3282	.55	.9	.009
301.986	.3282	.55	.92	.0092
302.48	.3282	.55	.94	.0094
302.968	.3282	.55	.95	.0095
303.505	.3282	.55	.97	.0097
304.066	.3282	.55	.994	.00994
304.49	.3282	.55	1.004	.01004
305.155	.3282	.55	1.027	.01027
305.615	.3282	.55	1.044	.01044
306.012	.3282	.55	1.051	.01051
306.274	.3282	.55	1.061	.01061
306.701	.3282	.55	1.077	.01077
307.01	.3282	.55	1.085	.01085
307.31	.3282	.55	1.092	.01092
307.647	.3282	.55	1.108	.01108
307.975	.3282	.55	1.119	.01119
308.283	.3282	.55	1.125	.01125
308.52	.3282	.55	1.134	.01134
308.806	.3282	.55	1.145	.01145
309.04	.3282	.55	1.151	.01151
309.275	.3282	.55	1.165	.01165
309.52	.3282	.55	1.177	.01177
309.8	.3282	.55	1.187	.01187
310.043	.3282	.55	1.193	.01193
310.32	.3282	.55	1.195	.01195
298.15	.5	1.446	3.988	.03988
298.802	.5	1.446	4.048	.04048
299.26	.5	1.446	4.086	.04086
299.783	.5	1.446	4.129	.04129
300.283	.5	1.446	4.181	.04181
300.76	.5	1.446	4.214	.04214
301.28	.5	1.446	4.259	.04259
301.754	.5	1.446	4.298	.04298
302.255	.5	1.446	4.352	.04352
302.772	.5	1.446	4.392	.04392
303.258	.5	1.446	4.452	.04452
303.749	.5	1.446	4.483	.04483
304.305	.5	1.446	4.536	.04536
304.772	.5	1.446	4.57	.0457
305.29	.5	1.446	4.592	.04592
305.771	.5	1.446	4.645	.04645
306.16	.5	1.446	4.687	.04687
306.757	.5	1.446	4.727	.04727
307.251	.5	1.446	4.788	.04788
307.762	.5	1.446	4.813	.04813
308.267	.5	1.446	4.876	.04876
308.48	.5	1.446	4.893	.04893
308.843	.5	1.446	4.897	.04897
309.282	.5	1.446	4.931	.04931
309.683	.5	1.446	4.985	.04985
310.137	.5	1.446	5.006	.05006
310.615	.5	1.446	5.041	.05041
310.95	.5	1.446	5.072	.05072
311.365	.5	1.446	5.146	.05146
311.72	.5	1.446	5.138	.05138
312.12	.5	1.446	5.173	.05173
312.51	.5	1.446	5.213	.05213
312.952	.5	1.446	5.241	.05241
313.226	.5	1.446	5.265	.05265
313.529	.5	1.446	5.289	.05289
313.648	.5	1.446	5.296	.05296
313.913	.5	1.446	5.322	.05322
302.22	.57	1.906	7.528	.07528
303.166	.57	1.906	7.655	.07655
304.213	.57	1.906	7.771	.07771
305.16	.57	1.906	7.896	.07896
306.05	.57	1.906	7.984	.07984
307.285	.57	1.906	8.151	.08151
308.179	.57	1.906	8.26	.0826
308.882	.57	1.906	8.288	.08288
309.86	.57	1.906	8.396	.08396
310.86	.57	1.906	8.517	.08517
311.835	.57	1.906	8.615	.08615
312.834	.57	1.906	8.726	.08726
313.853	.57	1.906	8.859	.08859
314.754	.57	1.906	8.969	.08969
315.766	.57	1.906	9.051	.09051
316.628	.57	1.906	9.146	.09146
317.632	.57	1.906	9.258	.09258
318.87	.57	1.906	9.395	.09395
319.86	.57	1.906	9.504	.09504
320.825	.57	1.906	9.611	.09611
321.75	.57	1.906	9.714	.09714
322.5	.57	1.906	9.797	.09797
323.123	.57	1.906	9.866	.09866
324.197	.57	1.906	9.985	.09985
