Measured thermophysical data. Solubility of Thiotriazinone in Ethanol, 1-Propanol, 2-Propanol, 1-Butanol, Acetonitrile, Acetone, Ethyl Acetate, and Water from 293 K to 343 K
Source: J. Chem. Eng. Data, 2009, 10.1021/je900177h
Compound 1: thiotriazinone, C4H5N3O2S, purity 99.4%
Compound 2: ethanol, C2H6O
Compound 3: 1-propanol, C3H8O
Compound 4: 2-propanol, C3H8O
Compound 5: 1-butanol, C4H10O
Compound 6: acetonitrile, C2H3N
Compound 7: propanone, C3H6O
Compound 8: ethyl ethanoate, C4H8O2
Compound 9: water, H2O

System: ethanol + thiotriazinone; phases: Liquid, Crystal
Fixed: Pressure, kPa = 101
Property: Mole fraction of thiotriazinone (Liquid); method: laser beam penetrating
Temperature, K	Mole fraction of thiotriazinone	uncertainty
293.23	.01252	
298.35	.01397	
303.33	.01524	
308.29	.01687	
313.47	.01859	
318.47	.02047	
323.41	.0228	
328.23	.0255	
333.53	.02777	
338.63	.03074	
343.33	.03449	

System: 1-propanol + thiotriazinone; phases: Liquid, Crystal
Fixed: Pressure, kPa = 101
Property: Mole fraction of thiotriazinone (Liquid); method: laser beam penetrating
Temperature, K	Mole fraction of thiotriazinone	uncertainty
292.99	.008588	
298.33	.009588	
303.23	.01078	
308.23	.01219	
313.15	.01391	
318.23	.0157	
323.23	.01763	
328.47	.01984	
333.07	.02235	
338.33	.02514	
343.35	.02856	

System: 2-propanol + thiotriazinone; phases: Liquid, Crystal
Fixed: Pressure, kPa = 101
Property: Mole fraction of thiotriazinone (Liquid); method: laser beam penetrating
Temperature, K	Mole fraction of thiotriazinone	uncertainty
293.11	.005565	
298.21	.006626	
303.13	.007821	
308.11	.009149	
312.87	.01069	
317.83	.01245	
323.07	.01422	
328.13	.01642	
333.09	.01874	
337.75	.02166	
342.67	.02475	

System: 1-butanol + thiotriazinone; phases: Liquid, Crystal
Fixed: Pressure, kPa = 101
Property: Mole fraction of thiotriazinone (Liquid); method: laser beam penetrating
Temperature, K	Mole fraction of thiotriazinone	uncertainty
293.11	.008716	
322.89	.01784	
298.23	.009642	
302.99	.01094	
308.11	.01238	
313.13	.01408	
318.05	.01589	
328.13	.01999	
333.39	.02238	
338.07	.02549	
343.23	.02884	

System: acetonitrile + thiotriazinone; phases: Liquid, Crystal
Fixed: Pressure, kPa = 101
Property: Mole fraction of thiotriazinone (Liquid); method: laser beam penetrating
Temperature, K	Mole fraction of thiotriazinone	uncertainty
293.21	.002211	
298.23	.002482	
303.15	.002683	
308.11	.002988	
313.07	.003333	
317.95	.003749	
323.11	.004203	
328.13	.004634	
333.23	.005205	
338.17	.005849	
342.75	.006538	

System: propanone + thiotriazinone; phases: Liquid, Crystal
Fixed: Pressure, kPa = 101
Property: Mole fraction of thiotriazinone (Liquid); method: laser beam penetrating
Temperature, K	Mole fraction of thiotriazinone	uncertainty
293.25	.01497	
298.25	.0155	
303.09	.01604	
308.05	.01677	
312.79	.01784	
318.03	.01858	
323.07	.01989	
327.37	.02085	

System: ethyl ethanoate + thiotriazinone; phases: Liquid, Crystal
Fixed: Pressure, kPa = 101
Property: Mole fraction of thiotriazinone (Liquid); method: laser beam penetrating
Temperature, K	Mole fraction of thiotriazinone	uncertainty
293.07	.005739	
298.49	.006172	
303.41	.006429	
308.49	.006972	
313.53	.007468	
318.67	.007986	
323.49	.008603	
328.61	.00918	
333.53	.009851	
338.23	.01045	
343.33	.01111	

System: water + thiotriazinone; phases: Liquid, Crystal
Fixed: Pressure, kPa = 101
Property: Mole fraction of thiotriazinone (Liquid); method: laser beam penetrating
Temperature, K	Mole fraction of thiotriazinone	uncertainty
293.23	.001388	
298.15	.001582	
302.93	.001868	
322.85	.003662	
327.77	.004376	
332.83	.005216	
293.23	.001388	
312.93	.002631	
317.65	.003057	
337.35	.006232	
342.47	.007483	
