Measured thermophysical data. The Conductivity of Imidazolium-Based Ionic Liquids from (248 to 468) K. B. Variation of the Anion
Source: J. Chem. Eng. Data, 2010, 10.1021/je900793r
Compound 1: 1-butyl-3-methylimidazolium hexafluorophosphate, C8H15F6N2P
Compound 2: 1-butyl-3-methylimidazolium trifluoroacetate, C10H15F3N2O2
Compound 3: 1-butyl-3-methylimidazolium dicyanamide, C10H15N5
Compound 4: 1-butyl-3-methylimidazolium trifluoromethanesulfonate, C9H15F3N2O3S

System: 1-butyl-3-methylimidazolium hexafluorophosphate; phases: Liquid
Fixed: Pressure, kPa = 101.325
Property: Electrical conductivity, S/m (Liquid); method: Alternating current cell with electrodes
Temperature, K	Electrical conductivity, S/m	uncertainty
268.15	.0164	.000082
278.15	.0385	.0001925
288.15	.0792	.000396
298.15	.1465	.0007325
308.15	.248	.00124
318.15	.39	.00195
328.15	.578	.00289
338.15	.815	.004075
348.15	1.102	.00551
358.15	1.44	.0072
368.15	1.825	.009125
378.15	2.26	.0113
388.15	2.74	.0137
398.15	3.25	.01625
408.15	3.81	.01905
418.15	4.39	.02195
428.15	5.01	.02505
438.15	5.65	.02825
448.15	6.31	.03155
458.15	7	.035
468.15	7.69	.03845

System: 1-butyl-3-methylimidazolium hexafluorophosphate; phases: Liquid
Fixed: Pressure, kPa = 101.325
Property: Mass density, kg/m3 (Liquid); method: Vibrating tube method
Temperature, K	Mass density, kg/m3	uncertainty
278.15	1383.38	.05
288.15	1376.92	.05
298.15	1368.35	.05
308.15	1359.96	.05
318.15	1351.63	.05
328.15	1343.16	.05
338.15	1334.73	.05

System: 1-butyl-3-methylimidazolium trifluoroacetate; phases: Liquid
Fixed: Pressure, kPa = 101.325
Property: Electrical conductivity, S/m (Liquid); method: Alternating current cell with electrodes
Temperature, K	Electrical conductivity, S/m	uncertainty
248.15	.00858	.0000429
258.15	.0244	.000122
268.15	.0569	.0002845
278.15	.1144	.000572
288.15	.205	.001025
298.15	.332	.00166
308.15	.504	.00252
318.15	.723	.003615
328.15	.988	.00494
338.15	1.301	.006505
348.15	1.658	.00829
358.15	2.06	.0103
368.15	2.5	.0125

System: 1-butyl-3-methylimidazolium trifluoroacetate; phases: Liquid
Fixed: Pressure, kPa = 101.325
Property: Mass density, kg/m3 (Liquid); method: Vibrating tube method
Temperature, K	Mass density, kg/m3	uncertainty
278.15	1230.37	.05
288.15	1223.4	.05
298.15	1215.48	.05
308.15	1207.71	.05
318.15	1200.23	.05
328.15	1192.56	.05
338.15	1185.09	.05

System: 1-butyl-3-methylimidazolium dicyanamide; phases: Liquid
Fixed: Pressure, kPa = 101.325
Property: Electrical conductivity, S/m (Liquid); method: Alternating current cell with electrodes
Temperature, K	Electrical conductivity, S/m	uncertainty
248.15	.0483	.0002415
258.15	.118	.00059
268.15	.242	.00121
278.15	.433	.002165
288.15	.702	.00351
298.15	1.052	.00526
308.15	1.483	.007415
318.15	1.991	.009955
328.15	2.57	.01285
338.15	3.22	.0161
348.15	3.93	.01965
358.15	4.69	.02345
368.15	5.41	.02705
378.15	6.34	.0317
388.15	7.26	.0363
398.15	8.19	.04095
408.15	9.15	.04575
418.15	10.12	.0506
428.15	11.12	.0556
438.15	12.1	.0605
448.15	13.09	.06545
458.15	13.75	.06875
468.15	14.54	.0727

System: 1-butyl-3-methylimidazolium dicyanamide; phases: Liquid
Fixed: Pressure, kPa = 101.325
Property: Mass density, kg/m3 (Liquid); method: Vibrating tube method
Temperature, K	Mass density, kg/m3	uncertainty
278.15	1072.22	.05
288.15	1066.15	.05
298.15	1059.62	.05
308.15	1053.35	.05
318.15	1047.26	.05
328.15	1040.87	.05
338.15	1034.72	.05

System: 1-butyl-3-methylimidazolium trifluoromethanesulfonate; phases: Liquid
Fixed: Pressure, kPa = 101.325
Property: Electrical conductivity, S/m (Liquid); method: Alternating current cell with electrodes
Temperature, K	Electrical conductivity, S/m	uncertainty
268.15	.0539	.0002695
278.15	.1038	.000519
288.15	.1808	.000904
298.15	.29	.00145
308.15	.436	.00218
318.15	.621	.003105
328.15	.848	.00424
338.15	1.117	.005585
348.15	1.426	.00713
358.15	1.775	.008875
368.15	2.16	.0108
378.15	2.6	.013
388.15	3.04	.0152
398.15	3.52	.0176
408.15	4.03	.02015
418.15	4.56	.0228
428.15	5.12	.0256
438.15	5.69	.02845
448.15	6.28	.0314
458.15	6.88	.0344
468.15	7.5	.0375

System: 1-butyl-3-methylimidazolium trifluoromethanesulfonate; phases: Liquid
Fixed: Pressure, kPa = 101.325
Property: Mass density, kg/m3 (Liquid); method: Vibrating tube method
Temperature, K	Mass density, kg/m3	uncertainty
278.15	1313.19	.05
288.15	1305.51	.05
298.15	1297.43	.05
308.15	1289.31	.05
318.15	1281.61	.05
328.15	1273.62	.05
338.15	1265.83	.05
