Measured thermophysical data. Thermodynamics of Ketone + Amine Mixtures. I. Volumetric and Speed of Sound Data at (293.15, 298.15, and 303.15) K for 2-Propanone + Aniline, + N-Methylaniline, or + Pyridine Systems
Source: J. Chem. Eng. Data, 2010, 10.1021/je900874z
Compound 1: propanone, C3H6O
Compound 2: phenylmethylamine, C7H9N
Compound 3: aniline, C6H7N
Compound 4: azine, C5H5N

System: propanone; phases: Liquid
Fixed: Pressure, kPa = 101.325
Property: Mass density, kg/m3 (Liquid); method: Vibrating tube method
Temperature, K	Mass density, kg/m3	uncertainty
293.15	790.694	.01
298.15	785.32	.01
303.15	778.812	.01

System: propanone; phases: Liquid
Fixed: Pressure, kPa = 101.325
Property: Speed of sound, m/s (Liquid); method: Pulse-echo method
Temperature, K	Speed of sound, m/s	uncertainty
293.15	1182.8	.1
298.15	1160.7	.1
303.15	1138.7	.1

System: phenylmethylamine; phases: Liquid
Fixed: Pressure, kPa = 101.325
Property: Mass density, kg/m3 (Liquid); method: Vibrating tube method
Temperature, K	Mass density, kg/m3	uncertainty
293.15	986.077	.01
298.15	982.066	.01
303.15	978.011	.01

System: phenylmethylamine; phases: Liquid
Fixed: Pressure, kPa = 101.325
Property: Speed of sound, m/s (Liquid); method: Pulse-echo method
Temperature, K	Speed of sound, m/s	uncertainty
293.15	1582.3	.1
298.15	1564.4	.1
303.15	1545.5	.1

System: aniline; phases: Liquid
Fixed: Pressure, kPa = 101.325
Property: Mass density, kg/m3 (Liquid); method: Vibrating tube method
Temperature, K	Mass density, kg/m3	uncertainty
293.15	1021.702	.01
298.15	1017.406	.01
303.15	1013.045	.01

System: aniline; phases: Liquid
Fixed: Pressure, kPa = 101.325
Property: Speed of sound, m/s (Liquid); method: Pulse-echo method
Temperature, K	Speed of sound, m/s	uncertainty
293.15	1657	.1
298.15	1638.6	.1
303.15	1619.2	.1

System: azine; phases: Liquid
Fixed: Pressure, kPa = 101.325
Property: Mass density, kg/m3 (Liquid); method: Vibrating tube method
Temperature, K	Mass density, kg/m3	uncertainty
293.15	983.053	.01
298.15	978.05	.01
303.15	972.98	.01

System: azine; phases: Liquid
Fixed: Pressure, kPa = 101.325
Property: Speed of sound, m/s (Liquid); method: Pulse-echo method
Temperature, K	Speed of sound, m/s	uncertainty
293.15	1436.7	.1
298.15	1416.7	.1
303.15	1396.6	.1

System: aniline + propanone; phases: Liquid
Fixed: Pressure, kPa = 101
Property: Mass density, kg/m3 (Liquid); method: Vibrating tube method
Temperature, K	Mole fraction of propanone	Mass density, kg/m3	uncertainty
303.15	.0515	1005.017	.01
293.15	.0522	1013.709	.01
298.15	.0569	1008.67	.01
303.15	.1002	997.272	.01
293.15	.1078	1004.965	.01
298.15	.1088	1000.436	.01
303.15	.1475	989.506	.01
298.15	.1539	993.118	.01
293.15	.1567	996.941	.01
303.15	.1926	981.799	.01
298.15	.1978	985.694	.01
293.15	.2074	988.429	.01
303.15	.2399	973.527	.01
298.15	.2484	976.895	.01
293.15	.249	981.269	.01
293.15	.3016	971.707	.01
303.15	.3024	962.003	.01
298.15	.3039	966.77	.01
293.15	.3454	963.326	.01
303.15	.3475	953.088	.01
298.15	.3505	957.976	.01
293.15	.3832	955.799	.01
303.15	.3947	943.989	.01
298.15	.4114	945.773	.01
293.15	.4313	946.013	.01
303.15	.4503	932.55	.01
298.15	.4585	935.933	.01
293.15	.4908	933.416	.01
303.15	.4979	922.075	.01
298.15	.5035	926.122	.01
293.15	.5497	920.272	.01
298.15	.5501	915.531	.01
303.15	.5502	910.191	.01
293.15	.583	912.529	.01
298.15	.5922	905.703	.01
303.15	.6037	897.422	.01
293.15	.6446	897.535	.01
303.15	.6464	886.697	.01
298.15	.6499	891.425	.01
293.15	.6911	885.684	.01
303.15	.6975	873.362	.01
298.15	.6993	878.643	.01
293.15	.7465	870.629	.01
298.15	.7522	864.125	.01
303.15	.7548	857.721	.01
293.15	.8046	854.022	.01
303.15	.8078	842.147	.01
298.15	.8082	848.052	.01
293.15	.8497	840.545	.01
298.15	.8533	834.272	.01
303.15	.8567	827.148	.01
298.15	.8951	821.048	.01
303.15	.9014	812.779	.01
293.15	.9045	823.238	.01
293.15	.9475	809.118	.01
303.15	.9494	796.575	.01
298.15	.9545	801.258	.01

System: aniline + propanone; phases: Liquid
Fixed: Pressure, kPa = 101
Property: Speed of sound, m/s (Liquid); method: Pulse-echo method
Temperature, K	Mole fraction of propanone	Speed of sound, m/s	uncertainty
293.15	.0522	6.1	.1
293.15	.1078	12.61	.1
293.15	.1567	17.95	.1
293.15	.2074	23.23	.1
293.15	.249	27.34	.1
293.15	.3016	31.85	.1
293.15	.3454	34.74	.1
293.15	.3832	36.87	.1
293.15	.4313	39	.1
293.15	.4908	40.81	.1
293.15	.5497	41.28	.1
293.15	.583	41.18	.1
293.15	.6446	39.42	.1
293.15	.6911	37.3	.1
293.15	.7465	32.97	.1
293.15	.8046	27.38	.1
293.15	.8497	22.21	.1
293.15	.9045	14.95	.1
293.15	.9475	8.36	.1
298.15	.0569	6.89	.1
298.15	.1088	13.03	.1
298.15	.1539	18.13	.1
298.15	.1978	22.67	.1
298.15	.2484	27.48	.1
298.15	.3039	32.26	.1
298.15	.3505	35.71	.1
298.15	.4114	39.09	.1
298.15	.4585	40.92	.1
298.15	.5035	41.94	.1
298.15	.5501	42.12	.1
298.15	.5922	41.69	.1
298.15	.6499	39.68	.1
298.15	.6993	37.18	.1
298.15	.7522	32.97	.1
298.15	.8082	27.55	.1
298.15	.8533	21.95	.1
298.15	.8951	16.36	.1
298.15	.9545	7.33	.1
303.15	.0515	6.34	.1
303.15	.1002	12.34	.1
303.15	.1475	17.7	.1
303.15	.1926	22.39	.1
303.15	.2399	27.1	.1
303.15	.3024	32.45	.1
303.15	.3475	35.15	.1
303.15	.3947	38.5	.1
303.15	.4503	41.18	.1
303.15	.4979	42.09	.1
303.15	.5502	42.67	.1
303.15	.6037	41.96	.1
303.15	.6464	40.27	.1
303.15	.6975	37.54	.1
303.15	.7548	33.56	.1
303.15	.8078	28.07	.1
303.15	.8567	22.19	.1
303.15	.9014	16.07	.1
303.15	.9494	8.61	.1

System: propanone + phenylmethylamine; phases: Liquid
Fixed: Pressure, kPa = 101
Property: Mass density, kg/m3 (Liquid); method: Vibrating tube method
Temperature, K	Mole fraction of propanone	Mass density, kg/m3	uncertainty
293.15	.0565	979.562	.01
293.15	.1032	973.934	.01
293.15	.1494	968.145	.01
293.15	.1916	962.605	.01
293.15	.251	954.413	.01
293.15	.2952	948.053	.01
293.15	.3555	938.912	.01
293.15	.4039	931.04	.01
293.15	.4478	923.576	.01
293.15	.4981	914.659	.01
293.15	.5489	905.091	.01
293.15	.5965	895.722	.01
293.15	.6485	884.852	.01
293.15	.7018	873.046	.01
293.15	.7472	862.27	.01
293.15	.802	848.69	.01
293.15	.8563	834.277	.01
293.15	.9053	820.343	.01
293.15	.9548	805.391	.01
298.15	.044	977.005	.01
298.15	.0984	970.455	.01
298.15	.1447	964.607	.01
298.15	.1996	957.353	.01
298.15	.2503	950.29	.01
298.15	.2919	944.327	.01
298.15	.3511	935.283	.01
298.15	.3924	928.532	.01
298.15	.452	918.415	.01
298.15	.4948	910.794	.01
298.15	.5563	899.086	.01
298.15	.6004	890.231	.01
298.15	.6473	880.387	.01
298.15	.6962	869.434	.01
298.15	.7506	856.501	.01
298.15	.8009	843.758	.01
298.15	.8518	830.205	.01
298.15	.8986	816.915	.01
298.15	.9488	801.799	.01
303.15	.0461	972.638	.01
303.15	.0934	966.889	.01
303.15	.1524	959.343	.01
303.15	.1937	953.815	.01
303.15	.2442	946.596	.01
303.15	.3357	933.026	.01
303.15	.3991	922.737	.01
303.15	.4904	906.677	.01
303.15	.5507	895.228	.01
303.15	.5949	886.274	.01
303.15	.6467	875.21	.01
303.15	.6928	864.807	.01
303.15	.7424	852.961	.01
303.15	.7993	838.524	.01
303.15	.8469	825.646	.01
303.15	.8977	811.117	.01
303.15	.9484	795.598	.01

System: propanone + phenylmethylamine; phases: Liquid
Fixed: Pressure, kPa = 101
Property: Speed of sound, m/s (Liquid); method: Pulse-echo method
Temperature, K	Mole fraction of propanone	Speed of sound, m/s	uncertainty
293.15	.0565	6.24	.1
293.15	.1032	11.1	.1
293.15	.1494	15.53	.1
293.15	.1916	19.19	.1
293.15	.251	23.7	.1
293.15	.2952	26.72	.1
293.15	.3555	30.08	.1
293.15	.4039	31.83	.1
293.15	.4478	32.91	.1
293.15	.4981	33.7	.1
293.15	.5489	33.69	.1
293.15	.5965	33.19	.1
293.15	.6485	31.76	.1
293.15	.7018	29.5	.1
293.15	.7472	26.59	.1
293.15	.802	22.75	.1
293.15	.8563	17.85	.1
293.15	.9053	12.53	.1
293.15	.9548	6.18	.1
298.15	.044	5.09	.1
298.15	.0984	10.92	.1
298.15	.1447	15.43	.1
298.15	.1996	20.31	.1
298.15	.2503	24.21	.1
298.15	.2919	27.42	.1
298.15	.3511	30.51	.1
298.15	.3924	32.02	.1
298.15	.452	33.79	.1
298.15	.4948	34.54	.1
298.15	.5563	34.45	.1
298.15	.6004	33.86	.1
298.15	.6473	32.72	.1
298.15	.6962	30.51	.1
298.15	.7506	27.13	.1
298.15	.8009	23.15	.1
298.15	.8518	18.54	.1
298.15	.8986	13.52	.1
298.15	.9488	7.3	.1
303.15	.0461	5.38	.1
303.15	.0934	10.62	.1
303.15	.1524	16.55	.1
303.15	.1937	20.26	.1
303.15	.2442	23.94	.1
303.15	.3357	30.26	.1
303.15	.3991	33.14	.1
303.15	.4904	35.28	.1
303.15	.5507	35.64	.1
303.15	.5949	34.96	.1
303.15	.6467	33.4	.1
303.15	.6928	31.39	.1
303.15	.7424	28.4	.1
303.15	.7993	24.02	.1
303.15	.8469	19.58	.1
303.15	.8977	14.06	.1
303.15	.9484	7.67	.1

System: propanone + azine; phases: Liquid
Fixed: Pressure, kPa = 101
Property: Mass density, kg/m3 (Liquid); method: Vibrating tube method
Temperature, K	Mole fraction of propanone	Mass density, kg/m3	uncertainty
293.15	.0577	973.393	.01
293.15	.1007	966.028	.01
293.15	.1536	956.946	.01
293.15	.2043	948.163	.01
293.15	.2219	945.011	.01
293.15	.2968	931.713	.01
293.15	.3537	921.354	.01
293.15	.4051	911.899	.01
293.15	.5191	890.383	.01
293.15	.5519	884.082	.01
293.15	.5969	875.296	.01
293.15	.6425	866.297	.01
293.15	.703	854.168	.01
293.15	.7504	844.514	.01
293.15	.8066	832.904	.01
293.15	.8569	822.218	.01
293.15	.9019	812.518	.01
293.15	.9456	803.006	.01
298.15	.0514	969.365	.01
298.15	.0969	961.623	.01
298.15	.1486	952.705	.01
298.15	.2023	943.375	.01
298.15	.2444	935.93	.01
298.15	.296	926.692	.01
298.15	.3544	916.021	.01
298.15	.3965	908.33	.01
298.15	.4516	898.006	.01
298.15	.5036	888.119	.01
298.15	.594	870.616	.01
298.15	.6454	860.492	.01
298.15	.6971	850.007	.01
298.15	.7518	838.783	.01
298.15	.8049	827.707	.01
298.15	.8456	819.096	.01
298.15	.8955	808.385	.01
298.15	.9456	797.415	.01
303.15	.0493	964.637	.01
303.15	.0954	956.714	.01
303.15	.1463	947.874	.01
303.15	.1983	938.736	.01
303.15	.2424	930.863	.01
303.15	.2929	921.779	.01
303.15	.3522	910.875	.01
303.15	.4048	901.126	.01
303.15	.4497	892.629	.01
303.15	.497	883.593	.01
303.15	.5412	875.069	.01
303.15	.5965	864.243	.01
303.15	.6594	851.677	.01
303.15	.6912	845.142	.01
303.15	.7491	833.115	.01
303.15	.8475	812.305	.01
303.15	.8946	802.071	.01
303.15	.9443	791.125	.01

System: propanone + azine; phases: Liquid
Fixed: Pressure, kPa = 101
Property: Speed of sound, m/s (Liquid); method: Pulse-echo method
Temperature, K	Mole fraction of propanone	Speed of sound, m/s	uncertainty
293.15	.0577	2.85	.1
293.15	.1007	4.46	.1
293.15	.1536	6.42	.1
293.15	.2043	8.16	.1
293.15	.2219	8.67	.1
293.15	.2968	10.5	.1
293.15	.3537	11.53	.1
293.15	.4051	12.25	.1
293.15	.5191	12.84	.1
293.15	.5519	12.78	.1
293.15	.5969	12.56	.1
293.15	.6425	12.1	.1
293.15	.703	11.16	.1
293.15	.7504	10.18	.1
293.15	.8066	8.67	.1
293.15	.8569	6.86	.1
293.15	.9019	4.98	.1
293.15	.9456	2.98	.1
298.15	.0514	2.28	.1
298.15	.0969	4.23	.1
298.15	.1486	6.12	.1
298.15	.2023	7.98	.1
298.15	.2444	9.22	.1
298.15	.296	10.44	.1
298.15	.3544	11.53	.1
298.15	.3965	12.25	.1
298.15	.4516	12.78	.1
298.15	.5036	12.97	.1
298.15	.594	12.75	.1
298.15	.6454	12.32	.1
298.15	.6971	11.33	.1
298.15	.7518	10.1	.1
298.15	.8049	8.65	.1
298.15	.8456	7.24	.1
298.15	.8955	5.26	.1
298.15	.9456	2.91	.1
303.15	.0493	2.32	.1
303.15	.0954	4.22	.1
303.15	.1463	6.13	.1
303.15	.1983	7.9	.1
303.15	.2424	9.17	.1
303.15	.2929	10.47	.1
303.15	.3522	11.54	.1
303.15	.4048	12.29	.1
303.15	.4497	12.71	.1
303.15	.497	12.99	.1
303.15	.5412	13.06	.1
303.15	.5965	12.75	.1
303.15	.6594	12.2	.1
303.15	.6912	11.62	.1
303.15	.7491	10.25	.1
303.15	.8475	7.24	.1
303.15	.8946	5.38	.1
303.15	.9443	3.02	.1
