Measured thermophysical data. Densities, Speeds of Sound, and Isentropic Compressibilities for Binary Mixtures of 2-Ethyl-1-hexanol with 1-Pentanol, 1-Heptanol, or 1-Nonanol at the Temperature 298.15 K
Source: J. Chem. Eng. Data, 2010, 10.1021/je9004933
Compound 1: 1-pentanol, C5H12O, purity 98%
Compound 2: 1-heptanol, C7H16O, purity 99%
Compound 3: 1-nonanol, C9H20O, purity 99%
Compound 4: 2-ethyl-1-hexanol, C8H18O, purity 99.6%

System: 1-pentanol; phases: Liquid
Property: Mass density, kg/m3 (Liquid); method: Vibrating tube method
Pressure, kPa	Temperature, K	Mass density, kg/m3	uncertainty
101	298.15	810.75	.05

System: 1-pentanol; phases: Liquid
Property: Speed of sound, m/s (Liquid); method: Pulse-echo method
Temperature, K	Pressure, kPa	Speed of sound, m/s	uncertainty
298.15	101	1274.32	.5

System: 1-heptanol; phases: Liquid
Property: Mass density, kg/m3 (Liquid); method: Vibrating tube method
Pressure, kPa	Temperature, K	Mass density, kg/m3	uncertainty
101	298.15	818.81	.05

System: 1-heptanol; phases: Liquid
Property: Speed of sound, m/s (Liquid); method: Pulse-echo method
Temperature, K	Pressure, kPa	Speed of sound, m/s	uncertainty
298.15	101	1326.65	.5

System: 1-nonanol; phases: Liquid
Property: Mass density, kg/m3 (Liquid); method: Vibrating tube method
Pressure, kPa	Temperature, K	Mass density, kg/m3	uncertainty
101	298.15	824.24	.05

System: 1-nonanol; phases: Liquid
Property: Speed of sound, m/s (Liquid); method: Pulse-echo method
Temperature, K	Pressure, kPa	Speed of sound, m/s	uncertainty
298.15	101	1364.47	.5

System: 2-ethyl-1-hexanol; phases: Liquid
Property: Mass density, kg/m3 (Liquid); method: Vibrating tube method
Pressure, kPa	Temperature, K	Mass density, kg/m3	uncertainty
101	298.15	828.91	.05

System: 2-ethyl-1-hexanol; phases: Liquid
Property: Speed of sound, m/s (Liquid); method: Pulse-echo method
Temperature, K	Pressure, kPa	Speed of sound, m/s	uncertainty
298.15	101	1318.07	.5

System: 1-pentanol + 2-ethyl-1-hexanol; phases: Liquid
Fixed: Pressure, kPa = 101
Fixed: Temperature, K = 298.15
Property: Mass density, kg/m3 (Liquid); method: Vibrating tube method
Mole fraction of 2-ethyl-1-hexanol	Mass density, kg/m3	uncertainty
0	810.75	.05
.09956	813.397	.05
.20073	815.859	.05
.30979	818.283	.05
.40027	820.12	.05
.5033	822.032	.05
.60186	823.71	.05
.68752	825.04	.05
.80597	826.689	.05
.88949	827.743	.05

System: 1-pentanol + 2-ethyl-1-hexanol; phases: Liquid
Fixed: Temperature, K = 298.15
Fixed: Pressure, kPa = 101
Property: Speed of sound, m/s (Liquid); method: Pulse-echo method
Mole fraction of 2-ethyl-1-hexanol	Speed of sound, m/s	uncertainty
0	1274.32	.5
.09694	1280.91	.5
.2011	1287.42	.5
.30037	1293.47	.5
.40311	1298.95	.5
.49815	1303.61	.5
.59886	1307.89	.5
.70214	1311.71	.5
.7994	1314.64	.5
.89953	1316.82	.5

System: 2-ethyl-1-hexanol + 1-heptanol; phases: Liquid
Fixed: Pressure, kPa = 101
Fixed: Temperature, K = 298.15
Property: Mass density, kg/m3 (Liquid); method: Vibrating tube method
Mole fraction of 2-ethyl-1-hexanol	Mass density, kg/m3	uncertainty
0	818.81	.05
.10028	820.003	.05
.20476	821.215	.05
.30333	822.322	.05
.40015	823.376	.05
.50001	824.428	.05
.5846	825.28	.05
.64242	825.849	.05
.70106	826.408	.05
.79961	827.3	.05
.80002	827.303	.05
.89566	828.117	.05
1	828.91	.05

System: 2-ethyl-1-hexanol + 1-heptanol; phases: Liquid
Fixed: Temperature, K = 298.15
Fixed: Pressure, kPa = 101
Property: Speed of sound, m/s (Liquid); method: Pulse-echo method
Mole fraction of 2-ethyl-1-hexanol	Speed of sound, m/s	uncertainty
0	1326.65	.5
.1005	1326.41	.5
.1982	1326.15	.5
.30074	1325.84	.5
.40088	1325.41	.5
.50119	1324.97	.5
.60095	1324.22	.5
.70095	1323.3	.5
.79908	1322.09	.5
.90041	1320.34	.5
1	1318.07	.5

System: 2-ethyl-1-hexanol + 1-nonanol; phases: Liquid
Fixed: Pressure, kPa = 101
Fixed: Temperature, K = 298.15
Property: Mass density, kg/m3 (Liquid); method: Vibrating tube method
Mole fraction of 2-ethyl-1-hexanol	Mass density, kg/m3	uncertainty
0	824.24	.05
.04628	824.435	.05
.06793	824.526	.05
.09946	824.659	.05
.14937	824.886	.05
.20312	825.134	.05
.24811	825.337	.05
.31825	825.667	.05
.41523	826.146	.05
.51121	826.594	.05
.60358	827.06	.05
.71428	827.574	.05
.80465	828.006	.05
.89704	828.444	.05

System: 2-ethyl-1-hexanol + 1-nonanol; phases: Liquid
Fixed: Temperature, K = 298.15
Fixed: Pressure, kPa = 101
Property: Speed of sound, m/s (Liquid); method: Pulse-echo method
Mole fraction of 2-ethyl-1-hexanol	Speed of sound, m/s	uncertainty
0	1364.47	.5
.09945	1360.63	.5
.19489	1356.91	.5
.30306	1352.55	.5
.40374	1348.42	.5
.5016	1344.18	.5
.59858	1339.75	.5
.69621	1335.03	.5
.80245	1329.65	.5
.89819	1324.34	.5
