Measured thermophysical data. Densities and Excess Molar Volumes of the Binary Mixtures of Cyclohexanone with Chloroalkanes at Temperatures between (288.15 and 318.15) K
Source: J. Chem. Eng. Data, 2010, 10.1021/je900404r
Compound 1: cyclohexanone, C6H10O
Compound 2: 1,1,2,2-tetrachloroethane, C2H2Cl4
Compound 3: 1,1,1-trichloroethane, C2H3Cl3
Compound 4: chloroform, CHCl3
Compound 5: 1,2-dichloroethane, C2H4Cl2
Compound 6: 1,3-dichloropropane, C3H6Cl2
Compound 7: 1,4-dichlorobutane, C4H8Cl2
Compound 8: 1-chlorobutane, C4H9Cl

System: cyclohexanone; phases: Liquid
Property: Mass density, kg/m3 (Liquid); method: Vibrating tube method
Temperature, K	Pressure, kPa	Mass density, kg/m3	uncertainty
288.15	101	951.69	.2
298.15	101	942.76	.2
308.15	101	933.8	.2
318.15	101	924.82	.2

System: 1,1,2,2-tetrachloroethane; phases: Liquid
Property: Mass density, kg/m3 (Liquid); method: Vibrating tube method
Temperature, K	Pressure, kPa	Mass density, kg/m3	uncertainty
288.15	101	1604.75	.2
298.15	101	1589.18	.2
308.15	101	1573.57	.2
318.15	101	1557.94	.2

System: 1,1,1-trichloroethane; phases: Liquid
Property: Mass density, kg/m3 (Liquid); method: Vibrating tube method
Temperature, K	Pressure, kPa	Mass density, kg/m3	uncertainty
288.15	101	1344.95	.2
298.15	101	1328.27	.2
308.15	101	1311.45	.2
318.15	101	1294.47	.2

System: chloroform; phases: Liquid
Property: Mass density, kg/m3 (Liquid); method: Vibrating tube method
Temperature, K	Pressure, kPa	Mass density, kg/m3	uncertainty
288.15	101	1491.86	.2
298.15	101	1473.16	.2
308.15	101	1454.07	.2
318.15	101	1434.72	.2

System: 1,2-dichloroethane; phases: Liquid
Property: Mass density, kg/m3 (Liquid); method: Vibrating tube method
Temperature, K	Pressure, kPa	Mass density, kg/m3	uncertainty
288.15	101	1260.01	.2
298.15	101	1245.48	.2
308.15	101	1230.83	.2
318.15	101	1216.04	.2

System: 1,3-dichloropropane; phases: Liquid
Property: Mass density, kg/m3 (Liquid); method: Vibrating tube method
Temperature, K	Pressure, kPa	Mass density, kg/m3	uncertainty
288.15	101	1191.93	.2
298.15	101	1179.58	.2
308.15	101	1167.16	.2
318.15	101	1154.67	.2

System: 1,4-dichlorobutane; phases: Liquid
Property: Mass density, kg/m3 (Liquid); method: Vibrating tube method
Temperature, K	Pressure, kPa	Mass density, kg/m3	uncertainty
288.15	101	1143.49	.2
298.15	101	1132.57	.2
308.15	101	1121.61	.2
318.15	101	1110.61	.2

System: 1-chlorobutane; phases: Liquid
Property: Mass density, kg/m3 (Liquid); method: Vibrating tube method
Temperature, K	Pressure, kPa	Mass density, kg/m3	uncertainty
288.15	101	892.1	.2
298.15	101	881.05	.2
308.15	101	869.86	.2
318.15	101	858.52	.2

System: 1,1,2,2-tetrachloroethane + cyclohexanone; phases: Liquid
Fixed: Pressure, kPa = 101
Property: Mass density, kg/m3 (Liquid); method: Vibrating tube method
Temperature, K	Mole fraction of 1,1,2,2-tetrachloroethane	Mass density, kg/m3	uncertainty
288.15	0	951.69	.2
288.15	.1147	1029.34	.2
288.15	.2121	1094.87	.2
288.15	.3045	1156.78	.2
288.15	.4052	1223.8	.2
288.15	.4996	1286.07	.2
288.15	.5909	1345.8	.2
288.15	.6868	1407.73	.2
288.15	.782	1468.5	.2
288.15	.8798	1530.11	.2
288.15	1	1604.75	.2
298.15	0	942.76	.2
298.15	.1147	1019.79	.2
298.15	.2121	1084.77	.2
298.15	.3045	1146.13	.2
298.15	.4052	1212.52	.2
298.15	.4996	1274.18	.2
298.15	.5909	1333.31	.2
298.15	.6868	1394.58	.2
298.15	.782	1454.64	.2
298.15	.8798	1515.52	.2
298.15	1	1589.18	.2
308.15	0	933.8	.2
308.15	.1147	1010.2	.2
308.15	.2121	1074.62	.2
308.15	.3045	1135.43	.2
308.15	.4052	1201.2	.2
308.15	.4996	1262.26	.2
308.15	.5909	1320.77	.2
308.15	.6868	1381.38	.2
308.15	.782	1440.76	.2
308.15	.8798	1500.89	.2
308.15	1	1573.57	.2
318.15	0	924.82	.2
318.15	.1147	1000.58	.2
318.15	.2121	1064.44	.2
318.15	.3045	1124.7	.2
318.15	.4052	1189.84	.2
318.15	.4996	1250.3	.2
318.15	.5909	1308.2	.2
318.15	.6868	1368.14	.2
318.15	.782	1426.83	.2
318.15	.8798	1486.23	.2
318.15	1	1557.94	.2

System: 1,1,1-trichloroethane + cyclohexanone; phases: Liquid
Fixed: Pressure, kPa = 101
Property: Mass density, kg/m3 (Liquid); method: Vibrating tube method
Temperature, K	Mole fraction of 1,1,1-trichloroethane	Mass density, kg/m3	uncertainty
288.15	0	951.69	.2
288.15	.1151	996.74	.2
288.15	.2288	1041.75	.2
288.15	.3155	1076.19	.2
288.15	.4163	1116.3	.2
288.15	.5167	1156.17	.2
288.15	.6059	1191.52	.2
288.15	.7081	1231.85	.2
288.15	.8062	1270.3	.2
288.15	.8979	1305.81	.2
288.15	1	1344.95	.2
298.15	0	942.76	.2
298.15	.1151	987.13	.2
298.15	.2288	1031.43	.2
298.15	.3155	1065.28	.2
298.15	.4163	1104.68	.2
298.15	.5167	1143.81	.2
298.15	.6059	1178.45	.2
298.15	.7081	1217.94	.2
298.15	.8062	1255.52	.2
298.15	.8979	1290.16	.2
298.15	1	1328.27	.2
308.15	0	933.8	.2
308.15	.1151	977.49	.2
308.15	.2288	1021.06	.2
308.15	.3155	1054.33	.2
308.15	.4163	1093.01	.2
308.15	.5167	1131.39	.2
308.15	.6059	1165.33	.2
308.15	.7081	1203.95	.2
308.15	.8062	1240.64	.2
308.15	.8979	1274.41	.2
308.15	1	1311.45	.2
318.15	0	924.82	.2
318.15	.1151	967.81	.2
318.15	.2288	1010.65	.2
318.15	.3155	1043.33	.2
318.15	.4163	1081.28	.2
318.15	.5167	1118.9	.2
318.15	.6059	1152.12	.2
318.15	.7081	1189.86	.2
318.15	.8062	1225.64	.2
318.15	.8979	1258.51	.2
318.15	1	1294.47	.2

System: chloroform + cyclohexanone; phases: Liquid
Fixed: Pressure, kPa = 101
Property: Mass density, kg/m3 (Liquid); method: Vibrating tube method
Temperature, K	Mole fraction of chloroform	Mass density, kg/m3	uncertainty
288.15	0	951.69	.2
288.15	.1198	1004.15	.2
288.15	.2362	1058.19	.2
288.15	.305	1091.64	.2
288.15	.4235	1151.88	.2
288.15	.5103	1198.22	.2
288.15	.6047	1250.45	.2
288.15	.6953	1303.06	.2
288.15	.8109	1372.1	.2
288.15	.9089	1433.35	.2
288.15	1	1491.86	.2
298.15	0	942.76	.2
298.15	.1198	994.58	.2
298.15	.2362	1047.93	.2
298.15	.305	1080.94	.2
298.15	.4235	1140.29	.2
298.15	.5103	1185.89	.2
298.15	.6047	1237.16	.2
298.15	.6953	1288.8	.2
298.15	.8109	1356.3	.2
298.15	.9089	1416.12	.2
298.15	1	1473.16	.2
308.15	0	933.8	.2
308.15	.1198	984.97	.2
308.15	.2362	1037.61	.2
308.15	.305	1070.16	.2
308.15	.4235	1128.62	.2
308.15	.5103	1173.48	.2
308.15	.6047	1223.78	.2
308.15	.6953	1274.42	.2
308.15	.8109	1340.36	.2
308.15	.9089	1398.68	.2
308.15	1	1454.07	.2
318.15	0	924.82	.2
318.15	.1198	975.32	.2
318.15	.2362	1027.25	.2
318.15	.305	1059.32	.2
318.15	.4235	1116.88	.2
318.15	.5103	1160.97	.2
318.15	.6047	1210.28	.2
318.15	.6953	1259.9	.2
318.15	.8109	1324.23	.2
318.15	.9089	1381.01	.2
318.15	1	1434.72	.2

System: 1,2-dichloroethane + cyclohexanone; phases: Liquid
Fixed: Pressure, kPa = 101
Property: Mass density, kg/m3 (Liquid); method: Vibrating tube method
Temperature, K	Mole fraction of 1,2-dichloroethane	Mass density, kg/m3	uncertainty
288.15	0	951.69	.2
288.15	.1142	978.81	.2
288.15	.2318	1008.61	.2
288.15	.3197	1032.1	.2
288.15	.4227	1061.02	.2
288.15	.519	1089.5	.2
288.15	.6155	1119.7	.2
288.15	.7061	1149.67	.2
288.15	.8134	1187.43	.2
288.15	.9145	1225.5	.2
288.15	1	1260.01	.2
298.15	0	942.76	.2
298.15	.1142	969.5	.2
298.15	.2318	998.88	.2
298.15	.3197	1022	.2
298.15	.4227	1050.47	.2
298.15	.519	1078.46	.2
298.15	.6155	1108.12	.2
298.15	.7061	1137.52	.2
298.15	.8134	1174.53	.2
298.15	.9145	1211.76	.2
298.15	1	1245.48	.2
308.15	0	933.8	.2
308.15	.1142	960.16	.2
308.15	.2318	989.1	.2
308.15	.3197	1011.86	.2
308.15	.4227	1039.86	.2
308.15	.519	1067.36	.2
308.15	.6155	1096.48	.2
308.15	.7061	1125.3	.2
308.15	.8134	1161.53	.2
308.15	.9145	1197.92	.2
308.15	1	1230.83	.2
318.15	0	924.82	.2
318.15	.1142	950.78	.2
318.15	.2318	979.28	.2
318.15	.3197	1001.67	.2
318.15	.4227	1029.19	.2
318.15	.519	1056.19	.2
318.15	.6155	1084.75	.2
318.15	.7061	1112.98	.2
318.15	.8134	1148.42	.2
318.15	.9145	1183.96	.2
318.15	1	1216.04	.2

System: cyclohexanone + 1,3-dichloropropane; phases: Liquid
Fixed: Pressure, kPa = 101
Property: Mass density, kg/m3 (Liquid); method: Vibrating tube method
Temperature, K	Mole fraction of 1,3-dichloropropane	Mass density, kg/m3	uncertainty
288.15	0	951.69	.2
288.15	.1276	979.76	.2
288.15	.227	1001.99	.2
288.15	.3268	1024.79	.2
288.15	.4189	1046.27	.2
288.15	.514	1068.86	.2
288.15	.6112	1092.38	.2
288.15	.7147	1118.03	.2
288.15	.8103	1142.26	.2
288.15	.8979	1164.89	.2
288.15	1	1191.93	.2
298.15	0	942.76	.2
298.15	.1276	970.5	.2
298.15	.227	992.46	.2
298.15	.3268	1014.95	.2
298.15	.4189	1036.15	.2
298.15	.514	1058.41	.2
298.15	.6112	1081.63	.2
298.15	.7147	1106.86	.2
298.15	.8103	1130.71	.2
298.15	.8979	1152.99	.2
298.15	1	1179.58	.2
308.15	0	933.8	.2
308.15	.1276	961.22	.2
308.15	.227	982.9	.2
308.15	.3268	1005.09	.2
308.15	.4189	1025.99	.2
308.15	.514	1047.94	.2
308.15	.6112	1070.82	.2
308.15	.7147	1095.64	.2
308.15	.8103	1119.11	.2
308.15	.8979	1141.03	.2
308.15	1	1167.16	.2
318.15	0	924.82	.2
318.15	.1276	951.9	.2
318.15	.227	973.3	.2
318.15	.3268	995.19	.2
318.15	.4189	1015.78	.2
318.15	.514	1037.41	.2
318.15	.6112	1059.94	.2
318.15	.7147	1084.36	.2
318.15	.8103	1107.45	.2
318.15	.8979	1128.99	.2
318.15	1	1154.67	.2

System: cyclohexanone + 1,4-dichlorobutane; phases: Liquid
Fixed: Pressure, kPa = 101
Property: Mass density, kg/m3 (Liquid); method: Vibrating tube method
Temperature, K	Mole fraction of 1,4-dichlorobutane	Mass density, kg/m3	uncertainty
288.15	0	951.69	.2
288.15	.1063	973.11	.2
288.15	.1969	991.09	.2
288.15	.2901	1009.39	.2
288.15	.3808	1027.04	.2
288.15	.4803	1046.24	.2
288.15	.5814	1065.55	.2
288.15	.6763	1083.46	.2
288.15	.7751	1101.96	.2
288.15	.8849	1122.33	.2
288.15	1	1143.49	.2
298.15	0	942.76	.2
298.15	.1063	964	.2
298.15	.1969	981.82	.2
298.15	.2901	999.94	.2
298.15	.3808	1017.42	.2
298.15	.4803	1036.41	.2
298.15	.5814	1055.52	.2
298.15	.6763	1073.23	.2
298.15	.7751	1091.52	.2
298.15	.8849	1111.66	.2
298.15	1	1132.57	.2
308.15	0	933.8	.2
308.15	.1063	954.86	.2
308.15	.1969	972.51	.2
308.15	.2901	990.46	.2
308.15	.3808	1007.76	.2
308.15	.4803	1026.55	.2
308.15	.5814	1045.46	.2
308.15	.6763	1062.97	.2
308.15	.7751	1081.05	.2
308.15	.8849	1100.96	.2
308.15	1	1121.61	.2
318.15	0	924.82	.2
318.15	.1063	945.69	.2
318.15	.1969	963.17	.2
318.15	.2901	980.95	.2
318.15	.3808	998.07	.2
318.15	.4803	1016.66	.2
318.15	.5814	1035.37	.2
318.15	.6763	1052.68	.2
318.15	.7751	1070.54	.2
318.15	.8849	1090.21	.2
318.15	1	1110.61	.2

System: cyclohexanone + 1-chlorobutane; phases: Liquid
Fixed: Pressure, kPa = 101
Property: Mass density, kg/m3 (Liquid); method: Vibrating tube method
Temperature, K	Mole fraction of 1-chlorobutane	Mass density, kg/m3	uncertainty
288.15	0	951.69	.2
288.15	.1152	945.58	.2
288.15	.2084	940.43	.2
288.15	.3068	934.95	.2
288.15	.4067	929.27	.2
288.15	.5041	923.6	.2
288.15	.5841	918.86	.2
288.15	.692	912.28	.2
288.15	.7881	906.18	.2
288.15	.882	900.11	.2
288.15	1	892.1	.2
298.15	0	942.76	.2
298.15	.1152	936.47	.2
298.15	.2084	931.18	.2
298.15	.3068	925.51	.2
298.15	.4067	919.65	.2
298.15	.5041	913.78	.2
298.15	.5841	908.86	.2
298.15	.692	902.02	.2
298.15	.7881	895.71	.2
298.15	.882	889.37	.2
298.15	1	881.05	.2
308.15	0	933.8	.2
308.15	.1152	927.34	.2
308.15	.2084	921.88	.2
308.15	.3068	916.03	.2
308.15	.4067	909.97	.2
308.15	.5041	903.89	.2
308.15	.5841	898.78	.2
308.15	.692	891.68	.2
308.15	.7881	885.12	.2
308.15	.882	878.54	.2
308.15	1	869.86	.2
318.15	0	924.82	.2
318.15	.1152	918.17	.2
318.15	.2084	912.54	.2
318.15	.3068	906.5	.2
318.15	.4067	900.22	.2
318.15	.5041	893.92	.2
318.15	.5841	888.63	.2
318.15	.692	881.25	.2
318.15	.7881	874.42	.2
318.15	.882	867.57	.2
318.15	1	858.52	.2
