Measured thermophysical data. Liquid-Liquid Equilibria for the System 1-Methyl Propyl Ethanoate (1) + Acetic Acid (2) + Water (3) at (283.15 and 323.15) K
Source: J. Chem. Eng. Data, 2010, 10.1021/je900332x
Compound 1: ethanol, C2H6O, purity 99.5%
Compound 2: sec-butyl ethanoate, C6H12O2
Compound 3: water, H2O, purity 99.99%
Compound 4: acetic acid, C2H4O2

System: sec-butyl ethanoate; phases: Liquid
Fixed: Pressure, kPa = 101.325
Property: Mass density, kg/m3 (Liquid); method: Vibrating tube method
Temperature, K	Mass density, kg/m3	uncertainty
298.15	865.22	.01

System: sec-butyl ethanoate; phases: Liquid
Fixed: Pressure, kPa = 101.325
Property: Refractive index (Na D-line) (Liquid); method: Standard Abbe refractometry
Temperature, K	Refractive index (Na D-line)	uncertainty
298.15	1.387	.0002

System: water; phases: Liquid
Fixed: Pressure, kPa = 101.325
Property: Mass density, kg/m3 (Liquid); method: Vibrating tube method
Temperature, K	Mass density, kg/m3	uncertainty
298.15	997.06	.01

System: water; phases: Liquid
Fixed: Pressure, kPa = 101.325
Property: Refractive index (Na D-line) (Liquid); method: Standard Abbe refractometry
Temperature, K	Refractive index (Na D-line)	uncertainty
298.15	1.3325	.0002

System: acetic acid; phases: Liquid
Fixed: Pressure, kPa = 101.325
Property: Mass density, kg/m3 (Liquid); method: Vibrating tube method
Temperature, K	Mass density, kg/m3	uncertainty
298.15	1043.9	.01

System: acetic acid; phases: Liquid
Fixed: Pressure, kPa = 101.325
Property: Refractive index (Na D-line) (Liquid); method: Standard Abbe refractometry
Temperature, K	Refractive index (Na D-line)	uncertainty
298.15	1.3696	.0002

System: acetic acid + sec-butyl ethanoate + water; phases: Liquid mixture 1, Liquid mixture 2
Fixed: Pressure, kPa = 101
Property: Mole fraction of acetic acid (Liquid mixture 1); method: Chromatography
Property: Mole fraction of acetic acid (Liquid mixture 2); method: Chromatography
Property: Mole fraction of sec-butyl ethanoate (Liquid mixture 2); method: Chromatography
Temperature, K	Mole fraction of sec-butyl ethanoate	Mole fraction of acetic acid	uncertainty	Mole fraction of acetic acid	uncertainty	Mole fraction of sec-butyl ethanoate	uncertainty
283.15	.944	0	.002	0	.002	.001	.002
283.15	.884	.027	.002	.009	.002	.002	.002
283.15	.824	.057	.002	.018	.002	.002	.002
283.15	.786	.087	.002	.027	.002	.002	.002
283.15	.728	.125	.002	.041	.002	.003	.002
283.15	.677	.157	.002	.053	.002	.003	.002
283.15	.627	.183	.002	.063	.002	.004	.002
283.15	.576	.212	.002	.081	.002	.004	.002
283.15	.533	.233	.002	.092	.002	.004	.002
283.15	.485	.252	.002	.108	.002	.006	.002
283.15	.428	.274	.002	.128	.002	.007	.002
283.15	.406	.281	.002	.138	.002	.009	.002
283.15	.366	.292	.002	.156	.002	.011	.002
283.15	.328	.297	.002	.171	.002	.013	.002
283.15	.238	.282	.002	.193	.002	.021	.002
283.15	.198	.288	.002	.212	.002	.031	.002
283.15	.189	.283	.002	.201	.002	.029	.002
283.15	.134	.268	.002	.224	.002	.051	.002
323.15	.906	0	.002	0	.002	.001	.002
323.15	.856	.031	.002	.01	.002	.001	.002
323.15	.801	.055	.002	.017	.002	.002	.002
323.15	.758	.093	.002	.029	.002	.002	.002
323.15	.696	.128	.002	.042	.002	.002	.002
323.15	.666	.143	.002	.052	.002	.002	.002
323.15	.51	.225	.002	.086	.002	.004	.002
323.15	.481	.248	.002	.113	.002	.006	.002
323.15	.416	.257	.002	.133	.002	.007	.002
323.15	.389	.27	.002	.144	.002	.009	.002
323.15	.338	.285	.002	.164	.002	.012	.002
323.15	.292	.277	.002	.177	.002	.018	.002
323.15	.249	.281	.002	.197	.002	.023	.002
323.15	.201	.273	.002	.213	.002	.037	.002
323.15	.58	.181	.002	.068	.002	.003	.002
323.15	.52	.224	.002	.084	.002	.004	.002
