Measured thermophysical data. Thermodynamic Study of 4-n-Alkyloxybenzoic Acids
Source: J. Chem. Eng. Data, 2010, 10.1021/je900776y
Compound 1: 4-methoxybenzoic acid, C8H8O3
Compound 2: p-ethoxybenzoic acid, C9H10O3
Compound 3: 4-n-propyloxybenzoic acid, C10H12O3
Compound 4: 4-butoxybenzoic acid, C11H14O3
Compound 5: 4-n-pentyloxybenzoic acid, C12H16O3
Compound 6: 4-n-heptyloxybenzoic acid, C14H20O3
Compound 7: 4-n-hexyloxybenzoic acid, C13H18O3
Compound 8: 4-n-octyloxybenzoic acid, C15H22O3

System: 4-methoxybenzoic acid; phases: Crystal, Liquid, Air at 1 atmosphere
Property: Triple point temperature, K (Crystal); method: DSC/DTA
Triple point temperature, K	uncertainty
455.3	

System: 4-methoxybenzoic acid; phases: Crystal, Liquid, Air at 1 atmosphere
Property: Molar enthalpy of transition or fusion, kJ/mol (Crystal); method: DSC/DTA
Molar enthalpy of transition or fusion, kJ/mol	uncertainty
28.97	

System: 4-methoxybenzoic acid; phases: Crystal, Gas
Property: Vapor or sublimation pressure, kPa (Crystal); method: Knudsen effusion method
Temperature, K	Vapor or sublimation pressure, kPa	uncertainty
340.29	.000098	.00001
342.24	.000123	.00001
344.1	.000151	.00001
346.07	.000186	.00001
348.2	.000242	.00001
350.29	.000302	.00001
352.29	.000376	.00001
354.2	.000459	.00001
356.07	.000554	.00001
358.07	.000683	.00001
360.21	.000868	.00001
362.29	.001071	.00001
340.29	.000098	.00001
342.24	.000124	.00001
344.1	.000153	.00001
346.07	.000193	.00001
348.2	.000241	.00001
350.29	.000301	.00001
352.29	.000371	.00001
354.2	.00046	.00001
356.07	.000562	.00001
358.07	.000697	.00001
360.21	.000862	.00001
362.29	.001064	.00001
340.29	.000098	.00001
342.24	.000124	.00001
344.1	.000152	.00001
346.07	.000189	.00001
348.2	.000237	.00001
350.29	.000293	.00001
352.29	.000364	.00001
354.2	.000451	.00001
356.07	.000549	.00001
358.07	.000677	.00001
360.21	.00085	.00001
362.29	.001034	.00001

System: p-ethoxybenzoic acid; phases: Crystal, Liquid, Air at 1 atmosphere
Property: Triple point temperature, K (Crystal); method: DSC/DTA
Triple point temperature, K	uncertainty
471.8	

System: p-ethoxybenzoic acid; phases: Crystal, Liquid, Air at 1 atmosphere
Property: Molar enthalpy of transition or fusion, kJ/mol (Crystal); method: DSC/DTA
Molar enthalpy of transition or fusion, kJ/mol	uncertainty
35.07	

System: p-ethoxybenzoic acid; phases: Crystal, Gas
Property: Vapor or sublimation pressure, kPa (Crystal); method: Knudsen effusion method
Temperature, K	Vapor or sublimation pressure, kPa	uncertainty
349.27	.00008	.00001
351.26	.000101	.00001
353.11	.000127	.00001
355.11	.00016	.00001
357.19	.000205	.00001
359.27	.000252	.00001
361.27	.000316	.00001
363.18	.000393	.00001
365.07	.000477	.00001
367.06	.000596	.00001
369.28	.000747	.00001
371.28	.000942	.00001
373.04	.001119	.00001
349.27	.00008	.00001
351.26	.000101	.00001
353.11	.000126	.00001
355.11	.000158	.00001
357.19	.000201	.00001
359.27	.000249	.00001
361.27	.00031	.00001
363.18	.000386	.00001
365.07	.000469	.00001
367.06	.000594	.00001
369.28	.000738	.00001
371.28	.000919	.00001
373.04	.001106	.00001
349.27	.000077	.00001
351.26	.000099	.00001
353.11	.000122	.00001
355.11	.000154	.00001
357.19	.000196	.00001
359.27	.000242	.00001
361.27	.000299	.00001
363.18	.000372	.00001
365.07	.000459	.00001
367.06	.000577	.00001
369.28	.000707	.00001
371.28	.000887	.00001
373.04	.001053	.00001

System: 4-n-propyloxybenzoic acid; phases: Crystal 3, Crystal 2, Air at 1 atmosphere
Property: Triple point temperature, K (Crystal 3); method: DSC/DTA
Triple point temperature, K	uncertainty
394.1	

System: 4-n-propyloxybenzoic acid; phases: Crystal 2, Crystal 1, Air at 1 atmosphere
Property: Triple point temperature, K (Crystal 2); method: DSC/DTA
Triple point temperature, K	uncertainty
418.8	

System: 4-n-propyloxybenzoic acid; phases: Crystal 1, Liquid, Air at 1 atmosphere
Property: Triple point temperature, K (Crystal 1); method: DSC/DTA
Triple point temperature, K	uncertainty
428.7	

System: 4-n-propyloxybenzoic acid; phases: Crystal 1, Liquid, Air at 1 atmosphere
Property: Molar enthalpy of transition or fusion, kJ/mol (Crystal 1); method: DSC/DTA
Molar enthalpy of transition or fusion, kJ/mol	uncertainty
27.19	

System: 4-n-propyloxybenzoic acid; phases: Crystal 2, Crystal 1, Air at 1 atmosphere
Property: Molar enthalpy of transition or fusion, kJ/mol (Crystal 2); method: DSC/DTA
Molar enthalpy of transition or fusion, kJ/mol	uncertainty
17.03	

System: 4-n-propyloxybenzoic acid; phases: Crystal 3, Crystal 2, Air at 1 atmosphere
Property: Molar enthalpy of transition or fusion, kJ/mol (Crystal 3); method: DSC/DTA
Molar enthalpy of transition or fusion, kJ/mol	uncertainty
8.08	

System: 4-n-propyloxybenzoic acid; phases: Crystal 3, Gas
Property: Vapor or sublimation pressure, kPa (Crystal 3); method: Knudsen effusion method
Temperature, K	Vapor or sublimation pressure, kPa	uncertainty
345.26	.000094	.00001
347.1	.000124	.00001
349.27	.00015	.00001
351.2	.000193	.00001
353.08	.000245	.00001
355.12	.000322	.00001
357.24	.00041	.00001
359.26	.000516	.00001
361.27	.000637	.00001
363.2	.000806	.00001
365.05	.000992	.00001
345.26	.000095	.00001
347.1	.000124	.00001
349.27	.000156	.00001
351.2	.000199	.00001
353.08	.000251	.00001
355.12	.00032	.00001
357.24	.000409	.00001
359.26	.000516	.00001
361.27	.000644	.00001
363.2	.00081	.00001
365.05	.000994	.00001
345.26	.000098	.00001
347.1	.000117	.00001
349.27	.000154	.00001
351.2	.000196	.00001
353.08	.000246	.00001
355.12	.000317	.00001
357.24	.0004	.00001
359.26	.000511	.00001
361.27	.000636	.00001
363.2	.000785	.00001

System: 4-butoxybenzoic acid; phases: Crystal 2, Crystal 1, Air at 1 atmosphere
Property: Triple point temperature, K (Crystal 2); method: DSC/DTA
Triple point temperature, K	uncertainty
420.4	

System: 4-butoxybenzoic acid; phases: Crystal 1, Liquid, Air at 1 atmosphere
Property: Triple point temperature, K (Crystal 1); method: DSC/DTA
Triple point temperature, K	uncertainty
433.7	

System: 4-butoxybenzoic acid; phases: Crystal 1, Liquid, Air at 1 atmosphere
Property: Molar enthalpy of transition or fusion, kJ/mol (Crystal 1); method: DSC/DTA
Molar enthalpy of transition or fusion, kJ/mol	uncertainty
2.77	

System: 4-butoxybenzoic acid; phases: Crystal 2, Crystal 1, Air at 1 atmosphere
Property: Molar enthalpy of transition or fusion, kJ/mol (Crystal 2); method: DSC/DTA
Molar enthalpy of transition or fusion, kJ/mol	uncertainty
19.55	

System: 4-butoxybenzoic acid; phases: Crystal 2, Gas
Property: Vapor or sublimation pressure, kPa (Crystal 2); method: Knudsen effusion method
Temperature, K	Vapor or sublimation pressure, kPa	uncertainty
351.28	.000088	.00001
353.4	.000116	.00001
355.1	.000138	.00001
357.11	.000178	.00001
361.27	.000287	.00001
363.07	.000349	.00001
365.32	.000448	.00001
367.28	.000558	.00001
369.28	.000706	.00001
371.14	.00088	.00001
373.03	.001064	.00001
351.28	.000087	.00001
353.4	.000109	.00001
355.1	.000139	.00001
357.11	.000178	.00001
359.14	.000222	.00001
361.27	.000284	.00001
363.07	.000353	.00001
365.32	.000458	.00001
367.28	.000559	.00001
369.28	.000697	.00001
371.14	.000874	.00001
373.03	.001074	.00001
351.28	.000085	.00001
353.4	.000111	.00001
355.1	.000137	.00001
357.11	.000175	.00001
359.14	.000222	.00001
361.27	.000279	.00001
363.07	.000346	.00001
365.32	.000447	.00001
367.28	.000545	.00001
369.28	.000685	.00001
371.14	.000855	.00001
373.03	.001059	.00001

System: 4-n-pentyloxybenzoic acid; phases: Crystal 2, Crystal 1, Air at 1 atmosphere
Property: Triple point temperature, K (Crystal 2); method: DSC/DTA
Triple point temperature, K	uncertainty
397.2	

System: 4-n-pentyloxybenzoic acid; phases: Crystal 1, Liquid, Air at 1 atmosphere
Property: Triple point temperature, K (Crystal 1); method: DSC/DTA
Triple point temperature, K	uncertainty
424.2	

System: 4-n-pentyloxybenzoic acid; phases: Crystal 1, Liquid, Air at 1 atmosphere
Property: Molar enthalpy of transition or fusion, kJ/mol (Crystal 1); method: DSC/DTA
Molar enthalpy of transition or fusion, kJ/mol	uncertainty
2.16	

System: 4-n-pentyloxybenzoic acid; phases: Crystal 2, Crystal 1, Air at 1 atmosphere
Property: Molar enthalpy of transition or fusion, kJ/mol (Crystal 2); method: DSC/DTA
Molar enthalpy of transition or fusion, kJ/mol	uncertainty
22.04	

System: 4-n-pentyloxybenzoic acid; phases: Crystal 2, Gas
Property: Vapor or sublimation pressure, kPa (Crystal 2); method: Knudsen effusion method
Temperature, K	Vapor or sublimation pressure, kPa	uncertainty
355.12	.000083	.00001
357.24	.000109	.00001
359.27	.000138	.00001
361.11	.000179	.00001
363.24	.000231	.00001
365.28	.000292	.00001
367.28	.000369	.00001
369.24	.000466	.00001
371.1	.000575	.00001
373.27	.000735	.00001
375.23	.000918	.00001
377.1	.001135	.00001
355.12	.000084	.00001
357.24	.000108	.00001
359.27	.000139	.00001
361.11	.000179	.00001
363.24	.00023	.00001
365.28	.00029	.00001
367.28	.000367	.00001
369.24	.000466	.00001
371.1	.000578	.00001
373.27	.000731	.00001
375.23	.000919	.00001
377.1	.001137	.00001
355.12	.000082	.00001
357.24	.000106	.00001
359.27	.000138	.00001
361.11	.000174	.00001
363.24	.000225	.00001
365.28	.000284	.00001
367.28	.000356	.00001
369.24	.000453	.00001
371.1	.000565	.00001
373.27	.000711	.00001
375.23	.000896	.00001
377.1	.00111	.00001

System: 4-n-heptyloxybenzoic acid; phases: Crystal 3, Crystal 2, Air at 1 atmosphere
Property: Triple point temperature, K (Crystal 3); method: DSC/DTA
Triple point temperature, K	uncertainty
365.4	

System: 4-n-heptyloxybenzoic acid; phases: Crystal 2, Crystal 1, Air at 1 atmosphere
Property: Triple point temperature, K (Crystal 2); method: DSC/DTA
Triple point temperature, K	uncertainty
372.1	

System: 4-n-heptyloxybenzoic acid; phases: Crystal 1, Liquid, Air at 1 atmosphere
Property: Triple point temperature, K (Crystal 1); method: DSC/DTA
Triple point temperature, K	uncertainty
420.8	

System: 4-n-heptyloxybenzoic acid; phases: Crystal 1, Liquid, Air at 1 atmosphere
Property: Molar enthalpy of transition or fusion, kJ/mol (Crystal 1); method: DSC/DTA
Molar enthalpy of transition or fusion, kJ/mol	uncertainty
2.11	

System: 4-n-heptyloxybenzoic acid; phases: Crystal 2, Crystal 1, Air at 1 atmosphere
Property: Molar enthalpy of transition or fusion, kJ/mol (Crystal 2); method: DSC/DTA
Molar enthalpy of transition or fusion, kJ/mol	uncertainty
1.94	

System: 4-n-heptyloxybenzoic acid; phases: Crystal 3, Crystal 2, Air at 1 atmosphere
Property: Molar enthalpy of transition or fusion, kJ/mol (Crystal 3); method: DSC/DTA
Molar enthalpy of transition or fusion, kJ/mol	uncertainty
27.59	

System: 4-n-heptyloxybenzoic acid; phases: Crystal 3, Gas
Property: Vapor or sublimation pressure, kPa (Crystal 3); method: Knudsen effusion method
Temperature, K	Vapor or sublimation pressure, kPa	uncertainty
355.28	.000029	.00001
355.73	.00003	.00001
356.11	.000033	.00001
355.28	.000028	.00001
355.73	.000031	.00001
356.11	.000033	.00001
355.28	.000028	.00001
355.73	.000031	.00001
356.11	.000033	.00001
356.6	.000034	.00001
356.6	.000034	.00001
357.1	.000037	.00001
357.78	.000041	.00001
357.78	.000041	.00001
357.78	.000041	.00001
358.28	.000045	.00001
358.28	.000045	.00001
358.75	.000047	.00001
358.75	.000048	.00001
359.11	.00005	.00001
359.72	.000055	.00001
360.23	.000058	.00001
360.59	.000062	.00001
359.11	.000051	.00001
359.72	.000055	.00001
360.23	.000058	.00001
360.59	.000062	.00001
359.11	.00005	.00001
359.72	.000055	.00001
360.23	.000058	.00001
360.59	.000061	.00001
361.1	.000067	.00001
361.1	.000068	.00001
361.28	.000068	.00001
361.28	.000068	.00001

System: 4-n-hexyloxybenzoic acid; phases: Crystal 3, Crystal 2, Air at 1 atmosphere
Property: Triple point temperature, K (Crystal 3); method: DSC/DTA
Triple point temperature, K	uncertainty
342.2	

System: 4-n-hexyloxybenzoic acid; phases: Crystal 2, Crystal 1, Air at 1 atmosphere
Property: Triple point temperature, K (Crystal 2); method: DSC/DTA
Triple point temperature, K	uncertainty
380	

System: 4-n-hexyloxybenzoic acid; phases: Crystal 1, Liquid, Air at 1 atmosphere
Property: Triple point temperature, K (Crystal 1); method: DSC/DTA
Triple point temperature, K	uncertainty
426.1	

System: 4-n-hexyloxybenzoic acid; phases: Crystal 1, Liquid, Air at 1 atmosphere
Property: Molar enthalpy of transition or fusion, kJ/mol (Crystal 1); method: DSC/DTA
Molar enthalpy of transition or fusion, kJ/mol	uncertainty
3.16	

System: 4-n-hexyloxybenzoic acid; phases: Crystal 2, Crystal 1, Air at 1 atmosphere
Property: Molar enthalpy of transition or fusion, kJ/mol (Crystal 2); method: DSC/DTA
Molar enthalpy of transition or fusion, kJ/mol	uncertainty
13.59	

System: 4-n-hexyloxybenzoic acid; phases: Crystal 3, Crystal 2, Air at 1 atmosphere
Property: Molar enthalpy of transition or fusion, kJ/mol (Crystal 3); method: DSC/DTA
Molar enthalpy of transition or fusion, kJ/mol	uncertainty
5.95	

System: 4-n-hexyloxybenzoic acid; phases: Crystal 2, Gas
Property: Vapor or sublimation pressure, kPa (Crystal 2); method: Knudsen effusion method
Temperature, K	Vapor or sublimation pressure, kPa	uncertainty
363.13	.000148	.00001
365.29	.000194	.00001
367.28	.000245	.00001
369.28	.000309	.00001
371.27	.000387	.00001
373.1	.000469	.00001
375.12	.00059	.00001
377.29	.00076	.00001
379.28	.000945	.00001
365.29	.000195	.00001
367.28	.000245	.00001
369.28	.00031	.00001
371.27	.000388	.00001
373.1	.000485	.00001
375.12	.000609	.00001
377.29	.000768	.00001
379.28	.000954	.00001
363.13	.00015	.00001
365.29	.000195	.00001
367.28	.000241	.00001
369.28	.000304	.00001
371.27	.000387	.00001
373.1	.000475	.00001
375.12	.000593	.00001
377.29	.000761	.00001
379.28	.000939	.00001

System: 4-n-octyloxybenzoic acid; phases: Crystal 4, Crystal 3, Air at 1 atmosphere
Property: Triple point temperature, K (Crystal 4); method: DSC/DTA
Triple point temperature, K	uncertainty
346.7	

System: 4-n-octyloxybenzoic acid; phases: Crystal 3, Crystal 2, Air at 1 atmosphere
Property: Triple point temperature, K (Crystal 3); method: DSC/DTA
Triple point temperature, K	uncertainty
374.5	

System: 4-n-octyloxybenzoic acid; phases: Crystal 2, Crystal 1, Air at 1 atmosphere
Property: Triple point temperature, K (Crystal 2); method: DSC/DTA
Triple point temperature, K	uncertainty
381.6	

System: 4-n-octyloxybenzoic acid; phases: Crystal 1, Liquid, Air at 1 atmosphere
Property: Triple point temperature, K (Crystal 1); method: DSC/DTA
Triple point temperature, K	uncertainty
421	

System: 4-n-octyloxybenzoic acid; phases: Crystal 1, Liquid, Air at 1 atmosphere
Property: Molar enthalpy of transition or fusion, kJ/mol (Crystal 1); method: DSC/DTA
Molar enthalpy of transition or fusion, kJ/mol	uncertainty
.79	

System: 4-n-octyloxybenzoic acid; phases: Crystal 2, Crystal 1, Air at 1 atmosphere
Property: Molar enthalpy of transition or fusion, kJ/mol (Crystal 2); method: DSC/DTA
Molar enthalpy of transition or fusion, kJ/mol	uncertainty
1.38	

System: 4-n-octyloxybenzoic acid; phases: Crystal 3, Crystal 2, Air at 1 atmosphere
Property: Molar enthalpy of transition or fusion, kJ/mol (Crystal 3); method: DSC/DTA
Molar enthalpy of transition or fusion, kJ/mol	uncertainty
11.57	

System: 4-n-octyloxybenzoic acid; phases: Crystal 4, Crystal 3, Air at 1 atmosphere
Property: Molar enthalpy of transition or fusion, kJ/mol (Crystal 4); method: DSC/DTA
Molar enthalpy of transition or fusion, kJ/mol	uncertainty
17.87	

System: 4-n-octyloxybenzoic acid; phases: Crystal 3, Gas
Property: Vapor or sublimation pressure, kPa (Crystal 3); method: Knudsen effusion method
Temperature, K	Vapor or sublimation pressure, kPa	uncertainty
363.28	.000035	.00001
364.22	.000039	.00001
365.07	.000044	.00001
366.07	.000051	.00001
367.2	.000058	.00001
368.08	.000064	.00001
369.29	.000075	.00001
370.2	.000085	.00001
371.06	.000093	.00001
372.28	.000108	.00001
363.28	.000036	.00001
364.22	.00004	.00001
365.07	.000045	.00001
366.07	.000051	.00001
367.2	.000058	.00001
368.08	.000065	.00001
369.29	.000076	.00001
370.2	.000086	.00001
371.06	.000095	.00001
363.28	.000035	.00001
364.22	.000039	.00001
365.07	.000044	.00001
366.07	.00005	.00001
367.2	.000059	.00001
368.08	.000064	.00001
369.29	.000076	.00001
370.2	.000085	.00001
371.06	.000094	.00001
372.28	.000106	.00001
