Measured thermophysical data. Solubility and Density of Potassium Iodide in a Binary Propan-1-ol-Water Solvent Mixture at (298.15, 303.15, 308.15, and 313.15) K
Source: J. Chem. Eng. Data, 2010, 10.1021/je9006426
Compound 1: 1-propanol, C3H8O
Compound 2: potassium iodide, IK
Compound 3: water, H2O

System: 1-propanol + potassium iodide + water; phases: Liquid, Crystal
Fixed: Pressure, kPa = 101
Property: Mass density, kg/m3 (Liquid); method: Pycnometric method
Temperature, K	Solvent: Mole fraction of 1-propanol	Mass density, kg/m3	uncertainty
298.15	0	1716	.1
298.15	.0283	1627.7	.1
298.15	.0621	1469.5	.1
298.15	.1017	1408.3	.1
298.15	.1253	1320.1	.1
298.15	.211	1218.3	.1
298.15	.2909	1087.6	.1
298.15	.3918	1030.8	.1
298.15	.526	937.7	.1
298.15	.7192	852.5	.1
298.15	.9982	803.5	.1
303.15	0	1722.4	.1
303.15	.028	1639.1	.1
303.15	.0617	1496.8	.1
303.15	.1005	1438.3	.1
303.15	.1494	1330.7	.1
303.15	.2086	1249.7	.1
303.15	.2868	1125.7	.1
303.15	.386	1041.2	.1
303.15	.5218	953.4	.1
303.15	.7168	855.4	.1
303.15	.9981	799.8	.1
308.15	0	1733.7	.1
308.15	.0278	1642	.1
308.15	.0607	1542.4	.1
308.15	.1001	1449.7	.1
308.15	.1486	1346.9	.1
308.15	.2077	1253.7	.1
308.15	.2835	1157.2	.1
308.15	.3835	1055.5	.1
308.15	.5203	958.8	.1
308.15	.7155	855.4	.1
308.15	.9978	787.5	.1
313.15	0	1732.9	.1
313.15	.0277	1647.1	.1
313.15	.0603	1557.2	.1
313.15	.0996	1460.4	.1
313.15	.1484	1349.1	.1
313.15	.207	1261.9	.1
313.15	.2823	1160.5	.1
313.15	.3824	1074.7	.1
313.15	.5163	968.3	.1
313.15	.7146	854.1	.1
313.15	.9977	772.1	.1

System: 1-propanol + potassium iodide + water; phases: Liquid, Crystal
Fixed: Pressure, kPa = 101
Property: Mole fraction of potassium iodide (Liquid); method: Gravimetric
Temperature, K	Solvent: Mole fraction of 1-propanol	Mole fraction of potassium iodide	uncertainty
298.15	0	.1393	
298.15	.0283	.1234	
298.15	.0621	.1092	
298.15	.1017	.101	
298.15	.1253	.0958	
298.15	.211	.0851	
298.15	.2909	.0623	
298.15	.3918	.0481	
298.15	.526	.0354	
298.15	.7192	.0143	
298.15	.9982	.018	
303.15	0	.1428	
303.15	.028	.1322	
303.15	.0617	.121	
303.15	.1005	.1157	
303.15	.1494	.1033	
303.15	.2086	.0957	
303.15	.2868	.0753	
303.15	.386	.062	
303.15	.5218	.043	
303.15	.7168	.0175	
303.15	.9981	.0019	
308.15	0	.1465	
308.15	.0278	.1362	
308.15	.0607	.1289	
308.15	.1001	.1207	
308.15	.1486	.1076	
308.15	.2077	.0994	
308.15	.2835	.0859	
308.15	.3835	.0683	
308.15	.5203	.0459	
308.15	.7155	.0193	
308.15	.9978	.0022	
313.15	0	.1497	
313.15	.0277	.1398	
313.15	.0603	.1347	
313.15	.0996	.1253	
313.15	.1484	.1089	
313.15	.207	.1027	
313.15	.2823	.0898	
313.15	.3824	.071	
313.15	.5163	.0531	
313.15	.7146	.0205	
313.15	.9977	.0023	

System: potassium iodide + water; phases: Liquid, Crystal
Property: Mass density, kg/m3 (Liquid); method: Pycnometric method
Temperature, K	Pressure, kPa	Mass density, kg/m3	uncertainty
298.15	101	1716	.1
303.15	101	1722.4	.1
308.15	101	1733.7	.1
313.15	101	1732.9	.1

System: potassium iodide + water; phases: Liquid, Crystal
Property: Mole fraction of potassium iodide (Liquid); method: Gravimetric
Temperature, K	Pressure, kPa	Mole fraction of potassium iodide	uncertainty
298.15	101	.1393	
303.15	101	.1428	
308.15	101	.1465	
313.15	101	.1497	
