Measured thermophysical data. Solubility of Maleic Acid in Supercritical Carbon Dioxide
Source: J. Chem. Eng. Data, 2010, 10.1021/je9008393
Compound 1: carbon dioxide, CO2
Compound 2: cis-1,4-butenedioic acid, C4H4O4
Compound 3: ethanol, C2H6O
Compound 4: naphthalene, C10H8

System: naphthalene + carbon dioxide; phases: Fluid (supercritical or subcritical phases), Crystal
Property: Mole fraction of naphthalene (Fluid (supercritical or subcritical phases)); method: UV-Vis Spectrophotometry
Temperature, K	Pressure, kPa	Mole fraction of naphthalene	uncertainty
308.15	8800	.0078	.0004
308.15	10400	.0112	.0006
308.15	13800	.0139	.0005
308.15	15200	.0153	.0007
308.15	16800	.0167	.0006
308.15	20000	.0166	.0008
308.15	20400	.0164	.001
318.15	8500	.0011	.0003
318.15	10300	.0082	.0005
318.15	13700	.0165	.001
318.15	19900	.0238	.0014
318.15	25000	.0258	.0012

System: cis-1,4-butenedioic acid + carbon dioxide; phases: Fluid (supercritical or subcritical phases), Crystal
Property: Mole fraction of cis-1,4-butenedioic acid (Fluid (supercritical or subcritical phases)); method: UV-Vis Spectrophotometry
Temperature, K	Pressure, kPa	Mole fraction of cis-1,4-butenedioic acid	uncertainty
318.15	7000	.000013	.000001
318.15	8000	.0000131	.0000014
318.15	10000	.0000184	.0000012
318.15	15000	.0000208	.0000016
318.15	20000	.0000222	.0000014
318.15	25000	.0000233	.0000018
318.15	30000	.0000241	.0000022
333.15	7000	.0000313	.0000024
333.15	8000	.0000349	.0000029
333.15	10000	.000045	.000003
333.15	15000	.0000732	.0000045
333.15	20000	.0000807	.0000058
333.15	25000	.0000865	.0000064
333.15	30000	.0000888	.0000075
348.15	7000	.0002481	.0000194
348.15	8000	.0002637	.000021
348.15	10000	.000319	.0000254
348.15	15000	.0004943	.0000245
348.15	20000	.0005823	.0000302
348.15	25000	.0005585	.0000454
348.15	30000	.0005917	.0000486
