Measured thermophysical data. Liquid-Liquid Equilibria for the Three Ternary Systems (3-Methyl-N-butylpyridinium Dicyanamide + Toluene + Heptane), (1-Butyl-3-methylimidazolium Dicyanamide + Toluene + Heptane) and (1-Butyl-3-methylimidazolium Thiocyanate + Toluene + Heptane) at T = (313.15 and 348.15) K and p = 0.1 MPa
Source: J. Chem. Eng. Data, 2010, 10.1021/je9004239
Compound 1: N-butyl-3-methylpyridinium dicyanamide, C12H16N4
Compound 2: 1-butyl-3-methylimidazolium dicyanamide, C10H15N5
Compound 3: 1-butyl-3-methylimidazolium thiocyanate, C9H15N3S
Compound 4: toluene, C7H8
Compound 5: heptane, C7H16

System: toluene + heptane + N-butyl-3-methylpyridinium dicyanamide; phases: Liquid mixture 2, Liquid mixture 1
Fixed: Pressure, kPa = 100
Property: Mole fraction of heptane (Liquid mixture 2); method: Chromatography
Property: Mole fraction of toluene (Liquid mixture 1); method: Chromatography
Property: Mole fraction of heptane (Liquid mixture 1); method: Chromatography
Temperature, K	Mole fraction of toluene	Mole fraction of heptane	uncertainty	Mole fraction of toluene	uncertainty	Mole fraction of heptane	uncertainty
303.15	0	.018	.005	0	.005	1	.002
303.15	.055	.018	.005	.064	.005	.936	.002
303.15	.101	.017	.005	.133	.005	.867	.002
303.15	.184	.014	.005	.275	.005	.725	.002
303.15	.294	.018	.005	.425	.005	.575	.002
303.15	.413	.019	.005	.708	.005	.292	.002
303.15	.475	0	.005	1	.005	0	.002
328.15	0	.022	.005	0	.005	1	.002
328.15	.051	.022	.005	.071	.005	.929	.002
328.15	.093	.021	.005	.141	.005	.859	.002
328.15	.177	.021	.005	.291	.005	.709	.002
328.15	.28	.019	.005	.445	.005	.555	.002
328.15	.406	.019	.005	.734	.005	.266	.002
328.15	.637	0	.005	1	.005	0	.002

System: toluene + heptane + 1-butyl-3-methylimidazolium dicyanamide; phases: Liquid mixture 1, Liquid mixture 2
Fixed: Pressure, kPa = 100
Property: Mole fraction of heptane (Liquid mixture 1); method: Chromatography
Property: Mole fraction of toluene (Liquid mixture 2); method: Chromatography
Property: Mole fraction of heptane (Liquid mixture 2); method: Chromatography
Temperature, K	Mole fraction of toluene	Mole fraction of heptane	uncertainty	Mole fraction of toluene	uncertainty	Mole fraction of heptane	uncertainty
303.15	0	1	.005	0	.005	.014	.003
303.15	.065	.935	.005	.041	.005	.01	.003
303.15	.155	.845	.005	.084	.005	.009	.003
303.15	.305	.695	.005	.15	.005	.008	.003
303.15	.472	.528	.005	.208	.005	.006	.003
303.15	.681	.319	.005	.294	.005	.004	.003
303.15	1	0	.005	.473	.005	0	.003
328.15	0	1	.005	0	.005	.019	.003
328.15	.07	.93	.005	.039	.005	.017	.003
328.15	.163	.837	.005	.084	.005	.015	.003
328.15	.318	.682	.005	.15	.005	.012	.003
328.15	.492	.508	.005	.213	.005	.009	.003
328.15	.705	.295	.005	.295	.005	.007	.003
328.15	1	0	.005	.467	.005	0	.003

System: toluene + heptane + 1-butyl-3-methylimidazolium thiocyanate; phases: Liquid mixture 1, Liquid mixture 2
Fixed: Pressure, kPa = 100
Property: Mole fraction of heptane (Liquid mixture 1); method: Chromatography
Property: Mole fraction of toluene (Liquid mixture 2); method: Chromatography
Property: Mole fraction of heptane (Liquid mixture 2); method: Chromatography
Temperature, K	Mole fraction of toluene	Mole fraction of heptane	uncertainty	Mole fraction of toluene	uncertainty	Mole fraction of heptane	uncertainty
303.15	0	1	.005	0	.005	.008	.003
303.15	.074	.926	.005	.037	.005	.007	.003
303.15	.149	.851	.005	.062	.005	.008	.003
303.15	.321	.679	.005	.126	.005	.008	.003
303.15	.524	.476	.005	.19	.005	.007	.003
303.15	.728	.272	.005	.256	.005	.004	.003
303.15	1	0	.005	.398	.005	0	.003
328.15	0	1	.005	0	.005	.009	.003
328.15	.077	.923	.005	.035	.005	.012	.003
328.15	.153	.847	.005	.059	.005	.009	.003
328.15	.335	.665	.005	.122	.005	.01	.003
328.15	.548	.452	.005	.183	.005	.007	.003
328.15	.747	.253	.005	.251	.005	.005	.003
328.15	1	0	.005	.378	.005	0	.003
