Measured thermophysical data. Excess Enthalpies of Binary and Ternary Mixtures Containing Dibutyl Ether,  Cyclohexane, and 1-Butanol at 298.15 K
Source: J. Chem. Eng. Data, 2009, 10.1021/je900560j
Compound 1: dibutyl ether, C8H18O
Compound 2: cyclohexane, C6H12
Compound 3: 1-butanol, C4H10O

System: cyclohexane + dibutyl ether; phases: Liquid
Fixed: Temperature, K = 298.15
Fixed: Pressure, kPa = 101
Property: Excess molar enthalpy (molar enthalpy of mixing), kJ/mol (Liquid); method: Flow calorimetry
Mole fraction of dibutyl ether	Excess molar enthalpy (molar enthalpy of mixing), kJ/mol	uncertainty
.0499	.0752	.00001
.0997	.1341	.00001
.1502	.1804	.00001
.2002	.2145	.00001
.2497	.2385	.00001
.2999	.2554	.00001
.35	.2649	.00001
.3996	.2686	.00001
.4497	.2664	.00001
.499	.2596	.00001
.5495	.2481	.00001
.6	.2326	.00001
.6491	.2139	.00001
.6992	.1911	.00001
.7501	.1641	.00001
.799	.1367	.00001
.85	.1041	.00001
.9001	.0693	.00001
.9507	.0328	.00001

System: 1-butanol + dibutyl ether; phases: Liquid
Fixed: Temperature, K = 298.15
Fixed: Pressure, kPa = 101
Property: Excess molar enthalpy (molar enthalpy of mixing), kJ/mol (Liquid); method: Flow calorimetry
Mole fraction of dibutyl ether	Excess molar enthalpy (molar enthalpy of mixing), kJ/mol	uncertainty
.0501	.1194	.00001
.1002	.236	.00001
.1497	.3445	.00001
.2003	.4476	.00001
.2503	.5402	.00001
.3004	.6246	.00001
.3498	.6984	.00001
.4006	.7621	.00001
.4507	.814	.00001
.4997	.8532	.00001
.5506	.8798	.00001
.5998	.8924	.00001
.6505	.8906	.00001
.7	.8726	.00001
.7509	.8332	.00001
.8	.7728	.00001
.8501	.6791	.00001
.8994	.5431	.00001
.9493	.3301	.00001

System: 1-butanol + cyclohexane; phases: Liquid
Fixed: Temperature, K = 298.15
Fixed: Pressure, kPa = 101
Property: Excess molar enthalpy (molar enthalpy of mixing), kJ/mol (Liquid); method: Flow calorimetry
Mole fraction of cyclohexane	Excess molar enthalpy (molar enthalpy of mixing), kJ/mol	uncertainty
.0503	.0683	.00001
.0998	.1448	.00001
.1502	.2174	.00001
.1998	.2868	.00001
.2502	.3496	.00001
.2997	.4076	.00001
.35	.4616	.00001
.4002	.5105	.00001
.4503	.5525	.00001
.5003	.5873	.00001
.5501	.6134	.00001
.5997	.6295	.00001
.6501	.6346	.00001
.7002	.6267	.00001
.7501	.6047	.00001
.7996	.5671	.00001
.85	.513	.00001
.9	.4385	.00001
.9496	.3344	.00001

System: 1-butanol + cyclohexane + dibutyl ether; phases: Liquid
Fixed: Temperature, K = 298.15
Fixed: Pressure, kPa = 101
Property: Molar enthalpy of mixing with solvent, kJ/mol of cyclohexane (Liquid); method: Flow calorimetry
Mole fraction of cyclohexane	Solvent: Amount ratio of component to other component of binary solvent of dibutyl ether	Molar enthalpy of mixing with solvent, kJ/mol of cyclohexane	uncertainty
.9	.2498	.3944	.00001
.8002	.2498	.5044	.00001
.6996	.2498	.5574	.00001
.6003	.2498	.5653	.00001
.5002	.2498	.5361	.00001
.4004	.2498	.4751	.00001
.2998	.2498	.3876	.00001
.2003	.2498	.2777	.00001
.1001	.2498	.1442	.00001
.8999	.6669	.3508	.00001
.7997	.6669	.4465	.00001
.6998	.6669	.4912	.00001
.6002	.6669	.4983	.00001
.5002	.6669	.4736	.00001
.4006	.6669	.4229	.00001
.3007	.6669	.348	.00001
.2003	.6669	.2501	.00001
.0997	.6669	.13	.00001
.9002	1.4988	.309	.00001
.8	1.4988	.3959	.00001
.6997	1.4988	.4338	.00001
.5998	1.4988	.4383	.00001
.4998	1.4988	.4153	.00001
.4001	1.4988	.3695	.00001
.2998	1.4988	.3035	.00001
.2005	1.4988	.2168	.00001
.1001	1.4988	.1128	.00001
.8998	4.0531	.25695	.00001
.8006	4.0531	.3426	.00001
.7002	4.0531	.38	.00001
.6003	4.0531	.3838	.00001
.5009	4.0531	.3637	.00001
.4005	4.0531	.322	.00001
.2999	4.0531	.2631	.00001
.1997	4.0531	.1866	.00001
.0995	4.0531	.0971	.00001
