Measured thermophysical data. Speed of Sound, Densities, and Isentropic Compressibilities of Liquid 1-Bromoalkanes at Temperatures from (243.15 to 423.15) K
Source: J. Chem. Eng. Data, 2009, 10.1021/je900227j
Compound 1: 1-bromopropane, C3H7Br
Compound 2: 1-bromobutane, C4H9Br
Compound 3: 1-bromohexane, C6H13Br
Compound 4: 1-bromoheptane, C7H15Br
Compound 5: 1-bromooctane, C8H17Br
Compound 6: 1-bromododecane, C12H25Br
Compound 7: 1-bromopentane, C5H11Br
Compound 8: 1-bromodecane, C10H21Br
Compound 9: 1-bromoundecane, C11H23Br
Compound 10: 1-bromononane, C9H19Br

System: 1-bromopropane; phases: Liquid
Fixed: Pressure, kPa = 101.325
Property: Speed of sound, m/s (Liquid); method: Pulse-echo method
Temperature, K	Speed of sound, m/s	uncertainty
243.76	1144.84	1.14484
263.38	1075.02	1.07502
273.31	1040.1	1.0401
283.26	1005.51	1.00551
293.22	971.22	.97122
298.21	954.05	.95405
323.21	870.16	.87016
343.21	804.19	.80419
363.23	739.38	.73938
383.47	674.94	.67494

System: 1-bromopropane; phases: Liquid
Fixed: Pressure, kPa = 101.325
Property: Mass density, kg/m3 (Liquid); method: Pycnometric method
Temperature, K	Mass density, kg/m3	uncertainty
243.15	1431.07	.143107
253.15	1415.43	.141543
263.15	1400.28	.140028
273.15	1385.33	.138533
283.15	1369.4	.13694
293.15	1352.89	.135289
298.15	1344.48	.134448

System: 1-bromobutane; phases: Liquid
Fixed: Pressure, kPa = 101.325
Property: Speed of sound, m/s (Liquid); method: Pulse-echo method
Temperature, K	Speed of sound, m/s	uncertainty
243.38	1195.27	1.19527
273.26	1090.98	1.09098
323.22	925.99	.92599
343.22	861.16	.86116
363.23	797.6	.7976
383.31	735.21	.73521

System: 1-bromobutane; phases: Liquid
Fixed: Pressure, kPa = 101.325
Property: Mass density, kg/m3 (Liquid); method: Pycnometric method
Temperature, K	Mass density, kg/m3	uncertainty
253.15	1326.49	.132649
263.15	1313.8	.13138
273.15	1300.5	.13005
283.15	1286.37	.128637
293.15	1272.7	.12727
298.15	1265.66	.126566
303.15	1258.55	.125855
323.15	1229.53	.122953

System: 1-bromohexane; phases: Liquid
Fixed: Pressure, kPa = 101.325
Property: Speed of sound, m/s (Liquid); method: Pulse-echo method
Temperature, K	Speed of sound, m/s	uncertainty
243.6	1273.76	1.27376
273.31	1172.85	1.17285
303.2	1073.63	1.07363
323.2	1009.29	1.00929
353.16	916.03	.91603
383.19	826.35	.82635
403.25	767.47	.76747
423.23	709.98	.70998

System: 1-bromohexane; phases: Liquid
Fixed: Pressure, kPa = 101.325
Property: Mass density, kg/m3 (Liquid); method: Pycnometric method
Temperature, K	Mass density, kg/m3	uncertainty
253.15	1217.95	.121795
263.15	1206.62	.120662
273.15	1195.28	.119528
283.15	1183.82	.118382
298.15	1166.83	.116683
323.15	1137.27	.113727
343.15	1113.66	.111366
383.15	1066.11	.106611
403.15	1040.91	.104091

System: 1-bromoheptane; phases: Liquid
Fixed: Pressure, kPa = 101.325
Property: Speed of sound, m/s (Liquid); method: Pulse-echo method
Temperature, K	Speed of sound, m/s	uncertainty
243.74	1308.35	1.30835
273.33	1207.17	1.20717
303.19	1108.66	1.10866
323.14	1045.07	1.04507
353.14	952.86	.95286
383.17	863.47	.86347
423.22	748.09	.74809

System: 1-bromoheptane; phases: Liquid
Fixed: Pressure, kPa = 101.325
Property: Mass density, kg/m3 (Liquid); method: Pycnometric method
Temperature, K	Mass density, kg/m3	uncertainty
253.15	1180.21	.118021
263.15	1169.57	.116957
273.15	1159.15	.115915
283.15	1148.71	.114871
298.15	1132.91	.113291
323.15	1105.97	.110597
343.15	1084.54	.108454
363.15	1061.75	.106175
383.15	1038.55	.103855
393.15	1026.63	.102663

System: 1-bromooctane; phases: Liquid
Fixed: Pressure, kPa = 101.325
Property: Speed of sound, m/s (Liquid); method: Pulse-echo method
Temperature, K	Speed of sound, m/s	uncertainty
243.61	1336.33	1.33633
273.28	1235.42	1.23542
303.16	1137.2	1.1372
323.02	1073.82	1.07382
352.91	981.92	.98192
382.88	892.87	.89287
402.55	835.51	.83551
423.04	778.72	.77872

System: 1-bromooctane; phases: Liquid
Fixed: Pressure, kPa = 101.325
Property: Mass density, kg/m3 (Liquid); method: Pycnometric method
Temperature, K	Mass density, kg/m3	uncertainty
253.15	1151.11	.115111
263.15	1140.86	.114086
273.15	1131.22	.113122
283.15	1121.21	.112121
293.15	1111.01	.111101
303.15	1100.89	.110089
323.15	1080.6	.10806
343.15	1060.45	.106045
363.15	1039.47	.103947
383.15	1018.75	.101875
393.15	1008.38	.100838

System: 1-bromododecane; phases: Liquid
Fixed: Pressure, kPa = 101.325
Property: Speed of sound, m/s (Liquid); method: Pulse-echo method
Temperature, K	Speed of sound, m/s	uncertainty
273.32	1323.54	1.32354
303.21	1224.75	1.22475
323.18	1161.16	1.16116
353.15	1069.74	1.06974
383.17	982.95	.98295
403.19	926.37	.92637
423.14	871.74	.87174

System: 1-bromododecane; phases: Liquid
Fixed: Pressure, kPa = 101.325
Property: Mass density, kg/m3 (Liquid); method: Pycnometric method
Temperature, K	Mass density, kg/m3	uncertainty
273.15	1056.54	.105654
283.15	1048.47	.104847
293.15	1039.81	.103981
303.15	1031.27	.103127
323.15	1013.99	.101399
343.15	996.24	.099624
363.15	979.02	.097902
383.15	961.54	.096154
393.15	952.43	.095243
413.15	933.49	.093349
423.15	923.65	.092365

System: 1-bromopentane; phases: Liquid
Fixed: Pressure, kPa = 101.325
Property: Speed of sound, m/s (Liquid); method: Pulse-echo method
Temperature, K	Speed of sound, m/s	uncertainty
243.73	1240.04	1.24004
273.32	1137.5	1.1375
303.22	1037.13	1.03713
323.17	972.37	.97237
353.18	877.57	.87757
383.23	785.49	.78549
403.28	725.54	.72554
423.48	666.58	.66658

System: 1-bromopentane; phases: Liquid
Fixed: Pressure, kPa = 101.325
Property: Mass density, kg/m3 (Liquid); method: Pycnometric method
Temperature, K	Mass density, kg/m3	uncertainty
253.15	1260.65	.126065
263.15	1249.88	.124988
283.15	1226.85	.122685
293.15	1214.88	.121488
303.15	1202.6	.12026
323.15	1177.13	.117713
343.15	1150.97	.115097
363.15	1124.69	.112469
383.15	1097.39	.109739
393.15	1083.35	.108335

System: 1-bromodecane; phases: Liquid
Fixed: Pressure, kPa = 101.325
Property: Speed of sound, m/s (Liquid); method: Pulse-echo method
Temperature, K	Speed of sound, m/s	uncertainty
323.2	1123.81	1.12381
353.19	1032.24	1.03224
383.22	944.49	.94449
403.23	888.22	.88822
423.27	833.21	.83321

System: 1-bromodecane; phases: Liquid
Fixed: Pressure, kPa = 101.325
Property: Mass density, kg/m3 (Liquid); method: Pycnometric method
Temperature, K	Mass density, kg/m3	uncertainty
253.4	1105.66	.110566
263.3	1096.34	.109634
273.25	1087.32	.108732
283.2	1078.06	.107806
293.15	1069.01	.106901
298.15	1064.47	.106447
323.15	1041.72	.104172
343.15	1023.01	.102301
363.15	1004.33	.100433
383.15	985.41	.098541
403.25	966.27	.096627
423.3	946.49	.094649

System: 1-bromoundecane; phases: Liquid
Fixed: Pressure, kPa = 101.325
Property: Speed of sound, m/s (Liquid); method: Pulse-echo method
Temperature, K	Speed of sound, m/s	uncertainty
273.42	1307.02	1.30702
303.22	1208.99	1.20899
323.19	1145.61	1.14561
353.14	1054.42	1.05442
383.14	966.59	.96659
403.13	909.71	.90971
423.13	854.45	.85445

System: 1-bromoundecane; phases: Liquid
Fixed: Pressure, kPa = 101.325
Property: Mass density, kg/m3 (Liquid); method: Pycnometric method
Temperature, K	Mass density, kg/m3	uncertainty
273.15	1067.26	.106726
283.2	1058.34	.105834
293.2	1049.49	.104949
298.15	1045.03	.104503
323.2	1023.21	.102321
343.2	1005.75	.100575
363.2	987.93	.098793
383.2	969.56	.096956
403.25	951.27	.095127

System: 1-bromononane; phases: Liquid
Fixed: Pressure, kPa = 101.325
Property: Speed of sound, m/s (Liquid); method: Pulse-echo method
Temperature, K	Speed of sound, m/s	uncertainty
253.46	1329.91	1.32991
273.29	1262.72	1.26272
303.15	1165.07	1.16507
323.14	1101.12	1.10112
353.1	1009.85	1.00985
383.05	921.46	.92146
402.98	864.42	.86442
422.72	808.79	.80879

System: 1-bromononane; phases: Liquid
Fixed: Pressure, kPa = 101.325
Property: Mass density, kg/m3 (Liquid); method: Pycnometric method
Temperature, K	Mass density, kg/m3	uncertainty
253.15	1124.52	.112452
263.2	1115.2	.11152
273.15	1105.5	.11055
283.15	1096.09	.109609
293.15	1086.58	.108658
298.15	1082.2	.10822
323.15	1058.34	.105834
343.15	1038.92	.103892
363.15	1019.42	.101942
383.15	999.36	.099936
393.15	989.17	.098917
413.15	968.48	.096848
