Measured thermophysical data. Density, Speed of Sound, Isentropic Compressibility, and Excess Volume of (Monoethanolamine + 2-Amino-2-methyl-1-propanol), (Monoethanolamine + Triethanolamine), and (Monoethanolamine + N-Methyldiethanolamine) at Temperatures from (293.15 to 323.15) K
Source: J. Chem. Eng. Data, 2010, 10.1021/je900437b
Compound 1: 2-amino-2-methyl-1-propanol, C4H11NO
Compound 2: N-methyldiethanolamine, C5H13NO2
Compound 3: 2-aminoethanol, C2H7NO
Compound 4: triethanolamine, C6H15NO3

System: 2-amino-2-methyl-1-propanol; phases: Liquid
Property: Mass density, kg/m3 (Liquid); method: Vibrating tube method
Temperature, K	Pressure, kPa	Mass density, kg/m3	uncertainty
293.15	101	936.751	.05
298.15	101	932.596	.05
303.15	101	928.395	.05
308.15	101	924.174	.05
313.15	101	919.945	.05
318.15	101	915.702	.05
323.15	101	911.431	.05

System: 2-amino-2-methyl-1-propanol; phases: Liquid
Property: Speed of sound, m/s (Liquid); method: Sing-around technique in a fixed-path interferometer
Temperature, K	Pressure, kPa	Speed of sound, m/s	uncertainty
293.15	101	1501.44	.05
298.15	101	1483.44	.05
303.15	101	1461.22	.05
308.15	101	1442.4	.05
313.15	101	1423.8	.05
318.15	101	1405.28	.05
323.15	101	1386.93	.05

System: N-methyldiethanolamine; phases: Liquid
Property: Mass density, kg/m3 (Liquid); method: Vibrating tube method
Temperature, K	Pressure, kPa	Mass density, kg/m3	uncertainty
293.15	101	1042.201	.05
298.15	101	1038.29	.05
303.15	101	1034.358	.05
308.15	101	1030.426	.05
313.15	101	1026.484	.05
318.15	101	1022.535	.05
323.15	101	1018.576	.05

System: N-methyldiethanolamine; phases: Liquid
Property: Speed of sound, m/s (Liquid); method: Sing-around technique in a fixed-path interferometer
Temperature, K	Pressure, kPa	Speed of sound, m/s	uncertainty
293.15	101	1585.48	.05
298.15	101	1570.13	.05
303.15	101	1554.81	.05
308.15	101	1539.47	.05
313.15	101	1524.19	.05
318.15	101	1508.79	.05
323.15	101	1493.4	.05

System: 2-aminoethanol; phases: Liquid
Property: Mass density, kg/m3 (Liquid); method: Vibrating tube method
Temperature, K	Pressure, kPa	Mass density, kg/m3	uncertainty
293.15	101	1015.977	.05
298.15	101	1012.02	.05
303.15	101	1008.002	.05
308.15	101	1004.024	.05
313.15	101	1000.037	.05
318.15	101	996.029	.05
323.15	101	992.014	.05

System: 2-aminoethanol; phases: Liquid
Property: Speed of sound, m/s (Liquid); method: Sing-around technique in a fixed-path interferometer
Temperature, K	Pressure, kPa	Speed of sound, m/s	uncertainty
293.15	101	1735.46	.05
298.15	101	1719.23	.05
303.15	101	1703.09	.05
308.15	101	1686.79	.05
313.15	101	1670.54	.05
318.15	101	1654.19	.05
323.15	101	1637.86	.05

System: triethanolamine; phases: Liquid
Property: Mass density, kg/m3 (Liquid); method: Vibrating tube method
Temperature, K	Pressure, kPa	Mass density, kg/m3	uncertainty
298.15	101	1120.82	.05
303.15	101	1118.061	.05
308.15	101	1115.255	.05
313.15	101	1112.402	.05
318.15	101	1109.604	.05
323.15	101	1106.778	.05

System: triethanolamine; phases: Liquid
Property: Speed of sound, m/s (Liquid); method: Sing-around technique in a fixed-path interferometer
Temperature, K	Pressure, kPa	Speed of sound, m/s	uncertainty
298.15	101	1610.51	.05
303.15	101	1600.52	.05
308.15	101	1595.45	.05
313.15	101	1586.99	.05
318.15	101	1578.75	.05
323.15	101	1570.58	.05

System: 2-amino-2-methyl-1-propanol + 2-aminoethanol; phases: Liquid
Fixed: Pressure, kPa = 101
Property: Mass density, kg/m3 (Liquid); method: Vibrating tube method
Temperature, K	Mole fraction of 2-aminoethanol	Mass density, kg/m3	uncertainty
293.15	0	936.751	.05
293.15	.141	944.932	.05
293.15	.2691	953.001	.05
293.15	.3862	961.121	.05
293.15	.4939	969.165	.05
293.15	.5933	977.051	.05
293.15	.6869	984.969	.05
293.15	.7724	992.742	.05
293.15	.8532	1000.621	.05
293.15	.9268	1008.218	.05
293.15	1	1015.977	.05
298.15	0	932.596	.05
298.15	.141	940.731	.05
298.15	.2691	948.799	.05
298.15	.3862	956.918	.05
298.15	.4939	964.959	.05
298.15	.5933	972.875	.05
298.15	.6869	980.811	.05
298.15	.7724	988.58	.05
298.15	.8532	996.465	.05
298.15	.9268	1004.076	.05
298.15	1	1012.02	.05
303.15	0	928.395	.05
303.15	.141	936.493	.05
303.15	.2691	944.603	.05
303.15	.3862	952.718	.05
303.15	.4939	960.768	.05
303.15	.5933	968.682	.05
303.15	.6869	976.624	.05
303.15	.7724	984.413	.05
303.15	.8532	992.305	.05
303.15	.9268	999.98	.05
303.15	1	1008.002	.05
308.15	0	924.174	.05
308.15	.141	932.236	.05
308.15	.2691	940.355	.05
308.15	.3862	948.482	.05
308.15	.4939	956.545	.05
308.15	.5933	964.465	.05
308.15	.6869	972.442	.05
308.15	.7724	980.259	.05
308.15	.8532	988.206	.05
308.15	.9268	995.885	.05
308.15	1	1004.024	.05
313.15	0	919.945	.05
313.15	.141	927.969	.05
313.15	.2691	936.091	.05
313.15	.3862	944.248	.05
313.15	.4939	952.319	.05
313.15	.5933	960.252	.05
313.15	.6869	968.25	.05
313.15	.7724	976.093	.05
313.15	.8532	984.066	.05
313.15	.9268	991.791	.05
313.15	1	1000.037	.05
318.15	0	915.702	.05
318.15	.141	923.687	.05
318.15	.2691	931.816	.05
318.15	.3862	940.009	.05
318.15	.4939	948.077	.05
318.15	.5933	956.017	.05
318.15	.6869	964.037	.05
318.15	.7724	971.917	.05
318.15	.8532	979.896	.05
318.15	.9268	987.66	.05
318.15	1	996.029	.05
323.15	0	911.431	.05
323.15	.141	919.381	.05
323.15	.2691	927.518	.05
323.15	.3862	935.735	.05
323.15	.4939	943.814	.05
323.15	.5933	951.753	.05
323.15	.6869	959.804	.05
323.15	.7724	967.721	.05
323.15	.8532	975.738	.05
323.15	.9268	983.527	.05
323.15	1	992.014	.05

System: 2-amino-2-methyl-1-propanol + 2-aminoethanol; phases: Liquid
Fixed: Pressure, kPa = 101
Property: Speed of sound, m/s (Liquid); method: Sing-around technique in a fixed-path interferometer
Temperature, K	Mole fraction of 2-aminoethanol	Speed of sound, m/s	uncertainty
293.15	0	1501.44	.05
293.15	.141	1525.94	.05
293.15	.2691	1550.21	.05
293.15	.3862	1574.05	.05
293.15	.4939	1597.56	.05
293.15	.5933	1621.17	.05
293.15	.6869	1645.12	.05
293.15	.7724	1668.25	.05
293.15	.8532	1690.99	.05
293.15	.9268	1712.56	.05
293.15	1	1735.46	.05
298.15	0	1483.44	.05
298.15	.141	1508.29	.05
298.15	.2691	1532.96	.05
298.15	.3862	1557.14	.05
298.15	.4939	1580.94	.05
298.15	.5933	1604.68	.05
298.15	.6869	1628.76	.05
298.15	.7724	1651.96	.05
298.15	.8532	1674.82	.05
298.15	.9268	1696.48	.05
298.15	1	1719.23	.05
303.15	0	1461.22	.05
303.15	.141	1486.9	.05
303.15	.2691	1512.28	.05
303.15	.3862	1537.13	.05
303.15	.4939	1561.56	.05
303.15	.5933	1585.92	.05
303.15	.6869	1610.55	.05
303.15	.7724	1634.32	.05
303.15	.8532	1657.73	.05
303.15	.9268	1679.89	.05
303.15	1	1703.09	.05
308.15	0	1442.4	.05
308.15	.141	1468.52	.05
308.15	.2691	1494.36	.05
308.15	.3862	1519.51	.05
308.15	.4939	1544.32	.05
308.15	.5933	1569.02	.05
308.15	.6869	1593.8	.05
308.15	.7724	1617.68	.05
308.15	.8532	1641.2	.05
308.15	.9268	1663.6	.05
308.15	1	1686.79	.05
313.15	0	1423.8	.05
313.15	.141	1450.36	.05
313.15	.2691	1476.45	.05
313.15	.3862	1501.93	.05
313.15	.4939	1527.03	.05
313.15	.5933	1551.94	.05
313.15	.6869	1576.93	.05
313.15	.7724	1600.95	.05
313.15	.8532	1624.67	.05
313.15	.9268	1647.3	.05
313.15	1	1670.54	.05
318.15	0	1405.28	.05
318.15	.141	1432.21	.05
318.15	.2691	1458.56	.05
318.15	.3862	1484.3	.05
318.15	.4939	1509.68	.05
318.15	.5933	1534.79	.05
318.15	.6869	1559.9	.05
318.15	.7724	1584.06	.05
318.15	.8532	1608.01	.05
318.15	.9268	1630.81	.05
318.15	1	1654.19	.05
323.15	0	1386.93	.05
323.15	.141	1414.22	.05
323.15	.2691	1440.79	.05
323.15	.3862	1466.73	.05
323.15	.4939	1492.35	.05
323.15	.5933	1517.66	.05
323.15	.6869	1542.91	.05
323.15	.7724	1567.2	.05
323.15	.8532	1591.33	.05
323.15	.9268	1614.37	.05
323.15	1	1637.86	.05

System: triethanolamine + 2-aminoethanol; phases: Liquid
Fixed: Pressure, kPa = 101
Property: Mass density, kg/m3 (Liquid); method: Vibrating tube method
Temperature, K	Mole fraction of 2-aminoethanol	Mass density, kg/m3	uncertainty
298.15	0	1120.82	.05
298.15	.1159	1116.381	.05
298.15	.2165	1111.374	.05
298.15	.3017	1106.52	.05
298.15	.3788	1101.52	.05
298.15	.4492	1096.35	.05
298.15	.5121	1091.139	.05
298.15	.6192	1080.56	.05
298.15	.7099	1069.5	.05
298.15	.7849	1058.49	.05
298.15	.8509	1046.99	.05
298.15	.907	1035.531	.05
298.15	.9561	1023.915	.05
298.15	1	1012.02	.05
303.15	0	1118.061	.05
303.15	.1159	1113.44	.05
303.15	.2165	1108.35	.05
303.15	.3017	1103.4	.05
303.15	.3788	1098.32	.05
303.15	.4492	1093.05	.05
303.15	.5121	1087.759	.05
303.15	.6192	1077.07	.05
303.15	.7099	1065.875	.05
303.15	.7849	1054.74	.05
303.15	.8509	1043.15	.05
303.15	.907	1031.61	.05
303.15	.9561	1019.927	.05
303.15	1	1008.002	.05
308.15	0	1115.255	.05
308.15	.1159	1110.42	.05
308.15	.2165	1105.255	.05
308.15	.3017	1100.25	.05
308.15	.3788	1095.08	.05
308.15	.4492	1089.75	.05
308.15	.5121	1084.39	.05
308.15	.6192	1073.56	.05
308.15	.7099	1062.26	.05
308.15	.7849	1051.01	.05
308.15	.8509	1039.31	.05
308.15	.907	1027.72	.05
308.15	.9561	1015.985	.05
308.15	1	1004.024	.05
313.15	0	1112.402	.05
313.15	.1159	1107.47	.05
313.15	.2165	1102.16	.05
313.15	.3017	1097.05	.05
313.15	.3788	1091.8	.05
313.15	.4492	1086.404	.05
313.15	.5121	1080.991	.05
313.15	.6192	1070.013	.05
313.15	.7099	1058.62	.05
313.15	.7849	1047.27	.05
313.15	.8509	1035.49	.05
313.15	.907	1023.83	.05
313.15	.9561	1012.034	.05
313.15	1	1000.037	.05
318.15	0	1109.604	.05
318.15	.1159	1104.53	.05
318.15	.2165	1099.15	.05
318.15	.3017	1093.95	.05
318.15	.3788	1088.58	.05
318.15	.4492	1083.063	.05
318.15	.5121	1077.57	.05
318.15	.6192	1066.473	.05
318.15	.7099	1054.94	.05
318.15	.7849	1043.54	.05
318.15	.8509	1031.7	.05
318.15	.907	1019.92	.05
318.15	.9561	1008.071	.05
318.15	1	996.029	.05
323.15	0	1106.778	.05
323.15	.1159	1101.56	.05
323.15	.2165	1096.03	.05
323.15	.3017	1090.73	.05
323.15	.3788	1085.31	.05
323.15	.4492	1079.76	.05
323.15	.5121	1074.18	.05
323.15	.6192	1062.92	.05
323.15	.7099	1051.26	.05
323.15	.7849	1039.74	.05
323.15	.8509	1027.82	.05
323.15	.907	1016.001	.05
323.15	.9561	1004.089	.05
323.15	1	992.014	.05

System: triethanolamine + 2-aminoethanol; phases: Liquid
Fixed: Pressure, kPa = 101
Property: Speed of sound, m/s (Liquid); method: Sing-around technique in a fixed-path interferometer
Temperature, K	Mole fraction of 2-aminoethanol	Speed of sound, m/s	uncertainty
298.15	0	1610.51	.05
298.15	.1159	1625.22	.05
298.15	.2165	1637.77	.05
298.15	.3017	1648.39	.05
298.15	.3788	1658.12	.05
298.15	.4492	1666.78	.05
298.15	.5121	1674.28	.05
298.15	.6192	1686.44	.05
298.15	.7099	1695.87	.05
298.15	.7849	1702.72	.05
298.15	.8509	1708	.05
298.15	.907	1712.06	.05
298.15	.9561	1715.59	.05
298.15	1	1719.23	.05
303.15	0	1600.52	.05
303.15	.1159	1615.2	.05
303.15	.2165	1627.99	.05
303.15	.3017	1638.71	.05
303.15	.3788	1648.27	.05
303.15	.4492	1656.7	.05
303.15	.5121	1663.93	.05
303.15	.6192	1675.27	.05
303.15	.7099	1683.36	.05
303.15	.7849	1689.12	.05
303.15	.8509	1693.54	.05
303.15	.907	1697.12	.05
303.15	.9561	1700.26	.05
303.15	1	1703.09	.05
308.15	0	1595.45	.05
308.15	.1159	1609.96	.05
308.15	.2165	1622.06	.05
308.15	.3017	1631.98	.05
308.15	.3788	1640.79	.05
308.15	.4492	1648.6	.05
308.15	.5121	1655.12	.05
308.15	.6192	1664.99	.05
308.15	.7099	1671.82	.05
308.15	.7849	1676.66	.05
308.15	.8509	1680.56	.05
308.15	.907	1683.54	.05
308.15	.9561	1685.86	.05
308.15	1	1686.79	.05
313.15	0	1586.99	.05
313.15	.1159	1601.84	.05
313.15	.2165	1613.92	.05
313.15	.3017	1623.58	.05
313.15	.3788	1631.91	.05
313.15	.4492	1639.19	.05
313.15	.5121	1645.22	.05
313.15	.6192	1654.58	.05
313.15	.7099	1661.14	.05
313.15	.7849	1665.14	.05
313.15	.8509	1667.58	.05
313.15	.907	1668.96	.05
313.15	.9561	1669.96	.05
313.15	1	1670.54	.05
318.15	0	1578.75	.05
318.15	.1159	1593.79	.05
318.15	.2165	1605.9	.05
318.15	.3017	1614.84	.05
318.15	.3788	1622.56	.05
318.15	.4492	1629.43	.05
318.15	.5121	1635.11	.05
318.15	.6192	1643.9	.05
318.15	.7099	1649.55	.05
318.15	.7849	1652.76	.05
318.15	.8509	1654.57	.05
318.15	.907	1655.33	.05
318.15	.9561	1655.34	.05
318.15	1	1654.19	.05
323.15	0	1570.58	.05
323.15	.1159	1585.86	.05
323.15	.2165	1597.24	.05
323.15	.3017	1605.88	.05
323.15	.3788	1613.5	.05
323.15	.4492	1620.14	.05
323.15	.5121	1625.64	.05
323.15	.6192	1633.19	.05
323.15	.7099	1637.46	.05
323.15	.7849	1639.85	.05
323.15	.8509	1641.32	.05
323.15	.907	1641.77	.05
323.15	.9561	1640.96	.05
323.15	1	1637.86	.05

System: N-methyldiethanolamine + 2-aminoethanol; phases: Liquid
Fixed: Pressure, kPa = 101
Property: Mass density, kg/m3 (Liquid); method: Vibrating tube method
Temperature, K	Mole fraction of 2-aminoethanol	Mass density, kg/m3	uncertainty
293.15	0	1042.201	.05
293.15	.1789	1040.322	.05
293.15	.3286	1038.487	.05
293.15	.456	1036.461	.05
293.15	.5691	1034.198	.05
293.15	.6614	1031.812	.05
293.15	.7451	1029.17	.05
293.15	.8197	1026.389	.05
293.15	.854	1024.997	.05
293.15	.8865	1023.48	.05
293.15	.9461	1020.223	.05
293.15	.9738	1018.272	.05
293.15	1	1015.977	.05
298.15	0	1038.29	.05
298.15	.1789	1036.351	.05
298.15	.3286	1034.46	.05
298.15	.456	1032.456	.05
298.15	.5691	1030.158	.05
298.15	.6614	1027.724	.05
298.15	.7451	1025.098	.05
298.15	.8197	1022.321	.05
298.15	.854	1020.835	.05
298.15	.8865	1019.333	.05
298.15	.9461	1016.092	.05
298.15	.9738	1014.198	.05
298.15	1	1012.02	.05
303.15	0	1034.358	.05
303.15	.1789	1032.335	.05
303.15	.3286	1030.414	.05
303.15	.456	1028.381	.05
303.15	.5691	1026.074	.05
303.15	.6614	1023.608	.05
303.15	.7451	1020.956	.05
303.15	.8197	1018.166	.05
303.15	.854	1016.658	.05
303.15	.8865	1015.146	.05
303.15	.9461	1011.898	.05
303.15	.9738	1009.954	.05
303.15	1	1008.002	.05
308.15	0	1030.426	.05
308.15	.1789	1028.359	.05
308.15	.3286	1026.407	.05
308.15	.456	1024.373	.05
308.15	.5691	1022.01	.05
308.15	.6614	1019.552	.05
308.15	.7451	1016.859	.05
308.15	.8197	1014.032	.05
308.15	.854	1012.554	.05
308.15	.8865	1011.03	.05
308.15	.9461	1007.829	.05
308.15	.9738	1005.91	.05
308.15	1	1004.024	.05
313.15	0	1026.484	.05
313.15	.1789	1024.364	.05
313.15	.3286	1022.379	.05
313.15	.456	1020.328	.05
313.15	.5691	1017.964	.05
313.15	.6614	1015.469	.05
313.15	.7451	1012.763	.05
313.15	.8197	1009.917	.05
313.15	.854	1008.436	.05
313.15	.8865	1006.906	.05
313.15	.9461	1003.743	.05
313.15	.9738	1001.868	.05
313.15	1	1000.037	.05
318.15	0	1022.535	.05
318.15	.1789	1020.38	.05
318.15	.3286	1018.352	.05
318.15	.456	1016.269	.05
318.15	.5691	1013.887	.05
318.15	.6614	1011.391	.05
318.15	.7451	1008.661	.05
318.15	.8197	1005.81	.05
318.15	.854	1004.313	.05
318.15	.8865	1002.793	.05
318.15	.9461	999.607	.05
318.15	.9738	997.788	.05
318.15	1	996.029	.05
323.15	0	1018.576	.05
323.15	.1789	1016.376	.05
323.15	.3286	1014.316	.05
323.15	.456	1012.202	.05
323.15	.5691	1009.81	.05
323.15	.6614	1007.306	.05
323.15	.7451	1004.572	.05
323.15	.8197	1001.701	.05
323.15	.854	1000.209	.05
323.15	.8865	998.693	.05
323.15	.9461	995.464	.05
323.15	.9738	993.693	.05
323.15	1	992.014	.05

System: N-methyldiethanolamine + 2-aminoethanol; phases: Liquid
Fixed: Pressure, kPa = 101
Property: Speed of sound, m/s (Liquid); method: Sing-around technique in a fixed-path interferometer
Temperature, K	Mole fraction of 2-aminoethanol	Speed of sound, m/s	uncertainty
293.15	0	1585.48	.05
293.15	.1789	1603.65	.05
293.15	.3286	1622.33	.05
293.15	.456	1640.01	.05
293.15	.5691	1656.32	.05
293.15	.6614	1671.6	.05
293.15	.7451	1686.04	.05
293.15	.8197	1698.73	.05
293.15	.854	1705.48	.05
293.15	.8865	1712.03	.05
293.15	.9461	1723.26	.05
293.15	.9738	1729.38	.05
293.15	1	1735.46	.05
298.15	0	1570.13	.05
298.15	.1789	1588.5	.05
298.15	.3286	1607.08	.05
298.15	.456	1624.69	.05
298.15	.5691	1641	.05
298.15	.6614	1656.19	.05
298.15	.7451	1670.51	.05
298.15	.8197	1683.12	.05
298.15	.854	1689.76	.05
298.15	.8865	1696.27	.05
298.15	.9461	1707.34	.05
298.15	.9738	1713.34	.05
298.15	1	1719.23	.05
303.15	0	1554.81	.05
303.15	.1789	1573.39	.05
303.15	.3286	1591.87	.05
303.15	.456	1609.4	.05
303.15	.5691	1625.65	.05
303.15	.6614	1640.77	.05
303.15	.7451	1655	.05
303.15	.8197	1667.53	.05
303.15	.854	1674.12	.05
303.15	.8865	1680.59	.05
303.15	.9461	1691.52	.05
303.15	.9738	1697.47	.05
303.15	1	1703.09	.05
308.15	0	1539.47	.05
308.15	.1789	1558.16	.05
308.15	.3286	1576.56	.05
308.15	.456	1594.02	.05
308.15	.5691	1610.16	.05
308.15	.6614	1625.25	.05
308.15	.7451	1639.39	.05
308.15	.8197	1651.79	.05
308.15	.854	1658.33	.05
308.15	.8865	1664.74	.05
308.15	.9461	1675.47	.05
308.15	.9738	1681.31	.05
308.15	1	1686.79	.05
313.15	0	1524.19	.05
313.15	.1789	1542.99	.05
313.15	.3286	1561.31	.05
313.15	.456	1578.66	.05
313.15	.5691	1594.74	.05
313.15	.6614	1609.71	.05
313.15	.7451	1623.76	.05
313.15	.8197	1636.04	.05
313.15	.854	1642.54	.05
313.15	.8865	1648.83	.05
313.15	.9461	1659.48	.05
313.15	.9738	1665.18	.05
313.15	1	1670.54	.05
318.15	0	1508.79	.05
318.15	.1789	1527.69	.05
318.15	.3286	1545.95	.05
318.15	.456	1563.2	.05
318.15	.5691	1579.15	.05
318.15	.6614	1594.07	.05
318.15	.7451	1608	.05
318.15	.8197	1620.18	.05
318.15	.854	1626.61	.05
318.15	.8865	1632.83	.05
318.15	.9461	1643.35	.05
318.15	.9738	1648.95	.05
318.15	1	1654.19	.05
323.15	0	1493.4	.05
323.15	.1789	1512.39	.05
323.15	.3286	1530.61	.05
323.15	.456	1547.73	.05
323.15	.5691	1563.58	.05
323.15	.6614	1578.41	.05
323.15	.7451	1592.23	.05
323.15	.8197	1604.31	.05
323.15	.854	1610.66	.05
323.15	.8865	1616.84	.05
323.15	.9461	1627.21	.05
323.15	.9738	1632.75	.05
323.15	1	1637.86	.05
