Measured thermophysical data. Effect of Diaminomethanal on the Vapor-Liquid Equilibria of the Ethanol + Water System at Atmospheric Pressure
Source: J. Chem. Eng. Data, 2010, 10.1021/je9007734
Compound 1: ethanol, C2H6O
Compound 2: carbamoylamine, CH4N2O
Compound 3: water, H2O

System: carbamoylamine + ethanol + water; phases: Gas, Liquid
Fixed: Pressure, kPa = 98.5
Property: Mole fraction of ethanol (Gas); method: Chromatography
Amount concentration (molarity), mol/dm3 of carbamoylamine	Solvent: Mole fraction of ethanol	Mole fraction of ethanol	uncertainty
0	.848	.865	2.9999999999859E-03
.33	.848	.864	2.9999999999859E-03
.8	.846	.869	2.9999999999859E-03
2.26	.849	.889	2.9999999999859E-03
4.16	.85	.91	2.9999999999859E-03

System: carbamoylamine + ethanol + water; phases: Liquid, Gas
Fixed: Pressure, kPa = 98.5
Property: Boiling temperature at pressure P, K (Liquid); method: Ebulliometric method (Recirculating still)
Amount concentration (molarity), mol/dm3 of carbamoylamine	Solvent: Mole fraction of ethanol	Boiling temperature at pressure P, K	uncertainty
2.26	0	372.85	.199999999999989
2.26	.062	364.65	.199999999999989
2.26	.165	359.75	.199999999999989
2.26	.28	357.15	.199999999999989
2.26	.475	355.15	.199999999999989
2.26	.635	354.15	.199999999999989
2.26	.732	353.95	.199999999999989
2.26	.896	353.75	.199999999999989
2.26	.948	353.75	.199999999999989
2.26	.973	353.75	.199999999999989
2.26	1	353.75	.199999999999989
4.16	0	373.65	.199999999999989
4.16	.007	371.85	.199999999999989
4.16	.021	370.05	.199999999999989
4.16	.041	367.25	.199999999999989
4.16	.065	365.85	.199999999999989
4.16	.125	362.65	.199999999999989
4.16	.377	357.35	.199999999999989
4.16	.543	356.35	.199999999999989
4.16	.62	355.95	.199999999999989
4.16	.706	355.55	.199999999999989
4.16	.816	355.35	.199999999999989
4.16	.878	355.35	.199999999999989
4.16	.955	354.95	.199999999999989
4.16	1	354.75	.199999999999989

System: carbamoylamine + ethanol + water; phases: Gas, Liquid
Fixed: Pressure, kPa = 98.5
Property: Mole fraction of ethanol (Gas); method: Chromatography
Amount concentration (molarity), mol/dm3 of carbamoylamine	Solvent: Mole fraction of ethanol	Mole fraction of ethanol	uncertainty
.136	0	0	2.9999999999859E-03
.136	.062	.351	2.9999999999859E-03
.136	.165	.508	2.9999999999859E-03
.136	.28	.63	2.9999999999859E-03
.136	.475	.721	2.9999999999859E-03
.136	.635	.795	2.9999999999859E-03
.136	.732	.845	2.9999999999859E-03
.136	.896	.923	2.9999999999859E-03
.136	.948	.959	2.9999999999859E-03
.136	.973	.977	2.9999999999859E-03
.136	1	1	2.9999999999859E-03
.25	0	0	2.9999999999859E-03
.25	.007	.112	2.9999999999859E-03
.25	.021	.186	2.9999999999859E-03
.25	.041	.24	2.9999999999859E-03
.25	.065	.34	2.9999999999859E-03
.25	.125	.474	2.9999999999859E-03
.25	.377	.733	2.9999999999859E-03
.25	.543	.787	2.9999999999859E-03
.25	.62	.819	2.9999999999859E-03
.25	.706	.866	2.9999999999859E-03
.25	.816	.909	2.9999999999859E-03
.25	.878	.933	2.9999999999859E-03
.25	.955	.974	2.9999999999859E-03
.25	1	1	2.9999999999859E-03

System: carbamoylamine + water; phases: Liquid, Gas
Property: Boiling temperature at pressure P, K (Liquid); method: Ebulliometric method (Recirculating still)
Amount concentration (molarity), mol/dm3 of carbamoylamine	Pressure, kPa	Boiling temperature at pressure P, K	uncertainty
2.26	98.5	372.85	.199999999999989
4.16	98.5	373.65	.199999999999989

System: carbamoylamine + ethanol; phases: Liquid, Gas
Property: Boiling temperature at pressure P, K (Liquid); method: Ebulliometric method (Recirculating still)
Amount concentration (molarity), mol/dm3 of carbamoylamine	Pressure, kPa	Boiling temperature at pressure P, K	uncertainty
2.26	98.5	353.75	.199999999999989
4.16	98.5	354.75	.199999999999989
