Measured thermophysical data. Solubilities of Some Chlorophenols in Supercritical CO2 in the Presence and Absence of Cosolvents
Source: J. Chem. Eng. Data, 2010, 10.1021/je900328c
Compound 1: carbon dioxide, CO2
Compound 2: phenol, 4-chloro-, C6H5ClO
Compound 3: phenol, 2,4-dichloro-, C6H4Cl2O
Compound 4: phenachlor, C6H3Cl3O
Compound 5: methanol, CH4O
Compound 6: propanone, C3H6O

System: phenol, 4-chloro- + carbon dioxide; phases: Fluid (supercritical or subcritical phases), Crystal
Property: Mole fraction of phenol, 4-chloro- (Fluid (supercritical or subcritical phases)); method: Gravimetrically measured
Temperature, K	Pressure, kPa	Mole fraction of phenol, 4-chloro-	uncertainty
308	8.8	.01135	.00028375
308	9.8	.01522	.0003805
308	10.7	.01642	.0004105
308	11.7	.01885	.00047125
308	12.7	.01926	.0004815
308	13.7	.02	.0005
308	14.7	.02096	.000524
308	15.6	.02159	.00053975
313	8.8	.00388	.000097
313	9.8	.01123	.00028075
313	10.7	.01426	.0003565
313	11.7	.01844	.000461
313	12.7	.01988	.000497
313	13.7	.02183	.00054575
313	14.7	.02264	.000566
313	15.6	.0238	.000595

System: phenol, 2,4-dichloro- + carbon dioxide; phases: Fluid (supercritical or subcritical phases), Crystal
Property: Mole fraction of phenol, 2,4-dichloro- (Fluid (supercritical or subcritical phases)); method: Gravimetrically measured
Temperature, K	Pressure, kPa	Mole fraction of phenol, 2,4-dichloro-	uncertainty
308	8800	.03129	.00078225
308	9800	.0431	.0010775
308	10700	.0486	.001215
308	11700	.05482	.0013705
308	12700	.05642	.0014105
308	13700	.06089	.00152225
308	14700	.0628	.00157
308	15600	.06459	.00161475
313	8800	.00978	.0002445
313	9800	.03054	.0007635
313	10700	.0384	.00096
313	11700	.05245	.00131125
313	12700	.05664	.001416
313	13700	.06347	.00158675
313	14700	.06646	.0016615
313	15600	.07024	.001756

System: phenachlor + carbon dioxide; phases: Fluid (supercritical or subcritical phases), Crystal
Property: Mole fraction of phenachlor (Fluid (supercritical or subcritical phases)); method: Gravimetrically measured
Temperature, K	Pressure, kPa	Mole fraction of phenachlor	uncertainty
308	8800	.00802	.0002005
308	9800	.0112	.00028
308	10700	.0128	.00032
308	11700	.01444	.000361
308	12700	.01556	.000389
308	13700	.01618	.0004045
308	14700	.01688	.000422
308	15600	.0173	.0004325
313	8800	.00241	.00006025
313	9800	.00784	.000196
313	10700	.01026	.0002565
313	11700	.0138	.000345
313	12700	.01468	.000367
313	13700	.01689	.00042225
313	14700	.01746	.0004365
313	15600	.01884	.000471
318	8800	.00139	.00003475
318	9800	.00388	.000097
318	10700	.00646	.0001615
318	11700	.01206	.0003015
318	12700	.01428	.000357
318	13700	.01693	.00042325
318	14700	.01894	.0004735
318	15600	.02004	.000501

System: methanol + phenol, 4-chloro- + carbon dioxide; phases: Fluid (supercritical or subcritical phases), Crystal
Fixed: Temperature, K = 313
Fixed: Solvent: Mole fraction of methanol = .03
Property: Mole fraction of phenol, 4-chloro- (Fluid (supercritical or subcritical phases)); method: Gravimetrically measured
Pressure, kPa	Mole fraction of phenol, 4-chloro-	uncertainty
8800	.0171	.0004275
9800	.03464	.000866
10700	.04062	.0010155
11700	.04212	.001053
12700	.04624	.001156
13700	.04864	.001216
14700	.05034	.0012585
15600	.05216	.001304

System: methanol + phenol, 2,4-dichloro- + carbon dioxide; phases: Fluid (supercritical or subcritical phases), Crystal
Fixed: Temperature, K = 313
Fixed: Solvent: Mole fraction of methanol = .03
Property: Mole fraction of phenol, 2,4-dichloro- (Fluid (supercritical or subcritical phases)); method: Gravimetrically measured
Pressure, kPa	Mole fraction of phenol, 2,4-dichloro-	uncertainty
8800	.03574	.0008935
9800	.06914	.0017285
10700	.0814	.002035
11700	.0899	.0022475
12700	.09386	.0023465
13700	.09527	.00238175
14700	.09594	.0023985
15600	.09632	.002408

System: methanol + phenachlor + carbon dioxide; phases: Fluid (supercritical or subcritical phases), Crystal
Fixed: Temperature, K = 313
Fixed: Solvent: Mole fraction of methanol = .03
Property: Mole fraction of phenachlor (Fluid (supercritical or subcritical phases)); method: Gravimetrically measured
Pressure, kPa	Mole fraction of phenachlor	uncertainty
8800	.0082	.000205
9800	.01948	.000487
10700	.02264	.000566
11700	.0281	.0007025
12700	.02946	.0007365
13700	.0315	.0007875
14700	.03264	.000816
15600	.03364	.000841

System: propanone + phenol, 4-chloro- + carbon dioxide; phases: Fluid (supercritical or subcritical phases), Crystal
Fixed: Temperature, K = 313
Fixed: Solvent: Mole fraction of propanone = .03
Property: Mole fraction of phenol, 4-chloro- (Fluid (supercritical or subcritical phases)); method: Gravimetrically measured
Pressure, kPa	Mole fraction of phenol, 4-chloro-	uncertainty
8800	.01105	.00027625
9800	.02184	.000546
10700	.02464	.000616
11700	.02876	.000719
12700	.02956	.000739
13700	.03066	.0007665
14700	.03092	.000773
15600	.03114	.0007785

System: propanone + phenol, 2,4-dichloro- + carbon dioxide; phases: Fluid (supercritical or subcritical phases), Crystal
Fixed: Temperature, K = 313
Fixed: Solvent: Mole fraction of propanone = .03
Property: Mole fraction of phenol, 2,4-dichloro- (Fluid (supercritical or subcritical phases)); method: Gravimetrically measured
Pressure, kPa	Mole fraction of phenol, 2,4-dichloro-	uncertainty
8800	.03086	.0007715
9800	.06128	.001532
10700	.07264	.001816
11700	.08083	.00202075
12700	.08645	.00216125
13700	.08764	.002191
14700	.08888	.002222
15600	.0896	.00224

System: propanone + phenachlor + carbon dioxide; phases: Fluid (supercritical or subcritical phases), Crystal
Fixed: Temperature, K = 313
Fixed: Solvent: Mole fraction of propanone = .03
Property: Mole fraction of phenachlor (Fluid (supercritical or subcritical phases)); method: Gravimetrically measured
Pressure, kPa	Mole fraction of phenachlor	uncertainty
8800	.0065	.0001625
9800	.01187	.00029675
10700	.01864	.000466
11700	.02042	.0005105
12700	.02196	.000549
13700	.02436	.000609
14700	.02524	.000631
15600	.02668	.000667
