Measured thermophysical data. Miscibility of Trihexyl(tetradecyl)phosphonium Chloride with Alkanes
Source: J. Chem. Eng. Data, 2010, 10.1021/je9010079
Compound 1: trihexyltetradecylphosphonium chloride, C32H68ClP
Compound 2: n-hexane, C6H14
Compound 3: octane, C8H18
Compound 4: decane, C10H22
Compound 5: n-undecane, C11H24
Compound 6: dodecane, C12H26

System: n-hexane + trihexyltetradecylphosphonium chloride; phases: Liquid mixture 1, Liquid mixture 2
Fixed: Pressure, kPa = 101
Property: Liquid-liquid equilibrium temperature, K (Liquid mixture 1); method: laser detection
Mole fraction of trihexyltetradecylphosphonium chloride	Liquid-liquid equilibrium temperature, K	uncertainty
.004	291.66	.01
.005	293.29	.01
.008	295.71	.01
.01	296.64	.01
.014	297.13	.01
.02	297.08	.01
.026	296.21	.01
.029	295.94	.01
.033	294.99	.01
.038	293.85	.01
.046	291.26	.01
.053	289.11	.01

System: octane + trihexyltetradecylphosphonium chloride; phases: Liquid mixture 1, Liquid mixture 2
Fixed: Pressure, kPa = 101
Property: Liquid-liquid equilibrium temperature, K (Liquid mixture 1); method: laser detection
Mole fraction of trihexyltetradecylphosphonium chloride	Liquid-liquid equilibrium temperature, K	uncertainty
.007	300.76	.01
.008	303.4	.01
.009	306.8	.01
.012	309.17	.01
.016	310.72	.01
.018	311.22	.01
.023	311.69	.01
.029	311.6	.01
.034	311.2	.01
.038	310.81	.01
.045	309.69	.01
.052	308.22	.01
.069	304.08	.01
.085	300.01	.01
.12	290.02	.01

System: decane + trihexyltetradecylphosphonium chloride; phases: Liquid mixture 1, Liquid mixture 2
Fixed: Pressure, kPa = 101
Property: Liquid-liquid equilibrium temperature, K (Liquid mixture 1); method: laser detection
Mole fraction of trihexyltetradecylphosphonium chloride	Liquid-liquid equilibrium temperature, K	uncertainty
.007	309.19	.01
.009	312.49	.01
.01	314.96	.01
.011	317.84	.01
.013	319.87	.01
.015	321.66	.01
.017	322.85	.01
.021	323.5	.01
.024	323.8	.01
.029	323.82	.01
.034	323.6	.01
.039	322.9	.01
.046	321.85	.01
.051	321.17	.01
.056	319.96	.01
.062	319.05	.01
.07	317.63	.01
.083	314.79	.01
.099	310.39	.01
.126	303.14	.01
.15	295.08	.01

System: n-undecane + trihexyltetradecylphosphonium chloride; phases: Liquid mixture 1, Liquid mixture 2
Fixed: Pressure, kPa = 101
Property: Liquid-liquid equilibrium temperature, K (Liquid mixture 1); method: laser detection
Mole fraction of trihexyltetradecylphosphonium chloride	Liquid-liquid equilibrium temperature, K	uncertainty
.009	291.1	.01
.011	322.13	.01
.016	326.99	.01
.024	329.31	.01
.032	329.95	.01
.038	330.46	.01
.05	329.73	.01
.06	328.4	.01
.07	327.15	.01
.09	323.66	.01
.115	318.6	.01
.17	305.37	.01
.236	286.65	.01

System: dodecane + trihexyltetradecylphosphonium chloride; phases: Liquid mixture 1, Liquid mixture 2
Fixed: Pressure, kPa = 101
Property: Liquid-liquid equilibrium temperature, K (Liquid mixture 1); method: laser detection
Mole fraction of trihexyltetradecylphosphonium chloride	Liquid-liquid equilibrium temperature, K	uncertainty
.019	333.75	.01
.032	335.62	.01
.055	335.4	.01
.074	333.62	.01
.123	324.01	.01
.148	318.4	.01
.043	336.02	.01
.1	329.01	.01
.18	311.11	.01
.012	330.31	.01
.008	324.61	.01
.22	300	.01
