Measured thermophysical data. Electrical Conductances of Tetrabutylammonium Bromide, Sodium  Tetraphenylborate, and Sodium Bromide in Ethylene Glycol (1) + Water (2)  Mixtures at (298.15, 303.15, 308.15, and 318.15) K
Source: J. Chem. Eng. Data, 2009, 10.1021/je9000697
Compound 1: water, H2O
Compound 2: 1,2-ethanediol, C2H6O2, purity 99%
Compound 3: tetrabutylammonium bromide, C16H36BrN
Compound 4: sodium tetraphenylboron, C24H20BNa
Compound 5: sodium bromide, BrNa

System: 1,2-ethanediol + water; phases: Liquid
Fixed: Pressure, kPa = 101
Property: Mass density, kg/m3 (Liquid); method: Pycnometric method
Mass fraction of 1,2-ethanediol	Temperature, K	Mass density, kg/m3	uncertainty
.1	298.15	1009.49	.201898
.1	303.15	1007.62	.201524
.1	308.15	1005.57	.201114
.1	318.15	1002.73	.200546
.2	298.15	1022.45	.20449
.2	303.15	1020.98	.204196
.2	308.15	1018.5	.2037
.2	318.15	1014.28	.202856
.3	298.15	1035.7	.20714
.3	303.15	1034.05	.20681
.3	308.15	1031.66	.206332
.3	318.15	1026.73	.205346
1	298.15	1110.45	.22209
1	303.15	1104.47	.220894
1	308.15	1100.13	.220026
1	318.15	1092.15	.21843

System: 1,2-ethanediol + water; phases: Liquid
Fixed: Pressure, kPa = 101
Property: Viscosity, Pa*s (Liquid); method: Capillary tube (Ostwald; Ubbelohde) method
Mass fraction of 1,2-ethanediol	Temperature, K	Viscosity, Pa*s	uncertainty
.1	298.15	.00115197	.00000345591
.1	303.15	.00101695	.00000305085
.1	308.15	.00090783	.00000272349
.1	318.15	.00073813	.00000221439
.2	298.15	.00146935	.00000440805
.2	303.15	.00130578	.00000391734
.2	308.15	.00114938	.00000344814
.2	318.15	.00092431	.00000277293
.3	298.15	.00190253	.00000570759
.3	303.15	.00165678	.00000497034
.3	308.15	.00146223	.00000438669
.3	318.15	.00116376	.00000349128
1	298.15	.0186352	.0000559056
1	303.15	.0138621	.0000415863
1	308.15	.0116634	.0000349902
1	318.15	.0074532	.0000223596

System: 1,2-ethanediol + tetrabutylammonium bromide + water; phases: Liquid
Fixed: Pressure, kPa = 101
Property: Molar conductivity, S*m2/mol (Liquid); method: Dip-type
Solvent: Mass fraction of 1,2-ethanediol	Temperature, K	Amount concentration (molarity), mol/dm3 of tetrabutylammonium bromide	Molar conductivity, S*m2/mol	uncertainty
.1	298.15	.00849	.007089	.000021267
.1	298.15	.01273	.006894	.000020682
.1	298.15	.02122	.006596	.000019788
.1	298.15	.02971	.006353	.000019059
.1	298.15	.03395	.006246	.000018738
.1	298.15	.0382	.006139	.000018417
.1	298.15	.04244	.006049	.000018147
.1	298.15	.05518	.005777	.000017331
.1	303.15	.00847	.007884	.000023652
.1	303.15	.01271	.00769	.00002307
.1	303.15	.02118	.007381	.000022143
.1	303.15	.02965	.007131	.000021393
.1	303.15	.03389	.007015	.000021045
.1	303.15	.03812	.006912	.000020736
.1	303.15	.04236	.006803	.000020409
.1	303.15	.05506	.006535	.000019605
.1	308.15	.00845	.008662	.000025986
.1	308.15	.01268	.008446	.000025338
.1	308.15	.02113	.008125	.000024375
.1	308.15	.02959	.007859	.000023577
.1	308.15	.03381	.007739	.000023217
.1	308.15	.03804	.007616	.000022848
.1	308.15	.04227	.007503	.000022509
.1	308.15	.05494	.007224	.000021672
.1	318.15	.00843	.010285	.000030855
.1	318.15	.01264	.01004	.00003012
.1	318.15	.02107	.009636	.000028908
.1	318.15	.0295	.00931	.00002793
.1	318.15	.03371	.00917	.00002751
.1	318.15	.03792	.009028	.000027084
.1	318.15	.04214	.008911	.000026733
.1	318.15	.05477	.008542	.000025626
.2	298.15	.00807	.005699	.000017097
.2	298.15	.01211	.005558	.000016674
.2	298.15	.02019	.005335	.000016005
.2	298.15	.02827	.00516	.00001548
.2	298.15	.03231	.005081	.000015243
.2	298.15	.03635	.004999	.000014997
.2	298.15	.0403	.004935	.000014805
.2	298.15	.0525	.004746	.000014238
.2	303.15	.00806	.006427	.000019281
.2	303.15	.01209	.006246	.000018738
.2	303.15	.02016	.005976	.000017928
.2	303.15	.02822	.005761	.000017283
.2	303.15	.03225	.005656	.000016968
.2	303.15	.03628	.00556	.00001668
.2	303.15	.04031	.005476	.000016428
.2	303.15	.05239	.005242	.000015726
.2	308.15	.00804	.007125	.000021375
.2	308.15	.01206	.006927	.000020781
.2	308.15	.02011	.006618	.000019854
.2	308.15	.02815	.006376	.000019128
.2	308.15	.03217	.006268	.000018804
.2	308.15	.03619	.006152	.000018456
.2	308.15	.04022	.006059	.000018177
.2	308.15	.05228	.005789	.000017367
.2	318.15	.00801	.008971	.000026913
.2	318.15	.01201	.008704	.000026112
.2	318.15	.02002	.008269	.000024807
.2	318.15	.02803	.007918	.000023754
.2	318.15	.03204	.00776	.00002328
.2	318.15	.03604	.007619	.000022857
.2	318.15	.04004	.007469	.000022407
.2	318.15	.05205	.007109	.000021327
.3	298.15	.00837	.004489	.000013467
.3	298.15	.01256	.004376	.000013128
.3	298.15	.02093	.004194	.000012582
.3	298.15	.02931	.004052	.000012156
.3	298.15	.03349	.003993	.000011979
.3	298.15	.03768	.003921	.000011763
.3	298.15	.04187	.003863	.000011589
.3	298.15	.05443	.003706	.000011118
.3	303.15	.00836	.005025	.000015075
.3	303.15	.01254	.004902	.000014706
.3	303.15	.0209	.004719	.000014157
.3	303.15	.02925	.004561	.000013683
.3	303.15	.03343	.004498	.000013494
.3	303.15	.03761	.004433	.000013299
.3	303.15	.04179	.004379	.000013137
.3	303.15	.05432	.004212	.000012636
.3	308.15	.00834	.005562	.000016686
.3	308.15	.01251	.005444	.000016332
.3	308.15	.02085	.005253	.000015759
.3	308.15	.02918	.005091	.000015273
.3	308.15	.03335	.005021	.000015063
.3	308.15	.03752	.004952	.000014856
.3	308.15	.04169	.004889	.000014667
.3	308.15	.0534	.00473	.00001419
.3	318.15	.0083	.006855	.000020565
.3	318.15	.01245	.006691	.000020073
.3	318.15	.02075	.006419	.000019257
.3	318.15	.02905	.006217	.000018651
.3	318.15	.0332	.006112	.000018336
.3	318.15	.03735	.006023	.000018069
.3	318.15	.0415	.005946	.000017838
.3	318.15	.05396	.00571	.00001713

System: 1,2-ethanediol + sodium tetraphenylboron + water; phases: Liquid
Fixed: Pressure, kPa = 101
Property: Molar conductivity, S*m2/mol (Liquid); method: Dip-type
Solvent: Mass fraction of 1,2-ethanediol	Temperature, K	Amount concentration (molarity), mol/dm3 of sodium tetraphenylboron	Molar conductivity, S*m2/mol	uncertainty
.1	298.15	.0078	.005283	.000015849
.1	298.15	.0091	.005252	.000015756
.1	298.15	.0104	.005224	.000015672
.1	298.15	.0117	.005198	.000015594
.1	298.15	.013	.005173	.000015519
.1	298.15	.0143	.00515	.00001545
.1	298.15	.0156	.005127	.000015381
.1	298.15	.0169	.005106	.000015318
.1	303.15	.00778	.005913	.000017739
.1	303.15	.00908	.00588	.00001764
.1	303.15	.01038	.005852	.000017556
.1	303.15	.01168	.005823	.000017469
.1	303.15	.01298	.005798	.000017394
.1	303.15	.01427	.005772	.000017316
.1	303.15	.01557	.005747	.000017241
.1	303.15	.01687	.005724	.000017172
.1	308.15	.00777	.00654	.00001962
.1	308.15	.00906	.006508	.000019524
.1	308.15	.01036	.006478	.000019434
.1	308.15	.01165	.006449	.000019347
.1	308.15	.01295	.006424	.000019272
.1	308.15	.01425	.006399	.000019197
.1	308.15	.01554	.006374	.000019122
.1	308.15	.01684	.006352	.000019056
.1	318.15	.00774	.007991	.000023973
.1	318.15	.00904	.007948	.000023844
.1	318.15	.01033	.007906	.000023718
.1	318.15	.01162	.007866	.000023598
.1	318.15	.01291	.007829	.000023487
.1	318.15	.0142	.007792	.000023376
.1	318.15	.01549	.007758	.000023274
.1	318.15	.01678	.007725	.000023175
.2	298.15	.00842	.004311	.000012933
.2	298.15	.00982	.004285	.000012855
.2	298.15	.01123	.004259	.000012777
.2	298.15	.01263	.004237	.000012711
.2	298.15	.01404	.004212	.000012636
.2	298.15	.01544	.004192	.000012576
.2	298.15	.01684	.004171	.000012513
.2	298.15	.01825	.004152	.000012456
.2	303.15	.00841	.004879	.000014637
.2	303.15	.00981	.004849	.000014547
.2	303.15	.01121	.004823	.000014469
.2	303.15	.01261	.004799	.000014397
.2	303.15	.01401	.004774	.000014322
.2	303.15	.01541	.004753	.000014259
.2	303.15	.01681	.00473	.00001419
.2	303.15	.01821	.00471	.00001413
.2	308.15	.00839	.005448	.000016344
.2	308.15	.00978	.005414	.000016242
.2	308.15	.01118	.005382	.000016146
.2	308.15	.01258	.005351	.000016053
.2	308.15	.01398	.005323	.000015969
.2	308.15	.01537	.005296	.000015888
.2	308.15	.01677	.005269	.000015807
.2	308.15	.01817	.005245	.000015735
.2	318.15	.00835	.006736	.000020208
.2	318.15	.00974	.006684	.000020052
.2	318.15	.01114	.006639	.000019917
.2	318.15	.01253	.006591	.000019773
.2	318.15	.01392	.00655	.00001965
.2	318.15	.01531	.00651	.00001953
.2	318.15	.01671	.006474	.000019422
.2	318.15	.0181	.006437	.000019311
.3	298.15	.00753	.003507	.000010521
.3	298.15	.00875	.003486	.000010458
.3	298.15	.01005	.003468	.000010404
.3	298.15	.0113	.003448	.000010344
.3	298.15	.01256	.003431	.000010293
.3	298.15	.01382	.003416	.000010248
.3	298.15	.01507	.0034	.0000102
.3	298.15	.01633	.003385	.000010155
.3	303.15	.00752	.003987	.000011961
.3	303.15	.00879	.003961	.000011883
.3	303.15	.01003	.003935	.000011805
.3	303.15	.01128	.00391	.00001173
.3	303.15	.01253	.003888	.000011664
.3	303.15	.01379	.003865	.000011595
.3	303.15	.01504	.003845	.000011535
.3	303.15	.01629	.003823	.000011469
.3	308.15	.0075	.004451	.000013353
.3	308.15	.00875	.004422	.000013266
.3	308.15	.01	.004395	.000013185
.3	308.15	.01126	.004368	.000013104
.3	308.15	.01251	.004345	.000013035
.3	308.15	.01376	.00432	.00001296
.3	308.15	.01501	.004299	.000012897
.3	308.15	.01626	.004279	.000012837
.3	318.15	.00747	.005506	.000016518
.3	318.15	.00871	.005477	.000016431
.3	318.15	.00996	.005454	.000016362
.3	318.15	.01121	.005429	.000016287
.3	318.15	.01245	.005407	.000016221
.3	318.15	.0137	.005385	.000016155
.3	318.15	.01494	.005364	.000016092
.3	318.15	.01619	.005345	.000016035

System: 1,2-ethanediol + sodium bromide + water; phases: Liquid
Fixed: Pressure, kPa = 101
Property: Molar conductivity, S*m2/mol (Liquid); method: Dip-type
Solvent: Mass fraction of 1,2-ethanediol	Temperature, K	Amount concentration (molarity), mol/dm3 of sodium bromide	Molar conductivity, S*m2/mol	uncertainty
.1	298.15	.00847	.009936	.000029808
.1	298.15	.01271	.00982	.00002946
.1	298.15	.01695	.009689	.000029067
.1	298.15	.02119	.009604	.000028812
.1	298.15	.02543	.009515	.000028545
.1	298.15	.03391	.009341	.000028023
.1	298.15	.04239	.009201	.000027603
.1	298.15	.05087	.00908	.00002724
.1	303.15	.00846	.010957	.000032871
.1	303.15	.01269	.010813	.000032439
.1	303.15	.01692	.010671	.000032013
.1	303.15	.02115	.010556	.000031668
.1	303.15	.02538	.010448	.000031344
.1	303.15	.03383	.010261	.000030783
.1	303.15	.04231	.010085	.000030255
.1	303.15	.05077	.009949	.000029847
.1	308.15	.00844	.012019	.000036057
.1	308.15	.01266	.011858	.000035574
.1	308.15	.01689	.011707	.000035121
.1	308.15	.02111	.011591	.000034773
.1	308.15	.02533	.011474	.000034422
.1	308.15	.03376	.011267	.000033801
.1	308.15	.04222	.011083	.000033249
.1	308.15	.05067	.010937	.000032811
.1	318.15	.00842	.014369	.000043107
.1	318.15	.01263	.014202	.000042606
.1	318.15	.01684	.014033	.000042099
.1	318.15	.02105	.013899	.000041697
.1	318.15	.02526	.013769	.000041307
.1	318.15	.03366	.013557	.000040671
.1	318.15	.0421	.013356	.000040068
.1	318.15	.05051	.0132	.0000396
.2	298.15	.00789	.007966	.000023898
.2	298.15	.01184	.007872	.000023616
.2	298.15	.01579	.007799	.000023397
.2	298.15	.01973	.007738	.000023214
.2	298.15	.02368	.007673	.000023019
.2	298.15	.03158	.007559	.000022677
.2	298.15	.03947	.00747	.00002241
.2	298.15	.05132	.00732	.00002196
.2	303.15	.00788	.008891	.000026673
.2	303.15	.01182	.008792	.000026376
.2	303.15	.01576	.008712	.000026136
.2	303.15	.0197	.008643	.000025929
.2	303.15	.02365	.008581	.000025743
.2	303.15	.03153	.008471	.000025413
.2	303.15	.03941	.00837	.00002511
.2	303.15	.05123	.008244	.000024732
.2	308.15	.00786	.009811	.000029433
.2	308.15	.01179	.009707	.000029121
.2	308.15	.01572	.009607	.000028821
.2	308.15	.01966	.009536	.000028608
.2	308.15	.02359	.009471	.000028413
.2	308.15	.03145	.009336	.000028008
.2	308.15	.03932	.009228	.000027684
.2	308.15	.05111	.009079	.000027237
.2	318.15	.00783	.01216	.00003648
.2	318.15	.01174	.011983	.000035949
.2	318.15	.01566	.011817	.000035451
.2	318.15	.01958	.011694	.000035082
.2	318.15	.02349	.011566	.000034698
.2	318.15	.03132	.011373	.000034119
.2	318.15	.03915	.011174	.000033522
.2	318.15	.0509	.010932	.000032796
.3	298.15	.00732	.006527	.000019581
.3	298.15	.01464	.006385	.000019155
.3	298.15	.0183	.006329	.000018987
.3	298.15	.02196	.00628	.00001884
.3	298.15	.02928	.006192	.000018576
.3	298.15	.0366	.006112	.000018336
.3	298.15	.04393	.006047	.000018141
.3	298.15	.05125	.005981	.000017943
.3	303.15	.00731	.007182	.000021546
.3	303.15	.01461	.007081	.000021243
.3	303.15	.01827	.007038	.000021114
.3	303.15	.02192	.007	.000021
.3	303.15	.02923	.006929	.000020787
.3	303.15	.03654	.006871	.000020613
.3	303.15	.04384	.006815	.000020445
.3	303.15	.05115	.006766	.000020298
.3	308.15	.00729	.00805	.00002415
.3	308.15	.01458	.007906	.000023718
.3	308.15	.01823	.007849	.000023547
.3	308.15	.02187	.007794	.000023382
.3	308.15	.02916	.007704	.000023112
.3	308.15	.03645	.007619	.000022857
.3	308.15	.04374	.007543	.000022629
.3	308.15	.05103	.007479	.000022437
.3	318.15	.00725	.010045	.000030135
.3	318.15	.01451	.009798	.000029394
.3	318.15	.01814	.009701	.000029103
.3	318.15	.02177	.009617	.000028851
.3	318.15	.02902	.009457	.000028371
.3	318.15	.03628	.00932	.00002796
.3	318.15	.04354	.009202	.000027606
.3	318.15	.05079	.009088	.000027264
