Measured thermophysical data. Vapor-Liquid Equilibria for Binary and Ternary Mixtures of 1,3-Dioxolane, 2-Propanol, and 2,2,4-Trimethylpentane at 101.3 kPa
Source: J. Chem. Eng. Data, 2010, 10.1021/je900327x
Compound 1: 1,3-dioxolane, C3H6O2
Compound 2: 2-propanol, C3H8O
Compound 3: 2,2,4-trimethylpentane, C8H18

System: 1,3-dioxolane; phases: Liquid
Fixed: Pressure, kPa = 101.325
Property: Mass density, kg/m3 (Liquid); method: Vibrating tube method
Temperature, K	Mass density, kg/m3	uncertainty
298.15	1058.87	

System: 1,3-dioxolane; phases: Liquid
Fixed: Pressure, kPa = 101.325
Property: Refractive index (Na D-line) (Liquid); method: Standard Abbe refractometry
Temperature, K	Refractive index (Na D-line)	uncertainty
298.15	1.39779	.00002

System: 2-propanol; phases: Liquid
Fixed: Pressure, kPa = 101.325
Property: Mass density, kg/m3 (Liquid); method: Vibrating tube method
Temperature, K	Mass density, kg/m3	uncertainty
298.15	781.01	

System: 2-propanol; phases: Liquid
Fixed: Pressure, kPa = 101.325
Property: Refractive index (Na D-line) (Liquid); method: Standard Abbe refractometry
Temperature, K	Refractive index (Na D-line)	uncertainty
298.15	1.37509	.00002

System: 2,2,4-trimethylpentane; phases: Liquid
Fixed: Pressure, kPa = 101.325
Property: Mass density, kg/m3 (Liquid); method: Vibrating tube method
Temperature, K	Mass density, kg/m3	uncertainty
298.15	687.73	

System: 2,2,4-trimethylpentane; phases: Liquid
Fixed: Pressure, kPa = 101.325
Property: Refractive index (Na D-line) (Liquid); method: Standard Abbe refractometry
Temperature, K	Refractive index (Na D-line)	uncertainty
298.15	1.38887	.00002

System: 2-propanol + 1,3-dioxolane; phases: Liquid, Gas
Fixed: Pressure, kPa = 101.3
Property: Boiling temperature at pressure P, K (Liquid); method: Ebulliometric method (Recirculating still)
Mole fraction of 1,3-dioxolane	Boiling temperature at pressure P, K	uncertainty
0	355.39	.05
.074	352.83	.05
.127	351.25	.05
.182	349.98	.05
.213	349.39	.05
.279	348.32	.05
.332	347.72	.05
.384	347.23	.05
.423	346.92	.05
.48	346.56	.05
.521	346.34	.05
.558	346.19	.05
.606	346.05	.05
.655	345.97	.05
.694	345.96	.05
.739	346	.05
.782	346.12	.05
.828	346.36	.05
.879	346.75	.05
.932	347.5	.05
1	348.59	.05

System: 2-propanol + 1,3-dioxolane; phases: Gas, Liquid
Fixed: Pressure, kPa = 101.3
Property: Mole fraction of 1,3-dioxolane (Gas); method: Chromatography
Mole fraction of 1,3-dioxolane	Mole fraction of 1,3-dioxolane	uncertainty
0	0	.003
.074	.173	.003
.127	.26	.003
.182	.332	.003
.213	.366	.003
.279	.428	.003
.332	.47	.003
.384	.505	.003
.423	.53	.003
.48	.565	.003
.521	.596	.003
.558	.606	.003
.606	.63	.003
.655	.66	.003
.694	.692	.003
.739	.71	.003
.782	.755	.003
.828	.794	.003
.879	.832	.003
.932	.893	.003
1	1	.003

System: 2-propanol + 1,3-dioxolane; phases: Liquid, Gas
Property: Azeotropic composition: mole fraction of 2-propanol (Liquid); method: By T or P extreme
Pressure, kPa	Azeotropic composition: mole fraction of 2-propanol	uncertainty
101.3	.668	

System: 2-propanol + 1,3-dioxolane; phases: Liquid, Gas
Property: Azeotropic temperature, K (Liquid); method: By T(X) extreme
Pressure, kPa	Azeotropic temperature, K	uncertainty
101300	345.95	

System: 2,2,4-trimethylpentane + 1,3-dioxolane; phases: Liquid, Gas
Fixed: Pressure, kPa = 101.3
Property: Boiling temperature at pressure P, K (Liquid); method: Ebulliometric method (Recirculating still)
Mole fraction of 1,3-dioxolane	Boiling temperature at pressure P, K	uncertainty
0	372.37	.05
.03	366.59	.05
.064	361.81	.05
.094	358.6	.05
.137	355.13	.05
.194	352.04	.05
.256	349.71	.05
.299	348.61	.05
.326	348.02	.05
.405	346.83	.05
.445	346.35	.05
.498	345.89	.05
.599	345.32	.05
.645	345.17	.05
.671	345.08	.05
.708	345.02	.05
.786	344.99	.05
.828	345.1	.05
.877	345.4	.05
.926	346.07	.05
1	348.59	.05

System: 2,2,4-trimethylpentane + 1,3-dioxolane; phases: Gas, Liquid
Fixed: Pressure, kPa = 101.3
Property: Mole fraction of 1,3-dioxolane (Gas); method: Chromatography
Mole fraction of 1,3-dioxolane	Mole fraction of 1,3-dioxolane	uncertainty
0	0	.003
.03	.171	.003
.064	.3	.003
.094	.38	.003
.137	.462	.003
.194	.536	.003
.256	.588	.003
.299	.614	.003
.326	.628	.003
.405	.659	.003
.445	.675	.003
.498	.69	.003
.599	.706	.003
.645	.717	.003
.671	.724	.003
.708	.736	.003
.786	.771	.003
.828	.794	.003
.877	.824	.003
.926	.864	.003
1	1	.003

System: 2,2,4-trimethylpentane + 1,3-dioxolane; phases: Liquid, Gas
Property: Azeotropic composition: mole fraction of 1,3-dioxolane (Liquid); method: By T or P extreme
Pressure, kPa	Azeotropic composition: mole fraction of 1,3-dioxolane	uncertainty
101.3	.757	

System: 2,2,4-trimethylpentane + 1,3-dioxolane; phases: Liquid, Gas
Property: Azeotropic temperature, K (Liquid); method: By T(X) extreme
Pressure, kPa	Azeotropic temperature, K	uncertainty
101.3	344.94	

System: 2-propanol + 2,2,4-trimethylpentane; phases: Liquid, Gas
Fixed: Pressure, kPa = 101.3
Property: Boiling temperature at pressure P, K (Liquid); method: Ebulliometric method (Recirculating still)
Mole fraction of 2-propanol	Boiling temperature at pressure P, K	uncertainty
0	372.37	.05
.058	360.65	.05
.081	358.3	.05
.105	356.27	.05
.132	354.65	.05
.167	353.44	.05
.232	352.14	.05
.353	350.8	.05
.412	350.27	.05
.514	350.06	.05
.523	349.99	.05
.545	349.94	.05
.613	349.47	.05
.637	349.67	.05
.684	349.73	.05
.728	349.82	.05
.78	350	.05
.816	350.31	.05
.894	351.36	.05
.946	352.94	.05
1	355.39	.05

System: 2-propanol + 2,2,4-trimethylpentane; phases: Gas, Liquid
Fixed: Pressure, kPa = 101.3
Property: Mole fraction of 2-propanol (Gas); method: Chromatography
Mole fraction of 2-propanol	Mole fraction of 2-propanol	uncertainty
0	0	.003
.058	.319	.003
.081	.382	.003
.105	.423	.003
.132	.457	.003
.167	.485	.003
.232	.527	.003
.353	.565	.003
.412	.58	.003
.514	.606	.003
.523	.612	.003
.545	.614	.003
.613	.628	.003
.637	.639	.003
.684	.653	.003
.728	.66	.003
.78	.682	.003
.816	.702	.003
.894	.794	.003
.946	.878	.003
1	1	.003

System: 2-propanol + 2,2,4-trimethylpentane; phases: Liquid, Gas
Property: Azeotropic composition: mole fraction of 2-propanol (Liquid); method: By T or P extreme
Pressure, kPa	Azeotropic composition: mole fraction of 2-propanol	uncertainty
101.3	.642	

System: 2-propanol + 2,2,4-trimethylpentane; phases: Liquid, Gas
Property: Azeotropic temperature, K (Liquid); method: By T(X) extreme
Pressure, kPa	Azeotropic temperature, K	uncertainty
101.3	349.66	

System: 2-propanol + 2,2,4-trimethylpentane + 1,3-dioxolane; phases: Liquid, Gas
Fixed: Pressure, kPa = 101.3
Property: Mole fraction of 2-propanol (Liquid); method: Chromatography
Property: Mole fraction of 1,3-dioxolane (Gas); method: Chromatography
Property: Mole fraction of 2-propanol (Gas); method: Chromatography
Temperature, K	Mole fraction of 1,3-dioxolane	Mole fraction of 2-propanol	uncertainty	Mole fraction of 1,3-dioxolane	uncertainty	Mole fraction of 2-propanol	uncertainty
343	.601	.157	.003	.611	.003	.177	.003
343.02	.595	.258	.003	.581	.003	.253	.003
343.23	.506	.153	.003	.56	.003	.185	.003
343.38	.704	.154	.003	.655	.003	.171	.003
343.5	.537	.259	.003	.54	.003	.256	.003
343.55	.434	.161	.003	.517	.003	.216	.003
343.78	.498	.354	.003	.534	.003	.305	.003
343.83	.399	.26	.003	.462	.003	.281	.003
343.9	.4	.374	.003	.464	.003	.335	.003
344.1	.348	.27	.003	.431	.003	.294	.003
344.37	.299	.439	.003	.375	.003	.388	.003
344.37	.378	.463	.003	.461	.003	.361	.003
344.5	.332	.206	.003	.448	.003	.238	.003
344.71	.608	.049	.003	.677	.003	.062	.003
344.89	.704	.047	.003	.704	.003	.063	.003
345.04	.299	.549	.003	.382	.003	.43	.003
345.09	.8	.047	.003	.759	.003	.064	.003
345.42	.698	.255	.003	.666	.003	.257	.003
345.45	.598	.354	.003	.598	.003	.326	.003
345.57	.388	.043	.003	.568	.003	.09	.003
345.59	.18	.435	.003	.276	.003	.428	.003
345.61	.195	.546	.003	.276	.003	.456	.003
345.69	.807	.146	.003	.749	.003	.169	.003
345.81	.176	.323	.003	.286	.003	.389	.003
346.09	.927	.037	.003	.882	.003	.047	.003
346.14	.195	.648	.003	.286	.003	.505	.003
346.43	.171	.217	.003	.304	.003	.345	.003
346.64	.092	.545	.003	.162	.003	.519	.003
346.65	.383	.587	.003	.472	.003	.44	.003
346.73	.095	.451	.003	.156	.003	.479	.003
347.06	.091	.361	.003	.173	.003	.448	.003
347.27	.179	.123	.003	.355	.003	.261	.003
347.5	.312	.043	.003	.528	.003	.108	.003
347.87	.101	.755	.003	.176	.003	.613	.003
348.23	.072	.658	.003	.132	.003	.56	.003
348.39	.087	.221	.003	.189	.003	.396	.003
348.6	.046	.395	.003	.094	.003	.517	.003
348.67	.043	.64	.003	.085	.003	.585	.003
348.69	.193	.761	.003	.307	.003	.619	.003
348.85	.056	.284	.003	.124	.003	.47	.003
348.95	.043	.421	.003	.09	.003	.528	.003
351.15	.085	.876	.003	.165	.003	.736	.003
351.3	.176	.037	.003	.435	.003	.113	.003
351.4	.037	.863	.003	.072	.003	.754	.003
351.78	.079	.113	.003	.214	.003	.305	.003
352.26	.039	.148	.003	.121	.003	.385	.003
354.48	.059	.073	.003	.187	.003	.248	.003
355.91	.078	.039	.003	.263	.003	.156	.003
