Measured thermophysical data. Excess Molar Enthalpies and Vapor-Liquid Equilibrium for N-Methyl-2-pyrrolidone with Ketones
Source: J. Chem. Eng. Data, 2010, 10.1021/je900262t
Compound 1: N-methyl-2-pyrrolidone, C5H9NO
Compound 2: butanone, C4H8O
Compound 3: 4-methyl-2-pentanone, C6H12O
Compound 4: cyclohexanone, C6H10O

System: N-methyl-2-pyrrolidone; phases: Liquid
Fixed: Pressure, kPa = 101.325
Property: Mass density, kg/m3 (Liquid); method: Pycnometric method
Temperature, K	Mass density, kg/m3	uncertainty
303.15	1023.4	.02

System: N-methyl-2-pyrrolidone; phases: Liquid, Gas
Property: Vapor or sublimation pressure, kPa (Liquid); method: Ebulliometric method (Recirculating still)
Temperature, K	Vapor or sublimation pressure, kPa	uncertainty
473.25	95.3	.13

System: butanone; phases: Liquid
Fixed: Pressure, kPa = 101.325
Property: Mass density, kg/m3 (Liquid); method: Pycnometric method
Temperature, K	Mass density, kg/m3	uncertainty
303.15	799.71	.02

System: butanone; phases: Liquid, Gas
Property: Vapor or sublimation pressure, kPa (Liquid); method: Ebulliometric method (Recirculating still)
Temperature, K	Vapor or sublimation pressure, kPa	uncertainty
350.85	95.3	.13

System: 4-methyl-2-pentanone; phases: Liquid
Fixed: Pressure, kPa = 101.325
Property: Mass density, kg/m3 (Liquid); method: Pycnometric method
Temperature, K	Mass density, kg/m3	uncertainty
303.15	796.33	.02

System: 4-methyl-2-pentanone; phases: Liquid, Gas
Property: Vapor or sublimation pressure, kPa (Liquid); method: Ebulliometric method (Recirculating still)
Temperature, K	Vapor or sublimation pressure, kPa	uncertainty
386.65	95.3	.13

System: cyclohexanone; phases: Liquid, Gas
Property: Vapor or sublimation pressure, kPa (Liquid); method: Ebulliometric method (Recirculating still)
Temperature, K	Vapor or sublimation pressure, kPa	uncertainty
426.25	95.3	.13

System: butanone + N-methyl-2-pyrrolidone; phases: Liquid
Fixed: Temperature, K = 298.15
Fixed: Pressure, kPa = 101
Property: Excess molar enthalpy (molar enthalpy of mixing), kJ/mol (Liquid); method: Calvet calorimetry
Mole fraction of butanone	Excess molar enthalpy (molar enthalpy of mixing), kJ/mol	uncertainty
.0565	-.0262	-.000262
.1162	-.0456	-.000456
.1812	-.0673	-.000673
.2461	-.0999	-.000999
.3104	-.128	-.00128
.369	-.1486	-.001486
.4334	-.1597	-.001597
.4841	-.1675	-.001675
.5458	-.1576	-.001576
.6781	-.1157	-.001157
.7324	-.0861	-.000861
.7935	-.062	-.00062
.8525	-.0489	-.000489
.9112	-.0248	-.000248
.9609	-.0201	-.000201

System: butanone + N-methyl-2-pyrrolidone; phases: Liquid, Gas
Fixed: Pressure, kPa = 95.3
Property: Boiling temperature at pressure P, K (Liquid); method: Ebulliometric method (Recirculating still)
Mole fraction of butanone	Boiling temperature at pressure P, K	uncertainty
0	473.25	.2
.0725	455.35	.2
.1524	436.35	.2
.3085	404.85	.2
.4454	385.85	.2
.5624	374.15	.2
.7199	362.95	.2
.8653	355.65	.2
.9315	353.15	.2
1	350.85	.2

System: 4-methyl-2-pentanone + N-methyl-2-pyrrolidone; phases: Liquid
Fixed: Temperature, K = 298.15
Fixed: Pressure, kPa = 101
Property: Excess molar enthalpy (molar enthalpy of mixing), kJ/mol (Liquid); method: Calvet calorimetry
Mole fraction of 4-methyl-2-pentanone	Excess molar enthalpy (molar enthalpy of mixing), kJ/mol	uncertainty
.0508	.0228	.000228
.1052	.0497	.000497
.1632	.0764	.000764
.2234	.1012	.001012
.2858	.1274	.001274
.3815	.1672	.001672
.4258	.1794	.001794
.4787	.1809	.001809
.5346	.1737	.001737
.599	.1679	.001679
.6712	.1513	.001513
.7536	.1057	.001057
.8369	.0651	.000651
.9192	.0243	.000243

System: 4-methyl-2-pentanone + N-methyl-2-pyrrolidone; phases: Liquid, Gas
Fixed: Pressure, kPa = 95.3
Property: Boiling temperature at pressure P, K (Liquid); method: Ebulliometric method (Recirculating still)
Mole fraction of 4-methyl-2-pentanone	Boiling temperature at pressure P, K	uncertainty
0	473.25	.2
.1411	459.25	.2
.3069	437.65	.2
.6055	406.95	.2
.7287	398.75	.2
.843	392.85	.2
.9233	389.45	.2
1	386.65	.2

System: cyclohexanone + N-methyl-2-pyrrolidone; phases: Liquid
Fixed: Temperature, K = 298.15
Fixed: Pressure, kPa = 101
Property: Excess molar enthalpy (molar enthalpy of mixing), kJ/mol (Liquid); method: Calvet calorimetry
Mole fraction of cyclohexanone	Excess molar enthalpy (molar enthalpy of mixing), kJ/mol	uncertainty
.0609	.018	.00018
.1242	.0542	.000542
.1855	.0843	.000843
.2495	.109	.00109
.3151	.1385	.001385
.3761	.1635	.001635
.4301	.1779	.001779
.4527	.193	.00193
.5028	.2027	.002027
.5608	.2012	.002012
.6249	.1996	.001996
.6866	.1673	.001673
.7491	.1325	.001325
.8134	.0992	.000992
.8794	.066	.00066
.9445	.0334	.000334

System: cyclohexanone + N-methyl-2-pyrrolidone; phases: Liquid, Gas
Fixed: Pressure, kPa = 95.3
Property: Boiling temperature at pressure P, K (Liquid); method: Ebulliometric method (Recirculating still)
Mole fraction of cyclohexanone	Boiling temperature at pressure P, K	uncertainty
0	473.25	.2
.0729	466.45	.2
.1653	458.85	.2
.2838	450.65	.2
.4421	441.45	.2
.6727	431.45	.2
.7872	427.95	.2
.9024	425.85	.2
.9505	425.45	.2
1	426.25	.2
