Measured thermophysical data. Isobaric Vapor-Liquid Equilibria for 2-Methyl-butan-1-ol + 3-Methyl-butan-1-ol + CuCl2, ZnCl2, and FeCl3 Systems at 101.3 kPa
Source: J. Chem. Eng. Data, 2010, 10.1021/je9008365
Compound 1: 2-methyl-1-butanol, C5H12O
Compound 2: 1-butanol, 3-methyl-, C5H12O
Compound 3: zinc chloride, Cl2Zn, purity 99%
Compound 4: iron chloride (FeCl3), Cl3Fe, purity 99%
Compound 5: copper chloride, Cl2Cu, purity 99%

System: 1-butanol, 3-methyl- + 2-methyl-1-butanol + zinc chloride; phases: Liquid, Gas
Fixed: Pressure, kPa = 101.32
Property: Boiling temperature at pressure P, K (Liquid); method: Ebulliometric method (Recirculating still)
Mass fraction of zinc chloride	Mole fraction of 2-methyl-1-butanol	Boiling temperature at pressure P, K	uncertainty
.03	.8234	401.95	.01
.03	.7722	402.25	.01
.03	.6371	402.75	.01
.03	.5569	403.35	.01
.03	.4974	403.95	.01
.03	.4402	404.55	.01
.03	.3485	405.25	.01
.03	.234	406.35	.01
.12	.9629	403.25	.01
.12	.8359	403.95	.01
.12	.7505	404.45	.01
.12	.6109	405.25	.01
.12	.5123	405.85	.01
.12	.4172	406.65	.01
.12	.3201	407.35	.01
.12	.1989	408.55	.01

System: 1-butanol, 3-methyl- + 2-methyl-1-butanol + zinc chloride; phases: Gas, Liquid
Fixed: Pressure, kPa = 101.32
Property: Mole fraction of 2-methyl-1-butanol (Gas); method: Chromatography
Mole fraction of 2-methyl-1-butanol	Mass fraction of zinc chloride	Mole fraction of 2-methyl-1-butanol	uncertainty
.8234	.03	.8445	.0005
.7722	.03	.7976	.0005
.6371	.03	.6765	.0005
.5569	.03	.5995	.0005
.4974	.03	.5425	.0005
.5402	.03	.5838	.0005
.3485	.03	.3897	.0005
.234	.03	.2737	.0005
.9629	.12	.9694	.0005
.8359	.12	.8628	.0005
.7505	.12	.7881	.0005
.6109	.12	.6598	.0005
.5123	.12	.5653	.0005
.4172	.12	.4775	.0005
.3201	.12	.3772	.0005
.1989	.12	.2457	.0005

System: 1-butanol, 3-methyl- + 2-methyl-1-butanol + iron chloride (FeCl3); phases: Liquid, Gas
Fixed: Pressure, kPa = 101.32
Property: Boiling temperature at pressure P, K (Liquid); method: Ebulliometric method (Recirculating still)
Mass fraction of iron chloride (FeCl3)	Mole fraction of 2-methyl-1-butanol	Boiling temperature at pressure P, K	uncertainty
.03	.9356	402.05	
.03	.8296	402.45	
.03	.6975	402.95	
.03	.5976	403.35	
.03	.4534	403.85	
.03	.3125	404.45	
.03	.2386	405.05	
.03	.1219	405.45	
.12	.8846	403.35	
.12	.7555	404.15	
.12	.6892	404.55	
.12	.5877	405.05	
.12	.5117	405.55	
.12	.4217	406.05	
.12	.3088	406.75	
.12	.193	407.45	

System: 1-butanol, 3-methyl- + 2-methyl-1-butanol + iron chloride (FeCl3); phases: Gas, Liquid
Fixed: Pressure, kPa = 101.32
Property: Mole fraction of 2-methyl-1-butanol (Gas); method: Chromatography
Mole fraction of 2-methyl-1-butanol	Mass fraction of iron chloride (FeCl3)	Mole fraction of 2-methyl-1-butanol	uncertainty
.9356	.03	.9446	.0005
.8296	.03	.8516	.0005
.6975	.03	.73031	.0005
.5976	.03	.6359	.0005
.4534	.03	.4938	.0005
.3125	.03	.3486	.0005
.2386	.03	.2685	.0005
.1219	.03	.1405	.0005
.8846	.12	.9038	.0005
.7555	.12	.7912	.0005
.6892	.12	.7346	.0005
.5877	.12	.6348	.0005
.5117	.12	.5618	.0005
.4217	.12	.4699	.0005
.3088	.12	.3533	.0005
.193	.12	.2272	.0005

System: 1-butanol, 3-methyl- + 2-methyl-1-butanol + copper chloride; phases: Liquid, Gas
Fixed: Pressure, kPa = 101.32
Property: Boiling temperature at pressure P, K (Liquid); method: Ebulliometric method (Recirculating still)
Mass fraction of copper chloride	Mole fraction of 2-methyl-1-butanol	Boiling temperature at pressure P, K	uncertainty
.12	.9474	402.55	.01
.12	.8796	402.85	.01
.12	.8103	403.15	.01
.12	.7509	403.35	.01
.12	.6984	403.55	.01
.12	.6157	403.95	.01
.12	.5464	404.15	.01
.12	.4235	404.65	.01
.12	.3123	405.15	.01
.12	.2184	405.45	.01
.12	.1161	405.85	.01
.12	.0561	406.15	.01

System: 1-butanol, 3-methyl- + 2-methyl-1-butanol + copper chloride; phases: Gas, Liquid
Fixed: Pressure, kPa = 101.32
Property: Mole fraction of 2-methyl-1-butanol (Gas); method: Chromatography
Mole fraction of 2-methyl-1-butanol	Mass fraction of copper chloride	Mole fraction of 2-methyl-1-butanol	uncertainty
.9474	.12	.9563	.0005
.8796	.12	.8978	.0005
.8103	.12	.8373	.0005
.7509	.12	.7845	.0005
.6984	.12	.7359	.0005
.6157	.12	.6596	.0005
.5464	.12	.5931	.0005
.4235	.12	.4695	.0005
.3123	.12	.3525	.0005
.2184	.12	.2489	.0005
.1161	.12	.1332	.0005
.0561	.12	.0649	.0005
