Measured thermophysical data. Measurements of the Isobaric Specific Heat Capacity for 1,1,1-Trifluoroethane (R143a), Pentafluoroethane (R125), and Difluoromethane (R32) in the Liquid Phase
Source: J. Chem. Eng. Data, 2010, 10.1021/je900661c
Compound 1: 1,1,1-trifluoroethane, C2H3F3, purity 99.99%
Compound 2: ethane, pentafluoro-, C2HF5, purity 99.99%
Compound 3: difluoromethane, CH2F2, purity 99.9999%

System: 1,1,1-trifluoroethane; phases: Liquid
Property: Molar heat capacity at constant pressure, J/K/mol (Liquid); method: thermal relaxation
Pressure, kPa	Temperature, K	Molar heat capacity at constant pressure, J/K/mol	uncertainty
5000	310	136.145495952	7.079565789504
5000	315	140.347517432	7.298070906464
5000	320	145.389943208	7.560277046816
5000	325	150.432368984	7.822483187168
5000	330	155.47479476	8.08468932752
5000	335	162.198029128	8.434297514656
5000	340	173.963689272	9.046111842144
5000	345	189.931370896	9.876431286592
5000	345	192.452583784	10.007534356768
5000	350	224.387947032	11.668173245664

System: ethane, pentafluoro-; phases: Liquid
Property: Molar heat capacity at constant pressure, J/K/mol (Liquid); method: thermal relaxation
Pressure, kPa	Temperature, K	Molar heat capacity at constant pressure, J/K/mol	uncertainty
5000	310	154.82754924	8.05103256048
5000	315	159.62840348	8.30067698096
5000	320	163.22904416	8.48791029632
5000	325	171.63053908	8.92478803216
5000	330	182.43246112	9.48648797824
5000	330	183.63267468	9.54889908336
5000	335	193.23438316	10.04818792432
5000	340	212.43780012	11.04676560624
5000	340	217.23865436	11.29641002672
5000	345	242.44313912	12.60704323424
5000	350	282.0501866	14.6666097032

System: difluoromethane; phases: Liquid
Property: Molar heat capacity at constant pressure, J/K/mol (Liquid); method: thermal relaxation
Pressure, kPa	Temperature, K	Molar heat capacity at constant pressure, J/K/mol	uncertainty
5000	310	106.64794212	5.54569299024
5000	315	109.769345304	5.708005955808
5000	320	113.410982352	5.897371082304
5000	325	119.65378872	6.22199701344
5000	330	125.896595088	6.546622944576
5000	335	138.902441688	7.222926967776
5000	340	164.393901024	8.548482853248
