Measured thermophysical data. The Conductivity of Imidazolium-Based Ionic Liquids from (-35 to 195) deg C. A. Variation of Cation s Alkyl Chain
Source: J. Chem. Eng. Data, 2010, 10.1021/je900789j
Compound 1: 1-ethyl-3-methylimidazolium tetrafluoroborate, C6H11BF4N2
Compound 2: 1-butyl-3-methylimidazolium tetrafluoroborate, C8H15BF4N2
Compound 3: 1-hexyl-3-methylimidazolium tetrafluoroborate, C10H19BF4N2
Compound 4: 1-octyl-3-methylimidazolium tetrafluoroborate, C12H23BF4N2

System: 1-ethyl-3-methylimidazolium tetrafluoroborate; phases: Liquid
Fixed: Pressure, kPa = 101.325
Property: Electrical conductivity, S/m (Liquid); method: Alternating current cell with electrodes
Temperature, K	Electrical conductivity, S/m	uncertainty
248.15	.1059	.0005295
258.15	.228	.00114
268.15	.423	.002115
278.15	.703	.003515
288.15	1.076	.00538
298.15	1.546	.00773
308.15	2.11	.01055
318.15	2.77	.01385
328.15	3.51	.01755
338.15	4.34	.0217
348.15	5.23	.02615
358.15	6.2	.031
368.15	7.22	.0361
378.15	8.29	.04145
388.15	9.41	.04705
398.15	10.56	.0528
408.15	11.75	.05875
418.15	12.97	.06485
428.15	14.22	.0711
438.15	15.48	.0774
448.15	16.75	.08375
458.15	18.03	.09015
468.15	19.3	.0965

System: 1-ethyl-3-methylimidazolium tetrafluoroborate; phases: Liquid
Fixed: Pressure, kPa = 101.325
Property: Mass density, kg/m3 (Liquid); method: Vibrating tube method
Temperature, K	Mass density, kg/m3	uncertainty
278.15	1293.75	.05
288.15	1288.03	.05
298.15	1280.07	.05
308.15	1272.48	.05
318.15	1265.12	.05
328.15	1256.89	.05
338.15	1250.24	.05

System: 1-butyl-3-methylimidazolium tetrafluoroborate; phases: Liquid
Fixed: Pressure, kPa = 101.325
Property: Electrical conductivity, S/m (Liquid); method: Alternating current cell with electrodes
Temperature, K	Electrical conductivity, S/m	uncertainty
238.15	.00212	.0000106
248.15	.00778	.0000389
258.15	.0225	.0001125
268.15	.0542	.000271
278.15	.1132	.000566
288.15	.211	.001055
298.15	.352	.00176
308.15	.556	.00278
318.15	.821	.004105
328.15	1.15	.00575
338.15	1.545	.007725
348.15	2	.01
358.15	2.52	.0126
368.15	3.1	.0155
378.15	3.73	.01865
388.15	4.41	.02205
398.15	5.13	.02565
408.15	5.88	.0294
418.15	6.64	.0332
428.15	7.45	.03725
438.15	8.29	.04145
448.15	9.15	.04575
458.15	10.04	.0502
468.15	10.94	.0547

System: 1-butyl-3-methylimidazolium tetrafluoroborate; phases: Liquid
Fixed: Pressure, kPa = 101.325
Property: Mass density, kg/m3 (Liquid); method: Vibrating tube method
Temperature, K	Mass density, kg/m3	uncertainty
278.15	1215.43	.05
288.15	1209.33	.05
298.15	1202.08	.05
308.15	1194.78	.05
318.15	1187.79	.05
328.15	1180.62	.05
338.15	1173.51	.05

System: 1-hexyl-3-methylimidazolium tetrafluoroborate; phases: Liquid
Fixed: Pressure, kPa = 101.325
Property: Electrical conductivity, S/m (Liquid); method: Alternating current cell with electrodes
Temperature, K	Electrical conductivity, S/m	uncertainty
238.15	.000405	.000002025
248.15	.001685	.000008425
258.15	.00544	.0000272
268.15	.01451	.00007255
278.15	.0332	.000166
288.15	.0672	.000336
298.15	.1229	.0006145
308.15	.207	.001035
318.15	.326	.00163
328.15	.483	.002415
338.15	.683	.003415
348.15	.926	.00463
358.15	1.214	.00607
368.15	1.545	.007725
378.15	1.92	.0096
388.15	2.33	.01165
398.15	2.78	.0139
408.15	3.26	.0163
418.15	3.77	.01885
428.15	4.31	.02155
438.15	4.88	.0244
448.15	5.46	.0273
458.15	6.07	.03035
468.15	6.69	.03345

System: 1-hexyl-3-methylimidazolium tetrafluoroborate; phases: Liquid
Fixed: Pressure, kPa = 101.325
Property: Mass density, kg/m3 (Liquid); method: Vibrating tube method
Temperature, K	Mass density, kg/m3	uncertainty
278.15	1159.81	.05
288.15	1153.14	.05
298.15	1146.18	.05
308.15	1139.15	.05
318.15	1132.31	.05
328.15	1125.18	.05
338.15	1118.54	.05

System: 1-octyl-3-methylimidazolium tetrafluoroborate; phases: Liquid
Fixed: Pressure, kPa = 101.325
Property: Electrical conductivity, S/m (Liquid); method: Alternating current cell with electrodes
Temperature, K	Electrical conductivity, S/m	uncertainty
238.15	.0001524	.000000762
248.15	.00065	.00000325
258.15	.00218	.0000109
268.15	.00605	.00003025
278.15	.01441	.00007205
288.15	.0304	.000152
298.15	.0579	.0002895
308.15	.1012	.000506
318.15	.1647	.0008235
328.15	.252	.00126
338.15	.368	.00184
348.15	.512	.00256
358.15	.688	.00344
368.15	.895	.004475
378.15	1.134	.00567
388.15	1.403	.007015
398.15	1.701	.008505
408.15	2.03	.01015
418.15	2.38	.0119
428.15	2.75	.01375
438.15	3.15	.01575
448.15	3.56	.0178
458.15	3.99	.01995
468.15	4.44	.0222

System: 1-octyl-3-methylimidazolium tetrafluoroborate; phases: Liquid
Fixed: Pressure, kPa = 101.325
Property: Mass density, kg/m3 (Liquid); method: Vibrating tube method
Temperature, K	Mass density, kg/m3	uncertainty
278.15	1116.79	.05
288.15	1110.36	.05
298.15	1103.6	.05
308.15	1096.82	.05
318.15	1090.04	.05
328.15	1083.22	.05
338.15	1076.46	.05
