Measured thermophysical data. Solubility of 7-Chloro-2-methylamino-5-phenyl-3H-1,4-benzodiazepine-4-oxide, 7-Chloro-1,3-dihydro-1-methyl-5-phenyl-2H-1,4-benzodiazepin-2-one, and 7-Chloro-5-(2-chlorophenyl)-3-hydroxy-1,3-dihydro-1,4-benzodiazepin-2-one in (Propane-1,2-diol + Water) at a Temperature of 303.2 K
Source: J. Chem. Eng. Data, 2010, 10.1021/je900451d
Compound 1: chlordiazepoxide, C16H14ClN3O
Compound 2: diazepan, C16H13ClN2O
Compound 3: lorazepam, C15H10Cl2N2O2
Compound 4: 1,2-propanediol, C3H8O2
Compound 5: water, H2O

System: 1,2-propanediol + chlordiazepoxide + water; phases: Liquid, Crystal
Fixed: Pressure, kPa = 101
Fixed: Temperature, K = 303.2
Property: Mass density, kg/m3 (Liquid); method: Pycnometric method
Solvent: Volume fraction of 1,2-propanediol	Mass density, kg/m3	uncertainty
0	1000	5
.1	1004	5
.2	1009	5
.3	1023	5
.4	1028	5
.5	1031	5
.6	1035	5
.7	1047	5
.8	1043	5
.9	1041	5
1	1042	5

System: 1,2-propanediol + chlordiazepoxide + water; phases: Liquid, Crystal
Fixed: Temperature, K = 303.2
Fixed: Pressure, kPa = 101
Property: Amount concentration (molarity), mol/dm3 of chlordiazepoxide (Liquid); method: UV/Vis Spectrometry
Solvent: Volume fraction of 1,2-propanediol	Amount concentration (molarity), mol/dm3 of chlordiazepoxide	uncertainty
0	.000354	
.1	.00059	
.2	.0008	
.3	.00127	
.4	.00259	
.5	.00427	
.6	.00918	
.7	.0135	
.8	.0227	
.9	.0395	
1	.0659	

System: 1,2-propanediol + diazepan + water; phases: Liquid, Crystal
Fixed: Pressure, kPa = 101
Fixed: Temperature, K = 303.2
Property: Mass density, kg/m3 (Liquid); method: Pycnometric method
Solvent: Volume fraction of 1,2-propanediol	Mass density, kg/m3	uncertainty
0	999	5
.1	1010	5
.2	1012	5
.3	1021	5
.4	1027	5
.5	1039	5
.6	1040	5
.7	1044	5
.8	1047	5
.9	1049	5
1	1043	5

System: 1,2-propanediol + diazepan + water; phases: Liquid, Crystal
Fixed: Temperature, K = 303.2
Fixed: Pressure, kPa = 101
Property: Amount concentration (molarity), mol/dm3 of diazepan (Liquid); method: UV/Vis Spectrometry
Solvent: Volume fraction of 1,2-propanediol	Amount concentration (molarity), mol/dm3 of diazepan	uncertainty
0	.000192	
.1	.000297	
.2	.000492	
.3	.000928	
.4	.00191	
.5	.00441	
.6	.00962	
.7	.0168	
.8	.0308	
.9	.0489	
1	.0696	

System: 1,2-propanediol + lorazepam + water; phases: Liquid, Crystal
Fixed: Pressure, kPa = 101
Fixed: Temperature, K = 303.2
Property: Mass density, kg/m3 (Liquid); method: Pycnometric method
Solvent: Volume fraction of 1,2-propanediol	Mass density, kg/m3	uncertainty
0	1001	5
.1	1010	5
.2	1016	5
.3	1029	5
.4	1034	5
.5	1034	5
.6	1045	5
.7	1049	5
.8	1053	5
.9	1048	5
1	1045	5

System: 1,2-propanediol + lorazepam + water; phases: Liquid, Crystal
Fixed: Temperature, K = 303.2
Fixed: Pressure, kPa = 101
Property: Amount concentration (molarity), mol/dm3 of lorazepam (Liquid); method: UV/Vis Spectrometry
Solvent: Volume fraction of 1,2-propanediol	Amount concentration (molarity), mol/dm3 of lorazepam	uncertainty
0	.000193	
.1	.00029	
.2	.00048	
.3	.00108	
.4	.00258	
.5	.0045	
.6	.00781	
.7	.0131	
.8	.0216	
.9	.0327	
1	.0648	
