Measured thermophysical data. Solubility and Mass Transfer Coefficient Enhancement of Stearic Acid through Hydrotropy
Source: J. Chem. Eng. Data, 2010, 10.1021/je901041n
Compound 1: sodium salicylate, C7H5NaO3
Compound 2: sodium benzoate, C7H5NaO2
Compound 3: n-octadecanoic acid, C18H36O2
Compound 4: water, H2O
Compound 5: nicotinamide, C6H6N2O

System: sodium salicylate + n-octadecanoic acid + water; phases: Liquid, Crystal
Fixed: Pressure, kPa = 101
Property: Amount concentration (molarity), mol/dm3 of n-octadecanoic acid (Liquid); method: Chemical Analysis
Temperature, K	Solvent: Amount concentration (molarity), mol/dm3 of sodium salicylate	Amount concentration (molarity), mol/dm3 of n-octadecanoic acid	uncertainty
303	0	.0012	.000024
303	.1	.00164	.0000328
303	.2	.00211	.0000422
303	.3	.004	.00008
303	.4	.0052	.000104
303	.5	.0067	.000134
303	.6	.008	.00016
303	.7	.0097	.000194
303	.8	.011	.00022
303	.9	.0129	.000258
303	1	.0138	.000276
303	1.2	.0167	.000334
303	1.4	.0202	.000404
303	1.6	.025	.0005
303	1.8	.0295	.00059
303	2	.0348	.000696
303	2.2	.0386	.000772
303	2.4	.04111	.0008222
303	2.6	.04138	.0008276
303	2.8	.04141	.0008282
303	3	.04147	.0008294
313	0	.00129	.0000258
313	.1	.002	.00004
313	.2	.0028	.000056
313	.3	.006	.00012
313	.4	.008	.00016
313	.5	.0104	.000208
313	.6	.0144	.000288
313	.7	.0162	.000324
313	.8	.0196	.000392
313	.9	.022	.00044
313	1	.026	.00052
313	1.2	.033	.00066
313	1.4	.039	.00078
313	1.6	.0448	.000896
313	1.8	.048	.00096
313	2	.0549	.001098
313	2.2	.0558	.001116
313	2.4	.05907	.0011814
313	2.6	.05909	.0011818
313	2.8	.05912	.0011824
313	3	.05914	.0011828
323	0	.00136	.0000272
323	.1	.0022	.000044
323	.2	.0031	.000062
323	.3	.008	.00016
323	.4	.013	.00026
323	.5	.0185	.00037
323	.6	.024	.00048
323	.7	.0312	.000624
323	.8	.0344	.000688
323	.9	.0404	.000808
323	1	.0452	.000904
323	1.2	.055	.0011
323	1.4	.063	.00126
323	1.6	.0696	.001392
323	1.8	.076	.00152
323	2	.0814	.001628
323	2.2	.086	.00172
323	2.4	.09065	.001813
323	2.6	.09069	.0018138
323	2.8	.09073	.0018146
323	3	.09075	.001815
333	0	.0015	.00003
333	.1	.00242	.0000484
333	.2	.0046	.000092
333	.3	.014	.00028
333	.4	.023	.00046
333	.5	.032	.00064
333	.6	.0428	.000856
333	.7	.054	.00108
333	.8	.0646	.001292
333	.9	.0742	.001484
333	1	.0852	.001704
333	1.2	.1008	.002016
333	1.4	.115	.0023
333	1.6	.1248	.002496
333	1.8	.1345	.00269
333	2	.1384	.002768
333	2.2	.1402	.002804
333	2.4	.14383	.0028766
333	2.6	.14386	.0028772
333	2.8	.14389	.0028778
333	3	.14392	.0028784

System: n-octadecanoic acid + sodium benzoate + water; phases: Liquid, Crystal
Fixed: Pressure, kPa = 101
Property: Amount concentration (molarity), mol/dm3 of n-octadecanoic acid (Liquid); method: Chemical Analysis
Temperature, K	Solvent: Amount concentration (molarity), mol/dm3 of sodium benzoate	Amount concentration (molarity), mol/dm3 of n-octadecanoic acid	uncertainty
303	0	.0012	.000024
303	.1	.00123	.0000246
303	.2	.00125	.000025
303	.3	.0013	.000026
303	.4	.0023	.000046
303	.5	.00247	.0000494
303	.6	.00257	.0000514
303	.7	.00293	.0000586
303	.8	.00328	.0000656
303	.9	.00342	.0000684
303	1	.0037	.000074
303	1.2	.00405	.000081
303	1.4	.00493	.0000986
303	1.6	.00544	.0001088
303	1.8	.00583	.0001166
303	2	.00618	.0001236
303	2.2	.00719	.0001438
303	2.4	.00728	.0001456
303	2.6	.00741	.0001482
303	2.8	.00744	.0001488
303	3	.00745	.000149
313	0	.00129	.0000258
313	.1	.00133	.0000266
313	.2	.00135	.000027
313	.3	.00138	.0000276
313	.4	.0024	.000048
313	.5	.00263	.0000526
313	.6	.00322	.0000644
313	.7	.00364	.0000728
313	.8	.00419	.0000838
313	.9	.005	.0001
313	1	.00549	.0001098
313	1.2	.00604	.0001208
313	1.4	.00811	.0001622
313	1.6	.00885	.000177
313	1.8	.00911	.0001822
313	2	.01033	.0002066
313	2.2	.01178	.0002356
313	2.4	.01193	.0002386
313	2.6	.012	.00024
313	2.8	.01204	.0002408
313	3	.01207	.0002414
323	0	.00136	.0000272
323	.1	.00138	.0000276
323	.2	.00144	.0000288
323	.3	.00149	.0000298
323	.4	.00304	.0000608
323	.5	.00388	.0000776
323	.6	.00433	.0000866
323	.7	.00489	.0000978
323	.8	.00626	.0001252
323	.9	.00661	.0001322
323	1	.00775	.000155
323	1.2	.01022	.0002044
323	1.4	.01189	.0002378
323	1.6	.01251	.0002502
323	1.8	.01454	.0002908
323	2	.01627	.0003254
323	2.2	.01814	.0003628
323	2.4	.01824	.0003648
323	2.6	.01831	.0003662
323	2.8	.01848	.0003696
323	3	.01851	.0003702
333	0	.0015	.00003
333	.1	.00153	.0000306
333	.2	.00158	.0000316
333	.3	.00163	.0000326
333	.4	.0041	.000082
333	.5	.00522	.0001044
333	.6	.00621	.0001242
333	.7	.00727	.0001454
333	.8	.00867	.0001734
333	.9	.0105	.00021
333	1	.0133	.000266
333	1.2	.0155	.00031
333	1.4	.0187	.000374
333	1.6	.022	.00044
333	1.8	.0234	.000468
333	2	.02667	.0005334
333	2.2	.02871	.0005742
333	2.4	.02889	.0005778
333	2.6	.029	.00058
333	2.8	.02908	.0005816
333	3	.02912	.0005824

System: n-octadecanoic acid + nicotinamide + water; phases: Liquid, Crystal
Fixed: Pressure, kPa = 101
Property: Amount concentration (molarity), mol/dm3 of n-octadecanoic acid (Liquid); method: Chemical Analysis
Temperature, K	Solvent: Amount concentration (molarity), mol/dm3 of nicotinamide	Amount concentration (molarity), mol/dm3 of n-octadecanoic acid	uncertainty
303	0	.0012	.000024
303	.1	.00121	.0000242
303	.2	.00122	.0000244
303	.3	.00127	.0000254
303	.4	.00138	.0000276
303	.5	.00149	.0000298
303	.6	.00266	.0000532
303	.7	.00268	.0000536
303	.8	.0027	.000054
303	.9	.00274	.0000548
303	1	.00296	.0000592
303	1.2	.00352	.0000704
303	1.4	.00423	.0000846
303	1.6	.00458	.0000916
303	1.8	.00483	.0000966
303	2	.00512	.0001024
303	2.2	.0062	.000124
303	2.4	.0064	.000128
303	2.6	.0066	.000132
303	2.8	.0067	.000134
303	3	.00674	.0001348
313	0	.00129	.0000258
313	.1	.00131	.0000262
313	.2	.00133	.0000266
313	.3	.00136	.0000272
313	.4	.00142	.0000284
313	.5	.00158	.0000316
313	.6	.0031	.000062
313	.7	.0033	.000066
313	.8	.00355	.000071
313	.9	.00432	.0000864
313	1	.005	.0001
313	1.2	.00604	.0001208
313	1.4	.0076	.000152
313	1.6	.00814	.0001628
313	1.8	.00918	.0001836
313	2	.01011	.0002022
313	2.2	.01135	.000227
313	2.4	.01139	.0002278
313	2.6	.01145	.000229
313	2.8	.0115	.00023
313	3	.01157	.0002314
323	0	.00136	.0000272
323	.1	.00137	.0000274
323	.2	.0014	.000028
323	.3	.00145	.000029
323	.4	.00158	.0000316
323	.5	.00169	.0000338
323	.6	.00366	.0000732
323	.7	.00411	.0000822
323	.8	.00501	.0001002
323	.9	.00622	.0001244
323	1	.00744	.0001488
323	1.2	.0085	.00017
323	1.4	.0105	.00021
323	1.6	.0116	.000232
323	1.8	.0132	.000264
323	2	.01472	.0002944
323	2.2	.01589	.0003178
323	2.4	.016	.00032
323	2.6	.0162	.000324
323	2.8	.01628	.0003256
323	3	.0163	.000326
333	0	.0015	.00003
333	.1	.00152	.0000304
333	.2	.00156	.0000312
333	.3	.0016	.000032
333	.4	.00171	.0000342
333	.5	.00187	.0000374
333	.6	.0041	.000082
333	.7	.00557	.0001114
333	.8	.00623	.0001246
333	.9	.00728	.0001456
333	1	.00917	.0001834
333	1.2	.01156	.0002312
333	1.4	.0145	.00029
333	1.6	.0158	.000316
333	1.8	.018	.00036
333	2	.02011	.0004022
333	2.2	.02229	.0004458
333	2.4	.02233	.0004466
333	2.6	.02238	.0004476
333	2.8	.02241	.0004482
333	3	.02248	.0004496

System: n-octadecanoic acid + water; phases: Liquid, Crystal
Property: Amount concentration (molarity), mol/dm3 of n-octadecanoic acid (Liquid); method: Chemical Analysis
Temperature, K	Pressure, kPa	Amount concentration (molarity), mol/dm3 of n-octadecanoic acid	uncertainty
303	101	.0012	.000024
313	101	.00129	.0000258
323	101	.00136	.0000272
333	101	.0015	.00003
