Measured thermophysical data. Isobaric Thermal Expansivity of Highly Polar Nitrogen Compounds at Temperatures from (278.15 to 348.15) K and at Pressures from (5 to 55) MPa
Source: J. Chem. Eng. Data, 2010, 10.1021/je900672g
Compound 1: propanenitrile, C3H5N
Compound 2: nitromethane, CH3NO2, purity 98.5%
Compound 3: nitroethane, C2H5NO2
Compound 4: nitropropane, C3H7NO2
Compound 5: nitrobenzene, C6H5NO2
Compound 6: benzonitrile, C7H5N

System: propanenitrile; phases: Liquid
Property: Isobaric coefficient of expansion, 1/K (Liquid); method: DSC
Temperature, K	Pressure, kPa	Isobaric coefficient of expansion, 1/K	uncertainty
278.15	5000	.001225	.0000245
278.15	10000	.001195	.0000239
278.15	15000	.001172	.00002344
278.15	20000	.001136	.00002272
278.15	25000	.001111	.00002222
278.15	30000	.001087	.00002174
278.15	35000	.001066	.00002132
278.15	40000	.001041	.00002082
278.15	45000	.001021	.00002042
278.15	50000	.001003	.00002006
278.15	55000	.000991	.00001982
288.15	5000	.00125	.000025
288.15	10000	.001214	.00002428
288.15	15000	.00118	.0000236
288.15	20000	.00115	.000023
288.15	25000	.001123	.00002246
288.15	30000	.001097	.00002194
288.15	35000	.001071	.00002142
288.15	40000	.001049	.00002098
288.15	45000	.001028	.00002056
288.15	50000	.001009	.00002018
288.15	55000	.000992	.00001984
298.15	5000	.001277	.00002554
298.15	10000	.001234	.00002468
298.15	15000	.001204	.00002408
298.15	20000	.001166	.00002332
298.15	25000	.001134	.00002268
298.15	30000	.001105	.0000221
298.15	35000	.00108	.0000216
298.15	40000	.001053	.00002106
298.15	45000	.001034	.00002068
298.15	50000	.001009	.00002018
298.15	55000	.000993	.00001986
308.15	5000	.0013	.000026
308.15	10000	.001256	.00002512
308.15	15000	.001214	.00002428
308.15	20000	.001181	.00002362
308.15	25000	.001144	.00002288
308.15	30000	.001113	.00002226
308.15	35000	.001088	.00002176
308.15	40000	.001057	.00002114
308.15	45000	.001037	.00002074
308.15	50000	.001013	.00002026
308.15	55000	.000994	.00001988
318.15	5000	.001346	.00002692
318.15	10000	.001292	.00002584
318.15	15000	.001245	.0000249
318.15	20000	.001199	.00002398
318.15	25000	.00116	.0000232
318.15	30000	.001131	.00002262
318.15	35000	.001097	.00002194
318.15	40000	.001063	.00002126
318.15	45000	.00104	.0000208
318.15	50000	.001022	.00002044
318.15	55000	.001003	.00002006
328.15	5000	.001392	.00002784
328.15	10000	.001327	.00002654
328.15	15000	.00127	.0000254
328.15	20000	.00122	.0000244
328.15	25000	.001177	.00002354
328.15	30000	.001141	.00002282
328.15	35000	.001109	.00002218
328.15	40000	.001069	.00002138
328.15	45000	.001048	.00002096
328.15	50000	.001024	.00002048
328.15	55000	.001004	.00002008
338.15	5000	.001441	.00002882
338.15	10000	.001364	.00002728
338.15	15000	.001303	.00002606
338.15	20000	.001245	.0000249
338.15	25000	.001195	.0000239
338.15	30000	.001152	.00002304
338.15	35000	.001119	.00002238
338.15	40000	.001073	.00002146
338.15	45000	.00105	.000021
338.15	50000	.001023	.00002046
338.15	55000	.001005	.0000201
348.15	5000	.0015	.00003
348.15	10000	.001412	.00002824
348.15	15000	.001334	.00002668
348.15	20000	.00127	.0000254
348.15	25000	.00122	.0000244
348.15	30000	.00117	.0000234
348.15	35000	.001128	.00002256
348.15	40000	.001079	.00002158
348.15	45000	.001055	.0000211
348.15	50000	.001026	.00002052
348.15	55000	.001008	.00002016

System: nitromethane; phases: Liquid
Property: Isobaric coefficient of expansion, 1/K (Liquid); method: DSC
Temperature, K	Pressure, kPa	Isobaric coefficient of expansion, 1/K	uncertainty
278.15	5000	.00116	.0000232
278.15	10000	.00114	.0000228
278.15	15000	.001129	.00002258
278.15	20000	.001101	.00002202
278.15	25000	.001078	.00002156
278.15	30000	.001065	.0000213
278.15	35000	.001049	.00002098
278.15	40000	.001031	.00002062
278.15	45000	.001017	.00002034
278.15	50000	.001004	.00002008
278.15	55000	.000986	.00001972
288.15	5000	.001183	.00002366
288.15	10000	.001158	.00002316
288.15	15000	.001136	.00002272
288.15	20000	.001116	.00002232
288.15	25000	.001096	.00002192
288.15	30000	.001075	.0000215
288.15	35000	.001057	.00002114
288.15	40000	.001044	.00002088
288.15	45000	.001023	.00002046
288.15	50000	.00101	.0000202
288.15	55000	.000992	.00001984
298.15	5000	.001209	.00002418
298.15	10000	.001175	.0000235
298.15	15000	.001158	.00002316
298.15	20000	.001129	.00002258
298.15	25000	.001107	.00002214
298.15	30000	.001087	.00002174
298.15	35000	.001066	.00002132
298.15	40000	.001048	.00002096
298.15	45000	.001029	.00002058
298.15	50000	.00101	.0000202
298.15	55000	.000998	.00001996
308.15	5000	.001231	.00002462
308.15	10000	.001201	.00002402
308.15	15000	.001176	.00002352
308.15	20000	.001147	.00002294
308.15	25000	.001119	.00002238
308.15	30000	.001098	.00002196
308.15	35000	.001077	.00002154
308.15	40000	.001052	.00002104
308.15	45000	.001035	.0000207
308.15	50000	.001017	.00002034
308.15	55000	.001002	.00002004
318.15	5000	.001262	.00002524
318.15	10000	.001228	.00002456
318.15	15000	.001189	.00002378
318.15	20000	.001161	.00002322
318.15	25000	.001132	.00002264
318.15	30000	.001111	.00002222
318.15	35000	.001086	.00002172
318.15	40000	.001056	.00002112
318.15	45000	.001043	.00002086
318.15	50000	.001026	.00002052
318.15	55000	.001008	.00002016
328.15	5000	.001294	.00002588
328.15	10000	.001255	.0000251
328.15	15000	.001212	.00002424
328.15	20000	.001174	.00002348
328.15	25000	.001144	.00002288
328.15	30000	.001117	.00002234
328.15	35000	.001096	.00002192
328.15	40000	.001066	.00002132
328.15	45000	.001049	.00002098
328.15	50000	.001027	.00002054
328.15	55000	.00101	.0000202
338.15	5000	.001335	.0000267
338.15	10000	.001279	.00002558
338.15	15000	.001241	.00002482
338.15	20000	.001205	.0000241
338.15	25000	.001165	.0000233
338.15	30000	.001131	.00002262
338.15	35000	.001107	.00002214
338.15	40000	.001072	.00002144
338.15	45000	.001055	.0000211
338.15	50000	.001032	.00002064
338.15	55000	.001015	.0000203
348.15	5000	.001381	.00002762
348.15	10000	.001323	.00002646
348.15	15000	.001269	.00002538
348.15	20000	.001219	.00002438
348.15	25000	.001187	.00002374
348.15	30000	.001148	.00002296
348.15	35000	.001118	.00002236
348.15	40000	.001079	.00002158
348.15	45000	.001062	.00002124
348.15	50000	.001035	.0000207
348.15	55000	.001018	.00002036

System: nitroethane; phases: Liquid
Property: Isobaric coefficient of expansion, 1/K (Liquid); method: DSC
Temperature, K	Pressure, kPa	Isobaric coefficient of expansion, 1/K	uncertainty
278.15	5000	.001126	.00002252
278.15	10000	.001102	.00002204
278.15	15000	.001088	.00002176
278.15	20000	.001062	.00002124
278.15	25000	.001036	.00002072
278.15	30000	.001023	.00002046
278.15	35000	.001007	.00002014
278.15	40000	.000984	.00001968
278.15	45000	.000973	.00001946
278.15	50000	.000958	.00001916
278.15	55000	.00094	.0000188
288.15	5000	.001138	.00002276
288.15	10000	.001112	.00002224
288.15	15000	.001087	.00002174
288.15	20000	.001068	.00002136
288.15	25000	.001047	.00002094
288.15	30000	.001025	.0000205
288.15	35000	.001006	.00002012
288.15	40000	.000987	.00001974
288.15	45000	.000972	.00001944
288.15	50000	.00096	.0000192
288.15	55000	.000944	.00001888
298.15	5000	.001152	.00002304
298.15	10000	.00112	.0000224
298.15	15000	.001103	.00002206
298.15	20000	.001074	.00002148
298.15	25000	.001051	.00002102
298.15	30000	.001032	.00002064
298.15	35000	.001012	.00002024
298.15	40000	.000993	.00001986
298.15	45000	.000973	.00001946
298.15	50000	.00096	.0000192
298.15	55000	.000941	.00001882
308.15	5000	.001167	.00002334
308.15	10000	.00114	.0000228
308.15	15000	.001112	.00002224
308.15	20000	.001088	.00002176
308.15	25000	.001059	.00002118
308.15	30000	.001036	.00002072
308.15	35000	.001016	.00002032
308.15	40000	.000994	.00001988
308.15	45000	.000977	.00001954
308.15	50000	.000961	.00001922
308.15	55000	.000942	.00001884
318.15	5000	.001185	.0000237
318.15	10000	.001157	.00002314
318.15	15000	.001127	.00002254
318.15	20000	.001099	.00002198
318.15	25000	.00107	.0000214
318.15	30000	.001047	.00002094
318.15	35000	.001022	.00002044
318.15	40000	.000999	.00001998
318.15	45000	.000981	.00001962
318.15	50000	.000964	.00001928
318.15	55000	.000945	.0000189
328.15	5000	.001201	.00002402
328.15	10000	.001162	.00002324
328.15	15000	.00113	.0000226
328.15	20000	.001096	.00002192
328.15	25000	.001071	.00002142
328.15	30000	.001045	.0000209
328.15	35000	.001025	.0000205
328.15	40000	.001002	.00002004
328.15	45000	.000984	.00001968
328.15	50000	.000964	.00001928
328.15	55000	.000944	.00001888
338.15	5000	.001224	.00002448
338.15	10000	.001189	.00002378
338.15	15000	.001145	.0000229
338.15	20000	.001112	.00002224
338.15	25000	.001083	.00002166
338.15	30000	.001056	.00002112
338.15	35000	.001032	.00002064
338.15	40000	.001007	.00002014
338.15	45000	.000982	.00001964
338.15	50000	.000964	.00001928
338.15	55000	.000945	.0000189
348.15	5000	.001262	.00002524
348.15	10000	.001209	.00002418
348.15	15000	.001168	.00002336
348.15	20000	.001125	.0000225
348.15	25000	.001097	.00002194
348.15	30000	.001069	.00002138
348.15	35000	.001037	.00002074
348.15	40000	.001012	.00002024
348.15	45000	.000989	.00001978
348.15	50000	.000966	.00001932
348.15	55000	.000947	.00001894

System: nitropropane; phases: Liquid
Property: Isobaric coefficient of expansion, 1/K (Liquid); method: DSC
Temperature, K	Pressure, kPa	Isobaric coefficient of expansion, 1/K	uncertainty
278.15	5000	.001047	.00002094
278.15	10000	.001027	.00002054
278.15	15000	.001006	.00002012
278.15	20000	.000982	.00001964
278.15	25000	.000966	.00001932
278.15	30000	.000943	.00001886
278.15	35000	.000933	.00001866
278.15	40000	.000913	.00001826
278.15	45000	.000902	.00001804
278.15	50000	.000885	.0000177
278.15	55000	.000871	.00001742
288.15	5000	.00106	.0000212
288.15	10000	.001039	.00002078
288.15	15000	.001012	.00002024
288.15	20000	.000991	.00001982
288.15	25000	.000972	.00001944
288.15	30000	.000954	.00001908
288.15	35000	.000932	.00001864
288.15	40000	.000916	.00001832
288.15	45000	.000902	.00001804
288.15	50000	.000887	.00001774
288.15	55000	.000874	.00001748
298.15	5000	.001077	.00002154
298.15	10000	.00105	.000021
298.15	15000	.001028	.00002056
298.15	20000	.001	.00002
298.15	25000	.000977	.00001954
298.15	30000	.000958	.00001916
298.15	35000	.000941	.00001882
298.15	40000	.00092	.0000184
298.15	45000	.000904	.00001808
298.15	50000	.000889	.00001778
298.15	55000	.000875	.0000175
308.15	5000	.001093	.00002186
308.15	10000	.001064	.00002128
308.15	15000	.001037	.00002074
308.15	20000	.001008	.00002016
308.15	25000	.000986	.00001972
308.15	30000	.000963	.00001926
308.15	35000	.000945	.0000189
308.15	40000	.000921	.00001842
308.15	45000	.000906	.00001812
308.15	50000	.000891	.00001782
308.15	55000	.000873	.00001746
318.15	5000	.001127	.00002254
318.15	10000	.001092	.00002184
318.15	15000	.001058	.00002116
318.15	20000	.001025	.0000205
318.15	25000	.000995	.0000199
318.15	30000	.000976	.00001952
318.15	35000	.000952	.00001904
318.15	40000	.000927	.00001854
318.15	45000	.00091	.0000182
318.15	50000	.000895	.0000179
318.15	55000	.00088	.0000176
328.15	5000	.001155	.0000231
328.15	10000	.001113	.00002226
328.15	15000	.001072	.00002144
328.15	20000	.001037	.00002074
328.15	25000	.001007	.00002014
328.15	30000	.000981	.00001962
328.15	35000	.000957	.00001914
328.15	40000	.00093	.0000186
328.15	45000	.000912	.00001824
328.15	50000	.000894	.00001788
328.15	55000	.00088	.0000176
338.15	5000	.001187	.00002374
338.15	10000	.001134	.00002268
338.15	15000	.001092	.00002184
338.15	20000	.001055	.0000211
338.15	25000	.00102	.0000204
338.15	30000	.000988	.00001976
338.15	35000	.000964	.00001928
338.15	40000	.00093	.0000186
338.15	45000	.000914	.00001828
338.15	50000	.000894	.00001788
338.15	55000	.000883	.00001766
348.15	5000	.001222	.00002444
348.15	10000	.001165	.0000233
348.15	15000	.001112	.00002224
348.15	20000	.001069	.00002138
348.15	25000	.001033	.00002066
348.15	30000	.000996	.00001992
348.15	35000	.000967	.00001934
348.15	40000	.000932	.00001864
348.15	45000	.000915	.0000183
348.15	50000	.000894	.00001788
348.15	55000	.000879	.00001758

System: nitrobenzene; phases: Liquid
Property: Isobaric coefficient of expansion, 1/K (Liquid); method: DSC
Temperature, K	Pressure, kPa	Isobaric coefficient of expansion, 1/K	uncertainty
288.15	5000	.000818	.00001636
288.15	10000	.000813	.00001626
288.15	15000	.000797	.00001594
288.15	20000	.000785	.0000157
288.15	25000	.000775	.0000155
288.15	30000	.000762	.00001524
288.15	35000	.000749	.00001498
288.15	40000	.00074	.0000148
288.15	45000	.000729	.00001458
288.15	50000	.000725	.0000145
288.15	55000	.000717	.00001434
298.15	5000	.000823	.00001646
298.15	10000	.000808	.00001616
298.15	15000	.0008	.000016
298.15	20000	.000785	.0000157
298.15	25000	.000772	.00001544
298.15	30000	.000762	.00001524
298.15	35000	.000752	.00001504
298.15	40000	.000742	.00001484
298.15	45000	.000731	.00001462
298.15	50000	.000722	.00001444
298.15	55000	.000714	.00001428
308.15	5000	.000827	.00001654
308.15	10000	.000812	.00001624
308.15	15000	.000799	.00001598
308.15	20000	.000787	.00001574
308.15	25000	.000773	.00001546
308.15	30000	.00076	.0000152
308.15	35000	.00075	.000015
308.15	40000	.000737	.00001474
308.15	45000	.000728	.00001456
308.15	50000	.000719	.00001438
308.15	55000	.00071	.0000142
318.15	5000	.000832	.00001664
318.15	10000	.00082	.0000164
318.15	15000	.000802	.00001604
318.15	20000	.000792	.00001584
318.15	25000	.000774	.00001548
318.15	30000	.000762	.00001524
318.15	35000	.000749	.00001498
318.15	40000	.000737	.00001474
318.15	45000	.000729	.00001458
318.15	50000	.000718	.00001436
318.15	55000	.00071	.0000142
328.15	5000	.000837	.00001674
328.15	10000	.000821	.00001642
328.15	15000	.000802	.00001604
328.15	20000	.000787	.00001574
328.15	25000	.000774	.00001548
328.15	30000	.000761	.00001522
328.15	35000	.00075	.000015
328.15	40000	.000739	.00001478
328.15	45000	.000726	.00001452
328.15	50000	.000716	.00001432
328.15	55000	.000707	.00001414
338.15	5000	.000843	.00001686
338.15	10000	.000828	.00001656
338.15	15000	.000806	.00001612
338.15	20000	.00079	.0000158
338.15	25000	.000775	.0000155
338.15	30000	.000762	.00001524
338.15	35000	.000751	.00001502
338.15	40000	.000736	.00001472
338.15	45000	.000725	.0000145
338.15	50000	.000715	.0000143
338.15	55000	.000708	.00001416
348.15	5000	.000852	.00001704
348.15	10000	.000827	.00001654
348.15	15000	.000811	.00001622
348.15	20000	.000794	.00001588
348.15	25000	.00078	.0000156
348.15	30000	.000764	.00001528
348.15	35000	.00075	.000015
348.15	40000	.000734	.00001468
348.15	45000	.000721	.00001442
348.15	50000	.000711	.00001422
348.15	55000	.000701	.00001402

System: benzonitrile; phases: Liquid
Property: Isobaric coefficient of expansion, 1/K (Liquid); method: DSC
Temperature, K	Pressure, kPa	Isobaric coefficient of expansion, 1/K	uncertainty
278.15	5000	.000841	.00001682
278.15	10000	.000831	.00001662
278.15	15000	.000829	.00001658
278.15	20000	.000812	.00001624
278.15	25000	.000795	.0000159
278.15	30000	.000791	.00001582
278.15	35000	.00078	.0000156
278.15	40000	.000772	.00001544
278.15	45000	.00076	.0000152
278.15	50000	.000752	.00001504
288.15	5000	.000845	.0000169
288.15	10000	.000832	.00001664
288.15	15000	.000819	.00001638
288.15	20000	.000811	.00001622
288.15	25000	.000799	.00001598
288.15	30000	.000789	.00001578
288.15	35000	.000772	.00001544
288.15	40000	.000771	.00001542
288.15	45000	.000759	.00001518
288.15	50000	.000754	.00001508
298.15	5000	.000849	.00001698
298.15	10000	.000832	.00001664
298.15	15000	.000825	.0000165
298.15	20000	.000809	.00001618
298.15	25000	.000798	.00001596
298.15	30000	.000788	.00001576
298.15	35000	.000775	.0000155
298.15	40000	.000773	.00001546
298.15	45000	.000759	.00001518
298.15	50000	.000749	.00001498
308.15	5000	.000852	.00001704
308.15	10000	.000842	.00001684
308.15	15000	.000827	.00001654
308.15	20000	.000814	.00001628
308.15	25000	.000799	.00001598
308.15	30000	.000788	.00001576
308.15	35000	.000773	.00001546
308.15	40000	.000765	.0000153
308.15	45000	.000755	.0000151
308.15	50000	.000743	.00001486
318.15	5000	.000857	.00001714
318.15	10000	.00084	.0000168
318.15	15000	.000826	.00001652
318.15	20000	.000811	.00001622
318.15	25000	.000798	.00001596
318.15	30000	.000789	.00001578
318.15	35000	.000773	.00001546
318.15	40000	.000764	.00001528
318.15	45000	.000754	.00001508
318.15	50000	.000743	.00001486
328.15	5000	.000853	.00001706
328.15	10000	.000837	.00001674
328.15	15000	.000819	.00001638
328.15	20000	.000808	.00001616
328.15	25000	.000794	.00001588
328.15	30000	.000782	.00001564
328.15	35000	.000772	.00001544
328.15	40000	.00076	.0000152
328.15	45000	.000751	.00001502
328.15	50000	.000736	.00001472
338.15	5000	.000863	.00001726
338.15	10000	.000843	.00001686
338.15	15000	.000826	.00001652
338.15	20000	.000813	.00001626
338.15	25000	.000799	.00001598
338.15	30000	.000786	.00001572
338.15	35000	.000776	.00001552
338.15	40000	.000762	.00001524
338.15	45000	.000747	.00001494
338.15	50000	.000738	.00001476
348.15	5000	.00087	.0000174
348.15	10000	.00085	.000017
348.15	15000	.000832	.00001664
348.15	20000	.000818	.00001636
348.15	25000	.000802	.00001604
348.15	30000	.000788	.00001576
348.15	35000	.000774	.00001548
348.15	40000	.000761	.00001522
348.15	45000	.000749	.00001498
348.15	50000	.000737	.00001474
