Measured thermophysical data. Electrical Conductances of Sodium Polystyrenesulfonate in 2-Ethoxyethanol (1) + Water (2) Mixed Solvent Media in the Presence of Sodium Chloride at (308.15, 313.15, 318.15, and 323.15) K
Source: J. Chem. Eng. Data, 2010, 10.1021/je900725w
Compound 1: ethanol, 2-ethoxy-, C4H10O2
Compound 2: water, H2O

System: ethanol, 2-ethoxy-; phases: Liquid
Fixed: Pressure, kPa = 101.325
Property: Mass density, kg/m3 (Liquid); method: Vibrating tube method
Temperature, K	Mass density, kg/m3	uncertainty
308.15	924.97	.184994

System: ethanol, 2-ethoxy-; phases: Liquid
Fixed: Pressure, kPa = 101.325
Property: Viscosity, Pa*s (Liquid); method: Capillary tube (Ostwald; Ubbelohde) method
Temperature, K	Viscosity, Pa*s	uncertainty
308.15	.0018277	.0000054831

System: ethanol, 2-ethoxy- + water; phases: Liquid
Fixed: Pressure, kPa = 101
Property: Mass density, kg/m3 (Liquid); method: Vibrating tube method
Mass fraction of ethanol, 2-ethoxy-	Temperature, K	Mass density, kg/m3	uncertainty
.25	308.15	997.58	.199516
.25	313.15	992.45	.19849
.25	318.15	988.07	.197614
.25	323.15	983.94	.196788
.4	308.15	997.47	.199494
.4	313.15	991.01	.198202
.4	318.15	986.96	.197392
.4	323.15	983.78	.196756
.5	308.15	993.61	.198722
.5	313.15	985.14	.197028
.5	318.15	980.04	.196008
.5	323.15	976.1	.19522

System: ethanol, 2-ethoxy- + water; phases: Liquid
Fixed: Pressure, kPa = 101
Property: Viscosity, Pa*s (Liquid); method: Capillary tube (Ostwald; Ubbelohde) method
Mass fraction of ethanol, 2-ethoxy-	Temperature, K	Viscosity, Pa*s	uncertainty
.25	308.15	.001843	.000005529
.25	313.15	.0015293	.0000045879
.25	318.15	.0012738	.0000038214
.25	323.15	.0010923	.0000032769
.4	308.15	.0019545	.0000058635
.4	313.15	.0017015	.0000051045
.4	318.15	.0014274	.0000042822
.4	323.15	.0012317	.0000036951
.5	308.15	.0019234	.0000057702
.5	313.15	.0017195	.0000051585
.5	318.15	.0014552	.0000043656
.5	323.15	.0012762	.0000038286

System: ethanol, 2-ethoxy- + water; phases: Liquid
Fixed: Pressure, kPa = 101
Property: Relative permittivity at zero frequency (Liquid); method: Parallel plate capacitor
Mass fraction of ethanol, 2-ethoxy-	Temperature, K	Relative permittivity at zero frequency	uncertainty
.25	308.15	60.13	
.25	313.15	58.7	
.25	318.15	57.37	
.25	323.15	56.11	
.4	308.15	50.54	
.4	313.15	49.28	
.4	318.15	48.14	
.4	323.15	47.1	
.5	308.15	44.3	
.5	313.15	43.03	
.5	318.15	41.95	
.5	323.15	40.96	
