Measured thermophysical data. Isobaric Vapor-Liquid and Liquid-Liquid Equilibria for Chloroform + Methanol + 1-Ethyl-3-methylimidazolium Trifluoromethanesulfonate at 100 kPa
Source: J. Chem. Eng. Data, 2010, 10.1021/je900594h
Compound 1: chloroform, CHCl3, purity 99.8%
Compound 2: methanol, CH4O, purity 99.8%
Compound 3: 1-ethyl-3-methylimidazolium trifluoromethanesulfonate, C7H11F3N2O3S, purity 99%

System: methanol + chloroform; phases: Gas, Liquid
Property: Boiling temperature at pressure P, K (Gas); method: Ebulliometric method (Recirculating still)
Mole fraction of chloroform	Pressure, kPa	Boiling temperature at pressure P, K	uncertainty
0	100	337.41	.1
.0231	100	336.29	.1
.0413	100	335.51	.1
.0584	100	334.8	.1
.0805	100	333.97	.1
.1081	100	332.99	.1
.1382	100	332	.1
.1767	100	330.86	.1
.2218	100	329.74	.1
.2702	100	328.73	.1
.3218	100	327.92	.1
.3685	100	327.3	.1
.4203	100	326.93	.1
.4642	100	326.64	.1
.5092	100	326.42	.1
.5521	100	326.29	.1
.5977	100	326.22	.1
.6347	100	326.17	.1
.6685	100	326.17	.1
.7128	100	326.21	.1
.7452	100	326.27	.1
.7821	100	326.41	.1
.8178	100	326.6	.1
.8562	100	326.91	.1
.8857	100	327.27	.1
.9131	100	327.85	.1
.9407	100	328.67	.1
.9629	100	329.77	.1
.9805	100	331.45	.1
1	100	333.96	.1

System: methanol + chloroform; phases: Gas, Liquid
Property: Mole fraction of chloroform (Gas); method: Chromatography
Mole fraction of chloroform	Pressure, kPa	Mole fraction of chloroform	uncertainty
0	100	0	.001
.0231	100	.0629	.001
.0413	100	.1078	.001
.0584	100	.1431	.001
.0805	100	.1916	.001
.1081	100	.2463	.001
.1382	100	.2991	.001
.1767	100	.3558	.001
.2218	100	.4127	.001
.2702	100	.4647	.001
.3218	100	.5066	.001
.3685	100	.5374	.001
.4203	100	.5648	.001
.4642	100	.5861	.001
.5092	100	.6059	.001
.5521	100	.6231	.001
.5977	100	.6354	.001
.6347	100	.6454	.001
.6685	100	.6544	.001
.7128	100	.6656	.001
.7452	100	.6769	.001
.7821	100	.6893	.001
.8178	100	.706	.001
.8562	100	.7268	.001
.8857	100	.7453	.001
.9131	100	.7688	.001
.9407	100	.8012	.001
.9629	100	.8408	.001
.9805	100	.9123	.001
1	100	1	.001

System: methanol + chloroform + 1-ethyl-3-methylimidazolium trifluoromethanesulfonate; phases: Gas, Liquid
Fixed: Pressure, kPa = 100
Property: Mole fraction of chloroform (Gas); method: Chromatography
Mole fraction of 1-ethyl-3-methylimidazolium trifluoromethanesulfonate	Solvent: Mole fraction of chloroform	Mole fraction of chloroform	uncertainty
.0563	0	0	.001
.0579	.033	.086	.001
.0569	.07	.169	.001
.0557	.112	.243	.001
.054	.168	.342	.001
.0544	.229	.416	.001
.0551	.295	.489	.001
.0554	.367	.554	.001
.0563	.439	.598	.001
.0563	.502	.627	.001
.0569	.576	.663	.001
.0573	.65	.69	.001
.0573	.719	.717	.001
.0582	.797	.753	.001
.0591	.872	.802	.001
.0576	.919	.854	.001
.058	.962	.927	.001
.0583	1	1	.001
.1126	0	0	.001
.1168	.031	.074	.001
.1215	.068	.154	.001
.1098	.107	.237	.001
.1106	.161	.324	.001
.1116	.218	.396	.001
.1127	.284	.474	.001
.1139	.362	.539	.001
.1148	.438	.597	.001
.1153	.507	.641	.001
.117	.58	.68	.001
.1175	.652	.712	.001
.1178	.734	.759	.001
.1185	.809	.803	.001
.1184	.876	.846	.001
.1203	.932	.909	.001
.1187	.972	.959	.001
.1195	1	1	.001
.2228	0	0	.001
.2231	.027	.064	.001
.2223	.06	.133	.001
.2248	.095	.203	.001
.2255	.143	.275	.001
.2283	.195	.352	.001
.2315	.253	.422	.001
.2332	.315	.48	.001
.2347	.383	.548	.001
.2356	.46	.607	.001
.2369	.543	.668	.001
.2393	.632	.727	.001
.2413	.722	.784	.001
.2421	.809	.84	.001
.2452	.906	.902	.001
.2428	.961	.949	.001
.2392	.986	.98	.001
.232	1	1	.001
.3345	0	0	.001
.3322	.028	.069	.001
.3343	.06	.132	.001
.3347	.093	.195	.001
.3341	.136	.267	.001
.3363	.186	.331	.001
.3415	.243	.403	.001
.3433	.308	.473	.001
.3489	.384	.548	.001
.3514	.464	.613	.001
.3565	.553	.681	.001
.3582	.645	.746	.001
.3573	.725	.807	.001
.3588	.813	.87	.001
.3603	.883	.92	.001
.3606	.94	.956	.001
.3561	.975	.981	.001
.352	1	1	.001

System: methanol + chloroform + 1-ethyl-3-methylimidazolium trifluoromethanesulfonate; phases: Liquid, Gas
Fixed: Pressure, kPa = 100
Property: Boiling temperature at pressure P, K (Liquid); method: Ebulliometric method (Recirculating still)
Mole fraction of 1-ethyl-3-methylimidazolium trifluoromethanesulfonate	Solvent: Mole fraction of chloroform	Boiling temperature at pressure P, K	uncertainty
.0563	0	339.19	
.0579	.033	337.65	
.0569	.07	336.01	
.0557	.112	334.38	
.054	.168	332.55	
.0544	.229	330.96	
.0551	.295	329.57	
.0554	.367	328.43	
.0563	.439	327.72	
.0563	.502	327.28	
.0569	.576	327.03	
.0573	.65	327	
.0573	.719	327.22	
.0582	.797	327.78	
.0591	.872	328.78	
.0576	.919	330.14	
.058	.962	331.91	
.0583	1	334.01	
.1126	0	340.9	
.1168	.031	339.51	
.1215	.068	338.08	
.1098	.107	336.25	
.1106	.161	334.55	
.1116	.218	333.01	
.1127	.284	331.49	
.1139	.362	330.1	
.1148	.438	329.12	
.1153	.507	328.55	
.117	.58	328.2	
.1175	.652	328.11	
.1178	.734	328.32	
.1185	.809	328.96	
.1184	.876	329.93	
.1203	.932	331.41	
.1187	.972	332.76	
.1195	1	334	
.2228	0	345.19	
.2231	.027	343.57	
.2223	.06	342.26	
.2248	.095	341.19	
.2255	.143	339.75	
.2283	.195	338.38	
.2315	.253	337.07	
.2332	.315	335.81	
.2347	.383	334.56	
.2356	.46	333.48	
.2369	.543	332.62	
.2393	.632	332.02	
.2413	.722	331.76	
.2421	.809	331.85	
.2452	.906	332.35	
.2428	.961	332.98	
.2392	.986	333.51	
.232	1	333.99	
.3345	0	350.95	
.3322	.028	349.22	
.3343	.06	348.18	
.3347	.093	347.22	
.3341	.136	345.8	
.3363	.186	344.65	
.3415	.243	343.48	
.3433	.308	342.31	
.3489	.384	341.23	
.3514	.464	340.09	
.3565	.553	339.25	
.3582	.645	338.44	
.3573	.725	337.92	
.3588	.813	337.57	
.3603	.883	337.58	
.3606	.94	337.58	
.3561	.975	337.48	
.352	1	337.48	

System: methanol + chloroform + 1-ethyl-3-methylimidazolium trifluoromethanesulfonate; phases: Liquid, Gas
Property: Mole fraction of chloroform (Liquid); method: Chromatography
Property: Mole fraction of chloroform (Gas); method: Chromatography
Property: Mole fraction of methanol (Gas); method: Chromatography
Temperature, K	Pressure, kPa	Mole fraction of methanol	Mole fraction of chloroform	uncertainty	Mole fraction of chloroform	uncertainty	Mole fraction of methanol	uncertainty
293.15	100	0	.8052	.001	.9981	.001	0	.001
293.15	100	.0112	.8038	.001	.9943	.001	.0035	.001
293.15	100	.017	.8021	.001	.9921	.001	.0056	.001
293.15	100	.0291	.8018	.001	.9909	.001	.0066	.001
293.15	100	.0344	.7981	.001	.9893	.001	.008	.001
293.15	100	.0451	.7972	.001	.9868	.001	.0103	.001
293.15	100	.052	.7963	.001	.9847	.001	.0121	.001
293.15	100	.0642	.7953	.001	.9805	.001	.0158	.001
293.15	100	.068	.7937	.001	.9774	.001	.0184	.001
293.15	100	.0769	.7967	.001	.9742	.001	.021	.001
293.15	100	.0839	.7971	.001	.9706	.001	.0238	.001
293.15	100	.0889	.799	.001	.9648	.001	.0284	.001
293.15	100	.0905	.803	.001	.9607	.001	.0313	.001
293.15	100	.0951	.8206	.001	.946	.001	.0406	.001
293.15	100	.0957	.8099	.001	.9542	.001	.0354	.001
313.15	100	0	.7868	.001	.9982	.001	0	.001
313.15	100	.0154	.7815	.001	.9951	.001	.0029	.001
313.15	100	.021	.7799	.001	.9909	.001	.007	.001
313.15	100	.0271	.779	.001	.9906	.001	.0072	.001
313.15	100	.037	.7754	.001	.9875	.001	.0101	.001
313.15	100	.0439	.7757	.001	.9843	.001	.0131	.001
313.15	100	.0523	.7742	.001	.9816	.001	.0156	.001
313.15	100	.058	.7724	.001	.9791	.001	.0178	.001
313.15	100	.07	.7692	.001	.9751	.001	.0214	.001
313.15	100	.0732	.7698	.001	.9715	.001	.0244	.001
313.15	100	.0869	.7698	.001	.9645	.001	.0302	.001
313.15	100	.0955	.7742	.001	.9587	.001	.0343	.001
313.15	100	.1011	.7773	.001	.9544	.001	.0379	.001
313.15	100	.1049	.7825	.001	.9474	.001	.0429	.001
313.15	100	.1099	.795	.001	.9318	.001	.0535	.001
