Measured thermophysical data. Densities and Viscosities of Propane-1,2,3-triol + Ethane-1,2-diol at T = (298.15 to 338.15) K
Source: J. Chem. Eng. Data, 2010, 10.1021/je900938b
Compound 1: 1,2,3-propanetriol, C3H8O3
Compound 2: ethylene glycol, C2H6O2

System: 1,2,3-propanetriol; phases: Liquid
Property: Mass density, kg/m3 (Liquid); method: Pycnometric method
Temperature, K	Pressure, kPa	Mass density, kg/m3	uncertainty
298.15	101.325	1257.8	12.578
303.15	101.325	1254.7	12.547
308.15	101.325	1252.2	12.522
313.15	101.325	1249.4	12.494
318.15	101.325	1245.8	12.458
323.15	101.325	1242.3	12.423
328.15	101.325	1239.3	12.393
333.15	101.325	1236.1	12.361
338.15	101.325	1232.8	12.328

System: 1,2,3-propanetriol; phases: Liquid
Property: Viscosity, Pa*s (Liquid); method: Concentric cylinders viscometry
Temperature, K	Pressure, kPa	Viscosity, Pa*s	uncertainty
298.15	101.325	.9438	.009438
303.15	101.325	.6289	.006289
308.15	101.325	.4319	.004319
313.15	101.325	.2959	.002959
318.15	101.325	.1858	.001858
323.15	101.325	.1512	.001512
328.15	101.325	.1084	.001084
333.15	101.325	.0848	.000848
338.15	101.325	.0622	.000622

System: ethylene glycol; phases: Liquid
Property: Mass density, kg/m3 (Liquid); method: Pycnometric method
Temperature, K	Pressure, kPa	Mass density, kg/m3	uncertainty
298.15	101.325	1110.1	11.101
303.15	101.325	1107.1	11.071
308.15	101.325	1103.5	11.035
313.15	101.325	1100.3	11.003
318.15	101.325	1096.5	10.965
323.15	101.325	1093.5	10.935
328.15	101.325	1089.2	10.892
333.15	101.325	1085.6	10.856
338.15	101.325	1082.1	10.821

System: ethylene glycol; phases: Liquid
Property: Viscosity, Pa*s (Liquid); method: Concentric cylinders viscometry
Temperature, K	Pressure, kPa	Viscosity, Pa*s	uncertainty
298.15	101.325	.0174	.000174
303.15	101.325	.0138	.000138
308.15	101.325	.0115	.000115
313.15	101.325	.00942	.0000942
318.15	101.325	.0081	.000081
323.15	101.325	.00695	.0000695
328.15	101.325	.00596	.0000596
333.15	101.325	.00522	.0000522
338.15	101.325	.00453	.0000453

System: 1,2,3-propanetriol + ethylene glycol; phases: Liquid
Fixed: Pressure, kPa = 101
Property: Mass density, kg/m3 (Liquid); method: Pycnometric method
Temperature, K	Mole fraction of 1,2,3-propanetriol	Mass density, kg/m3	uncertainty
298.15	0	1110.1	11.101
298.15	.1001	1129.2	11.292
298.15	.2002	1147.2	11.472
298.15	.3001	1164	11.64
298.15	.4002	1180.2	11.802
298.15	.4991	1195	11.95
298.15	.6011	1209.4	12.094
298.15	.7015	1222.6	12.226
298.15	.7981	1234.5	12.345
298.15	.8961	1246.1	12.461
298.15	1	1257.8	12.578
303.15	0	1107.1	11.071
303.15	.1001	1126.3	11.263
303.15	.2002	1144.4	11.444
303.15	.3001	1161.2	11.612
303.15	.4002	1177.3	11.773
303.15	.4991	1192.2	11.922
303.15	.6011	1206.7	12.067
303.15	.7015	1219.7	12.197
303.15	.7981	1231.5	12.315
303.15	.8961	1243.2	12.432
303.15	1	1254.7	12.547
308.15	0	1103.5	11.035
308.15	.1001	1122.9	11.229
308.15	.2002	1141.2	11.412
308.15	.3001	1158.2	11.582
308.15	.4002	1174.5	11.745
308.15	.4991	1189.5	11.895
308.15	.6011	1204	12.04
308.15	.7015	1217	12.17
308.15	.7981	1229.1	12.291
308.15	.8961	1240.7	12.407
308.15	1	1252.2	12.522
313.15	0	1100.3	11.003
313.15	.1001	1119.9	11.199
313.15	.2002	1138.2	11.382
313.15	.3001	1155.2	11.552
313.15	.4002	1171.6	11.716
313.15	.4991	1186.7	11.867
313.15	.6011	1201.3	12.013
313.15	.7015	1214.3	12.143
313.15	.7981	1226.5	12.265
313.15	.8961	1238	12.38
313.15	1	1249.4	12.494
318.15	0	1096.5	10.965
318.15	.1001	1116.3	11.163
318.15	.2002	1134.7	11.347
318.15	.3001	1151.8	11.518
318.15	.4002	1168.2	11.682
318.15	.4991	1183.3	11.833
318.15	.6011	1197.8	11.978
318.15	.7015	1210.9	12.109
318.15	.7981	1223.1	12.231
318.15	.8961	1234.7	12.347
318.15	1	1245.8	12.458
323.15	0	1093.5	10.935
323.15	.1001	1113.4	11.134
323.15	.2002	1131.8	11.318
323.15	.3001	1148.7	11.487
323.15	.4002	1165.2	11.652
323.15	.4991	1180.1	11.801
323.15	.6011	1194.6	11.946
323.15	.7015	1207.9	12.079
323.15	.7981	1219.9	12.199
323.15	.8961	1231.2	12.312
323.15	1	1242.3	12.423
328.15	0	1089.2	10.892
328.15	.1001	1109.4	11.094
328.15	.2002	1128	11.28
328.15	.3001	1145.1	11.451
328.15	.4002	1161.7	11.617
328.15	.4991	1176.7	11.767
328.15	.6011	1191.4	11.914
328.15	.7015	1204.7	12.047
328.15	.7981	1216.9	12.169
328.15	.8961	1228.3	12.283
328.15	1	1239.3	12.393
333.15	0	1085.6	10.856
333.15	.1001	1106	11.06
333.15	.2002	1124.6	11.246
333.15	.3001	1141.8	11.418
333.15	.4002	1158.4	11.584
333.15	.4991	1173.5	11.735
333.15	.6011	1188.2	11.882
333.15	.7015	1201.5	12.015
333.15	.7981	1213.8	12.138
333.15	.8961	1225.3	12.253
333.15	1	1236.1	12.361
338.15	0	1082.1	10.821
338.15	.1001	1102.8	11.028
338.15	.2002	1121.4	11.214
338.15	.3001	1138.6	11.386
338.15	.4002	1155.1	11.551
338.15	.4991	1170.2	11.702
338.15	.6011	1185	11.85
338.15	.7015	1198.3	11.983
338.15	.7981	1210.6	12.106
338.15	.8961	1222.2	12.222
338.15	1	1232.8	12.328

System: 1,2,3-propanetriol + ethylene glycol; phases: Liquid
Fixed: Pressure, kPa = 101
Property: Viscosity, Pa*s (Liquid); method: Concentric cylinders viscometry
Temperature, K	Mole fraction of 1,2,3-propanetriol	Viscosity, Pa*s	uncertainty
298.15	0	.0174	.000174
298.15	.1001	.0251	.000251
298.15	.2002	.0374	.000374
298.15	.3001	.055	.00055
298.15	.4002	.0828	.000828
298.15	.4991	.1214	.001214
298.15	.6011	.1842	.001842
298.15	.7015	.2729	.002729
298.15	.7981	.4059	.004059
298.15	.8961	.6118	.006118
298.15	1	.9438	.009438
303.15	0	.0138	.000138
303.15	.1001	.0207	.000207
303.15	.2002	.0303	.000303
303.15	.3001	.0431	.000431
303.15	.4002	.0642	.000642
303.15	.4991	.0914	.000914
303.15	.6011	.134	.00134
303.15	.7015	.195	.00195
303.15	.7981	.2859	.002859
303.15	.8961	.4227	.004227
303.15	1	.6289	.006289
308.15	0	.0115	.000115
308.15	.1001	.017	.00017
308.15	.2002	.0241	.000241
308.15	.3001	.0339	.000339
308.15	.4002	.0485	.000485
308.15	.4991	.0694	.000694
308.15	.6011	.1002	.001002
308.15	.7015	.1424	.001424
308.15	.7981	.2062	.002062
308.15	.8961	.2999	.002999
308.15	1	.4319	.004319
313.15	0	.00942	.0000942
313.15	.1001	.014	.00014
313.15	.2002	.0196	.000196
313.15	.3001	.027	.00027
313.15	.4002	.0382	.000382
313.15	.4991	.0526	.000526
313.15	.6011	.0752	.000752
313.15	.7015	.107	.00107
313.15	.7981	.1452	.001452
313.15	.8961	.2046	.002046
313.15	1	.2959	.002959
318.15	0	.0081	.000081
318.15	.1001	.0117	.000117
318.15	.2002	.0161	.000161
318.15	.3001	.0217	.000217
318.15	.4002	.0306	.000306
318.15	.4991	.0411	.000411
318.15	.6011	.0573	.000573
318.15	.7015	.081	.00081
318.15	.7981	.1082	.001082
318.15	.8961	.1484	.001484
318.15	1	.1858	.001858
323.15	0	.00695	.0000695
323.15	.1001	.00965	.0000965
323.15	.2002	.0131	.000131
323.15	.3001	.0179	.000179
323.15	.4002	.0244	.000244
323.15	.4991	.0336	.000336
323.15	.6011	.0453	.000453
323.15	.7015	.062	.00062
323.15	.7981	.0824	.000824
323.15	.8961	.111	.00111
323.15	1	.1512	.001512
328.15	0	.00596	.0000596
328.15	.1001	.00831	.0000831
328.15	.2002	.011	.00011
328.15	.3001	.0146	.000146
328.15	.4002	.0201	.000201
328.15	.4991	.0265	.000265
328.15	.6011	.036	.00036
328.15	.7015	.0481	.000481
328.15	.7981	.0644	.000644
328.15	.8961	.0846	.000846
328.15	1	.1084	.001084
333.15	0	.00522	.0000522
333.15	.1001	.00706	.0000706
333.15	.2002	.00917	.0000917
333.15	.3001	.0124	.000124
333.15	.4002	.0164	.000164
333.15	.4991	.0215	.000215
333.15	.6011	.0284	.000284
333.15	.7015	.0376	.000376
333.15	.7981	.0494	.000494
333.15	.8961	.0662	.000662
333.15	1	.0848	.000848
338.15	0	.00453	.0000453
338.15	.1001	.0061	.000061
338.15	.2002	.00781	.0000781
338.15	.3001	.0105	.000105
338.15	.4002	.0138	.000138
338.15	.4991	.0181	.000181
338.15	.6011	.0235	.000235
338.15	.7015	.0307	.000307
338.15	.7981	.0395	.000395
338.15	.8961	.0509	.000509
338.15	1	.0622	.000622
