Measured thermophysical data. Phase Equilibrium System of Cadmium Chloride + dl-Alanine + Water at 298.15 K and Standard Molar Enthalpy of Formation of Cd3(Ala)2Cl6*4H2O
Source: J. Chem. Eng. Data, 2010, 10.1021/je900845g
Compound 1: cadmium chloride, CdCl2, purity 99.6%
Compound 2: DL-alanine, C3H7NO2, purity 99.8%
Compound 3: water, H2O

System: DL-alanine + water + cadmium chloride; phases: Liquid, Crystal of intercomponent compound 1
Fixed: Temperature, K = 298.15
Fixed: Pressure, kPa = 101
Property: Mass fraction of cadmium chloride (Liquid); method: Titration method
Mass fraction of DL-alanine	Mass fraction of cadmium chloride	uncertainty
0	.556	
.0187	.5549	
.0271	.5547	
.0292	.5501	

System: DL-alanine + water + cadmium chloride; phases: Liquid, Crystal of intercomponent compound 2
Fixed: Temperature, K = 298.15
Fixed: Pressure, kPa = 101
Property: Mass fraction of cadmium chloride (Liquid); method: Titration method
Mass fraction of DL-alanine	Mass fraction of cadmium chloride	uncertainty
.0322	.4969	
.0441	.4486	
.0481	.4134	
.0744	.3637	
.1063	.3223	
.1206	.3094	
.1494	.3063	
.1898	.2903	

System: DL-alanine + water + cadmium chloride; phases: Liquid, Crystal
Fixed: Temperature, K = 298.15
Fixed: Pressure, kPa = 101
Property: Mass fraction of cadmium chloride (Liquid); method: Titration method
Mass fraction of DL-alanine	Mass fraction of cadmium chloride	uncertainty
.2075	.2761	
.1955	.2069	
.1799	.1339	
.1661	.0664	
.143	0	

System: DL-alanine + water + cadmium chloride; phases: Liquid, Crystal of intercomponent compound 2, Crystal of intercomponent compound 1
Fixed: Pressure, kPa = 101
Property: Mass fraction of cadmium chloride (Liquid); method: Titration method
Temperature, K	Mass fraction of cadmium chloride	uncertainty
298.15	.55	

System: DL-alanine + water + cadmium chloride; phases: Liquid, Crystal of intercomponent compound 2, Crystal of intercomponent compound 1
Fixed: Pressure, kPa = 101
Property: Mass fraction of DL-alanine (Liquid); method: Titration method
Temperature, K	Mass fraction of DL-alanine	uncertainty
298.15	.0303	

System: DL-alanine + water + cadmium chloride; phases: Liquid, Crystal, Crystal of intercomponent compound 2
Fixed: Pressure, kPa = 101
Property: Mass fraction of cadmium chloride (Liquid); method: Titration method
Temperature, K	Mass fraction of cadmium chloride	uncertainty
298.15	.2883	
298.15	.2846	

System: DL-alanine + water + cadmium chloride; phases: Liquid, Crystal, Crystal of intercomponent compound 2
Fixed: Pressure, kPa = 101
Property: Mass fraction of DL-alanine (Liquid); method: Titration method
Temperature, K	Mass fraction of DL-alanine	uncertainty
298.15	.2063	
298.15	.2074	
