Measured thermophysical data. Experimental Measurement of Vapor Pressures and Densities of Pure Hexafluoropropylene
Source: J. Chem. Eng. Data, 2010, 10.1021/je900596d
Compound 1: hexafluoropropene, C3F6, purity 99.99%

System: hexafluoropropene; phases: Liquid, Gas
Property: Vapor or sublimation pressure, kPa (Liquid); method: Closed cell (Static) method
Temperature, K	Vapor or sublimation pressure, kPa	uncertainty
253.26	149.7	.5
258.26	184.1	.5
263.16	224.5	.5
268.24	272	.5
273.24	326.8	.5
278.21	389	.5
278.22	388.6	.5
283.23	459	.5
288.21	537.1	.5
293.19	625.9	.5
298.22	728.3	.5
303.22	839.7	.5
308.21	963.4	.5
313.21	1099.9	.5
318.22	1250.6	.5
323.2	1413.5	.5
328.21	1595.1	.5
333.21	1791.4	.5
338.18	2007.9	.5
343.21	2243.8	.5
348.22	2500.5	.5
353.23	2782.3	.5
355.24	2903	.5
356.24	2965.3	.5
356.76	2998.5	.5
357.06	3017.5	.5
357.27	3031	.5
357.47	3044.2	.5
357.56	3050.4	.5
358.26	3095.1	.5
358.76	3128.1	.5

System: hexafluoropropene; phases: Fluid (supercritical or subcritical phases)
Property: Mass density, kg/m3 (Fluid (supercritical or subcritical phases)); method: Vibrating tube method
Temperature, K	Pressure, kPa	Mass density, kg/m3	uncertainty
263.41	.9	.03	.000015
263.41	1.4	.09	.000045
263.41	1.9	.11	.000055
263.41	2.4	.12	.00006
263.41	2.9	.15	.000075
263.41	3.5	.21	.000105
263.41	4.3	.25	.000125
263.41	5	.26	.00013
263.41	5.7	.35	.000175
263.41	6.3	.39	.000195
263.41	7.1	.47	.000235
263.41	7.8	.48	.00024
263.41	8.5	.55	.000275
263.41	9.3	.61	.000305
263.41	10	.66	.00033
263.41	10.7	.71	.000355
263.41	11.4	.79	.000395
263.41	12.1	.8	.0004
263.41	12.9	.87	.000435
263.41	13.6	.9	.00045
263.41	14.4	.96	.00048
263.41	15	1	.0005
263.41	15.8	1.02	.00051
263.41	16.5	1.08	.00054
263.41	17.1	1.17	.000585
263.41	17.9	1.18	.00059
263.41	18.6	1.25	.000625
263.41	20	1.33	.000665
263.41	21.5	1.4	.0007
263.41	22.9	1.53	.000765
263.41	24.3	1.63	.000815
263.41	25.8	1.75	.000875
263.41	27.2	1.83	.000915
263.41	28.6	1.89	.000945
263.41	30	2.05	.001025
263.41	31.4	2.13	.001065
263.41	32.8	2.25	.001125
263.41	34.2	2.33	.001165
263.41	35.5	2.43	.001215
263.41	36.3	2.5	.00125
263.41	37.7	2.61	.001305
263.41	39	2.7	.00135
263.41	50.7	3.48	.00174
263.41	52.1	3.59	.001795
263.41	53.4	3.66	.00183
263.41	54.7	3.8	.0019
263.41	56.1	3.85	.001925
263.41	57.5	3.97	.001985
263.41	58.8	4.06	.00203
263.41	60.1	4.18	.00209
263.41	61.4	4.28	.00214
263.41	62.8	4.33	.002165
263.41	64	4.44	.00222
263.41	65.4	4.56	.00228
263.41	66.7	4.62	.00231
263.41	68	4.73	.002365
263.41	69.3	4.82	.00241
263.41	70.5	4.89	.002445
263.41	71.3	4.97	.002485
263.41	72.5	5.04	.00252
263.41	73.9	5.17	.002585
263.41	75.2	5.2	.0026
263.41	76.4	5.28	.00264
263.41	77.7	5.44	.00272
263.41	79	5.49	.002745
263.41	80.3	5.61	.002805
263.41	81.6	5.72	.00286
263.41	82.7	5.81	.002905
263.41	83.5	5.85	.002925
263.41	84.7	5.95	.002975
263.41	86	6	.003
263.41	87.2	6.11	.003055
263.41	88.4	6.26	.00313
263.41	89.8	6.31	.003155
263.41	91	6.41	.003205
263.41	92.3	6.52	.00326
263.41	93.5	6.56	.00328
263.41	94.6	6.62	.00331
263.41	96	6.75	.003375
263.41	97.3	6.84	.00342
263.41	98.5	6.94	.00347
263.41	99.7	7.02	.00351
263.41	100.4	7.07	.003535
263.41	101.6	7.14	.00357
263.41	114.2	8.06	.00403
263.41	115.5	8.22	.00411
263.41	116.7	8.3	.00415
263.41	117.9	8.33	.004165
263.41	119.6	8.49	.004245
263.41	120.8	8.59	.004295
263.41	122	8.7	.00435
263.41	123.2	8.78	.00439
263.41	124.4	8.88	.00444
263.41	126	8.99	.004495
263.41	127.2	9.05	.004525
263.41	128.4	9.16	.00458
263.41	130.2	9.28	.00464
263.41	131.8	9.44	.00472
263.41	133	9.5	.00475
263.41	134.7	9.61	.004805
263.41	136.4	9.79	.004895
263.41	138.1	9.87	.004935
263.41	139.8	10.02	.00501
263.41	141.5	10.14	.00507
263.41	143.2	10.31	.005155
263.41	144.8	10.44	.00522
263.41	146.5	10.54	.00527
263.41	148.1	10.66	.00533
263.41	149.8	10.8	.0054
263.41	151.4	10.89	.005445
263.41	153	11.03	.005515
263.41	154.7	11.17	.005585
263.41	156.3	11.29	.005645
263.41	157.9	11.41	.005705
263.41	159.6	11.53	.005765
263.41	161.2	11.7	.00585
263.41	162.7	11.79	.005895
263.41	164.3	11.92	.00596
263.41	165.5	12.02	.00601
263.41	167	12.14	.00607
263.41	168.6	12.22	.00611
263.41	170.1	12.35	.006175
263.41	171.8	12.46	.00623
263.41	173.2	12.64	.00632
263.41	174.8	12.73	.006365
263.41	176.4	12.82	.00641
263.41	189.9	13.87	.006935
263.41	191.3	14.01	.007005
263.41	192.8	14.11	.007055
263.41	194.2	14.27	.007135
263.41	195.7	14.37	.007185
263.41	197.1	14.48	.00724
263.41	198.5	14.63	.007315
263.41	199.9	14.76	.00738
263.41	201.3	14.81	.007405
263.41	202.7	14.96	.00748
263.41	204.1	15.01	.007505
263.41	205.5	15.14	.00757
263.41	206.9	15.26	.00763
263.41	208.3	15.38	.00769
263.41	209.6	15.49	.007745
263.41	211	15.6	.0078
263.41	212.3	15.71	.007855
263.41	213.6	15.8	.0079
263.41	214.9	15.93	.007965
263.41	216.3	16.03	.008015
263.41	217.6	16.16	.00808
263.41	218.8	16.24	.00812
263.41	220.2	16.31	.008155
263.41	220.6	16.37	.008185
263.41	221.1	16.43	.008215
263.41	221.5	16.47	.008235
263.41	222	16.48	.00824
263.41	222.4	16.53	.008265
263.41	223.2	16.59	.008295
263.41	223.6	16.63	.008315
263.41	224	16.66	.00833
263.41	224.4	16.7	.00835
263.41	225.4	16.76	.00838
263.41	226.2	16.85	.008425
263.41	226.6	16.88	.00844
263.41	227	16.94	.00847
263.41	227.9	16.98	.00849
263.41	228.6	17.03	.008515
263.41	229	17.07	.008535
263.41	229.9	17.2	.0086
263.41	230.7	17.24	.00862
263.41	231.4	17.29	.008645
263.41	40.5	2.77	.001385
263.41	41.9	2.87	.001435
263.41	43.2	2.95	.001475
263.41	44.5	3.08	.00154
263.41	45.3	3.09	.001545
263.41	46.6	3.21	.001605
263.41	48	3.31	.001655
263.41	49.4	3.4	.0017
263.41	102.8	7.21	.003605
263.41	104.5	7.41	.003705
263.41	105.8	7.51	.003755
263.41	107	7.55	.003775
263.41	108.2	7.68	.00384
263.41	109.5	7.75	.003875
263.41	110.7	7.85	.003925
263.41	112.4	7.99	.003995
263.41	177.9	13	.0065
263.41	179.4	13.09	.006545
263.41	180.9	13.22	.00661
263.41	182.4	13.34	.00667
263.41	183.9	13.46	.00673
263.41	185.4	13.58	.00679
263.41	186.9	13.66	.00683
263.41	188.4	13.77	.006885
263.41	231.9	17.35	.008675
263.41	232.6	17.43	.008715
263.41	233	17.48	.00874
263.41	233.4	17.55	.008775
263.41	234.2	17.65	.008825
263.41	234.9	17.92	.00896
263.41	235.5	18.45	.009225
263.41	236	19	.0095
283.24	3.6	.14	.00007
283.24	4	.18	.00009
283.24	4.5	.18	.00009
283.24	5.1	.27	.000135
283.24	6	.3	.00015
283.24	7.2	.31	.000155
283.24	8.2	.4	.0002
283.24	9.1	.47	.000235
283.24	9.8	.52	.00026
283.24	10.8	.56	.00028
283.24	11.8	.65	.000325
283.24	12.6	.7	.00035
283.24	13.4	.85	.000425
283.24	14.4	.85	.000425
283.24	15.2	.87	.000435
283.24	16	.88	.00044
283.24	17	.98	.00049
283.24	18.1	1.01	.000505
283.24	19.2	1.12	.00056
283.24	20.3	1.19	.000595
283.24	21.5	1.25	.000625
283.24	22.7	1.31	.000655
283.24	23.9	1.47	.000735
283.24	69.3	4.38	.00219
283.24	72.2	4.52	.00226
283.24	75.2	4.75	.002375
283.24	78.1	4.95	.002475
283.24	81.2	5.2	.0026
283.24	84.2	5.34	.00267
283.24	87.2	5.58	.00279
283.24	90.3	5.77	.002885
283.24	93.4	6	.003
283.24	96.5	6.19	.003095
283.24	99.6	6.44	.00322
283.24	102	6.55	.003275
283.24	104.4	6.69	.003345
283.24	106.7	6.88	.00344
283.24	109.2	7.05	.003525
283.24	111.6	7.23	.003615
283.24	114	7.35	.003675
283.24	116.4	7.51	.003755
283.24	118.8	7.66	.00383
283.24	121.1	7.8	.0039
283.24	123.6	8.03	.004015
283.24	126.1	8.11	.004055
283.24	128.5	8.33	.004165
283.24	203.3	13.55	.006775
283.24	205.8	13.69	.006845
283.24	208.3	13.93	.006965
283.24	210.8	14.08	.00704
283.24	213.3	14.3	.00715
283.24	215.8	14.4	.0072
283.24	218.3	14.66	.00733
283.24	220.8	14.83	.007415
283.24	223.3	14.99	.007495
283.24	225.7	15.16	.00758
283.24	228.2	15.32	.00766
283.24	230.7	15.58	.00779
283.24	233.2	15.69	.007845
283.24	235.7	15.79	.007895
283.24	238.2	16.04	.00802
283.24	240.7	16.28	.00814
283.24	243.2	16.38	.00819
283.24	245.6	16.6	.0083
283.24	248.1	16.83	.008415
283.24	250.7	17.01	.008505
283.24	253.2	17.15	.008575
283.24	255.6	17.39	.008695
283.24	258.1	17.58	.00879
283.24	340.9	23.85	.011925
283.24	344.2	24.11	.012055
283.24	347.4	24.4	.0122
283.24	350.6	24.64	.01232
283.24	353.9	24.84	.01242
283.24	357.1	25.07	.012535
283.24	360.3	25.34	.01267
283.24	363.5	25.56	.01278
283.24	366.7	25.93	.012965
283.24	370	26.15	.013075
283.24	373.1	26.37	.013185
283.24	376.4	26.74	.01337
283.24	379.5	26.94	.01347
283.24	382.8	27.24	.01362
283.24	385.9	27.44	.01372
283.24	389.2	27.66	.01383
283.24	392.3	27.96	.01398
283.24	395.5	28.23	.014115
283.24	398.7	28.48	.01424
283.24	401.8	28.77	.014385
283.24	405	28.98	.01449
283.24	408.2	29.26	.01463
283.24	411.4	29.53	.014765
283.24	25.1	1.47	.000735
283.24	26.3	1.57	.000785
283.24	27.6	1.66	.00083
283.24	28.8	1.74	.00087
283.24	30	1.8	.0009
283.24	31.2	1.87	.000935
283.24	32.6	1.92	.00096
283.24	33.8	2.04	.00102
283.24	35.1	2.16	.00108
283.24	36.3	2.23	.001115
283.24	37.6	2.25	.001125
283.24	38.8	2.33	.001165
283.24	40.1	2.39	.001195
283.24	41.4	2.51	.001255
283.24	42.6	2.65	.001325
283.24	43.9	2.74	.00137
283.24	45.1	2.76	.00138
283.24	46.4	2.84	.00142
283.24	47.7	2.93	.001465
283.24	49	3.04	.00152
283.24	50.2	3.09	.001545
283.24	52.8	3.28	.00164
283.24	55.4	3.44	.00172
283.24	58.1	3.61	.001805
283.24	60.8	3.81	.001905
283.24	63.5	3.98	.00199
283.24	131	8.54	.00427
283.24	133.4	8.66	.00433
283.24	135.9	8.94	.00447
283.24	140.7	9.1	.00455
283.24	143.2	9.36	.00468
283.24	145.7	9.54	.00477
283.24	148.1	9.69	.004845
283.24	150.6	9.83	.004915
283.24	153	9.99	.004995
283.24	155.6	10.24	.00512
283.24	158.1	10.37	.005185
283.24	160.5	10.54	.00527
283.24	163	10.74	.00537
283.24	165.1	10.87	.005435
283.24	167.6	11.05	.005525
283.24	170	11.2	.0056
283.24	172.5	11.37	.005685
283.24	176.6	11.7	.00585
283.24	179.2	11.83	.005915
283.24	181.6	12.01	.006005
283.24	184.2	12.12	.00606
283.24	186.6	12.42	.00621
283.24	190.9	12.6	.0063
283.24	193.4	12.77	.006385
283.24	195.9	13.03	.006515
283.24	198.4	13.21	.006605
283.24	260.5	17.67	.008835
283.24	263	17.89	.008945
283.24	265.5	18.02	.00901
283.24	268	18.31	.009155
283.24	270.4	18.49	.009245
283.24	272.9	18.6	.0093
283.24	275.4	18.8	.0094
283.24	277.9	19.01	.009505
283.24	280.5	19.23	.009615
283.24	283.1	19.39	.009695
283.24	286.3	19.61	.009805
283.24	288.7	19.79	.009895
283.24	291.2	19.98	.00999
283.24	293.7	20.2	.0101
283.24	296.1	20.4	.0102
283.24	298.6	20.56	.01028
283.24	305.2	21.07	.010535
283.24	308.4	21.36	.01068
283.24	311.6	21.56	.01078
283.24	314.8	21.85	.010925
283.24	318.2	22.13	.011065
283.24	321.5	22.28	.01114
283.24	324.6	22.54	.01127
283.24	327.9	22.87	.011435
283.24	331.2	23.12	.01156
283.24	334.4	23.37	.011685
283.24	414.6	29.77	.014885
283.24	417.7	30.05	.015025
283.24	420.9	30.37	.015185
283.24	424	30.54	.01527
283.24	427.2	30.81	.015405
283.24	430.3	31.07	.015535
283.24	433.5	31.39	.015695
283.24	436.6	31.7	.01585
283.24	439.7	31.9	.01595
283.24	442.9	32.26	.01613
283.24	446	32.45	.016225
283.24	449	32.73	.016365
283.24	452.1	32.99	.016495
283.24	454.4	33.16	.01658
283.24	456.7	33.3	.01665
283.24	460.5	33.77	.016885
283.24	462.7	33.86	.01693
283.24	463.5	34.04	.01702
283.24	464.2	34.05	.017025
283.24	465	34.18	.01709
283.24	465.7	34.33	.017165
283.24	466.4	34.49	.017245
283.24	467.1	34.74	.01737
283.24	467.7	35.03	.017515
283.24	468.3	35.5	.01775
283.24	468.9	35.71	.017855
303.28	2.4	.14	.00007
303.28	4.4	.19	.000095
303.28	5.3	.25	.000125
303.28	7.7	.38	.00019
303.28	11	.59	.000295
303.28	124.2	7.43	.003715
303.28	126.7	7.66	.00383
303.28	132.1	7.96	.00398
303.28	134.8	8.17	.004085
303.28	137.3	8.36	.00418
303.28	309	19.54	.00977
303.28	313.2	19.76	.00988
303.28	317.3	20.15	.010075
303.28	321.7	20.39	.010195
303.28	325.7	20.7	.01035
303.28	597.7	41.02	.02051
303.28	605.4	41.64	.02082
303.28	610.5	42.03	.021015
303.28	615.6	42.45	.021225
303.28	625.6	43.25	.021625
303.28	12.7	.7	.00035
303.28	13.6	.71	.000355
303.28	14.5	.85	.000425
303.28	16.3	.86	.00043
303.28	17.2	.87	.000435
303.28	18.1	1.01	.000505
303.28	22.7	1.19	.000595
303.28	24.5	1.4	.0007
303.28	26.4	1.46	.00073
303.28	28.1	1.59	.000795
303.28	30	1.72	.00086
303.28	33.6	1.94	.00097
303.28	37.2	2.14	.00107
303.28	38.2	2.2	.0011
303.28	40	2.21	.001105
303.28	41.8	2.46	.00123
303.28	43.6	2.43	.001215
303.28	47.2	2.81	.001405
303.28	50.8	3.02	.00151
303.28	52.5	3.04	.00152
303.28	56	3.26	.00163
303.28	57.9	3.38	.00169
303.28	59.7	3.48	.00174
303.28	61.4	3.61	.001805
303.28	63.1	3.73	.001865
303.28	64.8	3.84	.00192
303.28	66.5	3.93	.001965
303.28	68.3	3.99	.001995
303.28	73.4	4.37	.002185
303.28	76	4.49	.002245
303.28	78.6	4.64	.00232
303.28	81.2	4.8	.0024
303.28	83.8	4.98	.00249
303.28	86.4	5.18	.00259
303.28	88.9	5.4	.0027
303.28	94.2	5.64	.00282
303.28	96.9	5.73	.002865
303.28	98.7	5.85	.002925
303.28	100.4	6.09	.003045
303.28	103.1	6.18	.00309
303.28	105.7	6.35	.003175
303.28	108.4	6.54	.00327
303.28	113.7	6.9	.00345
303.28	116.4	6.95	.003475
303.28	139.9	8.56	.00428
303.28	142.5	8.68	.00434
303.28	145.1	8.84	.00442
303.28	147.8	9.01	.004505
303.28	153	9.28	.00464
303.28	155.7	9.53	.004765
303.28	158.4	9.61	.004805
303.28	163.7	9.96	.00498
303.28	166.2	10.08	.00504
303.28	168.8	10.29	.005145
303.28	171.4	10.52	.00526
303.28	174	10.66	.00533
303.28	176.6	10.78	.00539
303.28	179.2	10.96	.00548
303.28	181.8	11.08	.00554
303.28	184.4	11.32	.00566
303.28	187	11.51	.005755
303.28	194.7	11.98	.00599
303.28	197.5	12.12	.00606
303.28	202.8	12.46	.00623
303.28	206.2	12.64	.00632
303.28	209.6	12.92	.00646
303.28	213	13.17	.006585
303.28	216.4	13.34	.00667
303.28	219.9	13.6	.0068
303.28	223.3	13.85	.006925
303.28	226.8	14.01	.007005
303.28	230.3	14.3	.00715
303.28	233.7	14.54	.00727
303.28	244.3	15.23	.007615
303.28	247.7	15.41	.007705
303.28	251.2	15.74	.00787
303.28	254.6	15.88	.00794
303.28	258.1	16.18	.00809
303.28	261.6	16.37	.008185
303.28	265.1	16.6	.0083
303.28	268.6	16.83	.008415
303.28	275.3	17.32	.00866
303.28	278.7	17.49	.008745
303.28	282.2	17.78	.00889
303.28	285.5	17.97	.008985
303.28	289	18.22	.00911
303.28	295.7	18.58	.00929
303.28	299.1	18.89	.009445
303.28	329.8	21.01	.010505
303.28	338	21.54	.01077
303.28	342	21.84	.01092
303.28	346.2	22.19	.011095
303.28	350.3	22.34	.01117
303.28	358.6	23.03	.011515
303.28	362.7	23.29	.011645
303.28	366.9	23.58	.01179
303.28	375.1	24.18	.01209
303.28	379.2	24.47	.012235
303.28	383.4	24.75	.012375
303.28	387.5	25.04	.01252
303.28	391.7	25.35	.012675
303.28	395.8	25.63	.012815
303.28	399.9	25.95	.012975
303.28	406.9	26.42	.01321
303.28	416.6	27.12	.01356
303.28	421.9	27.51	.013755
303.28	426.1	27.84	.01392
303.28	435.7	28.54	.01427
303.28	441.2	28.92	.01446
303.28	446.7	29.28	.01464
303.28	452.1	29.75	.014875
303.28	457.4	30.13	.015065
303.28	461.6	30.45	.015225
303.28	467	30.79	.015395
303.28	472.4	31.26	.01563
303.28	477.7	31.6	.0158
303.28	488.4	32.46	.01623
303.28	499	33.24	.01662
303.28	504.3	33.56	.01678
303.28	509.6	33.97	.016985
303.28	514.9	34.46	.01723
303.28	525.4	35.23	.017615
303.28	530.6	35.69	.017845
303.28	535.9	36.01	.018005
303.28	541.1	36.49	.018245
303.28	546.3	36.92	.01846
303.28	551.5	37.29	.018645
303.28	556.7	37.7	.01885
303.28	572.3	38.97	.019485
303.28	577.4	39.31	.019655
303.28	582.5	39.71	.019855
303.28	587.5	40.14	.02007
303.28	630.6	43.67	.021835
303.28	635.6	44.16	.02208
303.28	640.7	44.51	.022255
303.28	650.7	45.35	.022675
303.28	655.6	45.82	.02291
303.28	660.6	46.19	.023095
303.28	665.5	46.57	.023285
303.28	670.5	47.07	.023535
303.28	675.4	47.49	.023745
303.28	680.3	47.87	.023935
303.28	685.2	48.24	.02412
303.28	690	48.67	.024335
303.28	694.8	49.19	.024595
303.28	709.3	50.39	.025195
303.28	714.1	50.86	.02543
303.28	718.9	51.33	.025665
303.28	723.7	51.66	.02583
303.28	728.6	52.22	.02611
303.28	734.4	52.63	.026315
303.28	746.1	53.68	.02684
303.28	750.9	54.09	.027045
303.28	756.7	54.65	.027325
303.28	768.4	55.74	.02787
303.28	774.1	56.3	.02815
303.28	779.9	56.84	.02842
303.28	785.6	57.36	.02868
303.28	791.2	57.85	.028925
303.28	796.9	58.41	.029205
303.28	802.6	58.95	.029475
303.28	808.2	59.58	.02979
303.28	813.9	60.04	.03002
303.28	823.6	61.02	.03051
303.28	828.8	61.46	.03073
303.28	838	62.51	.031255
303.28	841.4	62.82	.03141
303.28	842	62.87	.031435
303.28	842.4	62.98	.03149
303.28	843.8	63.1	.03155
303.28	844.7	63.37	.031685
303.28	845.6	63.62	.03181
303.28	846.3	63.97	.031985
303.28	846.8	64.22	.03211
303.28	847.7	64.87	.032435
303.28	848.2	65.17	.032585
323.21	7	.29	.000145
323.21	10.8	.58	.00029
323.21	14.3	.86	.00043
323.21	17.7	.97	.000485
323.21	21.7	1.12	.00056
323.21	25.1	1.38	.00069
323.21	28.9	1.62	.00081
323.21	32.8	1.83	.000915
323.21	36.6	2.07	.001035
323.21	40.3	2.22	.00111
323.21	44.1	2.51	.001255
323.21	47.8	2.68	.00134
323.21	51.6	2.99	.001495
323.21	55.2	3.08	.00154
323.21	58.9	3.32	.00166
323.21	62.6	3.51	.001755
323.21	66.1	3.74	.00187
323.21	69.7	3.92	.00196
323.21	73.2	4.09	.002045
323.21	76.7	4.26	.00213
323.21	80.2	4.49	.002245
323.21	83.7	4.72	.00236
323.21	87.1	4.86	.00243
323.21	90.6	5.07	.002535
323.21	94.4	5.41	.002705
323.21	98.1	5.54	.00277
323.21	101.5	5.74	.00287
323.21	105.2	6.02	.00301
323.21	112.5	6.44	.00322
323.21	116.2	6.58	.00329
323.21	195.8	11.28	.00564
323.21	199.7	11.49	.005745
323.21	203.6	11.86	.00593
323.21	207.4	12.01	.006005
323.21	211.1	12.24	.00612
323.21	215	12.39	.006195
323.21	218.8	12.6	.0063
323.21	222.7	12.84	.00642
323.21	226.4	13.16	.00658
323.21	230.2	13.39	.006695
323.21	233.8	13.5	.00675
323.21	237.7	13.84	.00692
323.21	241.4	14.08	.00704
323.21	245.2	14.29	.007145
323.21	249	14.46	.00723
323.21	252.7	14.72	.00736
323.21	260.3	15.25	.007625
323.21	268.1	15.67	.007835
323.21	272.2	15.98	.00799
323.21	276.4	16.15	.008075
323.21	280.6	16.35	.008175
323.21	284.7	16.67	.008335
323.21	288.7	16.87	.008435
323.21	292.9	17.17	.008585
323.21	297.1	17.47	.008735
323.21	301.3	17.8	.0089
323.21	305.4	17.98	.00899
323.21	309.6	18.21	.009105
323.21	313.9	18.45	.009225
323.21	318	18.81	.009405
323.21	404.4	24.26	.01213
323.21	408.5	24.53	.012265
323.21	412.5	24.78	.01239
323.21	416.5	25	.0125
323.21	420.6	25.28	.01264
323.21	424.6	25.54	.01277
323.21	432.5	26.08	.01304
323.21	436.6	26.31	.013155
323.21	444.4	26.88	.01344
323.21	448.4	27.13	.013565
323.21	487.5	29.75	.014875
323.21	499	30.39	.015195
323.21	510.4	31.18	.01559
323.21	521.8	31.98	.01599
323.21	533.3	32.74	.01637
323.21	544.4	33.53	.016765
323.21	555.6	34.31	.017155
323.21	566.8	35.09	.017545
323.21	577.8	35.78	.01789
323.21	588.8	36.55	.018275
323.21	599.7	37.33	.018665
323.21	610.7	38.21	.019105
323.21	621.5	38.96	.01948
323.21	632.3	39.67	.019835
323.21	643	40.4	.0202
323.21	653.8	41.25	.020625
323.21	664.3	42.12	.02106
323.21	675	42.78	.02139
323.21	687.2	43.61	.021805
323.21	697.7	44.47	.022235
323.21	979.1	66.9	.03345
323.21	991.3	67.99	.033995
323.21	1002.7	69.01	.034505
323.21	1014.7	70.07	.035035
323.21	1026.1	71.06	.03553
323.21	1037.2	72	.036
323.21	1048.9	73.11	.036555
323.21	1059.5	74	.037
323.21	1071.8	75.2	.0376
323.21	1084.6	76.45	.038225
323.21	1096.6	77.55	.038775
323.21	1108.7	78.69	.039345
323.21	1120.7	80.05	.040025
323.21	1132.3	81.01	.040505
323.21	1143.9	82.09	.041045
323.21	1155.2	83.24	.04162
323.21	1165.7	84.23	.042115
323.21	1176.1	85.31	.042655
323.21	1188.5	86.52	.04326
323.21	1200.2	87.81	.043905
323.21	1211.6	88.92	.04446
323.21	1222.4	90.01	.045005
323.21	1232.6	91.08	.04554
323.21	1244.2	92.41	.046205
323.21	1254.9	93.54	.04677
323.21	1265.5	94.64	.04732
323.21	1276.2	95.86	.04793
323.21	1286.6	97.01	.048505
323.21	1298.7	98.44	.04922
323.21	1311.6	99.8	.0499
323.21	119.7	6.8	.0034
323.21	123.2	7	.0035
323.21	126.7	7.23	.003615
323.21	130.2	7.42	.00371
323.21	133.8	7.66	.00383
323.21	137.6	7.92	.00396
323.21	141.6	8.08	.00404
323.21	145.4	8.32	.00416
323.21	149.3	8.52	.00426
323.21	153.2	8.77	.004385
323.21	157.1	8.98	.00449
323.21	160.9	9.22	.00461
323.21	164.8	9.47	.004735
323.21	168.8	9.71	.004855
323.21	172.6	9.88	.00494
323.21	176.5	10.13	.005065
323.21	180.3	10.38	.00519
323.21	184.3	10.62	.00531
323.21	188.1	10.76	.00538
323.21	322	19	.0095
323.21	326.2	19.25	.009625
323.21	330.3	19.52	.00976
323.21	334.5	19.75	.009875
323.21	338.7	20.05	.010025
323.21	342.9	20.26	.01013
323.21	347	20.58	.01029
323.21	351.2	20.86	.01043
323.21	355.4	21.13	.010565
323.21	359.5	21.34	.01067
323.21	363.6	21.63	.010815
323.21	367.7	21.82	.01091
323.21	371.9	22.12	.01106
323.21	376	22.33	.011165
323.21	380	22.69	.011345
323.21	384.1	22.94	.01147
323.21	388.2	23.18	.01159
323.21	392.3	23.49	.011745
323.21	396.4	23.69	.011845
323.21	708.1	45.16	.02258
323.21	721.9	46.18	.02309
323.21	735.5	47.22	.02361
323.21	747.6	48.18	.02409
323.21	759.6	49.01	.024505
323.21	769.7	49.86	.02493
323.21	784.6	50.99	.025495
323.21	799.5	52.13	.026065
323.21	814.1	53.28	.02664
323.21	828.7	54.45	.027225
323.21	843.1	55.34	.02767
323.21	857.3	56.72	.02836
323.21	871.6	57.78	.02889
323.21	885.7	58.95	.029475
323.21	899.5	60.25	.030125
323.21	913.3	61.27	.030635
323.21	926.9	62.44	.03122
323.21	940.4	63.5	.03175
323.21	953.6	64.78	.03239
323.21	1324	101.35	.050675
323.21	1336	102.77	.051385
323.21	1347.5	104.06	.05203
323.21	1358.7	105.47	.052735
323.21	1369.5	106.75	.053375
323.21	1380	108.11	.054055
323.21	1392.5	109.8	.0549
323.21	1402.5	110.98	.05549
323.21	1410.5	112.1	.05605
323.21	1411.1	112.29	.056145
323.21	1411.8	112.41	.056205
323.21	1412.5	112.57	.056285
323.21	1413.3	112.79	.056395
323.21	1414.6	113.23	.056615
323.21	1415.9	113.81	.056905
323.21	1417	114.07	.057035
323.21	1417.8	114.29	.057145
323.21	1418.6	115.65	.057825
323.21	1418.8	116.26	.05813
343.26	3.2	.22	.00011
343.26	5.9	.35	.000175
343.26	8.6	.55	.000275
343.26	10.3	.63	.000315
343.26	12.1	.73	.000365
343.26	14.8	.81	.000405
343.26	16.4	1	.0005
343.26	19.5	1.07	.000535
343.26	22.4	1.29	.000645
343.26	24.3	1.34	.00067
343.26	25.9	1.39	.000695
343.26	29	1.68	.00084
343.26	32	1.75	.000875
343.26	200.5	11.16	.00558
343.26	213.3	11.94	.00597
343.26	225.8	12.7	.00635
343.26	237.9	13.34	.00667
343.26	250.5	14.05	.007025
343.26	262.7	14.74	.00737
343.26	274	15.32	.00766
343.26	286	16.09	.008045
343.26	298.3	16.8	.0084
343.26	311.2	17.55	.008775
343.26	323.1	18.22	.00911
343.26	335.5	18.98	.00949
343.26	347.7	19.66	.00983
343.26	850.2	51.23	.025615
343.26	863	52.13	.026065
343.26	876.3	53.04	.02652
343.26	889.1	53.92	.02696
343.26	902.2	54.71	.027355
343.26	914.9	55.73	.027865
343.26	928.7	56.6	.0283
343.26	941.5	57.53	.028765
343.26	954	58.46	.02923
343.26	967.8	59.43	.029715
343.26	981	60.4	.0302
343.26	994.4	61.4	.0307
343.26	1008.2	62.31	.031155
343.26	1562.1	109.24	.05462
343.26	1588.6	111.94	.05597
343.26	1614.7	114.55	.057275
343.26	1641.2	117.35	.058675
343.26	1669.2	120.33	.060165
343.26	1691	122.68	.06134
343.26	1719.3	125.81	.062905
343.26	1745.8	128.82	.06441
343.26	1773.3	132.05	.066025
343.26	1800.9	135.31	.067655
343.26	1827.4	138.58	.06929
343.26	1854.7	141.97	.070985
343.26	1880.9	145.46	.07273
343.26	33.6	1.83	.000915
343.26	36.6	1.97	.000985
343.26	38.2	2.07	.001035
343.26	39.9	2.11	.001055
343.26	43.2	2.31	.001155
343.26	45.9	2.54	.00127
343.26	50.6	2.72	.00136
343.26	55.4	3	.0015
343.26	59.9	3.25	.001625
343.26	63.1	3.46	.00173
343.26	66.1	3.7	.00185
343.26	70.8	3.87	.001935
343.26	72.4	3.95	.001975
343.26	74.2	4.04	.00202
343.26	77.2	4.21	.002105
343.26	80.1	4.42	.00221
343.26	81.8	4.49	.002245
343.26	83.4	4.54	.00227
343.26	86.6	4.74	.00237
343.26	89.9	4.91	.002455
343.26	94.8	5.2	.0026
343.26	97.7	5.42	.00271
343.26	104	5.73	.002865
343.26	110.1	6.1	.00305
343.26	116.3	6.4	.0032
343.26	122.7	6.8	.0034
343.26	129.3	7.14	.00357
343.26	135.5	7.51	.003755
343.26	141.7	7.92	.00396
343.26	148.2	8.27	.004135
343.26	154.4	8.6	.0043
343.26	160.9	8.89	.004445
343.26	170.1	9.39	.004695
343.26	176.8	9.8	.0049
343.26	183.2	10.15	.005075
343.26	189.6	10.49	.005245
343.26	360	20.46	.01023
343.26	372.1	21.09	.010545
343.26	384.1	21.84	.01092
343.26	396.5	22.56	.01128
343.26	408.2	23.28	.01164
343.26	420.5	24.04	.01202
343.26	431.3	24.66	.01233
343.26	443.3	25.35	.012675
343.26	455.1	26	.013
343.26	466.9	26.77	.013385
343.26	478.8	27.49	.013745
343.26	490.9	28.19	.014095
343.26	507.3	29.18	.01459
343.26	521.6	30.11	.015055
343.26	535.5	30.9	.01545
343.26	548.6	31.65	.015825
343.26	561.3	32.53	.016265
343.26	575.8	33.42	.01671
343.26	590.5	34.28	.01714
343.26	604.4	35.15	.017575
343.26	617.9	35.97	.017985
343.26	631.9	36.94	.01847
343.26	646.4	37.76	.01888
343.26	660.3	38.68	.01934
343.26	674.2	39.57	.019785
343.26	688.2	40.47	.020235
343.26	701.9	41.42	.02071
343.26	715.6	42.26	.02113
343.26	729.6	43.14	.02157
343.26	743.3	44.1	.02205
343.26	756.9	44.99	.022495
343.26	770.5	45.84	.02292
343.26	783.7	46.78	.02339
343.26	797.6	47.61	.023805
343.26	810.7	48.57	.024285
343.26	823.9	49.41	.024705
343.26	1020.2	63.29	.031645
343.26	1034.9	64.41	.032205
343.26	1046.9	65.28	.03264
343.26	1060.3	66.22	.03311
343.26	1073.4	67.25	.033625
343.26	1087.5	68.21	.034105
343.26	1100.8	69.23	.034615
343.26	1115.6	70.43	.035215
343.26	1129.3	71.49	.035745
343.26	1141.9	72.46	.03623
343.26	1155.2	73.52	.03676
343.26	1170.3	74.72	.03736
343.26	1185.3	75.94	.03797
343.26	1200.7	77.06	.03853
343.26	1215.9	78.32	.03916
343.26	1231.1	79.48	.03974
343.26	1246.2	80.8	.0404
343.26	1260.9	82.02	.04101
343.26	1275.9	83.2	.0416
343.26	1290.3	84.46	.04223
343.26	1305.2	85.7	.04285
343.26	1318.4	86.81	.043405
343.26	1332.6	88.06	.04403
343.26	1347.2	89.34	.04467
343.26	1361.6	90.6	.0453
343.26	1375.5	91.86	.04593
343.26	1389.9	93.09	.046545
343.26	1403.7	94.34	.04717
343.26	1417.7	95.63	.047815
343.26	1431.1	96.88	.04844
343.26	1445	98.11	.049055
343.26	1458.7	99.32	.04966
343.26	1471.8	100.55	.050275
343.26	1485.2	101.78	.05089
343.26	1498.3	103.12	.05156
343.26	1511.1	104.29	.052145
343.26	1908.3	149.04	.07452
343.26	1933.9	152.57	.076285
343.26	1960.3	156.37	.078185
343.26	1986.1	160.18	.08009
343.26	2014.5	164.44	.08222
343.26	2041.7	168.76	.08438
343.26	2069.4	173.21	.086605
343.26	2096.3	177.82	.08891
343.26	2121.6	182.61	.091305
343.26	2139	185.89	.092945
343.26	2156.2	189.13	.094565
343.26	2172.4	192.4	.0962
343.26	2188.6	195.87	.097935
343.26	2204.8	199.3	.09965
343.26	2221.6	203.18	.10159
343.26	2237.7	208.04	.10402
343.26	2240	209.71	.104855
343.26	2240.5	210.31	.105155
343.26	2241	210.66	.10533
343.26	2241.7	211.34	.10567
343.26	2242.3	212.06	.10603
343.26	2242.9	213.01	.106505
343.26	2243.5	214.62	.10731
343.26	2243.9	215.07	.107535
343.26	2244.6	216.87	.108435
343.26	2245.3	218.74	.10937
343.26	2245.7	219.44	.10972
343.26	2246.2	220.03	.110015
343.26	2246.7	220.73	.110365
343.26	2247.1	221.76	.11088
343.26	2247.5	223.54	.11177
343.26	2248	224.32	.11216
343.26	2248.4	225.47	.112735
343.26	2248.8	227.07	.113535
343.26	2249.3	230.72	.11536
343.26	2249.7	239.12	.11956
348.12	2.4	.05	.000025
348.12	3.1	.11	.000055
348.12	3.7	.12	.00006
348.12	4.8	.23	.000115
348.12	5.4	.18	.00009
348.12	6.4	.27	.000135
348.12	7.4	.23	.000115
348.12	8.3	.31	.000155
348.12	8.9	.35	.000175
348.12	9.9	.43	.000215
348.12	11.5	.57	.000285
348.12	15.2	.72	.00036
348.12	17	.83	.000415
348.12	18.8	.9	.00045
348.12	22.4	1.11	.000555
348.12	24.2	1.25	.000625
348.12	27.7	1.44	.00072
348.12	29.5	1.44	.00072
348.12	31.2	1.52	.00076
348.12	34.9	1.74	.00087
348.12	36.7	1.87	.000935
348.12	38.3	1.89	.000945
348.12	41	2.08	.00104
348.12	43.9	2.27	.001135
348.12	46.5	2.39	.001195
348.12	49.3	2.49	.001245
348.12	55.8	2.86	.00143
348.12	59.3	3.01	.001505
348.12	62.6	3.24	.00162
348.12	65.9	3.31	.001655
348.12	72.5	3.77	.001885
348.12	75.7	3.95	.001975
348.12	78.9	4.06	.00203
348.12	82.3	4.24	.00212
348.12	89	4.57	.002285
348.12	92.4	4.78	.00239
348.12	95.9	4.89	.002445
348.12	99.3	5.1	.00255
348.12	102.8	5.38	.00269
348.12	108.9	5.66	.00283
348.12	121.1	6.31	.003155
348.12	127.3	6.62	.00331
348.12	186.9	9.89	.004945
348.12	190.6	10.07	.005035
348.12	194.2	10.28	.00514
348.12	201.5	10.61	.005305
348.12	208.9	10.99	.005495
348.12	216.2	11.48	.00574
348.12	230.6	12.26	.00613
348.12	237.9	12.55	.006275
348.12	245.2	13.05	.006525
348.12	252.4	13.5	.00675
348.12	266.8	14.29	.007145
348.12	274	14.64	.00732
348.12	281	15	.0075
348.12	295.2	15.84	.00792
348.12	303.3	16.23	.008115
348.12	310.5	16.69	.008345
348.12	317.5	17.06	.00853
348.12	324.5	17.51	.008755
348.12	331.5	17.9	.00895
348.12	338.4	18.25	.009125
348.12	352.2	19.05	.009525
348.12	359.1	19.45	.009725
348.12	366	19.85	.009925
348.12	379.7	20.59	.010295
348.12	386.5	20.98	.01049
348.12	393.2	21.4	.0107
348.12	399.9	21.73	.010865
348.12	413.4	22.49	.011245
348.12	420.1	22.92	.01146
348.12	426.9	23.28	.01164
348.12	433.5	23.69	.011845
348.12	443.2	24.38	.01219
348.12	470.9	25.92	.01296
348.12	484.7	26.77	.013385
348.12	498.3	27.51	.013755
348.12	515	28.53	.014265
348.12	528	29.29	.014645
348.12	541	30.15	.015075
348.12	566.4	31.68	.01584
348.12	579.2	32.43	.016215
348.12	591.2	33.18	.01659
348.12	603.3	33.86	.01693
348.12	765.5	44.05	.022025
348.12	794.2	45.95	.022975
348.12	808	46.91	.023455
348.12	827.5	48.2	.0241
348.12	844.7	49.34	.02467
348.12	863.4	50.7	.02535
348.12	890.4	52.34	.02617
348.12	902.7	53.25	.026625
348.12	915.6	54.2	.0271
348.12	928.7	55.05	.027525
348.12	945.4	56.14	.02807
348.12	972.6	58.01	.029005
348.12	985.8	58.92	.02946
348.12	1005.6	60.36	.03018
348.12	1023.4	61.55	.030775
348.12	1040.8	62.84	.03142
348.12	1057.8	64.05	.032025
348.12	1074	65.2	.0326
348.12	1089.6	66.39	.033195
348.12	1108	67.73	.033865
348.12	1138.6	69.96	.03498
348.12	1150.7	70.83	.035415
348.12	1168.1	72.19	.036095
348.12	1184.8	73.38	.03669
348.12	1201.8	74.83	.037415
348.12	1219.5	76.17	.038085
348.12	1231.5	77.05	.038525
348.12	1248.8	78.38	.03919
348.12	1265.1	79.72	.03986
348.12	1280.3	80.92	.04046
348.12	1297.6	82.21	.041105
348.12	1313.7	83.6	.0418
348.12	1330.4	84.96	.04248
348.12	1346.3	86.2	.0431
348.12	1362.7	87.68	.04384
348.12	1378.7	88.93	.044465
348.12	1395.3	90.32	.04516
348.12	1410.5	91.58	.04579
348.12	1426.3	92.94	.04647
348.12	1442.6	94.4	.0472
348.12	1460.3	95.93	.047965
348.12	1473.3	97.06	.04853
348.12	1683.8	116.62	.05831
348.12	1708.4	119.29	.059645
348.12	1732.6	121.75	.060875
348.12	1756.5	124.29	.062145
348.12	1780.6	126.81	.063405
348.12	1804.3	129.36	.06468
348.12	1829.7	132.19	.066095
348.12	1851.6	134.57	.067285
348.12	1872.9	137.09	.068545
348.12	1894.9	139.69	.069845
348.12	1917.6	142.36	.07118
348.12	1939.9	144.88	.07244
348.12	1967.9	148.35	.074175
348.12	1992.7	151.5	.07575
348.12	2016.1	154.47	.077235
348.12	2044.1	158.31	.079155
348.12	2068.5	161.51	.080755
348.12	2096.5	165.49	.082745
348.12	2143.5	172.38	.08619
348.12	2192.1	180.05	.090025
348.12	2212.1	183.28	.09164
348.12	2238.5	187.82	.09391
348.12	2266	192.69	.096345
348.12	2288.1	196.82	.09841
348.12	2310.2	201.01	.100505
348.12	2332.6	205.6	.1028
348.12	2354	210.08	.10504
348.12	2375.5	214.74	.10737
348.12	2397.3	219.85	.109925
348.12	2419.9	225.48	.11274
348.12	2442.3	231.34	.11567
348.12	2470.6	239.59	.119795
348.12	2472.8	240.22	.12011
348.12	2475.3	241.04	.12052
348.12	2478	241.76	.12088
348.12	2479.4	242.23	.121115
348.12	2481.5	242.88	.12144
348.12	2484.1	243.75	.121875
348.12	2485.5	244.17	.122085
348.12	2487.8	244.94	.12247
348.12	2490.1	245.8	.1229
348.12	2493.8	247.53	.123765
348.12	139.4	7.29	.003645
348.12	145.5	7.59	.003795
348.12	151.6	7.92	.00396
348.12	157.7	8.3	.00415
348.12	168.6	8.79	.004395
348.12	172.3	9.11	.004555
348.12	176	9.23	.004615
348.12	638.4	36.05	.018025
348.12	655.4	37.08	.01854
348.12	672.1	38.15	.019075
348.12	688.5	39.21	.019605
348.12	704.5	40.22	.02011
348.12	720.3	41.24	.02062
348.12	735.8	42.16	.02108
348.12	1487.3	98.32	.04916
348.12	1511.6	100.57	.050285
348.12	1540.1	103.11	.051555
348.12	1566	105.5	.05275
348.12	1592.2	107.78	.05389
348.12	1616.1	110.1	.05505
348.12	1639.3	112.32	.05616
348.12	2495.7	248.38	.12419
348.12	2497.4	248.67	.124335
348.12	2498.8	250.42	.12521
348.12	2499.7	251.97	.125985
348.12	2500.9	254.86	.12743
348.12	2501.9	260.28	.13014
348.12	2502.8	268.19	.134095
353.12	.8	.029	.0000145
353.12	6.6	.343	.0001715
353.12	8.7	.497	.0002485
353.12	11.7	.619	.0003095
353.12	14.3	.737	.0003685
353.12	16.6	.793	.0003965
353.12	24.1	1.232	.000616
353.12	26.7	1.395	.0006975
353.12	28.8	1.442	.000721
353.12	32.7	1.694	.000847
353.12	35.6	1.827	.0009135
353.12	38.2	1.904	.000952
353.12	101.9	5.291	.0026455
353.12	111.4	5.735	.0028675
353.12	120.9	6.245	.0031225
353.12	129.7	6.695	.0033475
353.12	140.7	7.318	.003659
353.12	151.2	7.845	.0039225
353.12	160.5	8.339	.0041695
353.12	169.9	8.914	.004457
353.12	180.3	9.389	.0046945
353.12	189.6	9.904	.004952
353.12	199	10.374	.005187
353.12	209.3	11.01	.005505
353.12	220.4	11.538	.005769
353.12	230.8	12.133	.0060665
353.12	242.1	12.723	.0063615
353.12	251.4	13.222	.006611
353.12	475.9	25.82	.01291
353.12	485.6	26.38	.01319
353.12	485.6	26.38	.01319
353.12	494.8	26.85	.013425
353.12	499.7	27.22	.01361
353.12	504.9	27.48	.01374
353.12	509.8	27.78	.01389
353.12	514.2	28	.014
353.12	524.1	28.5	.01425
353.12	524.1	28.5	.01425
353.12	533.5	29.18	.01459
353.12	538.4	29.45	.014725
353.12	545.1	30	.015
353.12	567	31.29	.015645
353.12	567	31.29	.015645
353.12	590.2	32.66	.01633
353.12	613.6	34.14	.01707
353.12	636.8	35.5	.01775
353.12	636.8	35.5	.01775
353.12	660.1	36.92	.01846
353.12	660.1	36.92	.01846
353.12	683.4	38.37	.019185
353.12	683.4	38.37	.019185
353.12	706.6	39.74	.01987
353.12	706.6	39.74	.01987
353.12	729.7	41.24	.02062
353.12	729.7	41.24	.02062
353.12	752.5	42.62	.02131
353.12	1023.7	60.42	.03021
353.12	1038.9	61.48	.03074
353.12	1054.5	62.56	.03128
353.12	1070	63.66	.03183
353.12	1085.8	64.72	.03236
353.12	1101.6	65.79	.032895
353.12	1116.8	66.89	.033445
353.12	1131.5	67.98	.03399
353.12	1146.8	69	.0345
353.12	1161.5	70.08	.03504
353.12	1205.5	73.34	.03667
353.12	1219.6	74.41	.037205
353.12	1247.6	76.44	.03822
353.12	1261.7	77.55	.038775
353.12	1275.7	78.61	.039305
353.12	1303.4	80.62	.04031
353.12	1330.3	82.8	.0414
353.12	1356.9	84.86	.04243
353.12	1383.3	86.96	.04348
353.12	1408.9	88.93	.044465
353.12	1434.2	91.01	.045505
353.12	1459.3	93.02	.04651
353.12	1483.9	95.18	.04759
353.12	1508	97.12	.04856
353.12	1531.3	99.1	.04955
353.12	1554.6	101.06	.05053
353.12	1577.1	102.97	.051485
353.12	1599.7	105.06	.05253
353.12	2027.5	148.08	.07404
353.12	2047	150.4	.0752
353.12	2061	152.1	.07605
353.12	2079.9	154.31	.077155
353.12	2102.5	157.14	.07857
353.12	2119.5	159.22	.07961
353.12	2136.1	161.36	.08068
353.12	2152.9	163.58	.08179
353.12	2175.2	166.51	.083255
353.12	2194.7	169.1	.08455
353.12	2217.5	172.27	.086135
353.12	2237.1	175.05	.087525
353.12	2258.4	178.08	.08904
353.12	2276.1	180.72	.09036
353.12	2293.5	183.23	.091615
353.12	2310.9	185.85	.092925
353.12	2329.3	188.76	.09438
353.12	2343.8	191.1	.09555
353.12	2361	193.93	.096965
353.12	2378.6	196.85	.098425
353.12	2393.5	199.32	.09966
353.12	2410.2	202.31	.101155
353.12	2428.4	205.51	.102755
353.12	2442.4	208.12	.10406
353.12	2463	211.98	.10599
353.12	2479.5	215.15	.107575
353.12	2502.3	219.78	.10989
353.12	2520.3	223.6	.1118
353.12	262.8	13.844	.006922
353.12	272.6	14.383	.0071915
353.12	303.9	16.11	.008055
353.12	313	16.554	.008277
353.12	322.1	17.107	.0085535
353.12	330.9	17.558	.008779
353.12	340	18.069	.0090345
353.12	349.1	18.584	.009292
353.12	358.7	19.177	.0095885
353.12	369.1	19.754	.009877
353.12	379.1	20.272	.010136
353.12	389.1	20.831	.0104155
353.12	398.8	21.42	.01071
353.12	402.9	21.597	.0107985
353.12	407.6	21.905	.0109525
353.12	413.1	22.161	.0110805
353.12	418.2	22.524	.011262
353.12	427.2	23.019	.0115095
353.12	456.1	24.636	.012318
353.12	456.1	24.636	.012318
353.12	465.8	25.243	.0126215
353.12	752.5	42.62	.02131
353.12	775.3	44.06	.02203
353.12	796.9	45.46	.02273
353.12	816.7	46.73	.023365
353.12	816.7	46.73	.023365
353.12	836	47.99	.023995
353.12	836	47.99	.023995
353.12	854.6	49.09	.024545
353.12	854.6	49.09	.024545
353.12	872.3	50.27	.025135
353.12	872.3	50.27	.025135
353.12	890.1	51.44	.02572
353.12	890.1	51.44	.02572
353.12	907.5	52.57	.026285
353.12	907.5	52.57	.026285
353.12	924.8	53.65	.026825
353.12	924.8	53.65	.026825
353.12	942.1	54.86	.02743
353.12	975.7	57.1	.02855
353.12	992.2	58.29	.029145
353.12	992.2	58.29	.029145
353.12	1621.5	106.97	.053485
353.12	1643.3	108.91	.054455
353.12	1664	110.78	.05539
353.12	1684.8	112.72	.05636
353.12	1705.1	114.65	.057325
353.12	1725.3	116.53	.058265
353.12	1745.4	118.38	.05919
353.12	1764.4	120.27	.060135
353.12	1783	122.06	.06103
353.12	1801.8	123.93	.061965
353.12	1819.8	125.68	.06284
353.12	1837.5	127.52	.06376
353.12	1854.8	129.26	.06463
353.12	1871.7	131.01	.065505
353.12	1887.6	132.69	.066345
353.12	1901.9	134.3	.06715
353.12	1921.8	136.34	.06817
353.12	1936	137.88	.06894
353.12	1955.9	140.04	.07002
353.12	1970.5	141.59	.070795
353.12	1990.1	143.83	.071915
353.12	2540.4	228.04	.11402
353.12	2560	232.39	.116195
353.12	2575.6	236.13	.118065
353.12	2589.9	239.58	.11979
353.12	2605.1	243.48	.12174
353.12	2619.7	247.37	.123685
353.12	2635.2	251.52	.12576
353.12	2649.7	255.58	.12779
353.12	2670.4	261.98	.13099
353.12	2690	268.46	.13423
353.12	2702.3	272.91	.136455
353.12	2710.7	275.88	.13794
353.12	2718.3	278.85	.139425
353.12	2725	281.55	.140775
353.12	2731.2	284.3	.14215
353.12	2737.4	286.74	.14337
353.12	2744.8	290.14	.14507
353.12	2751.1	293.08	.14654
353.12	2757.6	296.25	.148125
353.12	2764.5	299.88	.14994
353.12	2771.7	303.81	.151905
355.27	1.7	.1	.00005
355.27	2.5	.14	.00007
355.27	3.1	.19	.000095
355.27	3.6	.23	.000115
355.27	4.8	.28	.00014
355.27	5.8	.37	.000185
355.27	6.4	.38	.00019
355.27	7.6	.44	.00022
355.27	8.8	.47	.000235
355.27	9.4	.5	.00025
355.27	10	.52	.00026
355.27	11.3	.61	.000305
355.27	12.5	.64	.00032
355.27	175.9	9.29	.004645
355.27	189	9.98	.00499
355.27	202.9	10.67	.005335
355.27	215.8	11.37	.005685
355.27	229.6	12.15	.006075
355.27	243.8	12.89	.006445
355.27	256.5	13.54	.00677
355.27	269.4	14.27	.007135
355.27	282.8	15.02	.00751
355.27	296.5	15.74	.00787
355.27	310.2	16.52	.00826
355.27	323.9	17.3	.00865
355.27	337.3	18.03	.009015
355.27	1053.4	61.79	.030895
355.27	1076.3	63.38	.03169
355.27	1097.4	64.83	.032415
355.27	1119.1	66.35	.033175
355.27	1140.9	67.89	.033945
355.27	1162.7	69.42	.03471
355.27	1184.6	70.94	.03547
355.27	1205.7	72.55	.036275
355.27	1226.6	74.03	.037015
355.27	1248.5	75.63	.037815
355.27	1268.8	77.12	.03856
355.27	1291.7	78.82	.03941
355.27	1314.5	80.53	.040265
355.27	2135.3	157.72	.07886
355.27	2158.3	160.53	.080265
355.27	2179.4	163.15	.081575
355.27	2202.1	165.99	.082995
355.27	2224	168.96	.08448
355.27	2247.3	172.07	.086035
355.27	2269.2	174.95	.087475
355.27	2292	178.14	.08907
355.27	2312.5	181.03	.090515
355.27	2334.2	184.18	.09209
355.27	2357.3	187.61	.093805
355.27	2380.5	191.26	.09563
355.27	2392.5	193.1	.09655
355.27	13.7	.67	.000335
355.27	15	.66	.00033
355.27	16	.83	.000415
355.27	18.5	.93	.000465
355.27	19.9	1.04	.00052
355.27	21.2	1.09	.000545
355.27	22.2	1.15	.000575
355.27	23.4	1.24	.00062
355.27	24.5	1.28	.00064
355.27	25.7	1.37	.000685
355.27	26.7	1.39	.000695
355.27	27.9	1.42	.00071
355.27	29.2	1.46	.00073
355.27	30.3	1.62	.00081
355.27	31.3	1.64	.00082
355.27	32.3	1.71	.000855
355.27	34.6	1.82	.00091
355.27	32.3	1.71	.000855
355.27	37.4	1.95	.000975
355.27	41.7	2.14	.00107
355.27	47.8	2.49	.001245
355.27	53.6	2.8	.0014
355.27	58	3.03	.001515
355.27	62.5	3.28	.00164
355.27	67.1	3.54	.00177
355.27	71.8	3.72	.00186
355.27	76	4.09	.002045
355.27	80.2	4.21	.002105
355.27	84.7	4.42	.00221
355.27	89.7	4.7	.00235
355.27	94.5	4.96	.00248
355.27	99.2	5.14	.00257
355.27	108.4	5.69	.002845
355.27	121.7	6.32	.00316
355.27	136.3	7.14	.00357
355.27	150.1	7.91	.003955
355.27	350.9	18.72	.00936
355.27	364	19.44	.00972
355.27	377.5	20.18	.01009
355.27	390.9	20.91	.010455
355.27	410.7	22.1	.01105
355.27	423.7	22.78	.01139
355.27	436.7	23.55	.011775
355.27	449.9	24.26	.01213
355.27	463	25.02	.01251
355.27	475.5	25.74	.01287
355.27	489.9	26.57	.013285
355.27	511.2	27.76	.01388
355.27	534.4	29.14	.01457
355.27	558.1	30.53	.015265
355.27	570.3	31.19	.015595
355.27	593.4	32.6	.0163
355.27	605.4	33.29	.016645
355.27	629.1	34.75	.017375
355.27	652.5	36.04	.01802
355.27	675.6	37.5	.01875
355.27	698.5	38.93	.019465
355.27	710.6	39.6	.0198
355.27	733.2	40.98	.02049
355.27	755.9	42.45	.021225
355.27	778.4	43.82	.02191
355.27	800.7	45.25	.022625
355.27	822.7	46.65	.023325
355.27	844.7	48.08	.02404
355.27	866.4	49.39	.024695
355.27	887.6	50.79	.025395
355.27	909.3	52.17	.026085
355.27	921.7	53.01	.026505
355.27	942.8	54.34	.02717
355.27	963	55.68	.02784
355.27	985.5	57.29	.028645
355.27	1007.7	58.71	.029355
355.27	1336.6	82.25	.041125
355.27	1358.9	83.95	.041975
355.27	1380.8	85.69	.042845
355.27	1401.7	87.28	.04364
355.27	1423	89.04	.04452
355.27	1445	90.76	.04538
355.27	1465.4	92.28	.04614
355.27	1486.6	94.07	.047035
355.27	1509.1	95.9	.04795
355.27	1531	97.69	.048845
355.27	1552.1	99.45	.049725
355.27	1573.2	101.27	.050635
355.27	1594.4	103.05	.051525
355.27	1615.6	104.91	.052455
355.27	1637.4	106.88	.05344
355.27	1658.5	108.66	.05433
355.27	1679.5	110.49	.055245
355.27	1700.6	112.4	.0562
355.27	1722	114.41	.057205
355.27	1742.9	116.28	.05814
355.27	1765.2	118.41	.059205
355.27	1787.1	120.47	.060235
355.27	1808.3	122.49	.061245
355.27	1829.9	124.54	.06227
355.27	1850.6	126.59	.063295
355.27	1872.5	128.81	.064405
355.27	1894.5	131.08	.06554
355.27	1916.5	133.35	.066675
355.27	1938.7	135.65	.067825
355.27	1959.7	137.89	.068945
355.27	1982.8	140.34	.07017
355.27	2005.5	142.79	.071395
355.27	2026.6	145.09	.072545
355.27	2048.1	147.46	.07373
355.27	2070.2	150.03	.075015
355.27	2091.7	152.48	.07624
355.27	2415.5	196.68	.09834
355.27	2439.9	200.64	.10032
355.27	2460.5	204.27	.102135
355.27	2484.5	208.35	.104175
355.27	2507	212.34	.10617
355.27	2520.2	214.82	.10741
355.27	2544.4	219.44	.10972
355.27	2556.6	221.88	.11094
355.27	2578.3	226.29	.113145
355.27	2599.8	230.72	.11536
355.27	2622.7	235.78	.11789
355.27	2645.2	240.85	.120425
355.27	2666.2	245.89	.122945
355.27	2688.5	251.47	.125735
355.27	2710.9	257.56	.12878
355.27	2733.3	263.91	.131955
355.27	2754.7	270.59	.135295
355.27	2776.5	277.69	.138845
355.27	2797.6	285.33	.142665
355.27	2818.7	293.63	.146815
355.27	2839.2	302.86	.15143
355.27	2859.6	313.18	.15659
355.27	2880.7	325.44	.16272
355.27	2900.2	339.29	.169645
355.27	2901.3	340.48	.17024
355.27	2902.9	341.95	.170975
355.27	2904	342.82	.17141
355.27	2905.6	344.36	.17218
355.27	2906.7	345.34	.17267
355.27	2908.4	347.2	.1736
355.27	2909.4	348.62	.17431
355.27	2910.6	349.91	.174955
355.27	2911.7	352.16	.17608
355.27	2913.4	357.67	.178835
355.27	2914.7	388.98	.19449
355.27	2915.5	400.54	.20027
357.06	1.6	.18	.00009
357.06	3.4	.25	.000125
357.06	4.2	.26	.00013
357.06	4.9	.29	.000145
357.06	6.3	.31	.000155
357.06	6.6	.32	.00016
357.06	7	.35	.000175
357.06	7.4	.43	.000215
357.06	9.1	.47	.000235
357.06	9.5	.49	.000245
357.06	11	.56	.00028
357.06	12.4	.6	.0003
357.06	13.5	.66	.00033
357.06	14.9	.76	.00038
357.06	15.9	.79	.000395
357.06	17	.85	.000425
357.06	19.1	.98	.00049
357.06	21.6	1.08	.00054
357.06	22.7	1.11	.000555
357.06	24	1.15	.000575
357.06	25.1	1.25	.000625
357.06	26.3	1.3	.00065
357.06	27.3	1.36	.00068
357.06	28.4	1.4	.0007
357.06	29.7	1.46	.00073
357.06	30.8	1.51	.000755
357.06	31.8	1.61	.000805
357.06	34	1.66	.00083
357.06	35.1	1.71	.000855
357.06	36.4	1.75	.000875
357.06	37.5	1.84	.00092
357.06	38.5	1.93	.000965
357.06	39.6	1.96	.00098
357.06	40.6	2.02	.00101
357.06	48	2.38	.00119
357.06	58.6	2.86	.00143
357.06	69.5	3.37	.001685
357.06	80.9	3.92	.00196
357.06	92.8	4.57	.002285
357.06	104.1	5.19	.002595
357.06	115	5.66	.00283
357.06	125.7	6.22	.00311
357.06	136.4	6.83	.003415
357.06	232.7	11.91	.005955
357.06	245.6	12.63	.006315
357.06	258.5	13.31	.006655
357.06	271.2	14.01	.007005
357.06	284	14.69	.007345
357.06	296.8	15.39	.007695
357.06	309.5	16.12	.00806
357.06	322.1	16.71	.008355
357.06	334.9	17.44	.00872
357.06	347.5	18.11	.009055
357.06	360.2	18.86	.00943
357.06	372.7	19.48	.00974
357.06	385.4	20.16	.01008
357.06	401.9	21.1	.01055
357.06	415.8	21.9	.01095
357.06	430.3	22.74	.01137
357.06	445	23.53	.011765
357.06	459.8	24.37	.012185
357.06	474.6	25.15	.012575
357.06	489.6	26	.013
357.06	504.5	26.95	.013475
357.06	519.5	27.84	.01392
357.06	534.4	28.66	.01433
357.06	549.4	29.55	.014775
357.06	564.2	30.41	.015205
357.06	579	31.28	.01564
357.06	593.8	32.12	.01606
357.06	604.8	32.81	.016405
357.06	619.6	33.65	.016825
357.06	634.3	34.49	.017245
357.06	648.9	35.43	.017715
357.06	663.4	36.27	.018135
357.06	677.9	37.14	.01857
357.06	692.4	37.98	.01899
357.06	706.7	38.87	.019435
357.06	721	39.69	.019845
357.06	735.2	40.55	.020275
357.06	749.2	41.45	.020725
357.06	763.3	42.35	.021175
357.06	777.3	43.14	.02157
357.06	791.2	44.03	.022015
357.06	805.1	44.87	.022435
357.06	818.9	45.78	.02289
357.06	927.4	52.68	.02634
357.06	940.7	53.53	.026765
357.06	953.9	54.39	.027195
357.06	966.4	55.2	.0276
357.06	980.4	56.19	.028095
357.06	992.5	56.92	.02846
357.06	1019.3	58.76	.02938
357.06	1047.3	60.62	.03031
357.06	1075	62.53	.031265
357.06	1101.6	64.29	.032145
357.06	1126.7	66.03	.033015
357.06	1151	67.74	.03387
357.06	1176.3	69.58	.03479
357.06	1201.9	71.4	.0357
357.06	1228.4	73.29	.036645
357.06	1259	75.66	.03783
357.06	1289.5	77.81	.038905
357.06	1322.3	80.32	.04016
357.06	1338.6	81.39	.040695
357.06	1356.1	82.86	.04143
357.06	1372.3	84.1	.04205
357.06	1389.3	85.41	.042705
357.06	1417.8	87.61	.043805
357.06	1448.6	89.98	.04499
357.06	1476.5	92.14	.04607
357.06	1508.7	94.88	.04744
357.06	1525.6	96.25	.048125
357.06	1543.7	97.72	.04886
357.06	1568	99.77	.049885
357.06	1585.8	101.24	.05062
357.06	1616.4	103.7	.05185
357.06	1633.9	105.22	.05261
357.06	1651	106.72	.05336
357.06	1667.9	108.13	.054065
357.06	1685.3	109.66	.05483
357.06	1702	111.18	.05559
357.06	1718.9	112.75	.056375
357.06	1735.9	114.23	.057115
357.06	1753	115.8	.0579
357.06	1769.9	117.29	.058645
357.06	1786.9	118.92	.05946
357.06	1803	120.39	.060195
357.06	1819.2	121.89	.060945
357.06	2038.9	144.14	.07207
357.06	2064.4	146.83	.073415
357.06	2091.5	149.92	.07496
357.06	2116.5	152.72	.07636
357.06	2145.2	156.08	.07804
357.06	2172.7	159.34	.07967
357.06	2200.4	162.66	.08133
357.06	2225	165.74	.08287
357.06	2253.6	169.3	.08465
357.06	2283.1	173.12	.08656
357.06	2311	176.88	.08844
357.06	2341.3	180.98	.09049
357.06	2367.5	184.68	.09234
357.06	2394.8	188.59	.094295
357.06	2419.3	192.26	.09613
357.06	2446.6	196.5	.09825
357.06	2475.8	201.14	.10057
357.06	2500.5	205.14	.10257
357.06	2527.1	209.62	.10481
357.06	2552.5	214.03	.107015
357.06	2579.2	218.88	.10944
357.06	2607.1	224.15	.112075
357.06	2634.5	229.51	.114755
357.06	2660.8	234.97	.117485
357.06	2686.6	240.49	.120245
357.06	2714.4	246.83	.123415
357.06	2743.6	253.76	.12688
357.06	2771	260.83	.130415
357.06	2795.2	267.52	.13376
357.06	2819.6	274.69	.137345
357.06	2846	283.07	.141535
357.06	2871.1	291.79	.145895
357.06	2896.7	302.07	.151035
357.06	2920.7	312.54	.15627
357.06	2945.8	324.88	.16244
357.06	2970.4	338.77	.169385
357.06	2995.1	355.46	.17773
357.06	3000.2	359.35	.179675
357.06	3002.3	361.25	.180625
357.06	3004.8	363.25	.181625
357.06	3007	365.19	.182595
357.06	3009.1	367.24	.18362
357.06	3011.2	369.24	.18462
357.06	148.3	7.41	.003705
357.06	159.2	8.05	.004025
357.06	170	8.65	.004325
357.06	180.8	9.19	.004595
357.06	191.6	9.77	.004885
357.06	206.8	10.67	.005335
357.06	832.6	46.65	.023325
357.06	846.3	47.44	.02372
357.06	859.8	48.34	.02417
357.06	873.5	49.21	.024605
357.06	887	50.07	.025035
357.06	900.7	50.9	.02545
357.06	1847.5	124.55	.062275
357.06	1875.7	127.36	.06368
357.06	1903.2	130.04	.06502
357.06	1931.1	132.82	.06641
357.06	1957.3	135.5	.06775
357.06	1986	138.47	.069235
357.06	3013.5	371.38	.18569
357.06	3017.2	375.58	.18779
357.06	3020.4	379.51	.189755
357.06	3023.1	383.27	.191635
357.06	3025.3	386.99	.193495
357.06	3027.3	391.04	.19552
358.16	4	.07	.000035
358.16	4.5	.04	.00002
358.16	4.7	.06	.00003
358.16	4.9	.14	.00007
358.16	5.8	.15	.000075
358.16	6.2	.17	.000085
358.16	6.7	.18	.00009
358.16	7.2	.21	.000105
358.16	7.5	.23	.000115
358.16	7.7	.26	.00013
358.16	8.5	.27	.000135
358.16	8.8	.31	.000155
358.16	9.2	.32	.00016
358.16	9.8	.34	.00017
358.16	12.4	.45	.000225
358.16	13.4	.5	.00025
358.16	14.5	.6	.0003
358.16	15.5	.63	.000315
358.16	16.5	.69	.000345
358.16	17.6	.76	.00038
358.16	19.6	.84	.00042
358.16	20.7	.88	.00044
358.16	21.7	.92	.00046
358.16	22.7	1.01	.000505
358.16	23.9	1.07	.000535
358.16	25.9	1.13	.000565
358.16	26.9	1.2	.0006
358.16	27.9	1.24	.00062
358.16	115.5	5.84	.00292
358.16	124.6	6.23	.003115
358.16	133.8	6.76	.00338
358.16	142.9	7.23	.003615
358.16	152	7.73	.003865
358.16	161.1	8.2	.0041
358.16	170.1	8.69	.004345
358.16	179.2	9.15	.004575
358.16	188.3	9.64	.00482
358.16	197.2	10.14	.00507
358.16	201.8	10.33	.005165
358.16	215.2	11.03	.005515
358.16	228.6	11.76	.00588
358.16	241.9	12.39	.006195
358.16	255.2	13.18	.00659
358.16	268.5	13.87	.006935
358.16	281.6	14.57	.007285
358.16	295.2	15.37	.007685
358.16	308.9	16.07	.008035
358.16	323.1	16.83	.008415
358.16	337.5	17.58	.00879
358.16	352.1	18.44	.00922
358.16	366.8	19.21	.009605
358.16	381.5	19.95	.009975
358.16	396.2	20.78	.01039
358.16	411	21.59	.010795
358.16	427.6	22.57	.011285
358.16	444	23.52	.01176
358.16	843.9	47.16	.02358
358.16	861.2	48.3	.02415
358.16	878.4	49.34	.02467
358.16	895.4	50.38	.02519
358.16	912.3	51.52	.02576
358.16	929.2	52.65	.026325
358.16	945.9	53.68	.02684
358.16	964.1	54.95	.027475
358.16	981.4	56.09	.028045
358.16	999	57.2	.0286
358.16	1004	57.55	.028775
358.16	1037.2	59.89	.029945
358.16	1056.7	61.12	.03056
358.16	1079.5	62.72	.03136
358.16	1113.6	65.06	.03253
358.16	1151.3	67.79	.033895
358.16	1177.8	69.69	.034845
358.16	1204.6	71.61	.035805
358.16	1231.5	73.4	.0367
358.16	1251	74.95	.037475
358.16	1277.5	76.93	.038465
358.16	1297.2	78.23	.039115
358.16	1318.3	79.8	.0399
358.16	1351	82.19	.041095
358.16	1384.5	84.6	.0423
358.16	1419.6	87.38	.04369
358.16	1453.8	89.96	.04498
358.16	1487.2	92.64	.04632
358.16	2250.5	167.24	.08362
358.16	2283.4	171.42	.08571
358.16	2316.3	175.71	.087855
358.16	2349.2	180.05	.090025
358.16	2381.8	184.6	.0923
358.16	2414.3	189.16	.09458
358.16	2462.8	196.45	.098225
358.16	2529.2	206.94	.10347
358.16	2562.6	212.61	.106305
358.16	2581.2	215.74	.10787
358.16	2616.7	222.24	.11112
358.16	2635.2	225.67	.112835
358.16	2669.9	232.45	.116225
358.16	2703.7	239.44	.11972
358.16	2738.3	247.03	.123515
358.16	2771.6	254.87	.127435
358.16	2806.3	263.68	.13184
358.16	2839.2	272.73	.136365
358.16	2872.4	282.77	.141385
358.16	2905.9	293.88	.14694
358.16	2939.1	305.79	.152895
358.16	2972	319.7	.15985
358.16	3000.1	333.22	.16661
358.16	3003	334.75	.167375
358.16	3005.7	336.23	.168115
358.16	3008.2	337.55	.168775
358.16	3010.9	338.92	.16946
358.16	3013.2	340.27	.170135
358.16	29	1.31	.000655
358.16	30	1.37	.000685
358.16	31	1.42	.00071
358.16	32	1.45	.000725
358.16	33	1.5	.00075
358.16	34	1.62	.00081
358.16	35.1	1.63	.000815
358.16	36.1	1.72	.00086
358.16	39.1	1.8	.0009
358.16	40.1	1.85	.000925
358.16	41.2	1.9	.00095
358.16	42.2	1.99	.000995
358.16	45.3	2.13	.001065
358.16	52.2	2.54	.00127
358.16	58.8	2.84	.00142
358.16	65.5	3.31	.001655
358.16	72.2	3.58	.00179
358.16	79	3.91	.001955
358.16	85.8	4.34	.00217
358.16	92.6	4.61	.002305
358.16	99.4	4.96	.00248
358.16	460.4	24.33	.012165
358.16	476.7	25.35	.012675
358.16	492.9	26.26	.01313
358.16	509.2	27.13	.013565
358.16	525.3	28.12	.01406
358.16	541.5	29.02	.01451
358.16	557.6	29.96	.01498
358.16	575.1	31	.0155
358.16	592.7	31.99	.015995
358.16	610.1	32.94	.01647
358.16	627.5	34	.017
358.16	645.1	35.06	.01753
358.16	663.8	36.18	.01809
358.16	682.3	37.25	.018625
358.16	700.8	38.41	.019205
358.16	719.1	39.53	.019765
358.16	737.3	40.62	.02031
358.16	755.2	41.68	.02084
358.16	773.2	42.77	.021385
358.16	791.1	43.9	.02195
358.16	808.6	44.92	.02246
358.16	1522.4	95.5	.04775
358.16	1557	98.35	.049175
358.16	1592	101.11	.050555
358.16	1624.7	103.88	.05194
358.16	1659.3	106.85	.053425
358.16	1677.7	108.37	.054185
358.16	1712.3	111.38	.05569
358.16	1748.1	114.59	.057295
358.16	1780.9	117.54	.05877
358.16	1815.7	120.8	.0604
358.16	1848.2	123.82	.06191
358.16	1883.1	127.18	.06359
358.16	1916.7	130.47	.065235
358.16	1948.8	133.66	.06683
358.16	1982.5	137.05	.068525
358.16	2016.7	140.6	.0703
358.16	2051.6	144.28	.07214
358.16	2085.7	147.98	.07399
358.16	2118.7	151.7	.07585
358.16	2152.9	155.54	.07777
358.16	2185.6	159.34	.07967
358.16	3015.5	341.83	.170915
358.16	3017.6	343.29	.171645
358.16	3019.8	344.7	.17235
358.16	3022.4	346.21	.173105
358.16	3025.8	348.17	.174085
358.16	3027.8	349.31	.174655
358.16	3031.6	351.6	.1758
358.16	3035.5	354.08	.17704
358.16	3037.5	355.4	.1777
358.16	3041.3	357.97	.178985
358.16	3045.1	360.72	.18036
358.16	3047.1	362.14	.18107
358.16	3050.9	364.96	.18248
358.16	3054.3	367.81	.183905
358.16	3057.8	370.74	.18537
358.16	3061.2	373.72	.18686
358.16	3064.5	376.75	.188375
358.16	3067.7	379.88	.18994
358.16	3071	383.12	.19156
358.16	3074	386.4	.1932
358.16	3077	389.78	.19489
362.9	6.3	.34	.00017
362.9	8.4	.44	.00022
362.9	10.7	.55	.000275
362.9	15.1	.65	.000325
362.9	17.2	.88	.00044
362.9	20.8	1.04	.00052
362.9	23	1.15	.000575
362.9	25.2	1.27	.000635
362.9	31.8	1.53	.000765
362.9	34	1.65	.000825
362.9	37.4	1.78	.00089
362.9	40.2	2	.001
362.9	42.3	2.22	.00111
362.9	47.8	2.29	.001145
362.9	485.1	25.57	.012785
362.9	500.3	26.4	.0132
362.9	520.6	27.39	.013695
362.9	540.4	28.38	.01419
362.9	560.3	29.54	.01477
362.9	580	30.72	.01536
362.9	599.7	31.79	.015895
362.9	619.3	32.97	.016485
362.9	638.8	34.15	.017075
362.9	658.1	35.19	.017595
362.9	677.4	36.24	.01812
362.9	696.6	37.68	.01884
362.9	715.6	38.68	.01934
362.9	753.3	40.79	.020395
362.9	1484.9	89.9	.04495
362.9	1503.2	91.22	.04561
362.9	1521.3	92.61	.046305
362.9	1544.9	94.44	.04722
362.9	1567.8	96.26	.04813
362.9	1613.4	99.81	.049905
362.9	1634.9	101.65	.050825
362.9	1655.8	103.37	.051685
362.9	1676.7	104.81	.052405
362.9	1696.6	106.47	.053235
362.9	1716	108.07	.054035
362.9	1734.8	109.59	.054795
362.9	1753	111.4	.0557
362.9	1771.1	112.78	.05639
362.9	2637.6	209.57	.104785
362.9	2655.8	212.2	.1061
362.9	2673.6	215.1	.10755
362.9	2690.3	217.71	.108855
362.9	2706.4	220.44	.11022
362.9	2736.2	225.31	.112655
362.9	2764.5	230.31	.115155
362.9	2781.5	233.26	.11663
362.9	2809.5	238.5	.11925
362.9	2870.6	250.29	.125145
362.9	2897.9	256.08	.12804
362.9	2916.5	260.21	.130105
362.9	2944.7	266.58	.13329
362.9	2978.3	274.33	.137165
362.9	57.7	2.87	.001435
362.9	64.3	3.19	.001595
362.9	75.1	3.75	.001875
362.9	81.7	4.07	.002035
362.9	88	4.26	.00213
362.9	96.7	4.85	.002425
362.9	103.1	5.2	.0026
362.9	109.4	5.38	.00269
362.9	122.1	6.16	.00308
362.9	128.4	6.44	.00322
362.9	134.6	6.83	.003415
362.9	140.8	7.19	.003595
362.9	146.9	7.41	.003705
362.9	153.1	7.6	.0038
362.9	162.6	8.2	.0041
362.9	172.6	8.83	.004415
362.9	183.5	9.3	.00465
362.9	191.9	9.53	.004765
362.9	205.9	10.23	.005115
362.9	217.1	10.89	.005445
362.9	239.3	12.29	.006145
362.9	250.5	12.86	.00643
362.9	261.7	13.26	.00663
362.9	272.8	13.91	.006955
362.9	284	14.66	.00733
362.9	294.9	14.96	.00748
362.9	305.9	15.65	.007825
362.9	322.3	16.67	.008335
362.9	338.5	17.36	.00868
362.9	354.9	18.21	.009105
362.9	370.9	19.21	.009605
362.9	386.8	19.93	.009965
362.9	402.6	20.85	.010425
362.9	418.2	21.77	.010885
362.9	449.3	23.6	.0118
362.9	772.1	41.86	.02093
362.9	790.7	43.17	.021585
362.9	809.2	44.11	.022055
362.9	827.4	45.36	.02268
362.9	845.6	46.55	.023275
362.9	863.7	47.41	.023705
362.9	881.6	48.62	.02431
362.9	899.5	49.68	.02484
362.9	917.1	50.72	.02536
362.9	934.7	52.13	.026065
362.9	952.2	53.09	.026545
362.9	969.4	54.03	.027015
362.9	986.7	55.35	.027675
362.9	1010.4	56.58	.02829
362.9	1044	59.01	.029505
362.9	1060.4	59.9	.02995
362.9	1076.4	61.11	.030555
362.9	1097.9	62.31	.031155
362.9	1119.7	63.86	.03193
362.9	1141.5	65.33	.032665
362.9	1162.5	66.89	.033445
362.9	1202.5	69.4	.0347
362.9	1221.4	70.92	.03546
362.9	1239.6	71.99	.035995
362.9	1257.3	73.4	.0367
362.9	1274.3	74.42	.03721
362.9	1293.3	76	.038
362.9	1312.3	77.04	.03852
362.9	1331.5	78.67	.039335
362.9	1349	79.84	.03992
362.9	1367.1	81.15	.040575
362.9	1388	82.53	.041265
362.9	1408.2	83.98	.04199
362.9	1429.7	85.75	.042875
362.9	1447.9	86.99	.043495
362.9	1788.6	114.27	.057135
362.9	1805.4	115.72	.05786
362.9	1838.2	118.54	.05927
362.9	1868.9	121.28	.06064
362.9	1898.3	124.13	.062065
362.9	1923.7	126.25	.063125
362.9	1953.6	129.06	.06453
362.9	1971.3	130.89	.065445
362.9	1988.2	132.28	.06614
362.9	2005	133.86	.06693
362.9	2021.3	135.65	.067825
362.9	2037.3	137.17	.068585
362.9	2066.9	140.08	.07004
362.9	2099	143.21	.071605
362.9	2115.6	144.99	.072495
362.9	2133.5	146.69	.073345
362.9	2152	148.88	.07444
362.9	2207.8	154.82	.07741
362.9	2239	158.23	.079115
362.9	2255.7	160.15	.080075
362.9	2279.2	162.54	.08127
362.9	2296	164.49	.082245
362.9	2320.6	167.17	.083585
362.9	2341.1	169.73	.084865
362.9	2363.6	172.35	.086175
362.9	2382.4	174.89	.087445
362.9	2399.2	176.97	.088485
362.9	2416.1	178.92	.08946
362.9	2454.2	183.72	.09186
362.9	2471.2	185.86	.09293
362.9	2493.7	188.92	.09446
362.9	2510.8	191.35	.095675
362.9	2532.7	194.2	.0971
362.9	2568.3	199.28	.09964
362.9	2584.5	201.68	.10084
362.9	2997	278.8	.1394
362.9	3015.2	283.34	.14167
362.9	3032.8	287.81	.143905
362.9	3049.7	292.35	.146175
362.9	3066.4	297.12	.14856
362.9	3119.6	313.41	.156705
362.9	3140.3	320.42	.16021
362.9	3159.2	327.22	.16361
362.9	3176.3	333.78	.16689
362.9	3193.5	340.76	.17038
362.9	3209.9	347.93	.173965
362.9	3229.3	357.01	.178505
362.9	3246.9	366.07	.183035
362.9	3263.4	375.24	.18762
362.9	3285.9	389.23	.194615
362.9	3305.8	403.5	.20175
362.9	3341.5	436.07	.218035
362.9	3360.9	459.89	.229945
362.9	3377.9	530.57	.265285
362.9	3394.4	567.77	.283885
362.9	3410.4	601.27	.300635
362.9	3426.7	633.69	.316845
362.9	3445.3	659.79	.329895
362.9	3463.4	682.18	.34109
362.9	3480.7	701.66	.35083
362.9	3498.4	717.14	.35857
362.9	4505.3	920.24	.46012
362.9	4525.6	921.9	.46095
362.9	4552.8	924.12	.46206
362.9	4579.3	926.3	.46315
362.9	4626.5	929.99	.464995
362.9	4646.5	931.47	.465735
362.9	4666.9	932.99	.466495
362.9	4687.6	934.6	.4673
362.9	4707.8	936.1	.46805

System: hexafluoropropene; phases: Liquid
Property: Mass density, kg/m3 (Liquid); method: Vibrating tube method
Temperature, K	Pressure, kPa	Mass density, kg/m3	uncertainty
263.49	230.2	1462.58	.73129
263.49	230.4	1462.56	.73128
263.49	231	1462.62	.73131
263.49	231.9	1462.66	.73133
263.49	232.1	1462.66	.73133
263.49	235.3	1462.67	.731335
263.49	242.7	1462.66	.73133
263.49	244.5	1462.72	.73136
263.49	250.6	1462.76	.73138
263.49	257.4	1462.73	.731365
263.49	258.3	1462.79	.731395
263.49	263.2	1462.89	.731445
263.49	273.9	1462.91	.731455
263.49	279.5	1462.96	.73148
263.49	288.7	1462.98	.73149
263.49	322.8	1463.12	.73156
263.49	327.2	1463.13	.731565
263.49	333.9	1463.18	.73159
263.49	337.8	1463.15	.731575
263.49	341.2	1463.16	.73158
263.49	345.9	1463.25	.731625
263.49	354.4	1463.25	.731625
263.49	361.4	1463.34	.73167
263.49	370.3	1463.38	.73169
263.49	388	1463.45	.731725
263.49	390.4	1463.48	.73174
263.49	401.9	1463.54	.73177
263.49	413.3	1463.57	.731785
263.49	431.1	1463.65	.731825
263.49	433.8	1463.67	.731835
263.49	447.7	1463.79	.731895
263.49	467.1	1463.9	.73195
263.49	484.1	1463.94	.73197
263.49	772.1	1465.47	.732735
263.49	792.6	1465.54	.73277
263.49	813.9	1465.54	.73277
263.49	853.1	1465.89	.732945
263.49	888.3	1465.94	.73297
263.49	912.8	1466.07	.733035
263.49	939.3	1466.24	.73312
263.49	962.1	1466.39	.733195
263.49	982.9	1466.54	.73327
263.49	1031	1466.76	.73338
263.49	1064.1	1466.9	.73345
263.49	1098.2	1467.05	.733525
263.49	1132.8	1467.28	.73364
263.49	1165.8	1467.41	.733705
263.49	1201.1	1467.57	.733785
263.49	1250.1	1467.92	.73396
263.49	1283.2	1467.96	.73398
263.49	1321.2	1468.22	.73411
263.49	1359	1468.47	.734235
263.49	1389.9	1468.56	.73428
263.49	1425.3	1468.74	.73437
263.49	1461.6	1468.94	.73447
263.49	1497.9	1469.16	.73458
263.49	1539.1	1469.32	.73466
263.49	1576.4	1469.48	.73474
263.49	1610	1469.68	.73484
263.49	1646.8	1469.96	.73498
263.49	1683.2	1470.1	.73505
263.49	1718.2	1470.09	.735045
263.49	1769.7	1470.55	.735275
263.49	1804.7	1470.64	.73532
263.49	1839	1470.88	.73544
263.49	1873.5	1471.02	.73551
263.49	2848.5	1475.67	.737835
263.49	2905.6	1475.93	.737965
263.49	2969.6	1476.29	.738145
263.49	3029.8	1476.52	.73826
263.49	3093.3	1476.76	.73838
263.49	3152.2	1477.08	.73854
263.49	3211.2	1477.32	.73866
263.49	3270.4	1477.64	.73882
263.49	3327.3	1477.91	.738955
263.49	3384.6	1478.13	.739065
263.49	3443.8	1478.55	.739275
263.49	3501.1	1478.67	.739335
263.49	3558.2	1479.03	.739515
263.49	3616.7	1479.25	.739625
263.49	3674.3	1479.49	.739745
263.49	3737.9	1479.79	.739895
263.49	3796.5	1480.12	.74006
263.49	3856.1	1480.36	.74018
263.49	3913.3	1480.59	.740295
263.49	3976.1	1480.92	.74046
263.49	4010.9	1481.02	.74051
263.49	4071.8	1481.39	.740695
263.49	4136	1481.55	.740775
263.49	4197.2	1481.92	.74096
263.49	4261.2	1482.25	.741125
263.49	4322.1	1482.4	.7412
263.49	4382.2	1482.79	.741395
263.49	4447.1	1482.98	.74149
263.49	4507.5	1483.36	.74168
263.49	4568.4	1483.61	.741805
263.49	4635.4	1483.93	.741965
263.49	4696.7	1484.25	.742125
263.49	4757	1484.43	.742215
263.49	6292.4	1491.15	.745575
263.49	6372.6	1491.45	.745725
263.49	6452.8	1491.79	.745895
263.49	6538.6	1492.18	.74609
263.49	6628.4	1492.5	.74625
263.49	6710.5	1492.84	.74642
263.49	6798.1	1493.29	.746645
263.49	6878.8	1493.62	.74681
263.49	6965.4	1493.98	.74699
263.49	7052.5	1494.32	.74716
263.49	7137.8	1494.61	.747305
263.49	7224.6	1495	.7475
263.49	7315.1	1495.44	.74772
263.49	7400.9	1495.77	.747885
263.49	7483.2	1496.09	.748045
263.49	7573.2	1496.53	.748265
263.49	7663	1496.86	.74843
263.49	7746.1	1497.24	.74862
263.49	7835.3	1497.57	.748785
263.49	7920.3	1497.86	.74893
263.49	8008.2	1498.24	.74912
263.49	8089.2	1498.57	.749285
263.49	8180.4	1498.95	.749475
263.49	8262.3	1499.34	.74967
263.49	8343	1499.65	.749825
263.49	8431	1499.96	.74998
263.49	8519.4	1500.29	.750145
263.49	8604.9	1500.75	.750375
263.49	8687	1500.96	.75048
263.49	8773.6	1501.36	.75068
263.49	8859.6	1501.69	.750845
263.49	8940.8	1502.04	.75102
263.49	9033.4	1502.38	.75119
263.49	491.3	1463.96	.73198
263.49	502.2	1464.1	.73205
263.49	506.6	1464.15	.732075
263.49	518.2	1464.18	.73209
263.49	527.6	1464.19	.732095
263.49	529.9	1464.3	.73215
263.49	550.9	1464.3	.73215
263.49	554.1	1464.39	.732195
263.49	574.4	1464.38	.73219
263.49	584.9	1464.43	.732215
263.49	596.2	1464.57	.732285
263.49	625.2	1464.59	.732295
263.49	652.6	1464.81	.732405
263.49	673	1464.96	.73248
263.49	705.5	1465.02	.73251
263.49	728.3	1465.2	.7326
263.49	751.2	1465.25	.732625
263.49	1912.3	1471.22	.73561
263.49	1948.3	1471.32	.73566
263.49	1983.7	1471.42	.73571
263.49	2017.6	1471.69	.735845
263.49	2077.4	1472.02	.73601
263.49	2137.9	1472.31	.736155
263.49	2195.3	1472.62	.73631
263.49	2252	1472.79	.736395
263.49	2309.6	1473.18	.73659
263.49	2367.3	1473.43	.736715
263.49	2430.6	1473.71	.736855
263.49	2489.1	1474.06	.73703
263.49	2551.6	1474.23	.737115
263.49	2614.8	1474.71	.737355
263.49	2675.4	1474.88	.73744
263.49	2733.4	1475.13	.737565
263.49	2790.5	1475.34	.73767
263.49	4816.4	1484.73	.742365
263.49	4881.5	1484.9	.74245
263.49	4946.3	1485.39	.742695
263.49	5104.8	1485.97	.742985
263.49	5190.1	1486.45	.743225
263.49	5273.8	1486.72	.74336
263.49	5369.3	1487.1	.74355
263.49	5456.3	1487.53	.743765
263.49	5538.4	1487.84	.74392
263.49	5622.6	1488.18	.74409
263.49	5711.1	1488.61	.744305
263.49	5793.3	1489.06	.74453
263.49	5877.9	1489.31	.744655
263.49	5963.2	1489.67	.744835
263.49	6047.6	1490.11	.745055
263.49	6129.9	1490.42	.74521
263.49	6210.8	1490.7	.74535
263.49	9121.4	1502.79	.751395
263.49	9202.4	1503.09	.751545
263.49	9288.6	1503.44	.75172
263.49	9371.7	1503.79	.751895
263.49	9460.9	1504.15	.752075
263.49	9501.4	1504.21	.752105
263.49	9543.4	1504.4	.7522
263.49	9588.9	1504.56	.75228
263.49	9629.7	1504.74	.75237
263.49	9675.2	1504.91	.752455
263.49	9717.5	1505.02	.75251
263.49	9760.3	1505.19	.752595
263.49	9806	1505.39	.752695
263.49	9849.5	1505.65	.752825
263.49	9893.1	1505.74	.75287
263.49	9933.7	1505.89	.752945
263.49	9976.6	1506.02	.75301
283.17	467.7	1382.09	.691045
283.17	472.9	1382.09	.691045
283.17	473.5	1382.21	.691105
283.17	478.6	1382.26	.69113
283.17	483	1382.29	.691145
283.17	491.9	1382.32	.69116
283.17	493.1	1382.39	.691195
283.17	504.9	1382.43	.691215
283.17	526.8	1382.57	.691285
283.17	533.6	1382.61	.691305
283.17	540.4	1382.7	.69135
283.17	548.7	1382.78	.69139
283.17	574	1382.98	.69149
283.17	1720.9	1391.22	.69561
283.17	1765.5	1391.52	.69576
283.17	1806	1391.83	.695915
283.17	1849	1391.99	.695995
283.17	1895	1392.44	.69622
283.17	1935.4	1392.64	.69632
283.17	1975.7	1392.98	.69649
283.17	2022.9	1393.24	.69662
283.17	2076.3	1393.62	.69681
283.17	2128.3	1394	.697
283.17	2174.7	1394.46	.69723
283.17	2219	1394.73	.697365
283.17	2306.2	1395.23	.697615
283.17	4409.9	1408.82	.70441
283.17	4465.6	1409.18	.70459
283.17	4516.2	1409.47	.704735
283.17	4620.4	1410.09	.705045
283.17	4676.1	1410.42	.70521
283.17	4728.4	1410.73	.705365
283.17	4783.7	1411.1	.70555
283.17	4835.3	1411.33	.705665
283.17	4889.5	1411.65	.705825
283.17	4943.6	1412.08	.70604
283.17	4996	1412.33	.706165
283.17	5057.6	1412.68	.70634
283.17	5126.3	1413.1	.70655
283.17	7780.3	1428.05	.714025
283.17	7854.7	1428.44	.71422
283.17	7922.9	1428.82	.71441
283.17	7991.9	1429.21	.714605
283.17	8053	1429.55	.714775
283.17	8093.3	1429.79	.714895
283.17	8134.7	1429.94	.71497
283.17	8175.7	1430.23	.715115
283.17	8222.2	1430.51	.715255
283.17	8262.6	1430.66	.71533
283.17	8310.9	1430.87	.715435
283.17	8353.2	1431.08	.71554
283.17	8393.4	1431.32	.71566
283.17	583	1382.99	.691495
283.17	602	1383.21	.691605
283.17	637	1383.38	.69169
283.17	662.9	1383.6	.6918
283.17	691.4	1383.74	.69187
283.17	716	1383.92	.69196
283.17	731.4	1384.12	.69206
283.17	751.9	1384.27	.692135
283.17	766.8	1384.29	.692145
283.17	790.1	1384.57	.692285
283.17	833.3	1384.9	.69245
283.17	856.3	1384.98	.69249
283.17	882.3	1385.18	.69259
283.17	902.7	1385.3	.69265
283.17	924.8	1385.58	.69279
283.17	945.6	1385.66	.69283
283.17	965.5	1385.81	.692905
283.17	988.4	1386.02	.69301
283.17	1017	1386.11	.693055
283.17	1047.4	1386.36	.69318
283.17	1072.3	1386.5	.69325
283.17	1098.6	1386.88	.69344
283.17	1125.8	1386.96	.69348
283.17	1165.1	1387.2	.6936
283.17	1199.3	1387.58	.69379
283.17	1251	1387.98	.69399
283.17	1286	1388.12	.69406
283.17	1320.8	1388.36	.69418
283.17	1354.8	1388.62	.69431
283.17	1394.7	1388.89	.694445
283.17	1427.8	1389.18	.69459
283.17	1463.5	1389.43	.694715
283.17	1507.4	1389.74	.69487
283.17	1549.2	1389.92	.69496
283.17	1591	1390.31	.695155
283.17	1634.6	1390.61	.695305
283.17	2350.5	1395.59	.697795
283.17	2406.1	1396.02	.69801
283.17	2455.4	1396.26	.69813
283.17	2506.6	1396.64	.69832
283.17	2551.5	1396.81	.698405
283.17	2593.9	1397.25	.698625
283.17	2644	1397.48	.69874
283.17	2684	1397.73	.698865
283.17	2734.9	1398.07	.699035
283.17	2785.7	1398.39	.699195
283.17	2848.1	1398.74	.69937
283.17	2900.4	1399.13	.699565
283.17	2951	1399.5	.69975
283.17	3020.7	1400.01	.700005
283.17	3136.8	1400.76	.70038
283.17	3180.2	1400.96	.70048
283.17	3236.8	1401.44	.70072
283.17	3291.9	1401.74	.70087
283.17	3350	1402.05	.701025
283.17	3394.2	1402.39	.701195
283.17	3434.9	1402.61	.701305
283.17	3476.3	1403.01	.701505
283.17	3535.7	1403.26	.70163
283.17	3591.4	1403.66	.70183
283.17	3653.3	1403.98	.70199
283.17	3709.6	1404.3	.70215
283.17	3821.9	1405.06	.70253
283.17	3864.3	1405.48	.70274
283.17	3907.8	1405.66	.70283
283.17	3949	1405.94	.70297
283.17	4020.4	1406.43	.703215
283.17	4078.5	1406.71	.703355
283.17	4127.6	1407.05	.703525
283.17	4182.4	1407.4	.7037
283.17	4239.6	1407.72	.70386
283.17	4293.4	1408.17	.704085
283.17	5167.5	1413.34	.70667
283.17	5237.5	1413.76	.70688
283.17	5303.9	1414.14	.70707
283.17	5372.7	1414.61	.707305
283.17	5504.1	1415.44	.70772
283.17	5572.6	1415.73	.707865
283.17	5644.7	1416.12	.70806
283.17	5720.2	1416.66	.70833
283.17	5786.5	1416.98	.70849
283.17	5855.5	1417.42	.70871
283.17	5920.9	1417.74	.70887
283.17	5997.2	1418.2	.7091
283.17	6065.1	1418.58	.70929
283.17	6130.5	1419	.7095
283.17	6196	1419.33	.709665
283.17	6260.9	1419.73	.709865
283.17	6326.3	1420.11	.710055
283.17	6398.7	1420.44	.71022
283.17	6464.6	1420.83	.710415
283.17	6531.5	1421.22	.71061
283.17	6599.8	1421.62	.71081
283.17	6668.2	1422.01	.711005
283.17	6734.8	1422.36	.71118
283.17	6802	1422.82	.71141
283.17	6878.8	1423.17	.711585
283.17	6945.1	1423.6	.7118
283.17	7018.8	1423.92	.71196
283.17	7085.3	1424.29	.712145
283.17	7154.4	1424.62	.71231
283.17	7220.3	1425.09	.712545
283.17	7293	1425.48	.71274
283.17	7359.6	1425.9	.71295
283.17	7428.2	1426.22	.71311
283.17	7493.3	1426.61	.713305
283.17	7562.9	1426.95	.713475
283.17	7634.7	1427.34	.71367
283.17	8434	1431.55	.715775
283.17	8474.2	1431.73	.715865
283.17	8517.4	1432.02	.71601
283.17	8563.4	1432.23	.716115
283.17	8609.7	1432.53	.716265
283.17	8651.7	1432.69	.716345
283.17	8693.8	1432.88	.71644
283.17	8735.7	1433.12	.71656
283.17	8779.9	1433.38	.71669
283.17	8821.1	1433.52	.71676
283.17	8871.9	1433.93	.716965
283.17	8912.3	1434	.717
283.17	8953.6	1434.33	.717165
283.17	8996.5	1434.45	.717225
283.17	9044.1	1434.75	.717375
283.17	9090.4	1435.02	.71751
283.17	9132.2	1435.25	.717625
283.17	9176.2	1435.35	.717675
283.17	9217	1435.66	.71783
283.17	9261	1435.85	.717925
283.17	9303.9	1436.08	.71804
283.17	9347.1	1436.32	.71816
283.17	9392.3	1436.51	.718255
283.17	9439	1436.78	.71839
283.17	9480.9	1436.91	.718455
283.17	9522.3	1437.19	.718595
283.17	9569.5	1437.37	.718685
283.17	9612.2	1437.57	.718785
283.17	9656.4	1437.81	.718905
283.17	9696.9	1438.08	.71904
283.17	9737.5	1438.29	.719145
283.17	9778	1438.42	.71921
283.17	9820	1438.63	.719315
283.17	9860.9	1438.96	.71948
283.17	9908.7	1439.08	.71954
283.17	9991.1	1439.48	.71974
303.36	851.7	1288.08	.64404
303.36	854.5	1288.17	.644085
303.36	856.9	1288.04	.64402
303.36	858.9	1288.19	.644095
303.36	870	1288.22	.64411
303.36	873.5	1288.36	.64418
303.36	880.9	1288.43	.644215
303.36	885.8	1288.43	.644215
303.36	887.7	1288.47	.644235
303.36	903	1288.59	.644295
303.36	908.2	1288.61	.644305
303.36	911.2	1288.78	.64439
303.36	918.3	1288.76	.64438
303.36	927	1288.93	.644465
303.36	935.5	1288.99	.644495
303.36	940.8	1288.91	.644455
303.36	943.4	1289.1	.64455
303.36	946.1	1289.23	.644615
303.36	954.6	1289.18	.64459
303.36	959.8	1289.24	.64462
303.36	965.5	1289.39	.644695
303.36	974	1289.46	.64473
303.36	983.2	1289.54	.64477
303.36	988.8	1289.67	.644835
303.36	995.6	1289.74	.64487
303.36	1001.4	1289.81	.644905
303.36	1006.1	1289.98	.64499
303.36	1016.7	1289.99	.644995
303.36	1021.3	1290	.645
303.36	1025.8	1290.01	.645005
303.36	1030.5	1290.08	.64504
303.36	1045.7	1290.29	.645145
303.36	1063.4	1290.5	.64525
303.36	1068.6	1290.58	.64529
303.36	1082.5	1290.71	.645355
303.36	1095.4	1290.76	.64538
303.36	1106.3	1291.06	.64553
303.36	1118.1	1291.22	.64561
303.36	1152.1	1291.56	.64578
303.36	1340.2	1293.72	.64686
303.36	1361.8	1293.94	.64697
303.36	1383.4	1294.19	.647095
303.36	1404.6	1294.41	.647205
303.36	1448.9	1294.92	.64746
303.36	1483.7	1295.38	.64769
303.36	1495.8	1295.69	.647845
303.36	1517.4	1295.82	.64791
303.36	1540.3	1296.17	.648085
303.36	1561.5	1296.23	.648115
303.36	1582.1	1296.56	.64828
303.36	1615.7	1296.92	.64846
303.36	1637.2	1297.09	.648545
303.36	1659.1	1297.43	.648715
303.36	1680.6	1297.48	.64874
303.36	1726.5	1298.26	.64913
303.36	1771	1298.55	.649275
303.36	1793.6	1298.76	.64938
303.36	1815.1	1299.1	.64955
303.36	1837.5	1299.36	.64968
303.36	1861.7	1299.58	.64979
303.36	1884.5	1299.72	.64986
303.36	1906.2	1300.05	.650025
303.36	1950	1300.59	.650295
303.36	1985.6	1301.03	.650515
303.36	2016.6	1301.15	.650575
303.36	2051.2	1301.63	.650815
303.36	2084.4	1301.95	.650975
303.36	2119.1	1302.35	.651175
303.36	2170.3	1302.96	.65148
303.36	2204.1	1303.24	.65162
303.36	2239.2	1303.63	.651815
303.36	2326	1304.46	.65223
303.36	2359.9	1304.86	.65243
303.36	2392.6	1305.27	.652635
303.36	2427	1305.54	.65277
303.36	2445.1	1305.96	.65298
303.36	2496.7	1306.19	.653095
303.36	2513.8	1306.54	.65327
303.36	3022.9	1311.53	.655765
303.36	3048.7	1311.84	.65592
303.36	3100.9	1312.32	.65616
303.36	3125.6	1312.63	.656315
303.36	3150.3	1312.98	.65649
303.36	3176.4	1313.02	.65651
303.36	3201.4	1313.32	.65666
303.36	3226.8	1313.58	.65679
303.36	3276.7	1313.98	.65699
303.36	3325.1	1314.49	.657245
303.36	3349.9	1314.75	.657375
303.36	3375.9	1314.91	.657455
303.36	3401.4	1315.17	.657585
303.36	3428.7	1315.55	.657775
303.36	3457.9	1315.79	.657895
303.36	3482.4	1315.97	.657985
303.36	3532.9	1316.48	.65824
303.36	3636.8	1317.48	.65874
303.36	3692	1318.07	.659035
303.36	3744.5	1318.56	.65928
303.36	3799.6	1319.05	.659525
303.36	3852.6	1319.41	.659705
303.36	3906.9	1319.99	.659995
303.36	3959.3	1320.51	.660255
303.36	4068.1	1321.53	.660765
303.36	4117.4	1322.06	.66103
303.36	4226.8	1323.01	.661505
303.36	4279	1323.53	.661765
303.36	4384.9	1324.43	.662215
303.36	4442	1324.86	.66243
303.36	4491.1	1325.26	.66263
303.36	4545.1	1325.86	.66293
303.36	4652.9	1326.85	.663425
303.36	4706.2	1327.25	.663625
303.36	4761.9	1327.67	.663835
303.36	4810.6	1328.19	.664095
303.36	4861.8	1328.62	.66431
303.36	4913.7	1329.12	.66456
303.36	4970	1329.46	.66473
303.36	5921.6	1337.37	.668685
303.36	5981.8	1337.85	.668925
303.36	6042.7	1338.34	.66917
303.36	6104.9	1338.9	.66945
303.36	6169.9	1339.47	.669735
303.36	6232.2	1339.84	.66992
303.36	6297.1	1340.49	.670245
303.36	6362	1340.92	.67046
303.36	6487	1341.93	.670965
303.36	6549.6	1342.5	.67125
303.36	6613.9	1342.92	.67146
303.36	6678.1	1343.42	.67171
303.36	6742	1343.99	.671995
303.36	6802.7	1344.44	.67222
303.36	6864.7	1344.88	.67244
303.36	6928	1345.36	.67268
303.36	7053.8	1346.25	.673125
303.36	7120.4	1346.76	.67338
303.36	7184.3	1347.25	.673625
303.36	7245.2	1347.73	.673865
303.36	7308.5	1348.26	.67413
303.36	7370.8	1348.64	.67432
303.36	7436.1	1349.17	.674585
303.36	7499.7	1349.66	.67483
303.36	7563.6	1350.15	.675075
303.36	7689.6	1351.05	.675525
303.36	7751.3	1351.45	.675725
303.36	7812.7	1351.9	.67595
303.36	7879.7	1352.39	.676195
303.36	7943	1352.95	.676475
303.36	8005.8	1353.4	.6767
303.36	8100.6	1353.99	.676995
303.36	8290.6	1355.42	.67771
303.36	8481.2	1356.76	.67838
303.36	8578.2	1357.54	.67877
303.36	8675.5	1358.15	.679075
303.36	8768.5	1358.79	.679395
303.36	8868.4	1359.47	.679735
303.36	8967.8	1360.24	.68012
303.36	1163	1291.61	.645805
303.36	1174.7	1291.89	.645945
303.36	1188.2	1292.04	.64602
303.36	1203.3	1292.26	.64613
303.36	1216	1292.23	.646115
303.36	1235	1292.43	.646215
303.36	1249	1292.78	.64639
303.36	1261.3	1292.76	.64638
303.36	1289	1293.23	.646615
303.36	1305.6	1293.27	.646635
303.36	2546.9	1306.82	.65341
303.36	2585.2	1307.14	.65357
303.36	2621.3	1307.6	.6538
303.36	2688.6	1308.11	.654055
303.36	2773.2	1309.07	.654535
303.36	2808	1309.41	.654705
303.36	2842.3	1309.71	.654855
303.36	2874.3	1310.03	.655015
303.36	2907.2	1310.3	.65515
303.36	2940.3	1310.77	.655385
303.36	5017	1329.84	.66492
303.36	5088.1	1330.55	.665275
303.36	5216.5	1331.6	.6658
303.36	5343.2	1332.68	.66634
303.36	5408.2	1333.2	.6666
303.36	5478.7	1333.8	.6669
303.36	5540.7	1334.24	.66712
303.36	5605.9	1334.94	.66747
303.36	5666.1	1335.34	.66767
303.36	5731.3	1335.77	.667885
303.36	9068.6	1360.85	.680425
303.36	9168.1	1361.57	.680785
303.36	9265.9	1362.22	.68111
303.36	9367	1362.91	.681455
303.36	9568.1	1364.22	.68211
303.36	9667.3	1364.9	.68245
303.36	9768.6	1365.55	.682775
303.36	9865.8	1366.04	.68302
303.36	9961.4	1366.81	.683405
303.36	9992.6	1366.98	.68349
323.37	1419.4	1174.23	.587115
323.37	1421.5	1174.38	.58719
323.37	1423.2	1174.38	.58719
323.37	1425.7	1174.43	.587215
323.37	1427.1	1174.45	.587225
323.37	1432.2	1174.63	.587315
323.37	1436.2	1174.81	.587405
323.37	1440.4	1174.76	.58738
323.37	1445.7	1175	.5875
323.37	1451.5	1175.02	.58751
323.37	1457.1	1175.21	.587605
323.37	1466.8	1175.47	.587735
323.37	1497.2	1176.12	.58806
323.37	1510	1176.43	.588215
323.37	1522.1	1176.69	.588345
323.37	1537.1	1176.99	.588495
323.37	1549.7	1177.31	.588655
323.37	1563.1	1177.61	.588805
323.37	1577.9	1178.01	.589005
323.37	1593	1178.25	.589125
323.37	1606	1178.65	.589325
323.37	2277.1	1192.28	.59614
323.37	2311.9	1192.94	.59647
323.37	2338	1193.41	.596705
323.37	2366.9	1194	.597
323.37	2396.7	1194.59	.597295
323.37	2428	1195.18	.59759
323.37	2456.3	1195.7	.59785
323.37	2482.6	1196.22	.59811
323.37	2511.2	1196.77	.598385
323.37	2547.6	1197.4	.5987
323.37	2588.4	1198.21	.599105
323.37	2628	1198.83	.599415
323.37	2671.3	1199.65	.599825
323.37	2714.7	1200.41	.600205
323.37	2754.7	1201.07	.600535
323.37	2795.1	1201.67	.600835
323.37	2833.2	1202.46	.60123
323.37	2876	1203.06	.60153
323.37	2913.9	1203.87	.601935
323.37	2953	1204.53	.602265
323.37	2989.2	1205.13	.602565
323.37	4203.9	1224.27	.612135
323.37	4242.8	1224.81	.612405
323.37	4283.2	1225.52	.61276
323.37	4323.7	1226	.613
323.37	4365	1226.67	.613335
323.37	4405.1	1227.17	.613585
323.37	4444.7	1227.66	.61383
323.37	4485	1228.31	.614155
323.37	4510.8	1228.65	.614325
323.37	4561.5	1229.42	.61471
323.37	4618.8	1230.22	.61511
323.37	4671.5	1230.85	.615425
323.37	4727.5	1231.69	.615845
323.37	4782	1232.28	.61614
323.37	4834	1233.09	.616545
323.37	4887.1	1233.93	.616965
323.37	4938.4	1234.66	.61733
323.37	4991	1235.13	.617565
323.37	5040.4	1235.89	.617945
323.37	5097.9	1236.56	.61828
323.37	5155.7	1237.37	.618685
323.37	6837.9	1257.77	.628885
323.37	6894.2	1258.24	.62912
323.37	6952.1	1259	.6295
323.37	7008.2	1259.55	.629775
323.37	7067.2	1260.31	.630155
323.37	7126.4	1260.79	.630395
323.37	7183.6	1261.47	.630735
323.37	7241.8	1262.13	.631065
323.37	7299.5	1262.75	.631375
323.37	7358.7	1263.39	.631695
323.37	7415.2	1263.98	.63199
323.37	7474.7	1264.58	.63229
323.37	7531.4	1265.19	.632595
323.37	7588.8	1265.89	.632945
323.37	7648.3	1266.42	.63321
323.37	7707.1	1267.12	.63356
323.37	7764.7	1267.63	.633815
323.37	7823.9	1268.27	.634135
323.37	7882.7	1268.85	.634425
323.37	7940.4	1269.67	.634835
323.37	7995.5	1270.08	.63504
323.37	1618.2	1178.79	.589395
323.37	1633	1179.18	.58959
323.37	1650.5	1179.47	.589735
323.37	1665.3	1179.86	.58993
323.37	1679.6	1180.16	.59008
323.37	1693.1	1180.45	.590225
323.37	1699.6	1180.56	.59028
323.37	1718.6	1180.95	.590475
323.37	1737.4	1181.34	.59067
323.37	1760	1181.89	.590945
323.37	1778.2	1182.25	.591125
323.37	1797.3	1182.59	.591295
323.37	1819.1	1183.13	.591565
323.37	1845.8	1183.69	.591845
323.37	1870.4	1184.11	.592055
323.37	1897.4	1184.74	.59237
323.37	1924.8	1185.37	.592685
323.37	1943.5	1185.64	.59282
323.37	1970	1186.24	.59312
323.37	1988.8	1186.54	.59327
323.37	2013.8	1187.15	.593575
323.37	2040.4	1187.71	.593855
323.37	2074.7	1188.33	.594165
323.37	2102.6	1188.84	.59442
323.37	2129.9	1189.44	.59472
323.37	2157.7	1190.03	.595015
323.37	2186.2	1190.47	.595235
323.37	2213.3	1191.16	.59558
323.37	3027.6	1205.88	.60294
323.37	3069.8	1206.59	.603295
323.37	3107.8	1207.26	.60363
323.37	3148.5	1207.95	.603975
323.37	3190.6	1208.65	.604325
323.37	3233.2	1209.26	.60463
323.37	3274	1209.98	.60499
323.37	3319.3	1210.67	.605335
323.37	3363.9	1211.37	.605685
323.37	3409	1212.2	.6061
323.37	3453.1	1212.75	.606375
323.37	3494.3	1213.56	.60678
323.37	3536.1	1214.13	.607065
323.37	3576.1	1214.83	.607415
323.37	3614.3	1215.37	.607685
323.37	3655.5	1215.99	.607995
323.37	3696.8	1216.59	.608295
323.37	3734.8	1217.22	.60861
323.37	3774.4	1217.9	.60895
323.37	3814.2	1218.51	.609255
323.37	3853.1	1219.11	.609555
323.37	3890.4	1219.71	.609855
323.37	3929.4	1220.24	.61012
323.37	3968.3	1220.84	.61042
323.37	4008.7	1221.41	.610705
323.37	4049.2	1222.01	.611005
323.37	4086.5	1222.57	.611285
323.37	4125.9	1223.19	.611595
323.37	5211.3	1238.02	.61901
323.37	5267.7	1238.8	.6194
323.37	5326.8	1239.64	.61982
323.37	5386	1240.28	.62014
323.37	5440.9	1241.12	.62056
323.37	5498.8	1241.79	.620895
323.37	5518.2	1242.1	.62105
323.37	5575.5	1242.7	.62135
323.37	5631.7	1243.39	.621695
323.37	5693	1244.16	.62208
323.37	5751.8	1244.98	.62249
323.37	5808.1	1245.67	.622835
323.37	5864.8	1246.37	.623185
323.37	5921.9	1247.09	.623545
323.37	5977.9	1247.78	.62389
323.37	6035	1248.49	.624245
323.37	6091.4	1249	.6245
323.37	6150.7	1249.77	.624885
323.37	6208.1	1250.43	.625215
323.37	6265.4	1251.23	.625615
323.37	6323.2	1251.69	.625845
323.37	6380.6	1252.41	.626205
323.37	6438.3	1253.13	.626565
323.37	6494.6	1253.91	.626955
323.37	6551.8	1254.4	.6272
323.37	6606.9	1255.07	.627535
323.37	6663.3	1255.73	.627865
323.37	6721.4	1256.27	.628135
323.37	8048	1270.66	.63533
323.37	8125.8	1271.24	.63562
323.37	8203.2	1272.24	.63612
323.37	8277.9	1272.98	.63649
323.37	8354.3	1273.75	.636875
323.37	8407.9	1274.11	.637055
323.37	8486.2	1275.02	.63751
323.37	8565.3	1275.71	.637855
323.37	8644.1	1276.5	.63825
323.37	8721.2	1277.38	.63869
323.37	8795.7	1278.02	.63901
323.37	8871.5	1278.77	.639385
323.37	8923.6	1279.19	.639595
323.37	9000	1279.98	.63999
323.37	9075.8	1280.67	.640335
323.37	9128	1281.22	.64061
323.37	9181	1281.6	.6408
323.37	9257	1282.4	.6412
323.37	9330.9	1283.02	.64151
323.37	9404.8	1283.76	.64188
323.37	9479.6	1284.46	.64223
323.37	9533	1284.99	.642495
323.37	9609.3	1285.65	.642825
323.37	9682.9	1286.27	.643135
323.37	9757.3	1287.03	.643515
323.37	9833.2	1287.72	.64386
323.37	9909.3	1288.32	.64416
323.37	9986.3	1289.02	.64451
343.18	2257.1	1022.11	.511055
343.18	2260.4	1022.55	.511275
343.18	2263.3	1022.75	.511375
343.18	2269.6	1023.31	.511655
343.18	2279.2	1024.07	.512035
343.18	2887.1	1056.99	.528495
343.18	2909.8	1058.07	.529035
343.18	2930.4	1058.89	.529445
343.18	2950.3	1059.55	.529775
343.18	2967.4	1060.2	.5301
343.18	4697.6	1116.51	.558255
343.18	4742.5	1117.74	.55887
343.18	4786.3	1118.99	.559495
343.18	4833.9	1120.08	.56004
343.18	4887.4	1121.18	.56059
343.18	7477.5	1171.63	.585815
343.18	7539.3	1172.69	.586345
343.18	7580	1173.37	.586685
343.18	7621.6	1174.18	.58709
343.18	7663.4	1174.54	.58727
343.18	2287.2	1024.5	.51225
343.18	2297	1025.46	.51273
343.18	2306	1025.93	.512965
343.18	2314	1026.5	.51325
343.18	2323.3	1027.29	.513645
343.18	2331.8	1027.71	.513855
343.18	2340.3	1028.3	.51415
343.18	2348.6	1028.71	.514355
343.18	2357.9	1029.39	.514695
343.18	2367.9	1029.94	.51497
343.18	2376.2	1030.38	.51519
343.18	2386.7	1030.85	.515425
343.18	2396.9	1031.35	.515675
343.18	2403.7	1031.5	.51575
343.18	2413.7	1032.28	.51614
343.18	2426.4	1032.67	.516335
343.18	2437.3	1033.33	.516665
343.18	2447	1034.04	.51702
343.18	2457.9	1034.52	.51726
343.18	2464	1034.92	.51746
343.18	2470.6	1035.47	.517735
343.18	2480.5	1035.86	.51793
343.18	2486.7	1036.28	.51814
343.18	2497.1	1037.07	.518535
343.18	2503.3	1037.46	.51873
343.18	2522.8	1038.69	.519345
343.18	2540.4	1039.48	.51974
343.18	2556.8	1040.31	.520155
343.18	2578.1	1041.52	.52076
343.18	2596.9	1042.44	.52122
343.18	2616.9	1043.45	.521725
343.18	2632.9	1044.34	.52217
343.18	2650.6	1045.42	.52271
343.18	2671.6	1046.57	.523285
343.18	2693	1047.89	.523945
343.18	2710.6	1048.77	.524385
343.18	2730.2	1049.48	.52474
343.18	2747.6	1050.19	.525095
343.18	2764.4	1050.73	.525365
343.18	2782.1	1051.54	.52577
343.18	2799.6	1052.3	.52615
343.18	2815.7	1053.03	.526515
343.18	2831.9	1053.99	.526995
343.18	2852.2	1055	.5275
343.18	2986	1061.16	.53058
343.18	3013.7	1062.17	.531085
343.18	3046.6	1063.75	.531875
343.18	3078.2	1064.77	.532385
343.18	3103.6	1065.88	.53294
343.18	3134.8	1067.08	.53354
343.18	3168.5	1068.48	.53424
343.18	3201.9	1069.74	.53487
343.18	3235.7	1071.04	.53552
343.18	3266.7	1072.23	.536115
343.18	3300.3	1073.66	.53683
343.18	3332	1075.03	.537515
343.18	3361.4	1076.36	.53818
343.18	3394.9	1077.6	.5388
343.18	3430.3	1078.63	.539315
343.18	3463.3	1079.82	.53991
343.18	3496.3	1081.01	.540505
343.18	3518.3	1081.82	.54091
343.18	3550.7	1083.01	.541505
343.18	3586.6	1084.11	.542055
343.18	3619.2	1085.32	.54266
343.18	3651.4	1086.39	.543195
343.18	3686	1087.66	.54383
343.18	3728.2	1089.03	.544515
343.18	3764.5	1090.25	.545125
343.18	3805.5	1091.78	.54589
343.18	3846.6	1092.95	.546475
343.18	3882.5	1093.89	.546945
343.18	3923.8	1095.4	.5477
343.18	3956.8	1096.28	.54814
343.18	3999.1	1097.44	.54872
343.18	4049.2	1099.28	.54964
343.18	4092.3	1100.59	.550295
343.18	4134.3	1101.91	.550955
343.18	4183.8	1102.89	.551445
343.18	4226.9	1104.11	.552055
343.18	4279.1	1105.63	.552815
343.18	4326.3	1106.67	.553335
343.18	4369.2	1107.87	.553935
343.18	4410.8	1109.1	.55455
343.18	4451.8	1110.42	.55521
343.18	4504	1111.78	.55589
343.18	4556.4	1112.8	.5564
343.18	4599.1	1114.05	.557025
343.18	4933.1	1122.24	.56112
343.18	4985.1	1123.76	.56188
343.18	5029	1124.72	.56236
343.18	5073.9	1125.85	.562925
343.18	5132.4	1127.18	.56359
343.18	5174	1128.12	.56406
343.18	5238.1	1129.48	.56474
343.18	5301.9	1130.82	.56541
343.18	5346.6	1131.66	.56583
343.18	5387.9	1132.67	.566335
343.18	5429.7	1133.71	.566855
343.18	5474	1134.83	.567415
343.18	5517.7	1135.51	.567755
343.18	5596.3	1137.23	.568615
343.18	5658.9	1138.61	.569305
343.18	5702.1	1139.38	.56969
343.18	5743.1	1140.46	.57023
343.18	5803.5	1141.76	.57088
343.18	5846.3	1142.59	.571295
343.18	5891.3	1143.58	.57179
343.18	5933.5	1144.39	.572195
343.18	5995	1145.68	.57284
343.18	6036	1146.23	.573115
343.18	6160	1148.79	.574395
343.18	6218.2	1149.66	.57483
343.18	6324.7	1151.65	.575825
343.18	6365.2	1152.43	.576215
343.18	6407.3	1153.32	.57666
343.18	6470.4	1154.32	.57716
343.18	6550	1155.81	.577905
343.18	6660.8	1157.92	.57896
343.18	6725.9	1159.01	.579505
343.18	6839.7	1161.35	.580675
343.18	6887	1162.02	.58101
343.18	6930.3	1162.69	.581345
343.18	6976.6	1163.25	.581625
343.18	7038.7	1164.35	.582175
343.18	7080.9	1165.18	.58259
343.18	7123.3	1165.76	.58288
343.18	7163.7	1166.5	.58325
343.18	7207.1	1167.25	.583625
343.18	7249.5	1168.08	.58404
343.18	7293.3	1168.78	.58439
343.18	7354.7	1169.81	.584905
343.18	7709.7	1175.39	.587695
343.18	7753.6	1176.17	.588085
343.18	7797.5	1176.76	.58838
343.18	7837.6	1177.31	.588655
343.18	7898.4	1178.24	.58912
343.18	7941.1	1178.97	.589485
343.18	7984.5	1179.58	.58979
343.18	8043.1	1180.22	.59011
343.18	8085.6	1180.85	.590425
343.18	8131.1	1181.65	.590825
343.18	8209.9	1183.02	.59151
343.18	8291.5	1184.04	.59202
343.18	8335.5	1184.74	.59237
343.18	8378	1185.42	.59271
343.18	8419.6	1185.91	.592955
343.18	8464.8	1186.51	.593255
343.18	8525.6	1187.33	.593665
343.18	8587	1188.25	.594125
343.18	8628.5	1188.86	.59443
343.18	8670.7	1189.47	.594735
343.18	8714.6	1189.91	.594955
343.18	8776.2	1190.93	.595465
343.18	8818.3	1191.58	.59579
343.18	8881.2	1192.4	.5962
343.18	8941.7	1193.53	.596765
343.18	9000.5	1194.02	.59701
343.18	9064	1194.66	.59733
343.18	9123.4	1195.43	.597715
343.18	9184.1	1196.23	.598115
343.18	9262	1197.29	.598645
343.18	9304.6	1197.74	.59887
343.18	9350.1	1198.56	.59928
343.18	9408.2	1199.15	.599575
343.18	9449.8	1199.74	.59987
343.18	9509.5	1200.56	.60028
343.18	9567.5	1201.28	.60064
343.18	9607.9	1202.1	.60105
343.18	9667.5	1202.79	.601395
343.18	9708	1203.31	.601655
343.18	9749.9	1203.76	.60188
343.18	9796.9	1204.53	.602265
343.18	9839	1205.06	.60253
343.18	9920.9	1205.9	.60295
343.18	9962.6	1206.45	.603225
348.16	2506.4	959.6	.4798
348.16	2506.4	959.6	.4798
348.16	2507.7	959.78	.47989
348.16	2509	959.97	.479985
348.16	2510.7	960.12	.48006
348.16	2511.1	960.28	.48014
348.16	2513.5	960.38	.48019
348.16	2516.3	960.72	.48036
348.16	2517	960.83	.480415
348.16	2518.6	961.02	.48051
348.16	2520.1	961.1	.48055
348.16	2520.8	961.16	.48058
348.16	2522.6	961.35	.480675
348.16	2523.5	961.75	.480875
348.16	2525.5	961.71	.480855
348.16	2530	962.41	.481205
348.16	2532.2	962.81	.481405
348.16	2535.5	963.11	.481555
348.16	2526.1	961.8	.4809
348.16	2538.4	963.1	.48155
348.16	2542.3	963.6	.4818
348.16	2544.8	963.72	.48186
348.16	2547.3	963.99	.481995
348.16	2549.5	964.46	.48223
348.16	2554.5	964.95	.482475
348.16	2561	965.66	.48283
348.16	2568.5	966.39	.483195
348.16	2574.8	967.01	.483505
348.16	2581.7	967.68	.48384
348.16	2588.5	968.36	.48418
348.16	2595	968.97	.484485
348.16	2601.2	969.69	.484845
348.16	2614.7	970.9	.48545
348.16	2627.6	972.33	.486165
348.16	2633.8	972.9	.48645
348.16	2835.1	989.69	.494845
348.16	2847.5	990.63	.495315
348.16	2861.9	991.98	.49599
348.16	2875.4	992.69	.496345
348.16	2888.5	993.69	.496845
348.16	2902.4	994.77	.497385
348.16	2923.1	996.32	.49816
348.16	2943.1	997.63	.498815
348.16	2969.1	999.28	.49964
348.16	2994.8	1001.06	.50053
348.16	3015.4	1002.63	.501315
348.16	3036.5	1004.18	.50209
348.16	3061.5	1005.54	.50277
348.16	3081.9	1006.76	.50338
348.16	3102.2	1008.02	.50401
348.16	3129.1	1009.6	.5048
348.16	3135.2	1009.88	.50494
348.16	3142.1	1010.13	.505065
348.16	3154.2	1010.88	.50544
348.16	3176.2	1012.35	.506175
348.16	3202.5	1013.88	.50694
348.16	3223.6	1015.07	.507535
348.16	3244.1	1016.31	.508155
348.16	3266.6	1017.56	.50878
348.16	3287	1018.73	.509365
348.16	3310.2	1020.02	.51001
348.16	3316.2	1020.28	.51014
348.16	3323.1	1020.54	.51027
348.16	3330.6	1020.95	.510475
348.16	3337.3	1021.47	.510735
348.16	3343.7	1021.72	.51086
348.16	3351.1	1022.04	.51102
348.16	3359.3	1022.61	.511305
348.16	3365.4	1022.8	.5114
348.16	3373.8	1023.35	.511675
348.16	4030.8	1052.17	.526085
348.16	4092	1054.62	.52731
348.16	4154	1057.08	.52854
348.16	4217.2	1059.37	.529685
348.16	4278.7	1061.59	.530795
348.16	4339.9	1063.83	.531915
348.16	4402.1	1065.77	.532885
348.16	4464.2	1067.89	.533945
348.16	4526	1070.05	.535025
348.16	4587.8	1072.01	.536005
348.16	4650.2	1074.03	.537015
348.16	4713.9	1075.88	.53794
348.16	4776	1077.88	.53894
348.16	4837.4	1079.66	.53983
348.16	4898.5	1081.71	.540855
348.16	4959.8	1083.32	.54166
348.16	5022.6	1085.31	.542655
348.16	5083.3	1086.88	.54344
348.16	5144.8	1088.55	.544275
348.16	5206	1090.21	.545105
348.16	5267.2	1091.82	.54591
348.16	5329.1	1093.58	.54679
348.16	5389.3	1095.16	.54758
348.16	5451.8	1096.85	.548425
348.16	5513.3	1098.5	.54925
348.16	5576.7	1100.15	.550075
348.16	5638.9	1101.65	.550825
348.16	5701.8	1103.22	.55161
348.16	5762.2	1104.69	.552345
348.16	5825.1	1106.21	.553105
348.16	5886.9	1107.77	.553885
348.16	5948.2	1109.1	.55455
348.16	6012.5	1110.68	.55534
348.16	6074.1	1112.14	.55607
348.16	6135.8	1113.56	.55678
348.16	7142.8	1134.61	.567305
348.16	7205.4	1135.79	.567895
348.16	7269.5	1136.95	.568475
348.16	7332.4	1138.09	.569045
348.16	7396.2	1139.31	.569655
348.16	7458.5	1140.53	.570265
348.16	7521.9	1141.64	.57082
348.16	7584.8	1142.73	.571365
348.16	7646.8	1143.93	.571965
348.16	7707.9	1145.12	.57256
348.16	7771.4	1146.25	.573125
348.16	7835.4	1147.35	.573675
348.16	7897.7	1148.36	.57418
348.16	7961.9	1149.49	.574745
348.16	8025.7	1150.51	.575255
348.16	8087.3	1151.69	.575845
348.16	8149.7	1152.67	.576335
348.16	8214.5	1153.77	.576885
348.16	8278.5	1154.85	.577425
348.16	8341.3	1155.78	.57789
348.16	8406.3	1157	.5785
348.16	8469.9	1157.97	.578985
348.16	8531.4	1158.94	.57947
348.16	8594.4	1159.97	.579985
348.16	8659.7	1160.84	.58042
348.16	8722.7	1161.97	.580985
348.16	8786.5	1163	.5815
348.16	8848.4	1163.83	.581915
348.16	8911.7	1164.85	.582425
348.16	8974.2	1165.76	.58288
348.16	9039.8	1166.77	.583385
348.16	9105.6	1167.83	.583915
348.16	9170.3	1168.8	.5844
348.16	9233.7	1169.7	.58485
348.16	9295.2	1170.74	.58537
348.16	2640.7	973.53	.486765
348.16	2654.7	974.76	.48738
348.16	2667.6	976.02	.48801
348.16	2680.1	977.1	.48855
348.16	2693.1	978.18	.48909
348.16	2706.1	979.32	.48966
348.16	2718.8	980.44	.49022
348.16	2730.9	981.5	.49075
348.16	2744.5	982.55	.491275
348.16	2756.9	983.71	.491855
348.16	2770.2	984.59	.492295
348.16	2782.7	985.9	.49295
348.16	2796.7	986.93	.493465
348.16	2809.4	987.97	.493985
348.16	3380	1023.59	.511795
348.16	3386.2	1023.86	.51193
348.16	3392.5	1024.46	.51223
348.16	3400.2	1024.64	.51232
348.16	3423.6	1025.65	.512825
348.16	3450.8	1027.09	.513545
348.16	3473.5	1028.21	.514105
348.16	3495.4	1029.31	.514655
348.16	3556	1032.19	.516095
348.16	3620.1	1035.16	.51758
348.16	3683.5	1037.98	.51899
348.16	3748.1	1040.81	.520405
348.16	3811.8	1043.57	.521785
348.16	3875.5	1046.1	.52305
348.16	6199.8	1114.99	.557495
348.16	6262.2	1116.4	.5582
348.16	6326.8	1117.78	.55889
348.16	6392.4	1119.12	.55956
348.16	6456	1120.57	.560285
348.16	6517.7	1121.84	.56092
348.16	6581	1123.2	.5616
348.16	6643.4	1124.53	.562265
348.16	6706.3	1125.82	.56291
348.16	6767.7	1127.07	.563535
348.16	6830.9	1128.32	.56416
348.16	6893	1129.63	.564815
348.16	6955.9	1130.87	.565435
348.16	7017.5	1132.05	.566025
348.16	9362.9	1171.78	.58589
348.16	9399.4	1172.31	.586155
348.16	9466.9	1173.32	.58666
348.16	9534.3	1174.34	.58717
348.16	9571.4	1174.89	.587445
348.16	9609.6	1175.39	.587695
348.16	9656.8	1176.01	.588005
348.16	9696	1176.45	.588225
348.16	9739.9	1177.06	.58853
348.16	9788.9	1175.42	.58771
348.16	9833.1	1175.9	.58795
348.16	9877.8	1176.32	.58816
348.16	9944.3	1179.73	.589865
348.16	10015.8	1180.6	.5903
353.13	2798.4	887.06	.44353
353.13	2805.3	888.96	.44448
353.13	2812.6	890.6	.4453
353.13	2818.9	891.84	.44592
353.13	2825.7	893.67	.446835
353.13	2832.6	894.71	.447355
353.13	2839.4	896.74	.44837
353.13	2846	898.09	.449045
353.13	2852.6	899.46	.44973
353.13	2859.8	900.81	.450405
353.13	2866.7	902.11	.451055
353.13	2873.8	903.63	.451815
353.13	2881	904.67	.452335
353.13	2888.2	906.06	.45303
353.13	2908.5	909.29	.454645
353.13	2928.4	912.84	.45642
353.13	2948.2	915.77	.457885
353.13	2969.5	918.7	.45935
353.13	2989.9	921.51	.460755
353.13	3009.6	924.14	.46207
353.13	3030.5	926.96	.46348
353.13	3736	988.5	.49425
353.13	3763.9	990.13	.495065
353.13	3788.8	991.7	.49585
353.13	3815.8	993.28	.49664
353.13	3840.7	994.81	.497405
353.13	3865.5	996.26	.49813
353.13	3891.9	997.74	.49887
353.13	3918.8	999.3	.49965
353.13	3943.7	1000.71	.500355
353.13	3971.8	1002.02	.50101
353.13	3985.4	1002.96	.50148
353.13	4027.5	1005.16	.50258
353.13	4066.7	1007.14	.50357
353.13	4105.8	1009.21	.504605
353.13	4146.8	1011.34	.50567
353.13	4185.8	1013.28	.50664
353.13	4216	1014.76	.50738
353.13	4257.8	1016.64	.50832
353.13	4298.4	1018.66	.50933
353.13	4335.1	1020.3	.51015
353.13	4374.3	1022.01	.511005
353.13	5559.8	1065.32	.53266
353.13	5597.5	1066.51	.533255
353.13	5634.9	1067.6	.5338
353.13	5673	1068.78	.53439
353.13	5711.7	1069.91	.534955
353.13	5751	1071.01	.535505
353.13	5788.5	1072.12	.53606
353.13	5826.7	1073.17	.536585
353.13	5865.4	1074.15	.537075
353.13	5902.7	1075.33	.537665
353.13	5941.8	1076.43	.538215
353.13	5981.5	1077.54	.53877
353.13	6019.6	1078.56	.53928
353.13	6060.4	1079.62	.53981
353.13	6101	1080.65	.540325
353.13	6140.3	1081.81	.540905
353.13	6177.9	1082.78	.54139
353.13	6216.7	1083.8	.5419
353.13	6254.1	1084.82	.54241
353.13	6293.2	1085.83	.542915
353.13	6333.5	1086.9	.54345
353.13	7521.7	1113.95	.556975
353.13	7570.3	1114.91	.557455
353.13	7620.7	1116.02	.55801
353.13	7669.4	1116.98	.55849
353.13	7719.8	1117.99	.558995
353.13	7771.4	1119.1	.55955
353.13	7821.6	1120.08	.56004
353.13	7875	1121.14	.56057
353.13	7925.8	1122.03	.561015
353.13	7977.1	1123.21	.561605
353.13	8027.6	1124.05	.562025
353.13	8077.8	1124.94	.56247
353.13	8128	1125.99	.562995
353.13	8179.4	1126.95	.563475
353.13	8229.7	1127.86	.56393
353.13	8281.6	1128.88	.56444
353.13	8333.3	1129.8	.5649
353.13	8384.4	1130.91	.565455
353.13	8434.2	1131.83	.565915
353.13	8483.8	1132.74	.56637
353.13	8533	1133.6	.5668
353.13	3051.7	929.82	.46491
353.13	3072.6	932.36	.46618
353.13	3094.1	935.03	.467515
353.13	3116.1	937.73	.468865
353.13	3136.7	940.03	.470015
353.13	3159.1	942.35	.471175
353.13	3182.1	944.69	.472345
353.13	3205.5	946.93	.473465
353.13	3225.2	948.79	.474395
353.13	3246.7	950.79	.475395
353.13	3265.8	952.67	.476335
353.13	3286.3	954.54	.47727
353.13	3309.6	956.7	.47835
353.13	3330.5	958.57	.479285
353.13	3353	960.43	.480215
353.13	3369.2	961.77	.480885
353.13	3392.7	963.71	.481855
353.13	3399	964.17	.482085
353.13	3429.5	966.86	.48343
353.13	3457.9	969.07	.484535
353.13	3487.3	971.26	.48563
353.13	3521.2	973.81	.486905
353.13	3546.8	975.65	.487825
353.13	3574.3	977.54	.48877
353.13	3599.5	979.42	.48971
353.13	3626.9	981.32	.49066
353.13	3653.9	982.94	.49147
353.13	3680.4	984.8	.4924
353.13	4415.3	1023.76	.51188
353.13	4454.8	1025.55	.512775
353.13	4494.4	1027.22	.51361
353.13	4534	1028.89	.514445
353.13	4574.1	1030.62	.51531
353.13	4611.4	1032.18	.51609
353.13	4650.8	1033.77	.516885
353.13	4692	1035.33	.517665
353.13	4731.2	1036.88	.51844
353.13	4772.4	1038.52	.51926
353.13	4813.3	1040.05	.520025
353.13	4854.9	1041.63	.520815
353.13	4892.5	1043.01	.521505
353.13	4933.3	1044.53	.522265
353.13	4970.7	1045.82	.52291
353.13	5012.1	1047.29	.523645
353.13	5052.5	1048.76	.52438
353.13	5091.9	1050.11	.525055
353.13	5130	1051.53	.525765
353.13	5169.1	1052.89	.526445
353.13	5208.1	1054.11	.527055
353.13	5247	1055.36	.52768
353.13	5287.6	1056.62	.52831
353.13	5325.3	1057.82	.52891
353.13	5365.1	1059.19	.529595
353.13	5403.1	1060.48	.53024
353.13	5442.6	1061.62	.53081
353.13	5480.8	1062.93	.531465
353.13	6371.8	1087.85	.543925
353.13	6409	1088.79	.544395
353.13	6445.8	1089.69	.544845
353.13	6484.6	1090.62	.54531
353.13	6524.7	1091.6	.5458
353.13	6563.9	1092.58	.54629
353.13	6604.4	1093.48	.54674
353.13	6642.7	1094.43	.547215
353.13	6683.7	1095.45	.547725
353.13	6726.1	1096.44	.54822
353.13	6764	1097.33	.548665
353.13	6802.8	1098.22	.54911
353.13	6841.6	1099.15	.549575
353.13	6882	1100.04	.55002
353.13	6922.2	1101.01	.550505
353.13	6960.8	1101.88	.55094
353.13	7001.3	1102.71	.551355
353.13	7038.1	1103.6	.5518
353.13	7076.1	1104.43	.552215
353.13	7114.4	1105.3	.55265
353.13	7154.8	1106.21	.553105
353.13	7191.9	1106.87	.553435
353.13	7231.5	1107.79	.553895
353.13	7270.9	1108.59	.554295
353.13	7309.7	1109.52	.55476
353.13	7347.2	1110.31	.555155
353.13	7384.6	1111.14	.55557
353.13	7426.6	1111.94	.55597
353.13	8585.1	1134.64	.56732
353.13	8636.6	1135.48	.56774
353.13	8688.1	1136.4	.5682
353.13	8739.4	1137.27	.568635
353.13	8787.9	1138.25	.569125
353.13	8838.8	1138.97	.569485
353.13	8890.6	1140.08	.57004
353.13	8940.9	1140.78	.57039
353.13	8990.5	1141.72	.57086
353.13	9042.5	1142.55	.571275
353.13	9093.8	1143.46	.57173
353.13	9145.5	1144.29	.572145
353.13	9199.3	1145.07	.572535
353.13	9251.5	1145.95	.572975
353.13	9300.6	1146.86	.57343
353.13	9353.4	1147.68	.57384
353.13	9405.2	1148.61	.574305
353.13	9453.7	1149.26	.57463
353.13	9503.3	1150.03	.575015
353.13	9555.6	1150.83	.575415
353.13	9607.5	1151.69	.575845
353.13	9658.7	1152.54	.57627
353.13	9709.8	1153.31	.576655
353.13	9762.3	1154.19	.577095
353.13	9811.9	1154.85	.577425
353.13	9863.5	1155.62	.57781
353.13	9915.1	1156.42	.57821
353.13	9969.2	1157.38	.57869
355.18	2917.9	845.6	.4228
355.18	2920.4	846.43	.423215
355.18	2923.2	847.74	.42387
355.18	2925.7	848.75	.424375
355.18	2927.7	849.49	.424745
355.18	2929.8	850.21	.425105
355.18	3453.4	937.53	.468765
355.18	3496.3	941.66	.47083
355.18	3516.9	943.53	.471765
355.18	3539.3	945.7	.47285
355.18	3560.5	947.64	.47382
355.18	3582.1	949.46	.47473
355.18	4873.9	1023.7	.51185
355.18	4913.4	1025.32	.51266
355.18	4951	1026.84	.51342
355.18	4991.2	1028.51	.514255
355.18	5029.8	1029.94	.51497
355.18	5070.6	1031.42	.51571
355.18	7366.2	1097.33	.548665
355.18	7415.2	1098.43	.549215
355.18	7466	1099.6	.5498
355.18	7516.3	1100.77	.550385
355.18	7566.3	1101.91	.550955
355.18	7616.2	1102.85	.551425
355.18	2931.8	850.86	.42543
355.18	2933.8	851.6	.4258
355.18	2936.9	852.8	.4264
355.18	2939.2	853.64	.42682
355.18	2941.8	854.46	.42723
355.18	2944.4	855.06	.42753
355.18	2946.6	855.85	.427925
355.18	2948.8	856.52	.42826
355.18	2952.8	857.85	.428925
355.18	2960	859.85	.429925
355.18	2967.7	861.92	.43096
355.18	2975.4	863.9	.43195
355.18	2989.1	868.46	.43423
355.18	2995.9	870.43	.435215
355.18	3004.5	872.46	.43623
355.18	3019.2	876.04	.43802
355.18	3027.3	878.11	.439055
355.18	3033.9	879.53	.439765
355.18	3039.9	880.6	.4403
355.18	3094.7	890.53	.445265
355.18	3105.5	892.47	.446235
355.18	3126.6	896.05	.448025
355.18	3136.9	897.86	.44893
355.18	3146.9	899.37	.449685
355.18	3157.8	901.09	.450545
355.18	3167.8	902.86	.45143
355.18	3178.7	904.31	.452155
355.18	3189.5	906.01	.453005
355.18	3200.1	907.48	.45374
355.18	3210.7	909	.4545
355.18	3221.2	910.46	.45523
355.18	3231.6	911.83	.455915
355.18	3252.1	914.62	.45731
355.18	3263.1	916.04	.45802
355.18	3273.1	917.41	.458705
355.18	3283.4	918.63	.459315
355.18	3294.3	920.14	.46007
355.18	3304.3	921.35	.460675
355.18	3325.4	923.75	.461875
355.18	3347.5	926.36	.46318
355.18	3368.1	928.74	.46437
355.18	3388.8	930.98	.46549
355.18	3410.2	933.28	.46664
355.18	3603.9	951.17	.475585
355.18	3625.9	953.18	.47659
355.18	3667.2	956.48	.47824
355.18	3687.7	958.15	.479075
355.18	3708.3	959.83	.479915
355.18	3730.3	961.36	.48068
355.18	3751.6	963.12	.48156
355.18	3773.4	964.61	.482305
355.18	3795.3	966.25	.483125
355.18	3807.5	967.13	.483565
355.18	3828.9	968.54	.48427
355.18	3851.4	970.11	.485055
355.18	3873.7	971.7	.48585
355.18	3916.8	974.54	.48727
355.18	3938.9	976.09	.488045
355.18	3959.3	977.28	.48864
355.18	3981	978.83	.489415
355.18	4015.2	980.9	.49045
355.18	4033.6	981.94	.49097
355.18	4071.4	984.1	.49205
355.18	4091.9	985.37	.492685
355.18	4110.7	986.72	.49336
355.18	4129.8	987.54	.49377
355.18	4149.4	988.81	.494405
355.18	4167.6	989.92	.49496
355.18	4186.6	990.96	.49548
355.18	4206.8	992.1	.49605
355.18	4226.2	992.98	.49649
355.18	4244.6	994.12	.49706
355.18	4263.6	995.02	.49751
355.18	4281.8	995.99	.497995
355.18	4338	998.86	.49943
355.18	4375.5	1000.94	.50047
355.18	4413	1002.73	.501365
355.18	4449.8	1004.57	.502285
355.18	4487.2	1006.43	.503215
355.18	4525	1008.13	.504065
355.18	4562.1	1009.97	.504985
355.18	4599	1011.6	.5058
355.18	4638.8	1013.65	.506825
355.18	4677.4	1015.25	.507625
355.18	4716.6	1016.92	.50846
355.18	4794.9	1020.36	.51018
355.18	5113	1033.05	.516525
355.18	5154.1	1034.66	.51733
355.18	5236.8	1037.65	.518825
355.18	5275.8	1039.14	.51957
355.18	5316.9	1040.61	.520305
355.18	5355.6	1041.9	.52095
355.18	5398.7	1043.42	.52171
355.18	5439.2	1044.89	.522445
355.18	5483.2	1046.3	.52315
355.18	5561	1048.84	.52442
355.18	5601.4	1050.18	.52509
355.18	5642.3	1051.53	.525765
355.18	5684.6	1052.92	.52646
355.18	5724.6	1054.21	.527105
355.18	5768.2	1055.5	.52775
355.18	5808.2	1056.73	.528365
355.18	5848.7	1058.05	.529025
355.18	5893.8	1059.3	.52965
355.18	5935.5	1060.51	.530255
355.18	5972.8	1061.59	.530795
355.18	6013.5	1062.81	.531405
355.18	6113.5	1065.75	.532875
355.18	6163.2	1067.09	.533545
355.18	6213.3	1068.54	.53427
355.18	6263.6	1069.94	.53497
355.18	6313.1	1071.25	.535625
355.18	6362.4	1072.65	.536325
355.18	6411	1074	.537
355.18	6461.2	1075.29	.537645
355.18	6562.7	1077.95	.538975
355.18	6611.5	1079.21	.539605
355.18	6661.1	1080.53	.540265
355.18	6710.9	1081.81	.540905
355.18	6761.1	1083.05	.541525
355.18	6812.8	1084.3	.54215
355.18	6865.2	1085.67	.542835
355.18	6915.7	1086.78	.54339
355.18	6965.9	1088.01	.544005
355.18	7014.9	1089.29	.544645
355.18	7065.8	1090.44	.54522
355.18	7164.6	1092.85	.546425
355.18	7216.4	1093.92	.54696
355.18	7265.8	1095.06	.54753
355.18	7718.1	1105.05	.552525
355.18	7768.7	1106.11	.553055
355.18	7817.3	1107.12	.55356
355.18	7868.8	1108.17	.554085
355.18	7921.6	1109.13	.554565
355.18	7971.5	1110.3	.55515
355.18	8069.1	1112.3	.55615
355.18	8121.2	1113.23	.556615
355.18	8171.1	1114.28	.55714
355.18	8220.8	1115.22	.55761
355.18	8273.9	1116.3	.55815
355.18	8324.3	1117.22	.55861
355.18	8376.9	1118.25	.559125
355.18	8428.6	1119.32	.55966
355.18	8478.5	1120.28	.56014
355.18	8528.9	1121.22	.56061
355.18	8578.5	1122.06	.56103
355.18	8628.9	1123.04	.56152
355.18	8681.5	1124	.562
355.18	8731.5	1124.98	.56249
355.18	8781.2	1125.78	.56289
355.18	8835.2	1126.86	.56343
355.18	8886.8	1127.78	.56389
355.18	8989.2	1129.56	.56478
355.18	9039.4	1130.46	.56523
355.18	9089.8	1131.27	.565635
355.18	9138.1	1132.17	.566085
355.18	9187.7	1132.92	.56646
355.18	9238.4	1133.87	.566935
355.18	9290.5	1134.77	.567385
355.18	9339.3	1135.6	.5678
355.18	9390.7	1136.39	.568195
355.18	9440.4	1137.24	.56862
355.18	9543	1138.93	.569465
355.18	9592.9	1139.78	.56989
355.18	9645.5	1140.58	.57029
355.18	9695.7	1141.39	.570695
355.18	9747.1	1142.23	.571115
355.18	9796.2	1143.06	.57153
355.18	9846.2	1143.79	.571895
355.18	9896.5	1144.79	.572395
355.18	9947.2	1145.37	.572685
355.18	9998.1	1146.19	.573095
357.01	3028.5	789.77	.394885
357.01	3030.8	791.93	.395965
357.01	3032.9	793.76	.39688
357.01	3035	795.08	.39754
357.01	3037.1	796.63	.398315
357.01	3039.5	798.44	.39922
357.01	3041.7	799.96	.39998
357.01	3044	801.6	.4008
357.01	3046	802.75	.401375
357.01	3052	806.74	.40337
357.01	3055.7	808.82	.40441
357.01	3059.3	810.72	.40536
357.01	3062.9	812.63	.406315
357.01	3066.3	814.7	.40735
357.01	3069.9	816.53	.408265
357.01	3073.4	818.11	.409055
357.01	3077.1	819.71	.409855
357.01	3081.1	821.77	.410885
357.01	3084.7	823.28	.41164
357.01	3088.4	824.79	.412395
357.01	3095.6	828.01	.414005
357.01	3097.6	828.88	.41444
357.01	3104.3	831.16	.41558
357.01	3114.1	834.77	.417385
357.01	3123.9	838.1	.41905
357.01	3133.7	841.6	.4208
357.01	3153.7	847.97	.423985
357.01	3163.8	850.53	.425265
357.01	3173.8	853.47	.426735
357.01	3184.9	856.37	.428185
357.01	3195	858.9	.42945
357.01	3205.2	861.29	.430645
357.01	3230.2	866.99	.433495
357.01	3243.1	869.66	.43483
357.01	3256.4	872.23	.436115
357.01	3269.5	874.91	.437455
357.01	3514.9	911.85	.455925
357.01	3540.5	914.94	.45747
357.01	3590.4	920.73	.460365
357.01	3614.6	923.49	.461745
357.01	3639.2	926.14	.46307
357.01	3664.9	928.77	.464385
357.01	3689.5	931.28	.46564
357.01	3714.8	933.72	.46686
357.01	3740.1	936.03	.468015
357.01	3764.8	938.27	.469135
357.01	3815.9	942.63	.471315
357.01	3841.4	944.76	.47238
357.01	3866.1	946.85	.473425
357.01	3891.2	948.86	.47443
357.01	3916.1	950.85	.475425
357.01	3941.3	952.87	.476435
357.01	3966.7	954.74	.47737
357.01	3992.1	956.67	.478335
357.01	4032.7	959.68	.47984
357.01	4052.9	961.12	.48056
357.01	4073.2	962.41	.481205
357.01	4094	963.87	.481935
357.01	4114.8	965.29	.482645
357.01	4135	966.6	.4833
357.01	4155.1	967.92	.48396
357.01	4175.4	969.27	.484635
357.01	4195.5	970.62	.48531
357.01	4215.6	971.88	.48594
357.01	4258.3	974.59	.487295
357.01	4279.4	975.81	.487905
357.01	4299.6	977.03	.488515
357.01	4320.4	978.34	.48917
357.01	4340.8	979.7	.48985
357.01	4361.8	980.83	.490415
357.01	4383.2	982.1	.49105
357.01	4404.3	983.28	.49164
357.01	5426.4	1029.68	.51484
357.01	5468.6	1031.33	.515665
357.01	5509.4	1032.71	.516355
357.01	5595.1	1035.91	.517955
357.01	5636.8	1037.33	.518665
357.01	5678.3	1038.78	.51939
357.01	5720.2	1040.29	.520145
357.01	5761.9	1041.7	.52085
357.01	5802.7	1043	.5215
357.01	5844	1044.41	.522205
357.01	5885.2	1045.79	.522895
357.01	5926.3	1047.08	.52354
357.01	5966.4	1048.43	.524215
357.01	6079.9	1052.05	.526025
357.01	6121.3	1053.27	.526635
357.01	6161.6	1054.49	.527245
357.01	6202.1	1055.73	.527865
357.01	6242.6	1057.02	.52851
357.01	6283	1058.17	.529085
357.01	6323.7	1059.35	.529675
357.01	6365.4	1060.53	.530265
357.01	6405.9	1061.73	.530865
357.01	6446.1	1062.93	.531465
357.01	6487.1	1063.92	.53196
357.01	6527.7	1065.18	.53259
357.01	6568.3	1066.33	.533165
357.01	6649.5	1068.55	.534275
357.01	6689.8	1069.61	.534805
357.01	6730.6	1070.82	.53541
357.01	6771.8	1071.89	.535945
357.01	6812.8	1072.89	.536445
357.01	6854	1074.05	.537025
357.01	6894.2	1075.07	.537535
357.01	6976.2	1077.12	.53856
357.01	7016.9	1078.17	.539085
357.01	7059.1	1079.19	.539595
357.01	7760.7	1095.83	.547915
357.01	7802.6	1096.76	.54838
357.01	7843.1	1097.59	.548795
357.01	7885.2	1098.49	.549245
357.01	7925.7	1099.42	.54971
357.01	7967.5	1100.24	.55012
357.01	8050.7	1102.02	.55101
357.01	8094	1102.97	.551485
357.01	8134	1103.77	.551885
357.01	8175.6	1104.71	.552355
357.01	8217.3	1105.6	.5528
357.01	8258	1106.39	.553195
357.01	8301	1107.38	.55369
357.01	8342.7	1108.09	.554045
357.01	8385.4	1108.93	.554465
357.01	8428.9	1109.88	.55494
357.01	8510.3	1111.46	.55573
357.01	8552.8	1112.27	.556135
357.01	8592.9	1113.04	.55652
357.01	8634.2	1113.83	.556915
357.01	8675.9	1114.7	.55735
357.01	8717.3	1115.43	.557715
357.01	8760	1116.3	.55815
357.01	8843.1	1117.91	.558955
357.01	8884.8	1118.68	.55934
357.01	8926.5	1119.39	.559695
357.01	8969.2	1120.21	.560105
357.01	9010.2	1120.94	.56047
357.01	9055	1121.82	.56091
357.01	9096.9	1122.57	.561285
357.01	9138.6	1123.29	.561645
357.01	9223.4	1124.87	.562435
357.01	9264.9	1125.67	.562835
357.01	9307.3	1126.46	.56323
357.01	9350.7	1127.19	.563595
357.01	9393	1127.83	.563915
357.01	3282.6	877.54	.43877
357.01	3295.4	879.85	.439925
357.01	3307.9	882.22	.44111
357.01	3320.3	884.31	.442155
357.01	3334	886.47	.443235
357.01	3347.2	888.84	.44442
357.01	3373.4	892.84	.44642
357.01	3387.8	895.05	.447525
357.01	3400.4	896.81	.448405
357.01	3418.8	899.41	.449705
357.01	3438.2	902.07	.451035
357.01	3457.5	904.69	.452345
357.01	3477.9	907.3	.45365
357.01	4445.8	985.59	.492795
357.01	4467.1	986.71	.493355
357.01	4488.7	987.99	.493995
357.01	4929.3	1009.65	.504825
357.01	4970.6	1011.35	.505675
357.01	5012.8	1013.28	.50664
357.01	5053.2	1015.04	.50752
357.01	5094.4	1016.71	.508355
357.01	5178.4	1020.12	.51006
357.01	5218.9	1021.7	.51085
357.01	5262	1023.52	.51176
357.01	5302.8	1025.13	.512565
357.01	5344.2	1026.56	.51328
357.01	7099.3	1080.34	.54017
357.01	7141	1081.32	.54066
357.01	7182	1082.35	.541175
357.01	7223.7	1083.32	.54166
357.01	7265.2	1084.37	.542185
357.01	7306.5	1085.33	.542665
357.01	7391.5	1087.34	.54367
357.01	7432.1	1088.27	.544135
357.01	7472.8	1089.26	.54463
357.01	7514.5	1090.2	.5451
357.01	7555.9	1091.18	.54559
357.01	7596.5	1092.11	.546055
357.01	7637.6	1093.07	.546535
357.01	9476.5	1129.45	.564725
357.01	9518.3	1130.09	.565045
357.01	9558.9	1130.8	.5654
357.01	9598.9	1131.49	.565745
357.01	9640.9	1132.16	.56608
357.01	9683.8	1132.95	.566475
357.01	9726.5	1133.66	.56683
357.01	9769.9	1134.38	.56719
357.01	9810.5	1135.04	.56752
357.01	9852.5	1135.74	.56787
357.01	9892.6	1136.38	.56819
357.01	9933	1137.03	.568515
357.01	9973.2	1137.69	.568845
358	3077.4	720.16	.36008
358	3079.5	727.89	.363945
358	3081.5	734.5	.36725
358	3083.8	736.72	.36836
358	3086	740.82	.37041
358	3088.2	744.57	.372285
358	3109.3	770.42	.38521
358	3111.5	772.98	.38649
358	3116.7	777.53	.388765
358	3119.3	780.08	.39004
358	3122.7	783.21	.391605
358	3129.1	787.86	.39393
358	3135.8	792.11	.396055
358	3142.4	796.64	.39832
358	3148.6	799.79	.399895
358	3156.4	804.75	.402375
358	3177.8	815.22	.40761
358	3185.3	818.23	.409115
358	3192.2	821.21	.410605
358	3200.1	824.15	.412075
358	3210.8	828.42	.41421
358	3737.5	920.3	.46015
358	3781.6	924.71	.462355
358	3805.3	927.04	.46352
358	3827.1	929.16	.46458
358	3849.3	931.26	.46563
358	3870.8	933.33	.466665
358	3892.8	935.23	.467615
358	3914.1	937.13	.468565
358	3959.7	940.96	.47048
358	3983.8	943.01	.471505
358	4012.7	945.18	.47259
358	4046.1	947.77	.473885
358	4078.7	950.34	.47517
358	4111.6	952.85	.476425
358	4143.9	955.16	.47758
358	4176.6	957.49	.478745
358	4209.5	959.82	.47991
358	4244	962.07	.481035
358	4311.4	966.64	.48332
358	4345.1	968.66	.48433
358	4377.8	970.84	.48542
358	5702.1	1032.29	.516145
358	5755.2	1034.16	.51708
358	5815.3	1036.29	.518145
358	5871.8	1038.22	.51911
358	5932.6	1040.24	.52012
358	5991.6	1042.28	.52114
358	6074.8	1044.98	.52249
358	6112.3	1046.22	.52311
358	6149.2	1047.34	.52367
358	6186.4	1048.47	.524235
358	6224.4	1049.67	.524835
358	6266.3	1050.92	.52546
358	6304.3	1052.13	.526065
358	6342.4	1053.2	.5266
358	6379.7	1054.31	.527155
358	6416.4	1055.29	.527645
358	6452.8	1056.39	.528195
358	6490	1057.54	.52877
358	6563.2	1059.62	.52981
358	6600.1	1060.63	.530315
358	6637.3	1061.72	.53086
358	7903.4	1093.29	.546645
358	7941.2	1094.08	.54704
358	7980.6	1094.93	.547465
358	8017.9	1095.72	.54786
358	8056.1	1096.58	.54829
358	8093.2	1097.39	.548695
358	8130.7	1098.19	.549095
358	8167.5	1098.98	.54949
358	8204.2	1099.77	.549885
358	8277.6	1101.37	.550685
358	8354.7	1102.88	.55144
358	8391	1103.6	.5518
358	8427.7	1104.39	.552195
358	8465.5	1105.17	.552585
358	8503.3	1105.96	.55298
358	8541.1	1106.74	.55337
358	8614.7	1108.07	.554035
358	8651.4	1108.96	.55448
358	8689.1	1109.62	.55481
358	8725.5	1110.44	.55522
358	8762.8	1111.12	.55556
358	3221.1	831.96	.41598
358	3231.6	835.41	.417705
358	3241.7	838.72	.41936
358	3252.2	841.71	.420855
358	3262.8	844.89	.422445
358	3273.9	847.83	.423915
358	3295.3	853.38	.42669
358	3306	855.88	.42794
358	3329	860.99	.430495
358	3350.7	865.7	.43285
358	3372.9	869.87	.434935
358	3394.9	874.14	.43707
358	3416.1	877.89	.438945
358	3438.3	881.69	.440845
358	3460.7	885.32	.44266
358	3482.9	888.76	.44438
358	3504.8	892.14	.44607
358	3528.7	895.48	.44774
358	3550.1	898.37	.449185
358	3572	901.37	.450685
358	3593.3	903.96	.45198
358	3637.5	909.42	.45471
358	3650.1	910.79	.455395
358	3672	913.13	.456565
358	3692.4	915.48	.45774
358	3626	907.95	.453975
358	3650.1	910.79	.455395
358	3672	913.13	.456565
358	4412.5	972.94	.48647
358	4446.5	974.92	.48746
358	4478.8	976.81	.488405
358	4462.6	975.95	.487975
358	4496.2	977.89	.488945
358	4532.3	980.04	.49002
358	4565.8	981.81	.490905
358	4599.8	983.7	.49185
358	4632.6	985.44	.49272
358	4668.1	987.45	.493725
358	4740	991.23	.495615
358	4775.8	993.1	.49655
358	4809.3	994.65	.497325
358	4843.6	996.44	.49822
358	4876.3	997.93	.498965
358	4910.7	999.61	.499805
358	4945.1	1001.33	.500665
358	4979.1	1002.85	.501425
358	5028.3	1005.04	.50252
358	5084.7	1007.62	.50381
358	5195.4	1012.4	.5062
358	5249.7	1014.83	.507415
358	5306.8	1017.1	.50855
358	5363.6	1019.45	.509725
358	5416.2	1021.54	.51077
358	5474.6	1023.85	.511925
358	5533.9	1026.1	.51305
358	5592	1028.23	.514115
358	6674.3	1062.71	.531355
358	6711.6	1063.79	.531895
358	6747.9	1064.77	.532385
358	6784.3	1065.78	.53289
358	6821	1066.78	.53339
358	6857.4	1067.85	.533925
358	6894.7	1068.84	.53442
358	6931.9	1069.87	.534935
358	6970.4	1070.83	.535415
358	7006.9	1071.75	.535875
358	7152.9	1075.52	.53776
358	7190.1	1076.36	.53818
358	7228	1077.43	.538715
358	7266.4	1078.28	.53914
358	7303.8	1079.27	.539635
358	7341.7	1080.24	.54012
358	7379.5	1081.09	.540545
358	7418.9	1082.02	.54101
358	7494.3	1083.92	.54196
358	7532.3	1084.8	.5424
358	7568.4	1085.67	.542835
358	7605.7	1086.46	.54323
358	7643.1	1087.34	.54367
358	7680.1	1088.21	.544105
358	7718	1089.17	.544585
358	7755.4	1089.97	.544985
358	7792.1	1090.77	.545385
358	7828.3	1091.56	.54578
358	8836.9	1112.57	.556285
358	8873.4	1113.15	.556575
358	8910.1	1113.92	.55696
358	8946.4	1114.65	.557325
358	8982.6	1115.32	.55766
358	9019.5	1115.96	.55798
358	9058.4	1116.68	.55834
358	9094.5	1117.44	.55872
358	9170.1	1118.78	.55939
358	9207.6	1119.39	.559695
358	9244	1120.02	.56001
358	9318.1	1121.42	.56071
358	9355.8	1122.09	.561045
358	9393.2	1122.82	.56141
358	9429.9	1123.38	.56169
358	9506	1124.84	.56242
358	9543.2	1125.38	.56269
358	9579.6	1126.21	.563105
358	9653.1	1127.35	.563675
358	9689.3	1128.07	.564035
358	9728	1128.56	.56428
358	9764.4	1129.27	.564635
358	9801.8	1129.98	.56499
358	9839.1	1130.57	.565285
358	9875.2	1131.06	.56553
358	9913	1131.87	.565935
358	9951.5	1132.43	.566215
358	9988	1133.16	.56658
362.9	4762.6	939.84	.46992
362.9	4784.8	941.44	.47072
362.9	4810.7	943.09	.471545
362.9	4836.8	944.88	.47244
362.9	4878.2	947.51	.473755
362.9	4899.5	948.95	.474475
362.9	4921.9	950.41	.475205
362.9	6035.1	1005.02	.50251
362.9	6069.8	1006.31	.503155
362.9	6105.1	1007.76	.50388
362.9	6137.3	1008.98	.50449
362.9	6172	1010.25	.505125
362.9	6204.9	1011.55	.505775
362.9	6239.5	1012.84	.50642
362.9	7378	1049.33	.524665
362.9	7411.6	1050.3	.52515
362.9	7482.4	1052.26	.52613
362.9	7514.7	1053.12	.52656
362.9	7547	1053.95	.526975
362.9	7581.8	1054.97	.527485
362.9	7615.4	1055.85	.527925
362.9	8800.2	1084.14	.54207
362.9	8834.9	1084.87	.542435
362.9	8868.8	1085.56	.54278
362.9	8902.9	1086.27	.543135
362.9	8937.5	1087.05	.543525
362.9	8971.8	1087.76	.54388
362.9	9005.2	1088.42	.54421
362.9	4942.5	951.63	.475815
362.9	4962.8	952.76	.47638
362.9	4983.6	954.01	.477005
362.9	5010.6	955.79	.477895
362.9	5047.3	957.89	.478945
362.9	5080.8	959.79	.479895
362.9	5112.9	961.66	.48083
362.9	5146	963.53	.481765
362.9	5179.5	965.35	.482675
362.9	5212.8	967.09	.483545
362.9	5246.7	968.92	.48446
362.9	5279.6	970.74	.48537
362.9	5314.8	972.51	.486255
362.9	5347.4	974.13	.487065
362.9	5381.2	975.88	.48794
362.9	5415.7	977.6	.4888
362.9	5518.8	982.72	.49136
362.9	5553.4	984.34	.49217
362.9	5588.2	985.96	.49298
362.9	5623.1	987.64	.49382
362.9	5657.5	989.1	.49455
362.9	5693.5	990.75	.495375
362.9	5727.5	992.15	.496075
362.9	5764.4	993.86	.49693
362.9	5798.2	995.17	.497585
362.9	5832.3	996.63	.498315
362.9	5864.9	997.97	.498985
362.9	5898.1	999.35	.499675
362.9	5930.9	1000.69	.500345
362.9	5965	1002.21	.501105
362.9	6274	1014.15	.507075
362.9	6308.5	1015.34	.50767
362.9	6343.7	1016.69	.508345
362.9	6377.6	1017.96	.50898
362.9	6413.1	1019.11	.509555
362.9	6447.2	1020.3	.51015
362.9	6480.8	1021.47	.510735
362.9	6516.3	1022.68	.51134
362.9	6550	1023.83	.511915
362.9	6584.4	1025.06	.51253
362.9	6618.1	1026.09	.513045
362.9	6653.8	1027.34	.51367
362.9	6686.8	1028.37	.514185
362.9	6720.5	1029.53	.514765
362.9	6754.6	1030.75	.515375
362.9	6789.1	1031.78	.51589
362.9	6824.9	1032.91	.516455
362.9	6860.3	1034.08	.51704
362.9	6893.3	1035.1	.51755
362.9	6959.4	1037.09	.518545
362.9	6993.3	1038.11	.519055
362.9	7029.7	1039.21	.519605
362.9	7062.9	1040.15	.520075
362.9	7097.9	1041.26	.52063
362.9	7134	1042.28	.52114
362.9	7168.5	1043.39	.521695
362.9	7202.4	1044.3	.52215
362.9	7237.6	1045.38	.52269
362.9	7273.1	1046.4	.5232
362.9	7307.6	1047.38	.52369
362.9	7651.7	1056.85	.528425
362.9	7689.7	1057.93	.528965
362.9	7725.6	1058.74	.52937
362.9	7762.3	1059.79	.529895
362.9	7796.7	1060.54	.53027
362.9	7833.4	1061.54	.53077
362.9	7869.9	1062.44	.53122
362.9	7906.3	1063.38	.53169
362.9	7940.8	1064.3	.53215
362.9	7976.7	1065.12	.53256
362.9	8010.3	1065.98	.53299
362.9	8045.2	1066.87	.533435
362.9	8081.6	1067.62	.53381
362.9	8115	1068.6	.5343
362.9	8149.9	1069.37	.534685
362.9	8185.9	1070.21	.535105
362.9	8223.3	1071.09	.535545
362.9	8281.3	1072.48	.53624
362.9	8320.9	1073.52	.53676
362.9	8358.3	1074.27	.537135
362.9	8396.8	1075.12	.53756
362.9	8431.8	1075.97	.537985
362.9	8468.6	1076.79	.538395
362.9	8505.7	1077.66	.53883
362.9	8541.8	1078.5	.53925
362.9	8577.3	1079.34	.53967
362.9	8611.7	1080.05	.540025
362.9	8649.3	1080.92	.54046
362.9	8689.4	1081.74	.54087
362.9	8724.6	1082.52	.54126
362.9	9039.7	1089.26	.54463
362.9	9073.1	1089.94	.54497
362.9	9106.5	1090.69	.545345
362.9	9140.8	1091.37	.545685
362.9	9173.4	1092.03	.546015
362.9	9205.8	1092.74	.54637
362.9	9239.9	1093.42	.54671
362.9	9274.7	1094.03	.547015
362.9	9308.6	1094.75	.547375
362.9	9341.7	1095.45	.547725
362.9	9377.4	1096.15	.548075
362.9	9410.8	1096.73	.548365
362.9	9445.5	1097.46	.54873
362.9	9479.4	1098.06	.54903
362.9	9548.7	1099.5	.54975
362.9	9582.4	1100.15	.550075
362.9	9618.6	1100.84	.55042
362.9	9652.6	1101.51	.550755
362.9	9687.1	1102.18	.55109
362.9	9721.9	1102.81	.551405
362.9	9756.1	1103.39	.551695
362.9	9789.2	1104.04	.55202
362.9	9822.6	1104.65	.552325
362.9	9858.4	1105.3	.55265
362.9	9893.4	1106.05	.553025
362.9	9929.5	1106.67	.553335
362.9	9963.2	1107.25	.553625
362.9	9996.5	1107.93	.553965
