Measured thermophysical data. Thermodynamic Study on the Sublimation of Five Aminomethoxybenzoic Acids
Source: J. Chem. Eng. Data, 2010, 10.1021/je9004036
Compound 1: 2-amino-3-methoxybenzoic acid, C8H9NO3
Compound 2: 2-amino-5-methoxybenzoic acid, C8H9NO3
Compound 3: 3-amino-4-methoxybenzoic acid, C8H9NO3
Compound 4: 3-amino-5-methoxybenzoic acid, C8H9NO3
Compound 5: 4-amino-3-methoxybenzoic acid, C8H9NO3

System: 2-amino-3-methoxybenzoic acid; phases: Crystal, Liquid, Air at 1 atmosphere
Property: Normal melting temperature, K (Crystal); method: DSC/DTA
Normal melting temperature, K	uncertainty
443.01	.26

System: 2-amino-3-methoxybenzoic acid; phases: Crystal 1, Liquid, Air at 1 atmosphere
Property: Molar enthalpy of transition or fusion, kJ/mol (Crystal 1); method: DSC/DTA
Molar enthalpy of transition or fusion, kJ/mol	uncertainty
24.21	.05

System: 2-amino-3-methoxybenzoic acid; phases: Liquid, Gas
Property: Vapor or sublimation pressure, kPa (Liquid); method: Knudsen effusion method
Temperature, K	Vapor or sublimation pressure, kPa	uncertainty
349.12	.000123	.00001
351.18	.000152	.00001
353.19	.000194	.00001
355.13	.000234	.00001
357.18	.000297	.00001
359.12	.000362	.00001
360.13	.000407	.00001
361.16	.000446	.00001
363.18	.000552	.00001
367.18	.000847	.00001
369.18	.001031	.00001
349.12	.000121	.00001
351.18	.00015	.00001
353.19	.000186	.00001
355.13	.000235	.00001
357.18	.000285	.00001
359.12	.000356	.00001
360.13	.000404	.00001
361.16	.000437	.00001
363.18	.000537	.00001
367.18	.000823	.00001
369.18	.001004	.00001
349.12	.000121	.00001
351.18	.000149	.00001
353.19	.000183	.00001
355.13	.000232	.00001
357.18	.000283	.00001
359.12	.000355	.00001
360.13	.0004	.00001
361.16	.000431	.00001
363.18	.000527	.00001
367.18	.000808	.00001
369.18	.000983	.00001

System: 2-amino-5-methoxybenzoic acid; phases: Crystal, Liquid, Air at 1 atmosphere
Property: Normal melting temperature, K (Crystal); method: DSC/DTA
Normal melting temperature, K	uncertainty
424.96	.38

System: 2-amino-5-methoxybenzoic acid; phases: Crystal 1, Liquid, Air at 1 atmosphere
Property: Molar enthalpy of transition or fusion, kJ/mol (Crystal 1); method: DSC/DTA
Molar enthalpy of transition or fusion, kJ/mol	uncertainty
22.88	.04

System: 2-amino-5-methoxybenzoic acid; phases: Liquid, Gas
Property: Vapor or sublimation pressure, kPa (Liquid); method: Knudsen effusion method
Temperature, K	Vapor or sublimation pressure, kPa	uncertainty
353.13	.0001	.00001
355.15	.000131	.00001
359.18	.000202	.00001
361.15	.000251	.00001
363.2	.000316	.00001
365.18	.000384	.00001
367.16	.000479	.00001
369.18	.000577	.00001
371.14	.000723	.00001
373.17	.000898	.00001
375.17	.001076	.00001
355.15	.000128	.00001
357.2	.000159	.00001
359.18	.000196	.00001
361.15	.000249	.00001
363.2	.000304	.00001
365.18	.000376	.00001
367.16	.000458	.00001
369.18	.000562	.00001
371.14	.000704	.00001
373.17	.000864	.00001
375.17	.001049	.00001
353.13	.000101	.00001
355.15	.00013	.00001
357.2	.000158	.00001
359.18	.000195	.00001
361.15	.000252	.00001
363.2	.000306	.00001
365.18	.000376	.00001
367.16	.000447	.00001
369.18	.000553	.00001
371.14	.000716	.00001
373.17	.000856	.00001
375.17	.001039	.00001

System: 3-amino-4-methoxybenzoic acid; phases: Crystal, Liquid, Air at 1 atmosphere
Property: Normal melting temperature, K (Crystal); method: DSC/DTA
Normal melting temperature, K	uncertainty
477.87	.24

System: 3-amino-4-methoxybenzoic acid; phases: Crystal 1, Liquid, Air at 1 atmosphere
Property: Molar enthalpy of transition or fusion, kJ/mol (Crystal 1); method: DSC/DTA
Molar enthalpy of transition or fusion, kJ/mol	uncertainty
25.34	.06

System: 3-amino-4-methoxybenzoic acid; phases: Liquid, Gas
Property: Vapor or sublimation pressure, kPa (Liquid); method: Knudsen effusion method
Temperature, K	Vapor or sublimation pressure, kPa	uncertainty
379.67	.00014	.00001
381.72	.000174	.00001
383.68	.000215	.00001
385.16	.000252	.00001
379.67	.000138	.00001
381.72	.000169	.00001
383.68	.000205	.00001
385.16	.000247	.00001
379.67	.000135	.00001
381.72	.000164	.00001
383.68	.000199	.00001
387.19	.000306	.00001
389.18	.000382	.00001
391.17	.000455	.00001
393.21	.000568	.00001
395.18	.000698	.00001
397.2	.000832	.00001
399.18	.001028	.00001
387.19	.000298	.00001
389.18	.000363	.00001
387.19	.00029	.00001
389.18	.000353	.00001
393.21	.000557	.00001
395.18	.000676	.00001
397.2	.000811	.00001
399.18	.000967	.00001
393.21	.000536	.00001
397.2	.000786	.00001
399.18	.000941	.00001

System: 3-amino-5-methoxybenzoic acid; phases: Crystal, Liquid, Air at 1 atmosphere
Property: Normal melting temperature, K (Crystal); method: DSC/DTA
Normal melting temperature, K	uncertainty
456.94	.4

System: 3-amino-5-methoxybenzoic acid; phases: Crystal 1, Liquid, Air at 1 atmosphere
Property: Molar enthalpy of transition or fusion, kJ/mol (Crystal 1); method: DSC/DTA
Molar enthalpy of transition or fusion, kJ/mol	uncertainty
22.4	.08

System: 3-amino-5-methoxybenzoic acid; phases: Liquid, Gas
Property: Vapor or sublimation pressure, kPa (Liquid); method: Knudsen effusion method
Temperature, K	Vapor or sublimation pressure, kPa	uncertainty
380.16	.000125	.00001
381.19	.000138	.00001
383.18	.000174	.00001
385.16	.000217	.00001
387.2	.000269	.00001
389.16	.000325	.00001
393.19	.000511	.00001
395.18	.000631	.00001
397.18	.000773	.00001
399.19	.000917	.00001
400.18	.001003	.00001
380.16	.000123	.00001
381.19	.000135	.00001
383.18	.000164	.00001
385.16	.000208	.00001
387.2	.000253	.00001
389.16	.000316	.00001
393.19	.00049	.00001
395.18	.000591	.00001
399.19	.000887	.00001
400.18	.00094	.00001
381.19	.000131	.00001
383.18	.000156	.00001
385.16	.000201	.00001
387.2	.000242	.00001
389.16	.000301	.00001
393.19	.000473	.00001
395.18	.00057	.00001
399.19	.000862	.00001
400.18	.000926	.00001

System: 4-amino-3-methoxybenzoic acid; phases: Crystal, Liquid, Air at 1 atmosphere
Property: Normal melting temperature, K (Crystal); method: DSC/DTA
Normal melting temperature, K	uncertainty
462.35	.76

System: 4-amino-3-methoxybenzoic acid; phases: Crystal 1, Liquid, Air at 1 atmosphere
Property: Molar enthalpy of transition or fusion, kJ/mol (Crystal 1); method: DSC/DTA
Molar enthalpy of transition or fusion, kJ/mol	uncertainty
25.27	.16

System: 4-amino-3-methoxybenzoic acid; phases: Liquid, Gas
Property: Vapor or sublimation pressure, kPa (Liquid); method: Knudsen effusion method
Temperature, K	Vapor or sublimation pressure, kPa	uncertainty
373.14	.000103	.00001
375.15	.00013	.00001
377.18	.000163	.00001
379.17	.000196	.00001
381.17	.00025	.00001
383.18	.000301	.00001
385.16	.000384	.00001
387.17	.000476	.00001
389.16	.000587	.00001
391.17	.000724	.00001
393.17	.000864	.00001
395.17	.001037	.00001
373.14	.000102	.00001
375.15	.000127	.00001
377.18	.000156	.00001
379.17	.000192	.00001
381.17	.00024	.00001
373.14	.000102	.00001
375.15	.000126	.00001
377.18	.000153	.00001
379.17	.000186	.00001
381.17	.000232	.00001
385.16	.000376	.00001
387.17	.000455	.00001
389.16	.000573	.00001
391.17	.000696	.00001
393.17	.000841	.00001
395.17	.001005	.00001
385.16	.000374	.00001
387.17	.000444	.00001
389.16	.00057	.00001
391.17	.000678	.00001
393.17	.000826	.00001
395.17	.000971	.00001
