Measured thermophysical data. Measurements of the Isobaric Specific Heat Capacity and Density for HFO-1234yf in the Liquid State
Source: J. Chem. Eng. Data, 2010, 10.1021/je900515a
Compound 1: HFO-1234yf, C3H2F4, purity 99.99%

System: HFO-1234yf; phases: Liquid
Property: Molar heat capacity at constant pressure, J/K/mol (Liquid); method: Thermal relaxation method
Temperature, K	Pressure, kPa	Molar heat capacity at constant pressure, J/K/mol	uncertainty
310	5000	153.95615028	7.697807514
320	5000	157.377398064	7.8688699032
330	5000	163.079477704	8.1539738852
340	5000	169.921973272	8.4960986636
350	5000	182.46654848	9.123327424
360	5000	197.291955544	9.8645977772
310	4000	152.815734352	7.6407867176
320	4000	160.798645848	8.0399322924
330	4000	168.781557344	8.4390778672
340	4000	177.904884768	8.8952442384
350	4000	196.151539616	9.8075769808
360	4000	222.38110596	11.119055298
310	3000	161.939061776	8.0969530888
320	3000	167.641141416	8.3820570708
330	3000	179.045300696	8.9522650348
340	3000	187.028212192	9.3514106096
350	3000	217.819442248	10.8909721124
360	3000	297.648557208	14.8824278604
310	2000	165.36030956	8.268015478
320	2000	173.343221056	8.6671610528
330	2000	185.887796264	9.2943898132
340	2000	205.27486704	10.263743352

System: HFO-1234yf; phases: Liquid
Property: Mass density, kg/m3 (Liquid); method: Pycnometric method
Temperature, K	Pressure, kPa	Mass density, kg/m3	uncertainty
310	5000	1080.6	2.1612
320	5000	1044.8	2.0896
330	5000	1004.6	2.0092
340	5000	961.3	1.9226
350	5000	913.1	1.8262
360	5000	853.9	1.7078
310	4000	1072.8	2.1456
320	4000	1035.3	2.0706
330	4000	992.7	1.9854
340	4000	945.3	1.8906
350	4000	891.3	1.7826
360	4000	818.5	1.637
310	3000	1065.2	2.1304
320	3000	1025.1	2.0502
330	3000	979.2	1.9584
340	3000	926.7	1.8534
350	3000	861.8	1.7236
360	3000	751.9	1.5038
310	2000	1056.3	2.1126
320	2000	1013.8	2.0276
330	2000	964.2	1.9284
340	2000	903	1.806
310	1000	1046.5	2.093
