Measured thermophysical data. Measurement and Correlation of the Solid-Liquid-Gas Equilibria for Carbon Dioxide + Octadecanoic Acid (Stearic Acid) and Carbon Dioxide + 1-Octadecanol (Stearyl Alcohol) Systems
Source: J. Chem. Eng. Data, 2010, 10.1021/je9005272
Compound 1: octadecanoic acid, C18H36O2, purity 99.5%
Compound 2: 1-octadecanol, C18H38O, purity 98%
Compound 3: carbon dioxide, CO2, purity 99.99%

System: octadecanoic acid + carbon dioxide; phases: Liquid, Crystal, Gas
Property: Boiling temperature at pressure P, K (Liquid); method: Closed cell (Static) method
Pressure, kPa	Boiling temperature at pressure P, K	uncertainty
100	342.4	.1
1400	339.9	.1
2300	338.8	.1
3000	337.9	.1
3800	337	.1
4600	335.9	.1
5300	334.9	.1
5900	333.9	.1
6700	332.8	.1
7600	331.9	.1
8400	331	.1
9300	329.9	.1
11300	328.9	.1
12500	328.6	.1
13500	328.6	.1
15600	328.7	.1
16800	328.8	.1
17700	328.9	.1
18700	328.9	.1
22000	329.2	.1

System: 1-octadecanol + carbon dioxide; phases: Liquid, Crystal, Gas
Property: Boiling temperature at pressure P, K (Liquid); method: Closed cell (Static) method
Pressure, kPa	Boiling temperature at pressure P, K	uncertainty
100	330.9	.1
1800	329.2	.1
2800	328	.1
3900	327.1	.1
4900	326.1	.1
5700	325	.1
6900	324.1	.1
7900	323.1	.1
9400	322.1	.1
10800	321.6	.1
11700	321.6	.1
12700	321.7	.1
14900	322	.1
16600	322.1	.1
21100	322.8	.1
23000	323	.1
