Measured thermophysical data. Experimental Measurement and Thermodynamic Modeling for the Solubility of Methane in Water and Hexadecane
Source: J. Chem. Eng. Data, 2010, 10.1021/je9007958
Compound 1: methane, CH4
Compound 2: cetane, C16H34
Compound 3: water, H2O

System: methane + water; phases: Liquid, Gas
Property: Mole fraction of methane (Liquid); method: pressure change or dissolution
Temperature, K	Pressure, kPa	Mole fraction of methane	uncertainty
303.2	111.5	.0000183	.0000003
303.2	182.4	.0000511	.0000002
303.2	243.2	.0000839	.000002
303.2	374.9	.0001399	.0000004
303.2	506.6	.000197	.0000048
303.2	638.3	.0002596	.0000001
313.2	111.5	.0000166	.0000003
313.2	182.4	.0000445	.0000005
313.2	253.3	.0000736	.0000011
313.2	374.9	.0001235	.0000013
313.2	486.4	.0001676	.0000105
313.2	628.2	.0002251	.0000084
323.2	111.5	.0000091	.0000006
323.2	182.4	.0000359	.000001
323.2	243.2	.000062	.0000004
323.2	374.9	.000109	.0000002
323.2	506.6	.000157	.0000054
323.2	638.3	.00021	.0000131

System: methane + cetane; phases: Liquid, Gas
Property: Mole fraction of methane (Liquid); method: pressure change or dissolution
Temperature, K	Pressure, kPa	Mole fraction of methane	uncertainty
303.2	60.8	.00267	.00044
303.2	121.6	.00751	.00047
303.2	182.4	.0128	.00048
303.2	283.7	.0205	.00049
303.2	395.2	.031	.00079
303.2	506.6	.0439	.00065
313.2	60.8	.00178	.00001
313.2	121.6	.00616	.00025
313.2	182.4	.0111	.00037
313.2	283.7	.0189	.0005
313.2	395.2	.0288	.00075
313.2	506.6	.0408	.00065
323.2	60.8	.00154	.00049
323.2	121.6	.0059	.00069
323.2	182.4	.0108	.0007
323.2	273.6	.0185	.00066
323.2	385	.0284	.00058
323.2	506.6	.0397	.00048
