Measured thermophysical data. Enthalpies of Dilution of N-Glycylglycine in Aqueous Sodium Chloride and  Potassium Chloride Solutions at 298.15 K
Source: J. Chem. Eng. Data, 2009, 10.1021/je9004504
Compound 1: glycylglycine, C4H8N2O3
Compound 2: sodium chloride, ClNa, purity 99%
Compound 3: potassium chloride, ClK, purity 99%
Compound 4: water, H2O

System: glycylglycine + sodium chloride + water; phases: Liquid
Fixed: Temperature, K = 298.15
Fixed: Pressure, kPa = 101
Property: Molar enthalpy of dilution, kJ/mol (Liquid); method: Flow calorimetry
Molality, mol/kg of sodium chloride	Initial molality of solute, mol/kg of glycylglycine	Final molality of solute, mol/kg of glycylglycine	Molar enthalpy of dilution, kJ/mol	uncertainty
0	.08	.0414	.02932	.00001
0	.1	.0517	.0366	.00001
0	.12	.0623	.0435	.00001
0	.15	.0789	.05324	.00001
0	.18	.0943	.06366	.00001
0	.2	.1048	.07027	.00001
0	.22	.1152	.07695	.00001
0	.25	.1327	.08527	.00001
0	.28	.1489	.0944	.00001
0	.3	.1589	.10104	.00001
0	.32	.1709	.10605	.00001
0	.35	.1866	.11514	.00001
.05	.08	.0412	.02452	.00001
.05	.1	.0514	.03276	.00001
.05	.12	.0616	.04079	.00001
.05	.15	.0768	.05236	.00001
.05	.18	.0922	.06309	.00001
.05	.2	.1024	.06995	.00001
.05	.22	.1125	.07672	.00001
.05	.25	.1276	.08653	.00001
.05	.28	.1427	.09581	.00001
.05	.3	.1531	.1016	.00001
.05	.32	.1632	.10741	.00001
.05	.35	.1785	.11574	.00001
.1	.08	.0419	.01938	.00001
.1	.1	.052	.02852	.00001
.1	.12	.0623	.03689	.00001
.1	.15	.0784	.04746	.00001
.1	.18	.0932	.059	.00001
.1	.2	.1035	.06505	.00001
.1	.22	.1133	.07303	.00001
.1	.25	.129	.08158	.00001
.1	.28	.1444	.09009	.00001
.1	.3	.1541	.09649	.00001
.1	.32	.1643	.10245	.00001
.1	.35	.1794	.11104	.00001
.2	.08	.042	.01834	.00001
.2	.1	.0524	.02495	.00001
.2	.12	.063	.03212	.00001
.2	.15	.0784	.04245	.00001
.2	.18	.0939	.05179	.00001
.2	.2	.1045	.05783	.00001
.2	.22	.1148	.06325	.00001
.2	.25	.1305	.07257	.00001
.2	.28	.146	.08181	.00001
.2	.3	.1574	.0859	.00001
.2	.32	.1661	.09304	.00001
.2	.35	.1815	.1025	.00001
.3	.08	.0413	.01598	.00001
.3	.1	.0518	.0223	.00001
.3	.12	.0618	.0292	.00001
.3	.15	.0771	.03887	.00001
.3	.18	.0924	.04831	.00001
.3	.2	.1026	.05442	.00001
.3	.22	.1126	.06065	.00001
.3	.25	.1276	.06969	.00001
.3	.28	.1426	.07855	.00001
.3	.3	.1533	.08381	.00001
.3	.32	.1632	.08958	.00001
.3	.35	.1783	.09796	.00001
.4	.08	.0415	.0195	.00001
.4	.1	.0521	.02551	.00001
.4	.12	.0625	.03157	.00001
.4	.15	.0776	.04085	.00001
.4	.18	.0937	.0492	.00001
.4	.2	.104	.05493	.00001
.4	.22	.1139	.06081	.00001
.4	.25	.1295	.06903	.00001
.4	.28	.1445	.07735	.00001
.4	.3	.155	.08252	.00001
.4	.32	.1649	.08793	.00001
.4	.35	.1801	.09568	.00001
.5	.08	.04	.01628	.00001
.5	.1	.0501	.02238	.00001
.5	.12	.0604	.02781	.00001
.5	.15	.0748	.03651	.00001
.5	.18	.0901	.04452	.00001
.5	.2	.1	.05001	.00001
.5	.22	.11	.05533	.00001
.5	.25	.125	.06327	.00001
.5	.28	.1397	.07129	.00001
.5	.3	.1502	.07617	.00001
.5	.32	.1593	.08152	.00001
.5	.35	.1743	.08943	.00001
.6	.08	.041	.01319	.00001
.6	.1	.0512	.01859	.00001
.6	.12	.0613	.02386	.00001
.6	.15	.0767	.03151	.00001
.6	.18	.0918	.03916	.00001
.6	.2	.1019	.04413	.00001
.6	.22	.112	.049	.00001
.6	.25	.127	.05628	.00001
.6	.28	.142	.06344	.00001
.6	.3	.1523	.0679	.00001
.6	.32	.1626	.07234	.00001
.6	.35	.1776	.0791	.00001

System: glycylglycine + potassium chloride + water; phases: Liquid
Fixed: Temperature, K = 298.15
Fixed: Pressure, kPa = 101
Property: Molar enthalpy of dilution, kJ/mol (Liquid); method: Flow calorimetry
Molality, mol/kg of potassium chloride	Initial molality of solute, mol/kg of glycylglycine	Final molality of solute, mol/kg of glycylglycine	Molar enthalpy of dilution, kJ/mol	uncertainty
0	.08	.0414	.02932	.00001
.05	.08	.0402	.02772	.00001
.1	.08	.0419	.03927	.00001
.2	.08	.0424	.03073	.00001
.3	.08	.0424	.01969	.00001
.4	.08	.0435	.02504	.00001
.5	.08	.0427	.04178	.00001
.6	.08	.0425	.02364	.00001
0	.1	.0517	.0366	.00001
.05	.1	.0502	.03468	.00001
.1	.1	.0523	.0459	.00001
.2	.1	.0529	.03681	.00001
.3	.1	.053	.02449	.00001
.4	.1	.0543	.03011	.00001
.5	.1	.0533	.0459	.00001
.6	.1	.0534	.02775	.00001
0	.12	.0623	.0435	.00001
.1	.12	.0628	.05248	.00001
.2	.12	.0634	.04307	.00001
.3	.12	.0635	.02947	.00001
.4	.12	.0651	.03505	.00001
.05	.12	.06	.04168	.00001
.5	.12	.0638	.0502	.00001
.6	.12	.0643	.03187	.00001
.1	.15	.0784	.06224	.00001
0	.15	.0789	.05324	.00001
.2	.15	.0789	.05219	.00001
.3	.15	.0793	.03658	.00001
.4	.15	.0795	.04346	.00001
.5	.15	.0795	.05589	.00001
.05	.15	.0749	.05176	.00001
.6	.15	.0798	.03849	.00001
.2	.18	.0951	.06062	.00001
0	.18	.0943	.06366	.00001
.05	.18	.0896	.06186	.00001
.3	.18	.0951	.04304	.00001
.1	.18	.094	.07186	.00001
.4	.18	.0947	.05136	.00001
.5	.18	.0956	.0617	.00001
.6	.18	.0956	.04506	.00001
.2	.2	.1053	.06654	.00001
.3	.2	.1056	.04732	.00001
0	.2	.1048	.07027	.00001
.4	.2	.1059	.056	.00001
.1	.2	.1045	.07819	.00001
.5	.2	.1061	.06551	.00001
.05	.2	.0996	.06825	.00001
.6	.2	.1061	.04951	.00001
.3	.22	.116	.05155	.00001
.2	.22	.1161	.07195	.00001
.4	.22	.116	.06122	.00001
0	.22	.1152	.07695	.00001
.05	.22	.1095	.07471	.00001
.5	.22	.1165	.06936	.00001
.1	.22	.1149	.08409	.00001
.6	.22	.1165	.0541	.00001
.2	.25	.1319	.08007	.00001
.05	.25	.1243	.08428	.00001
.4	.25	.1324	.06832	.00001
.5	.25	.1321	.07508	.00001
0	.25	.1327	.08527	.00001
.1	.25	.1305	.09396	.00001
.3	.25	.1319	.05754	.00001
.6	.25	.1322	.06098	.00001
.3	.28	.1469	.06383	.00001
.4	.28	.1466	.0765	.00001
.2	.28	.1474	.08824	.00001
.1	.28	.1461	.10345	.00001
.5	.28	.1485	.08044	.00001
0	.28	.1489	.0944	.00001
.05	.28	.1391	.09369	.00001
.6	.28	.148	.06804	.00001
.05	.3	.1492	.0998	.00001
.3	.3	.1563	.06832	.00001
.2	.3	.1578	.09355	.00001
.5	.3	.1579	.08471	.00001
.4	.3	.1577	.08109	.00001
.1	.3	.1566	.10975	.00001
0	.3	.1589	.10104	.00001
.6	.3	.158	.07306	.00001
.1	.32	.1671	.11607	.00001
.5	.32	.1693	.08812	.00001
.05	.32	.1589	.10612	.00001
.3	.32	.1684	.07111	.00001
.2	.32	.1676	.09908	.00001
.4	.32	.1679	.08609	.00001
0	.32	.1709	.10605	.00001
.6	.32	.1685	.07791	.00001
.1	.35	.1826	.1257	.00001
.2	.35	.1827	.10701	.00001
0	.35	.1866	.11514	.00001
.05	.35	.1734	.11556	.00001
.4	.35	.1855	.09236	.00001
.3	.35	.1843	.07648	.00001
.5	.35	.1838	.09443	.00001
.6	.35	.1841	.08552	.00001
