Measured thermophysical data. Liquid-Liquid Equilibrium for the System Water + Cyclohexene + Cyclohexanol over the Temperature Range of (303.2 to 403.2) K
Source: J. Chem. Eng. Data, 2010, 10.1021/je900886s
Compound 1: 1,2,3,4-tetrahydrobenzene, C6H10, purity 98%
Compound 2: cyclohexanol, C6H12O, purity 98%
Compound 3: water, H2O

System: cyclohexanol + 1,2,3,4-tetrahydrobenzene + water; phases: Liquid mixture 1, Liquid mixture 2
Property: Mole fraction of cyclohexanol (Liquid mixture 1); method: Chromatography
Property: Mole fraction of cyclohexanol (Liquid mixture 2); method: Chromatography
Property: Mole fraction of 1,2,3,4-tetrahydrobenzene (Liquid mixture 2); method: Chromatography
Temperature, K	Pressure, kPa	Mole fraction of 1,2,3,4-tetrahydrobenzene	Mole fraction of cyclohexanol	uncertainty	Mole fraction of cyclohexanol	uncertainty	Mole fraction of 1,2,3,4-tetrahydrobenzene	uncertainty
323.2	1	.9945	0	.0001	0	.0001	.00002673	.0001
303.2	1	.9972	0	.0001	0	.0001	.00003349	.0001
383.2	1	.9841	0	.0001	0	.0001	.00007983	.0001
430.2	1	.9694	0	.0001	0	.0001	.001328	.0001
383.2	1	.8493	.1014	.0001	.0018	.0001	.00006211	.0001
323.2	1	.8391	.1368	.0001	.002	.0001	.00003506	.0001
430.2	1	.8272	.1246	.0001	.0024	.0001	.0000696	.0001
303.2	1	.8815	.1048	.0001	.0028	.0001	.00004728	.0001
323.2	1	.7341	.2286	.0001	.0029	.0001	.00007509	.0001
430.2	1	.5952	.2603	.0001	.0033	.0001	.00006835	.0001
323.2	1	.4958	.3885	.0001	.0034	.0001	.0000191	.0001
323.2	1	.6115	.3102	.0001	.0034	.0001	.00006382	.0001
383.2	1	.7077	.2163	.0001	.0035	.0001	.00006105	.0001
303.2	1	.7247	.2336	.0001	.0036	.0001	.00002072	.0001
303.2	1	.6195	.3027	.0001	.0036	.0001	.00001293	.0001
383.2	1	.553	.2984	.0001	.0038	.0001	.00004774	.0001
323.2	1	.2908	.5206	.0001	.0038	.0001	.00006426	.0001
323.2	1	.1803	.575	.0001	.004	.0001	.00004586	.0001
303.2	1	.5138	.3673	.0001	.004	.0001	.0000187	.0001
323.2	1	.4214	.4453	.0001	.0042	.0001	.00002326	.0001
383.2	1	.4039	.3578	.0001	.0045	.0001	.00004402	.0001
303.2	1	.4058	.446	.0001	.0047	.0001	.00002821	.0001
430.2	1	.4523	.351	.0001	.0048	.0001	.00007313	.0001
323.2	1	.2178	.5529	.0001	.0049	.0001	.00005958	.0001
323.2	1	.0648	.5923	.0001	.005	.0001	.00001351	.0001
430.2	1	.3727	.3875	.0001	.005	.0001	.00003991	.0001
323.2	1	.151	.5906	.0001	.0051	.0001	.00001516	.0001
303.2	1	.2613	.5193	.0001	.0055	.0001	.00002043	.0001
303.2	1	.1735	.5578	.0001	.0056	.0001	.00001678	.0001
323.2	1	0	.5955	.0001	.0057	.0001	0	.0001
323.2	1	.1212	.5866	.0001	.0057	.0001	.00001136	.0001
383.2	1	.2343	.4345	.0001	.0058	.0001	.00004017	.0001
303.2	1	.1147	.5825	.0001	.006	.0001	.00001459	.0001
383.2	1	.1067	.4599	.0001	.0061	.0001	.00002832	.0001
303.2	1	0	.5796	.0001	.0067	.0001	0	.0001
430.2	1	.1865	.462	.0001	.0074	.0001	.00004534	.0001
383.2	1	0	.5144	.0001	.0074	.0001	0	.0001
430.2	1	.1007	.4655	.0001	.0076	.0001	.00003816	.0001
303.2	1	.067	.5943	.0001	.0085	.0001	.00001437	.0001
430.2	1	0	.4332	.0001	.0094	.0001	0	.0001

System: 1,2,3,4-tetrahydrobenzene + water; phases: Liquid mixture 1, Liquid mixture 2
Property: Mole fraction of 1,2,3,4-tetrahydrobenzene (Liquid mixture 1); method: Chromatography
Pressure, kPa	Temperature, K	Mole fraction of 1,2,3,4-tetrahydrobenzene	uncertainty
101.325	323.2	.9945	.0001
101.325	303.2	.9972	.0001
101.325	383.2	.9841	.0001
101.325	430.2	.9694	.0001

System: 1,2,3,4-tetrahydrobenzene + water; phases: Liquid mixture 2, Liquid mixture 1
Property: Mole fraction of 1,2,3,4-tetrahydrobenzene (Liquid mixture 2); method: Chromatography
Temperature, K	Pressure, kPa	Mole fraction of 1,2,3,4-tetrahydrobenzene	uncertainty
323.2	101.325	.00002673	.0001
303.2	101.325	.00003349	.0001
383.2	101.325	.00007983	.0001
430.2	101.325	.001328	.0001

System: cyclohexanol + water; phases: Liquid mixture 1, Liquid mixture 2
Property: Mole fraction of cyclohexanol (Liquid mixture 1); method: Chromatography
Temperature, K	Pressure, kPa	Mole fraction of cyclohexanol	uncertainty
323.2	101.325	.5955	.0001
303.2	101.325	.5796	.0001
383.2	101.325	.5144	.0001
430.2	101.325	.4332	.0001

System: cyclohexanol + water; phases: Liquid mixture 2, Liquid mixture 1
Property: Mole fraction of cyclohexanol (Liquid mixture 2); method: Chromatography
Pressure, kPa	Temperature, K	Mole fraction of cyclohexanol	uncertainty
101.325	323.2	.0057	.0001
101.325	303.2	.0067	.0001
101.325	383.2	.0074	.0001
101.325	430.2	.0094	.0001
