Measured thermophysical data. Liquid-Liquid Equilibrium for the System Water + 1,4-Dioxane + 2,6-Dimethyloct-7-en-2-ol over the Temperature Range of (343.2 to 358.2) K
Source: J. Chem. Eng. Data, 2010, 10.1021/je900366m
Compound 1: 6-octen-2-ol, 2,6-dimethyl-, C10H20O, purity 99.5%
Compound 2: 1,4-dioxane, C4H8O2, purity 99.5%
Compound 3: water, H2O

System: 6-octen-2-ol, 2,6-dimethyl-; phases: Liquid
Fixed: Pressure, kPa = 101.325
Property: Mass density, kg/m3 (Liquid); method: Pycnometric method
Temperature, K	Mass density, kg/m3	uncertainty
298.15	831.8	

System: 6-octen-2-ol, 2,6-dimethyl-; phases: Liquid
Fixed: Pressure, kPa = 101.325
Property: Refractive index (Na D-line) (Liquid); method: Standard Abbe refractometry
Temperature, K	Refractive index (Na D-line)	uncertainty
293.15	1.4408	

System: 1,4-dioxane; phases: Liquid
Fixed: Pressure, kPa = 101.325
Property: Mass density, kg/m3 (Liquid); method: Pycnometric method
Temperature, K	Mass density, kg/m3	uncertainty
298.15	1025.9	

System: 1,4-dioxane; phases: Liquid
Fixed: Pressure, kPa = 101.325
Property: Refractive index (Na D-line) (Liquid); method: Standard Abbe refractometry
Temperature, K	Refractive index (Na D-line)	uncertainty
293.15	1.422	

System: 1,4-dioxane + water + 6-octen-2-ol, 2,6-dimethyl-; phases: Liquid mixture 1, Liquid mixture 2
Fixed: Pressure, kPa = 101
Property: Mole fraction of 1,4-dioxane (Liquid mixture 1); method: Chromatography
Property: Mole fraction of water (Liquid mixture 2); method: Chromatography
Property: Mole fraction of 1,4-dioxane (Liquid mixture 2); method: Chromatography
Temperature, K	Mole fraction of water	Mole fraction of 1,4-dioxane	uncertainty	Mole fraction of water	uncertainty	Mole fraction of 1,4-dioxane	uncertainty
343.15	.1895	.0951		.9876	.0029628	.0123	
343.15	.1975	.1607		.9781	.0029343	.0217	
343.15	.2151	.2685		.9537	.0028611	.046	
343.15	.2496	.3302		.9364	.0028092	.063	
343.15	.2714	.3796		.9155	.0027465	.0834	
343.15	.2961	.3926		.9032	.0027096	.0951	
343.15	.3814	.4248		.87	.00261	.127	
343.15	.4602	.4167		.8344	.0025032	.1612	
348.15	.1531	.0174		.9984	.0029952	.0014	
348.15	.1938	.1795		.9775	.0029325	.0223	
348.15	.2097	.271		.9582	.0028746	.0414	
348.15	.2645	.3834		.9208	.0027624	.0782	
348.15	.3251	.4136		.8958	.0026874	.1026	
348.15	.4074	.4009		.8791	.0026373	.1186	
353.15	.2001	.1118		.9872	.0029616	.0126	
353.15	.2179	.2021		.9711	.0029133	.0287	
353.15	.2537	.2847		.9523	.0028569	.0471	
353.15	.2954	.3348		.942	.002826	.0572	
353.15	.3476	.3657		.9523	.0028569	.0471	
353.15	.3982	.3968		.9228	.0027684	.0758	
353.15	.5454	.3672		.8882	.0026646	.1095	
353.15	.2001	.1118		.9872	.0029616	.0126	
358.15	.1858	.1041		.9873	.0029619	.0126	
358.15	.2248	.1759		.9865	.0029595	.0133	
358.15	.2722	.2709		.9581	.0028743	.0416	
358.15	.3502	.3857		.9156	.0027468	.0832	
358.15	.3959	.3909		.9005	.0027015	.0979	
358.15	.4522	.3827		.8779	.0026337	.1193	
358.15	.5799	.3305		.8254	.0024762	.1666	
