Measured thermophysical data. Densities of Concentrated Alkaline Aluminate Solutions at Temperatures from (323 to 573) K and 10 MPa Pressure
Source: J. Chem. Eng. Data, 2010, 10.1021/je900584k
Compound 1: water, H2O
Compound 2: sodium hydroxide, HNaO, purity 99.9%
Compound 3: aluminum sodium hydroxide, AlH4NaO4, purity 99.9%

System: sodium hydroxide + water + aluminum sodium hydroxide; phases: Liquid
Fixed: Pressure, kPa = 2000
Fixed: Temperature, K = 323.15
Property: Mass density, kg/m3 (Liquid); method: Vibrating tube method
Molality, mol/kg of sodium hydroxide	Molality, mol/kg of aluminum sodium hydroxide	Mass density, kg/m3	uncertainty
.9218	.102	44.418	.088836
.9218	.102	44.426	.088852
.6031	.4006	52.45	.1049
.6031	.4006	52.457	.104914
5.3969	.6021	218.97	.43794
5.3969	.6021	218.988	.437976
3.5989	2.3985	252.785	.50557
3.5989	2.3985	252.86	.50572

System: sodium hydroxide + water + aluminum sodium hydroxide; phases: Liquid
Fixed: Pressure, kPa = 10000
Property: Mass density, kg/m3 (Liquid); method: Vibrating tube method
Temperature, K	Molality, mol/kg of sodium hydroxide	Molality, mol/kg of aluminum sodium hydroxide	Mass density, kg/m3	uncertainty
323.15	.903	.1051	43.681	.087362
323.15	.8092	.2044	46.815	.09363
323.15	.7046	.3014	49.342	.098684
323.15	.7046	.3014	49.39	.09878
323.15	.6009	.3991	52	.104
323.15	.6009	.3991	51.987	.103974
323.15	1.8057	.2007	83.378	.166756
323.15	1.8057	.2007	83.354	.166708
323.15	1.6034	.403	88.885	.17777
323.15	1.4101	.6001	94.279	.188558
323.15	1.2147	.7997	99.742	.199484
323.15	3.6051	.4025	155.377	.310754
323.15	3.1979	.8038	164.492	.328984
323.15	2.8069	1.2008	173.528	.347056
323.15	2.4083	1.6172	183.11	.36622
323.15	5.3979	.6043	218.017	.436034
323.15	4.7951	1.1997	229.596	.459192
323.15	4.2045	1.797	241.08	.48216
323.15	3.6707	2.3688	252.35	.5047
373.15	.9108	.1016	43.178	.086356
373.15	.8147	.2016	46.218	.092436
373.15	.735	.3246	51.333	.102666
373.15	.6105	.4021	51.753	.103506
373.15	1.8407	.2051	83.767	.167534
373.15	1.6131	.4015	87.93	.17586
373.15	1.4033	.6076	93.19	.18638
373.15	1.2161	.8095	98.865	.19773
373.15	3.5976	.4031	153.25	.3065
373.15	3.2185	.8054	163.048	.326096
373.15	2.8254	1.2438	173.95	.3479
373.15	2.4295	1.62	181.275	.36255
373.15	5.7301	.5705	222.53	.44506
373.15	5.7301	.5705	222.6	.4452
373.15	4.8066	1.2093	227.37	.45474
373.15	4.2088	1.8033	238.2	.4764
373.15	3.633	2.5462	255.31	.51062
373.15	3.633	2.5462	255.34	.51068
423.15	.9004	.1017	44.553	.089106
423.15	.8017	.2019	47.407	.094814
423.15	.7118	.3015	50.514	.101028
423.15	.6213	.4067	53.934	.107868
423.15	1.8116	.204	85.526	.171052
423.15	1.6036	.4011	90.143	.180286
423.15	1.6036	.4011	90.181	.180362
423.15	1.4069	.608	95.72	.19144
423.15	1.2095	.8223	101.575	.20315
423.15	1.2095	.8223	101.553	.203106
423.15	3.6078	.4087	157.922	.315844
423.15	3.6078	.4087	157.922	.315844
423.15	3.2047	.8047	166.27	.33254
423.15	2.8084	1.201	174.3	.3486
423.15	2.4064	1.5929	183.5	.367
423.15	3.4406	.5994	219.67	.43934
423.15	5.3944	.5994	219.71	.43942
423.15	4.7877	1.2061	231.95	.4639
423.15	4.2097	1.801	241.71	.48342
423.15	3.6012	2.3994	251.99	.50398
473.15	.9031	.1021	48.276	.096552
473.15	.9031	.1021	48.238	.096476
473.15	.9031	.1021	48.292	.096584
473.15	.9031	.1021	48.253	.096506
473.15	.8023	.2008	50.819	.101638
473.15	.8023	.2008	50.857	.101714
473.15	.8023	.2008	50.895	.10179
473.15	.8023	.2008	50.556	.101112
473.15	.7075	.3023	53.775	.10755
473.15	.7075	.3023	53.873	.107746
473.15	.7075	.3023	53.869	.107738
473.15	.7075	.3023	53.828	.107656
473.15	.6053	.4002	56.228	.112456
473.15	.6053	.4002	56.273	.112546
473.15	.6053	.4002	56.263	.112526
473.15	.6053	.4002	56.224	.112448
473.15	.6053	.4002	56.237	.112474
473.15	.6053	.4002	56.237	.112474
473.15	.6053	.4002	56.237	.112474
473.15	1.8032	.2005	90.78	.18156
473.15	1.8032	.2005	90.748	.181496
473.15	1.8032	.2005	90.767	.181534
473.15	1.8032	.2005	90.767	.181534
473.15	1.6046	.4049	96.063	.192126
473.15	1.6046	.4049	96.076	.192152
473.15	1.4788	.597	103.151	.206302
473.15	1.4788	.597	103.25	.2065
473.15	1.4788	.597	103.228	.206456
473.15	1.4788	.597	103.228	.206456
473.15	1.2008	.7999	105.235	.21047
473.15	3.6035	.4031	165.881	.331762
473.15	3.2046	.8058	174.551	.349102
473.15	2.8024	1.2077	182.728	.365456
473.15	2.8024	1.2077	182.694	.365388
473.15	2.8518	1.5325	200.557	.401114
473.15	2.8518	1.5325	200.557	.401114
473.15	2.8518	1.5325	200.583	.401166
473.15	5.4029	.6035	229.827	.459654
473.15	5.4029	.6035	230.203	.460406
473.15	5.4029	.6035	230.071	.460142
473.15	5.4029	.6035	230.251	.460502
473.15	4.7989	1.2138	241.291	.482582
473.15	4.7989	1.2138	241.331	.482662
473.15	4.2064	1.7966	251.091	.502182
473.15	4.2064	1.7966	251.121	.502242
473.15	4.2064	1.7966	250.991	.501982
473.15	3.6067	2.4012	261.351	.522702
523.15	.9058	.1017	54.86	.10972
523.15	.9058	.1017	54.847	.109694
523.15	.8003	.2041	57.452	.114904
523.15	.8003	.2041	57.425	.11485
523.15	.7121	.293	59.83	.11966
523.15	.7121	.293	59.83	.11966
523.15	.6148	.3965	62.846	.125692
523.15	.6148	.3965	62.813	.125626
523.15	1.7999	.1969	100.705	.20141
523.15	1.7999	.1969	100.705	.20141
523.15	1.6402	.4039	107.559	.215118
523.15	1.6402	.4039	107.604	.215208
523.15	1.4736	.5956	113.181	.226362
523.15	1.4736	.5956	113.156	.226312
523.15	1.2168	.797	115.546	.231092
523.15	1.2168	.797	115.595	.23119
523.15	3.6027	.4084	181.263	.362526
523.15	3.6027	.4084	181.303	.362606
523.15	3.2051	.8163	190.033	.380066
523.15	3.2051	.8163	189.995	.37999
523.15	2.8121	1.1997	197.342	.394684
523.15	2.8121	1.1997	197.304	.394608
523.15	2.409	1.5901	204.445	.40889
523.15	2.409	1.5901	204.403	.408806
523.15	5.4075	.5975	248.072	.496144
523.15	5.4075	.5975	248.006	.496012
523.15	4.8049	1.195	258.513	.517026
523.15	4.8049	1.195	258.583	.517166
523.15	4.2074	1.8035	269.138	.538276
523.15	4.2074	1.8035	269.113	.538226
523.15	3.5959	2.402	279.206	.558412
523.15	3.5959	2.402	279.292	.558584
573.15	.9131	.1031	69.7	.1394
573.15	.9131	.1031	69.692	.139384
573.15	.8083	.2049	72.239	.144478
573.15	.8083	.2049	72.262	.144524
573.15	.7076	.2953	74.026	.148052
573.15	.7076	.2953	74.005	.14801
573.15	.6067	.3923	76.331	.152662
573.15	.6067	.3923	76.331	.152662
573.15	1.8068	.1952	122.859	.245718
573.15	1.8068	.1952	122.9	.2458
573.15	1.6072	.3961	127.842	.255684
573.15	1.6072	.3961	127.858	.255716
573.15	1.4106	.6249	134.7	.2694
573.15	1.4106	.6249	134.7	.2694
573.15	1.2039	.8003	137.321	.274642
573.15	1.2039	.8003	137.344	.274688
573.15	3.6073	.3975	212.291	.424582
573.15	3.6073	.3975	212.338	.424676
573.15	3.6073	.3975	212.304	.424608
573.15	3.6073	.3975	212.35	.4247
573.15	3.2114	.8103	221.345	.44269
573.15	3.2114	.8103	221.368	.442736
573.15	2.8101	1.2444	231.143	.462286
573.15	2.8101	1.2444	231.118	.462236
573.15	2.3999	1.602	236.037	.472074
573.15	2.3999	1.602	236.015	.47203
573.15	5.4005	.5965	284.744	.569488
573.15	5.4005	.5965	284.921	.569842
573.15	4.8105	1.2006	296.033	.592066
573.15	4.8105	1.2006	296.033	.592066
573.15	4.2049	1.7966	305.779	.611558
573.15	4.2049	1.7966	305.792	.611584
573.15	3.6123	2.4051	315.964	.631928
573.15	3.6123	2.4051	315.964	.631928
