Measured thermophysical data. Effect of the Chain Length on the Aromatic Ring in the Separation of Aromatic Compounds from Methylcyclohexane Using the Ionic Liquid 1-Ethyl-3-methylpyridinium Ethylsulfate
Source: J. Chem. Eng. Data, 2010, 10.1021/je900807v
Compound 1: 1-ethyl-3-methylpyridinium ethylsulfate, C10H17NO4S
Compound 2: methylcyclohexane, C7H14, purity 99%
Compound 3: benzene, C6H6, purity 99.9%
Compound 4: toluene, C7H8, purity 99.9%
Compound 5: ethylbenzene, C8H10, purity 99.8%

System: 1-ethyl-3-methylpyridinium ethylsulfate; phases: Liquid
Fixed: Pressure, kPa = 101.325
Property: Mass density, kg/m3 (Liquid); method: Vibrating tube method
Temperature, K	Mass density, kg/m3	uncertainty
298.15	1219.61	.026

System: 1-ethyl-3-methylpyridinium ethylsulfate; phases: Liquid
Fixed: Pressure, kPa = 101.325
Property: Refractive index (Na D-line) (Liquid); method: Standard Abbe refractometry
Temperature, K	Refractive index (Na D-line)	uncertainty
298.15	1.50591	.00004

System: methylcyclohexane; phases: Liquid
Fixed: Pressure, kPa = 101.325
Property: Refractive index (Na D-line) (Liquid); method: Standard Abbe refractometry
Temperature, K	Refractive index (Na D-line)	uncertainty
298.15	1.42062	.00004

System: methylcyclohexane; phases: Liquid
Property: Mass density, kg/m3 (Liquid); method: Vibrating tube method
Pressure, kPa	Temperature, K	Mass density, kg/m3	uncertainty
101.325	298.15	765.02	.026
101.325	298.15	765.02	.026
101.325	298.15	765.02	.026

System: benzene; phases: Liquid
Fixed: Pressure, kPa = 101.325
Property: Refractive index (Na D-line) (Liquid); method: Standard Abbe refractometry
Temperature, K	Refractive index (Na D-line)	uncertainty
298.15	1.49774	.00004

System: benzene; phases: Liquid
Property: Mass density, kg/m3 (Liquid); method: Vibrating tube method
Pressure, kPa	Temperature, K	Mass density, kg/m3	uncertainty
101.325	298.15	873.57	.026

System: toluene; phases: Liquid
Fixed: Pressure, kPa = 101.325
Property: Refractive index (Na D-line) (Liquid); method: Standard Abbe refractometry
Temperature, K	Refractive index (Na D-line)	uncertainty
298.15	1.49399	.00004

System: toluene; phases: Liquid
Property: Mass density, kg/m3 (Liquid); method: Vibrating tube method
Pressure, kPa	Temperature, K	Mass density, kg/m3	uncertainty
101.325	298.15	862.17	.026

System: ethylbenzene; phases: Liquid
Fixed: Pressure, kPa = 101.325
Property: Refractive index (Na D-line) (Liquid); method: Standard Abbe refractometry
Temperature, K	Refractive index (Na D-line)	uncertainty
298.15	1.49304	.00004

System: ethylbenzene; phases: Liquid
Property: Mass density, kg/m3 (Liquid); method: Vibrating tube method
Pressure, kPa	Temperature, K	Mass density, kg/m3	uncertainty
101.325	298.15	862.51	.026

System: benzene + methylcyclohexane + 1-ethyl-3-methylpyridinium ethylsulfate; phases: Liquid mixture 1, Liquid mixture 2
Fixed: Temperature, K = 298.15
Fixed: Pressure, kPa = 101
Property: Mole fraction of benzene (Liquid mixture 1); method: Titration method
Mole fraction of methylcyclohexane	Mole fraction of benzene	uncertainty
.016	0	.007
.01	.049	.007
.014	.098	.007
.008	.151	.007
.015	.198	.007
.007	.246	.007
.017	.289	.007
.001	.385	.007
.002	.503	.007
.002	.529	.007
0	.591	.007
.011	.349	.007
.006	.443	.007
.003	.521	.007

System: benzene + methylcyclohexane + 1-ethyl-3-methylpyridinium ethylsulfate; phases: Liquid mixture 1, Liquid mixture 2
Fixed: Pressure, kPa = 101
Fixed: Temperature, K = 298.15
Property: Mass density, kg/m3 (Liquid mixture 1); method: Vibrating tube method
Mole fraction of methylcyclohexane	Mass density, kg/m3	uncertainty
.016	1216.32	.026
.01	1210.58	.026
.014	1202.98	.026
.008	1196.78	.026
.015	1188.01	.026
.007	1181.03	.026
.017	1171.81	.026
.001	1155.11	.026
.002	1125.99	.026
.002	1121.41	.026
0	1104.84	.026
.011	1160	.026
.006	1140.2	.026
.003	1122.24	.026

System: benzene + methylcyclohexane + 1-ethyl-3-methylpyridinium ethylsulfate; phases: Liquid mixture 2, Liquid mixture 1
Fixed: Pressure, kPa = 101
Fixed: Temperature, K = 298.15
Property: Mole fraction of methylcyclohexane (Liquid mixture 2); method: Density calibration data
Property: Mole fraction of methylcyclohexane (Liquid mixture 1); method: Density calibration data
Property: Mole fraction of benzene (Liquid mixture 1); method: Density calibration data
Mole fraction of benzene	Mole fraction of methylcyclohexane	uncertainty	Mole fraction of methylcyclohexane	uncertainty	Mole fraction of benzene	uncertainty
.046	.013	.007	.955	.007	.045	.007
.091	.013	.007	.9	.007	.1	.007
.128	.012	.007	.843	.007	.157	.007
.163	.012	.007	.791	.007	.209	.007
.228	.01	.007	.681	.007	.319	.007
.228	.01	.007	.681	.007	.319	.007
.292	.009	.007	.559	.007	.441	.007
.418	.006	.007	.305	.007	.695	.007
.489	.004	.007	.171	.007	.829	.007

System: methylcyclohexane + toluene + 1-ethyl-3-methylpyridinium ethylsulfate; phases: Liquid mixture 1, Liquid mixture 2
Fixed: Temperature, K = 298.15
Fixed: Pressure, kPa = 101
Property: Mole fraction of toluene (Liquid mixture 1); method: Titration method
Mole fraction of methylcyclohexane	Mole fraction of toluene	uncertainty
.016	0	.007
.009	.052	.007
.012	.101	.007
.006	.154	.007
.003	.206	.007
.002	.256	.007
0	.307	.007
.012	.118	.007
.004	.196	.007
0	.295	.007

System: methylcyclohexane + toluene + 1-ethyl-3-methylpyridinium ethylsulfate; phases: Liquid mixture 1, Liquid mixture 2
Fixed: Pressure, kPa = 101
Fixed: Temperature, K = 298.15
Property: Mass density, kg/m3 (Liquid mixture 1); method: Vibrating tube method
Mole fraction of methylcyclohexane	Mass density, kg/m3	uncertainty
.016	1216.32	.026
.009	1209.17	.026
.012	1200.93	.026
.006	1191.78	.026
.003	1182.79	.026
.002	1173.22	.026
0	1161.68	.026
.012	1197.22	.026
.004	1184.66	.026
0	1164.93	.026

System: methylcyclohexane + toluene + 1-ethyl-3-methylpyridinium ethylsulfate; phases: Liquid mixture 2, Liquid mixture 1
Fixed: Temperature, K = 298.15
Fixed: Pressure, kPa = 101
Property: Mole fraction of methylcyclohexane (Liquid mixture 2); method: Density calibration data
Property: Mole fraction of methylcyclohexane (Liquid mixture 1); method: Density calibration data
Property: Mole fraction of toluene (Liquid mixture 1); method: Density calibration data
Mole fraction of toluene	Mole fraction of methylcyclohexane	uncertainty	Mole fraction of methylcyclohexane	uncertainty	Mole fraction of toluene	uncertainty
.03	.013	.007	.942	.007	.058	.007
.055	.011	.007	.883	.007	.117	.007
.079	.01	.007	.821	.007	.179	.007
.1	.009	.007	.762	.007	.238	.007
.143	.007	.007	.633	.007	.367	.007
.142	.007	.007	.637	.007	.363	.007
.18	.005	.007	.514	.007	.486	.007
.222	.003	.007	.384	.007	.616	.007
.264	.002	.007	.249	.007	.751	.007
.303	.001	.007	.126	.007	.874	.007

System: ethylbenzene + methylcyclohexane + 1-ethyl-3-methylpyridinium ethylsulfate; phases: Liquid mixture 1, Liquid mixture 2
Fixed: Temperature, K = 298.15
Fixed: Pressure, kPa = 101
Property: Mole fraction of ethylbenzene (Liquid mixture 1); method: Titration method
Mole fraction of methylcyclohexane	Mole fraction of ethylbenzene	uncertainty
.016	0	.007
.012	.081	.007
.015	.039	.007
.015	.069	.007
.01	.101	.007
.011	.115	.007
.007	.136	.007
0	.168	.007
.015	.037	.007
.014	.052	.007
.006	.097	.007

System: ethylbenzene + methylcyclohexane + 1-ethyl-3-methylpyridinium ethylsulfate; phases: Liquid mixture 1, Liquid mixture 2
Fixed: Pressure, kPa = 101
Fixed: Temperature, K = 298.15
Property: Mass density, kg/m3 (Liquid mixture 1); method: Vibrating tube method
Mole fraction of methylcyclohexane	Mass density, kg/m3	uncertainty
.016	1216.32	.026
.012	1201.57	.026
.015	1209.57	.026
.015	1203.95	.026
.01	1197.6	.026
.011	1195.7	.026
.007	1191.05	.026
0	1185.88	.026
.015	1209.01	.026
.014	1206.73	.026
.006	1199.33	.026

System: ethylbenzene + methylcyclohexane + 1-ethyl-3-methylpyridinium ethylsulfate; phases: Liquid mixture 2, Liquid mixture 1
Fixed: Pressure, kPa = 101
Fixed: Temperature, K = 298.15
Property: Mole fraction of methylcyclohexane (Liquid mixture 2); method: Density calibration data
Property: Mole fraction of methylcyclohexane (Liquid mixture 1); method: Density calibration data
Property: Mole fraction of ethylbenzene (Liquid mixture 1); method: Density calibration data
Mole fraction of ethylbenzene	Mole fraction of methylcyclohexane	uncertainty	Mole fraction of methylcyclohexane	uncertainty	Mole fraction of ethylbenzene	uncertainty
.022	.016	.007	.934	.007	.066	.007
.034	.016	.007	.86	.007	.14	.007
.042	.016	.007	.81	.007	.19	.007
.055	.015	.007	.742	.007	.258	.007
.08	.013	.007	.61	.007	.39	.007
.078	.014	.007	.616	.007	.384	.007
.101	.011	.007	.491	.007	.509	.007
.126	.008	.007	.354	.007	.646	.007
.153	.004	.007	.221	.007	.779	.007

System: benzene + methylcyclohexane; phases: Liquid
Fixed: Pressure, kPa = 101
Fixed: Temperature, K = 298.15
Property: Mass density, kg/m3 (Liquid); method: Vibrating tube method
Mole fraction of methylcyclohexane	Mass density, kg/m3	uncertainty
0	873.57	.026
.0504	865.01	.026
.099	857.13	.026
.1998	841.92	.026
.2978	829.01	.026
.3991	816.54	.026
.4993	805.76	.026
.598	796.03	.026
.6991	787.22	.026
.7981	779.31	.026
.8961	772.04	.026
.9523	768.25	.026
1	765.02	.026

System: methylcyclohexane + toluene; phases: Liquid
Fixed: Pressure, kPa = 101
Fixed: Temperature, K = 298.15
Property: Mass density, kg/m3 (Liquid); method: Vibrating tube method
Mole fraction of methylcyclohexane	Mass density, kg/m3	uncertainty
0	862.17	.026
.05	855.9	.026
.0998	849.91	.026
.198	838.24	.026
.2951	827.41	.026
.3968	816.83	.026
.4959	806.9	.026
.5973	797.45	.026
.697	788.64	.026
.7954	780.42	.026
.8932	772.71	.026
.9487	768.66	.026
1	765.02	.026

System: ethylbenzene + methylcyclohexane; phases: Liquid
Fixed: Pressure, kPa = 101
Fixed: Temperature, K = 298.15
Property: Mass density, kg/m3 (Liquid); method: Vibrating tube method
Mole fraction of methylcyclohexane	Mass density, kg/m3	uncertainty
0	862.51	.026
.0494	857.22	.026
.0975	852.13	.026
.1983	841.55	.026
.2981	831.2	.026
.4008	820.93	.026
.5005	811.01	.026
.6001	801.41	.026
.7006	792.06	.026
.7952	783.15	.026
.8949	774.23	.026
.9495	769.34	.026
1	765.02	.026
