Measured thermophysical data. Solubility of Phenanthrene in Binary Mixtures of C1-C4  Alcohols + 2-Propanol and Ethanol + Methanol at 298.15 K
Source: J. Chem. Eng. Data, 2009, 10.1021/je900027h
Compound 1: phenanthrene, C14H10
Compound 2: methanol, CH4O
Compound 3: ethanol, C2H6O
Compound 4: 1-propanol, C3H8O
Compound 5: 2-propanol, C3H8O
Compound 6: 1-butanol, C4H10O

System: phenanthrene; phases: Crystal, Liquid, Air at 1 atmosphere
Property: Normal melting temperature, K (Crystal); method: DSC/DTA
Normal melting temperature, K	uncertainty
378.07	

System: ethanol + methanol + phenanthrene; phases: Liquid, Crystal
Fixed: Temperature, K = 298.15
Fixed: Pressure, kPa = 101
Property: Amount concentration (molarity), mol/dm3 of phenanthrene (Liquid); method: Spectrophotometry
Solvent: Mole fraction of ethanol	Amount concentration (molarity), mol/dm3 of phenanthrene	uncertainty
1	.187	
.862	.192	
.735	.18	
.618	.177	
.51	.178	
.409	.17	
.316	.165	
.229	.152	
.148	.147	
.071	.138	
0	.133	

System: ethanol + methanol + phenanthrene; phases: Liquid, Crystal
Fixed: Pressure, kPa = 101
Fixed: Temperature, K = 298.15
Property: Mass density, kg/m3 (Liquid); method: Pycnometric method
Solvent: Mole fraction of ethanol	Mass density, kg/m3	uncertainty
1	798	
.862	799	
.735	799	
.618	798	
.51	799	
.409	798	
.316	797	
.229	798	
.148	797	
.071	796	
0	797	

System: methanol + 2-propanol + phenanthrene; phases: Liquid, Crystal
Fixed: Temperature, K = 298.15
Fixed: Pressure, kPa = 101
Property: Amount concentration (molarity), mol/dm3 of phenanthrene (Liquid); method: Spectrophotometry
Solvent: Mole fraction of methanol	Amount concentration (molarity), mol/dm3 of phenanthrene	uncertainty
1	.133	
.944	.139	
.883	.148	
.815	.154	
.739	.153	
.654	.16	
.557	.157	
.447	.147	
.321	.142	
.174	.135	
0	.124	

System: methanol + 2-propanol + phenanthrene; phases: Liquid, Crystal
Fixed: Pressure, kPa = 101
Fixed: Temperature, K = 298.15
Property: Mass density, kg/m3 (Liquid); method: Pycnometric method
Solvent: Mole fraction of methanol	Mass density, kg/m3	uncertainty
1	797	
.944	798	
.883	798	
.815	799	
.739	798	
.654	797	
.557	796	
.447	795	
.321	794	
.174	794	
0	791	

System: ethanol + 2-propanol + phenanthrene; phases: Liquid, Crystal
Fixed: Temperature, K = 298.15
Fixed: Pressure, kPa = 101
Property: Amount concentration (molarity), mol/dm3 of phenanthrene (Liquid); method: Spectrophotometry
Solvent: Mole fraction of ethanol	Amount concentration (molarity), mol/dm3 of phenanthrene	uncertainty
1	.187	
.922	.184	
.84	.176	
.753	.17	
.663	.17	
.567	.169	
.466	.159	
.359	.152	
.247	.143	
.127	.138	
0	.124	

System: ethanol + 2-propanol + phenanthrene; phases: Liquid, Crystal
Fixed: Pressure, kPa = 101
Fixed: Temperature, K = 298.15
Property: Mass density, kg/m3 (Liquid); method: Pycnometric method
Solvent: Mole fraction of ethanol	Mass density, kg/m3	uncertainty
1	798	
.922	799	
.84	798	
.753	797	
.663	797	
.567	796	
.466	795	
.359	794	
.247	793	
.127	792	
0	791	

System: 2-propanol + 1-propanol + phenanthrene; phases: Liquid, Crystal
Fixed: Temperature, K = 298.15
Fixed: Pressure, kPa = 101
Property: Amount concentration (molarity), mol/dm3 of phenanthrene (Liquid); method: Spectrophotometry
Solvent: Mole fraction of 1-propanol	Amount concentration (molarity), mol/dm3 of phenanthrene	uncertainty
1	.174	
.902	.165	
.803	.161	
.705	.157	
.605	.153	
.505	.148	
.405	.141	
.305	.134	
.204	.13	
.102	.122	
0	.124	

System: 2-propanol + 1-propanol + phenanthrene; phases: Liquid, Crystal
Fixed: Pressure, kPa = 101
Fixed: Temperature, K = 298.15
Property: Mass density, kg/m3 (Liquid); method: Pycnometric method
Solvent: Mole fraction of 1-propanol	Mass density, kg/m3	uncertainty
1	812	
.902	810	
.803	806	
.705	804	
.605	802	
.505	800	
.405	798	
.305	796	
.204	793	
.102	790	
0	791	

System: 2-propanol + 1-butanol + phenanthrene; phases: Liquid, Crystal
Fixed: Temperature, K = 298.15
Fixed: Pressure, kPa = 101
Property: Amount concentration (molarity), mol/dm3 of phenanthrene (Liquid); method: Spectrophotometry
Solvent: Mole fraction of 1-butanol	Amount concentration (molarity), mol/dm3 of phenanthrene	uncertainty
1	.188	
.883	.183	
.77	.174	
.661	.168	
.556	.159	
.455	.156	
.358	.146	
.264	.138	
.173	.135	
.085	.124	
0	.124	

System: 2-propanol + 1-butanol + phenanthrene; phases: Liquid, Crystal
Fixed: Pressure, kPa = 101
Fixed: Temperature, K = 298.15
Property: Mass density, kg/m3 (Liquid); method: Pycnometric method
Solvent: Mole fraction of 1-butanol	Mass density, kg/m3	uncertainty
1	821	
.883	818	
.77	815	
.661	812	
.556	808	
.455	807	
.358	804	
.264	799	
.173	796	
.085	794	
0	791	
