Measured thermophysical data. Volumetric and Transport Properties of Binary Liquid Mixtures of Phenylacetonitrile with Aliphatic Esters at Temperatures of (303.15 to 313.15) K
Source: J. Chem. Eng. Data, 2010, 10.1021/je900525f
Compound 1: phenylacetonitrile, C8H7N, purity 99%
Compound 2: ethyl ethanoate, C4H8O2, purity 99.5%
Compound 3: ethyl chloroacetate, C4H7ClO2, purity 99%
Compound 4: ethyl cyanoacetate, C5H7NO2, purity 98%

System: phenylacetonitrile; phases: Liquid
Property: Mass density, kg/m3 (Liquid); method: Pycnometric method
Temperature, K	Pressure, kPa	Mass density, kg/m3	uncertainty
303.15	101	1008.8	.04
308.15	101	1004.1	.04
313.15	101	999.5	.04

System: phenylacetonitrile; phases: Liquid
Property: Speed of sound, m/s (Liquid); method: Pulse-echo method
Temperature, K	Pressure, kPa	Speed of sound, m/s	uncertainty
303.15	101	1519.2	4.5576
308.15	101	1512.9	4.5387
313.15	101	1503.4	4.5102

System: phenylacetonitrile; phases: Liquid
Property: Viscosity, Pa*s (Liquid); method: Capillary tube (Ostwald; Ubbelohde) method
Temperature, K	Pressure, kPa	Viscosity, Pa*s	uncertainty
303.15	101	.0017613	.000005
308.15	101	.0016021	.000005
313.15	101	.0014893	.000005

System: ethyl ethanoate; phases: Liquid
Property: Mass density, kg/m3 (Liquid); method: Pycnometric method
Temperature, K	Pressure, kPa	Mass density, kg/m3	uncertainty
303.15	101	888.9	.04
308.15	101	882.6	.04
313.15	101	875.9	.04

System: ethyl ethanoate; phases: Liquid
Property: Speed of sound, m/s (Liquid); method: Pulse-echo method
Temperature, K	Pressure, kPa	Speed of sound, m/s	uncertainty
303.15	101	1118.5	3.3555
308.15	101	1097.8	3.2934
313.15	101	1081.2	3.2436

System: ethyl ethanoate; phases: Liquid
Property: Viscosity, Pa*s (Liquid); method: Capillary tube (Ostwald; Ubbelohde) method
Temperature, K	Pressure, kPa	Viscosity, Pa*s	uncertainty
303.15	101	.000379	.000005
308.15	101	.000361	.000005
313.15	101	.000344	.000005

System: ethyl chloroacetate; phases: Liquid
Property: Mass density, kg/m3 (Liquid); method: Pycnometric method
Temperature, K	Pressure, kPa	Mass density, kg/m3	uncertainty
303.15	101	1139.3	.04
308.15	101	1132.5	.04
313.15	101	1125.9	.04

System: ethyl chloroacetate; phases: Liquid
Property: Speed of sound, m/s (Liquid); method: Pulse-echo method
Temperature, K	Pressure, kPa	Speed of sound, m/s	uncertainty
303.15	101	1229.4	3.6882
308.15	101	1212.4	3.6372
313.15	101	1197.6	3.5928

System: ethyl chloroacetate; phases: Liquid
Property: Viscosity, Pa*s (Liquid); method: Capillary tube (Ostwald; Ubbelohde) method
Temperature, K	Pressure, kPa	Viscosity, Pa*s	uncertainty
303.15	101	.0009692	.000005
308.15	101	.0008979	.000005
313.15	101	.0008341	.000005

System: ethyl cyanoacetate; phases: Liquid
Property: Mass density, kg/m3 (Liquid); method: Pycnometric method
Temperature, K	Pressure, kPa	Mass density, kg/m3	uncertainty
303.15	101	1051.4	.04
308.15	101	1046.5	.04
313.15	101	1040.8	.04

System: ethyl cyanoacetate; phases: Liquid
Property: Speed of sound, m/s (Liquid); method: Pulse-echo method
Temperature, K	Pressure, kPa	Speed of sound, m/s	uncertainty
303.15	101	1396.9	4.1907
308.15	101	1384.8	4.1544
313.15	101	1367.7	4.1031

System: ethyl cyanoacetate; phases: Liquid
Property: Viscosity, Pa*s (Liquid); method: Capillary tube (Ostwald; Ubbelohde) method
Temperature, K	Pressure, kPa	Viscosity, Pa*s	uncertainty
303.15	101	.0021861	.000005
308.15	101	.0019618	.000005
313.15	101	.0017698	.000005

System: phenylacetonitrile + ethyl ethanoate; phases: Liquid
Fixed: Pressure, kPa = 101
Property: Mass density, kg/m3 (Liquid); method: Pycnometric method
Temperature, K	Mole fraction of phenylacetonitrile	Mass density, kg/m3	uncertainty
303.15	0	888.9	.04
303.15	.0198	892.4	.04
303.15	.1279	910.4	.04
303.15	.2425	926.8	.04
303.15	.3589	942.3	.04
303.15	.461	955.3	.04
303.15	.5665	967.5	.04
303.15	.6978	981.5	.04
303.15	.8328	994.9	.04
303.15	.9745	1006.5	.04
303.15	1	1008.8	.04
308.15	0	882.6	.04
308.15	.0198	887.4	.04
308.15	.1279	905.4	.04
308.15	.2425	922.7	.04
308.15	.3589	938	.04
308.15	.461	950.9	.04
308.15	.5665	963.3	.04
308.15	.6978	978.1	.04
308.15	.8328	991.8	.04
308.15	.9745	1002.6	.04
308.15	1	1004.1	.04
313.15	0	875.9	.04
313.15	.0198	880.8	.04
313.15	.1279	899.6	.04
313.15	.2425	916.9	.04
313.15	.3589	933.4	.04
313.15	.461	946.5	.04
313.15	.5665	958.5	.04
313.15	.6978	972.4	.04
313.15	.8328	985.2	.04
313.15	.9745	998.1	.04
313.15	1	999.5	.04

System: phenylacetonitrile + ethyl ethanoate; phases: Liquid
Fixed: Pressure, kPa = 101
Property: Speed of sound, m/s (Liquid); method: Pulse-echo method
Temperature, K	Mole fraction of phenylacetonitrile	Speed of sound, m/s	uncertainty
303.15	0	1118.5	3.3555
303.15	.0198	1125.1	3.3753
303.15	.1279	1173.8	3.5214
303.15	.2425	1230.8	3.6924
303.15	.3589	1286.7	3.8601
303.15	.461	1326.1	3.9783
303.15	.5665	1366.7	4.1001
303.15	.6978	1417.8	4.2534
303.15	.8328	1464.3	4.3929
303.15	.9745	1508.3	4.5249
303.15	1	1519.2	4.5576
308.15	0	1097.8	3.2934
308.15	.0198	1109.3	3.3279
308.15	.1279	1164.8	3.4944
308.15	.2425	1218.2	3.6546
308.15	.3589	1278.4	3.8352
308.15	.461	1312.5	3.9375
308.15	.5665	1355.1	4.0653
308.15	.6978	1410.8	4.2324
308.15	.8328	1461.3	4.3839
308.15	.9745	1500.5	4.5015
308.15	1	1512.9	4.5387
313.15	0	1081.2	3.2436
313.15	.0198	1104.3	3.3129
313.15	.1279	1159.7	3.4791
313.15	.2425	1209.3	3.6279
313.15	.3589	1263.6	3.7908
313.15	.461	1303.1	3.9093
313.15	.5665	1344.9	4.0347
313.15	.6978	1400	4.2
313.15	.8328	1446.8	4.3404
313.15	.9745	1490	4.47
313.15	1	1503.4	4.5102

System: phenylacetonitrile + ethyl ethanoate; phases: Liquid
Fixed: Pressure, kPa = 101
Property: Viscosity, Pa*s (Liquid); method: Capillary tube (Ostwald; Ubbelohde) method
Temperature, K	Mole fraction of phenylacetonitrile	Viscosity, Pa*s	uncertainty
303.15	0	.000379	.000005
303.15	.0198	.000396	.000005
303.15	.1279	.000483	.000005
303.15	.2425	.000591	.000005
303.15	.3589	.000714	.000005
303.15	.461	.000839	.000005
303.15	.5665	.000984	.000005
303.15	.6978	.00118	.000005
303.15	.8328	.001416	.000005
303.15	.9745	.001695	.000005
303.15	1	.001761	.000005
308.15	0	.000361	.000005
308.15	.0198	.000376	.000005
308.15	.1279	.000458	.000005
308.15	.2425	.000556	.000005
308.15	.3589	.000668	.000005
308.15	.461	.000781	.000005
308.15	.5665	.000914	.000005
308.15	.6978	.001092	.000005
308.15	.8328	.001307	.000005
308.15	.9745	.001554	.000005
308.15	1	.001602	.000005
313.15	0	.000344	.000005
313.15	.0198	.000357	.000005
313.15	.1279	.000431	.000005
313.15	.2425	.000524	.000005
313.15	.3589	.000627	.000005
313.15	.461	.000733	.000005
313.15	.5665	.000856	.000005
313.15	.6978	.001017	.000005
313.15	.8328	.001209	.000005
313.15	.9745	.00143	.000005
313.15	1	.001489	.000005

System: ethyl chloroacetate + phenylacetonitrile; phases: Liquid
Fixed: Pressure, kPa = 101
Property: Mass density, kg/m3 (Liquid); method: Pycnometric method
Temperature, K	Mole fraction of phenylacetonitrile	Mass density, kg/m3	uncertainty
303.15	0	1139.3	.04
303.15	.0205	1135.8	.04
303.15	.1376	1119.2	.04
303.15	.2585	1102.6	.04
303.15	.3793	1086.4	.04
303.15	.4843	1072.6	.04
303.15	.5875	1059.3	.04
303.15	.7152	1043.2	.04
303.15	.8434	1027.5	.04
303.15	.9764	1011.6	.04
303.15	1	1008.8	.04
308.15	0	1132.5	.04
308.15	.0205	1129.8	.04
308.15	.1376	1114.3	.04
308.15	.2585	1098.5	.04
308.15	.3793	1083.3	.04
308.15	.4843	1069.8	.04
308.15	.5875	1056.4	.04
308.15	.7152	1040	.04
308.15	.8434	1023.7	.04
308.15	.9764	1007	.04
308.15	1	1004.1	.04
313.15	0	1125.9	.04
313.15	.0205	1123.2	.04
313.15	.1376	1107.6	.04
313.15	.2585	1091.7	.04
313.15	.3793	1076.2	.04
313.15	.4843	1062.8	.04
313.15	.5875	1049.8	.04
313.15	.7152	1034	.04
313.15	.8434	1018.3	.04
313.15	.9764	1002.3	.04
313.15	1	999.5	.04

System: ethyl chloroacetate + phenylacetonitrile; phases: Liquid
Fixed: Pressure, kPa = 101
Property: Speed of sound, m/s (Liquid); method: Pulse-echo method
Temperature, K	Mole fraction of phenylacetonitrile	Speed of sound, m/s	uncertainty
303.15	0	1229.4	3.6882
303.15	.0205	1235.7	3.7071
303.15	.1376	1268.8	3.8064
303.15	.2585	1303.2	3.9096
303.15	.3793	1338.7	4.0161
303.15	.4843	1370.5	4.1115
303.15	.5875	1400.6	4.2018
303.15	.7152	1438.2	4.3146
303.15	.8434	1476.9	4.4307
303.15	.9764	1516	4.548
303.15	1	1519.2	4.5576
308.15	0	1212.4	3.6372
308.15	.0205	1218.9	3.6567
308.15	.1376	1254	3.762
308.15	.2585	1291.5	3.8745
308.15	.3793	1328.4	3.9852
308.15	.4843	1361.6	4.0848
308.15	.5875	1388.9	4.1667
308.15	.7152	1426.3	4.2789
308.15	.8434	1466	4.398
308.15	.9764	1505.6	4.5168
308.15	1	1512.9	4.5387
313.15	0	1197.6	3.5928
313.15	.0205	1204	3.612
313.15	.1376	1240.4	3.7212
313.15	.2585	1279	3.837
313.15	.3793	1316.6	3.9498
313.15	.4843	1348.5	4.0455
313.15	.5875	1381	4.143
313.15	.7152	1419.9	4.2597
313.15	.8434	1457.4	4.3722
313.15	.9764	1495.8	4.4874
313.15	1	1503.4	4.5102

System: ethyl chloroacetate + phenylacetonitrile; phases: Liquid
Fixed: Pressure, kPa = 101
Property: Viscosity, Pa*s (Liquid); method: Capillary tube (Ostwald; Ubbelohde) method
Temperature, K	Mole fraction of phenylacetonitrile	Viscosity, Pa*s	uncertainty
303.15	0	.0009692	.000005
303.15	.0205	.0009824	.000005
303.15	.1376	.0010691	.000005
303.15	.2585	.0011606	.000005
303.15	.3793	.0012539	.000005
303.15	.4843	.0013358	.000005
303.15	.5875	.0014193	.000005
303.15	.7152	.0015235	.000005
303.15	.8434	.0016283	.000005
303.15	.9764	.00174	.000005
303.15	1	.0017613	.000005
308.15	0	.0008979	.000005
308.15	.0205	.0009115	.000005
308.15	.1376	.0009906	.000005
308.15	.2585	.0010724	.000005
308.15	.3793	.0011555	.000005
308.15	.4843	.0012287	.000005
308.15	.5875	.0013022	.000005
308.15	.7152	.0013944	.000005
308.15	.8434	.0014875	.000005
308.15	.9764	.0015844	.000005
308.15	1	.0016021	.000005
313.15	0	.0008341	.000005
313.15	.0205	.0008463	.000005
313.15	.1376	.0009164	.000005
313.15	.2585	.0009925	.000005
313.15	.3793	.0010701	.000005
313.15	.4843	.0011386	.000005
313.15	.5875	.0012066	.000005
313.15	.7152	.0012923	.000005
313.15	.8434	.0013791	.000005
313.15	.9764	.0014712	.000005
313.15	1	.0014893	.000005

System: ethyl cyanoacetate + phenylacetonitrile; phases: Liquid
Fixed: Pressure, kPa = 101
Property: Mass density, kg/m3 (Liquid); method: Pycnometric method
Temperature, K	Mole fraction of phenylacetonitrile	Mass density, kg/m3	uncertainty
303.15	0	1051.4	.04
303.15	.0223	1050.1	.04
303.15	.1383	1044.4	.04
303.15	.2569	1038.8	.04
303.15	.3778	1033.4	.04
303.15	.4842	1028.9	.04
303.15	.5882	1024.6	.04
303.15	.7172	1019.4	.04
303.15	.8426	1014.6	.04
303.15	.9759	1009.7	.04
303.15	1	1008.8	.04
308.15	0	1046.5	.04
308.15	.0233	1045.6	.04
308.15	.1383	1040.9	.04
308.15	.2569	1035.9	.04
308.15	.3778	1030.8	.04
308.15	.4842	1026.3	.04
308.15	.5882	1021.8	.04
308.15	.7172	1016.2	.04
308.15	.8426	1010.9	.04
308.15	.9759	1005.2	.04
308.15	1	1004.1	.04
313.15	0	1040.8	.04
313.15	.0223	1039.8	.04
313.15	.1383	1034.8	.04
313.15	.2569	1029.9	.04
313.15	.3778	1025.3	.04
313.15	.4842	1021.1	.04
313.15	.5882	1016.8	.04
313.15	.7172	1011.4	.04
313.15	.8426	1005.8	.04
313.15	.9759	1000.4	.04
313.15	1	999.5	.04

System: ethyl cyanoacetate + phenylacetonitrile; phases: Liquid
Fixed: Pressure, kPa = 101
Property: Speed of sound, m/s (Liquid); method: Pulse-echo method
Temperature, K	Mole fraction of phenylacetonitrile	Speed of sound, m/s	uncertainty
303.15	0	1396.9	4.1907
303.15	.0223	1399.6	4.1988
303.15	.1383	1412.3	4.2369
303.15	.2569	1424.4	4.2732
303.15	.3778	1436	4.308
303.15	.4842	1448	4.344
303.15	.5882	1461.3	4.3839
303.15	.7172	1479.4	4.4382
303.15	.8426	1496.9	4.4907
303.15	.9759	1515.5	4.5465
303.15	1	1519.2	4.5576
308.15	0	1384.8	4.1544
308.15	.0233	1386.5	4.1595
308.15	.1383	1397.7	4.1931
308.15	.2569	1410	4.23
308.15	.3778	1423.7	4.2711
308.15	.4842	1436.3	4.3089
308.15	.5882	1450.4	4.3512
308.15	.7172	1468.5	4.4055
308.15	.8426	1487.6	4.4628
308.15	.9759	1508.7	4.5261
308.15	1	1512.9	4.5387
313.15	0	1367.7	4.1031
313.15	.0223	1370.4	4.1112
313.15	.1383	1384.6	4.1538
313.15	.2569	1399.1	4.1973
313.15	.3778	1414.2	4.2426
313.15	.4842	1429.2	4.2876
313.15	.5882	1442	4.326
313.15	.7172	1459.4	4.3782
313.15	.8426	1478	4.434
313.15	.9759	1495.9	4.4877
313.15	1	1503.4	4.5102

System: ethyl cyanoacetate + phenylacetonitrile; phases: Liquid
Fixed: Pressure, kPa = 101
Property: Viscosity, Pa*s (Liquid); method: Capillary tube (Ostwald; Ubbelohde) method
Temperature, K	Mole fraction of phenylacetonitrile	Viscosity, Pa*s	uncertainty
303.15	0	.0021861	.000005
303.15	.0223	.0021786	.000005
303.15	.1383	.0021348	.000005
303.15	.2569	.0020883	.000005
303.15	.3778	.0020395	.000005
303.15	.4842	.0019952	.000005
303.15	.5882	.0019504	.000005
303.15	.7172	.0018932	.000005
303.15	.8426	.0018354	.000005
303.15	.9759	.0017728	.000005
303.15	1	.0017613	.000005
308.15	0	.0019618	.000005
308.15	.0233	.0019548	.000005
308.15	.1383	.0019171	.000005
308.15	.2569	.0018773	.000005
308.15	.3778	.0018361	.000005
308.15	.4842	.0017989	.000005
308.15	.5882	.0017611	.000005
308.15	.7172	.0017127	.000005
308.15	.8426	.0016641	.000005
308.15	.9759	.0016119	.000005
308.15	1	.0016021	.000005
313.15	0	.0017698	.000005
313.15	.0223	.0017641	.000005
313.15	.1383	.001733	.000005
313.15	.2569	.0017014	.000005
313.15	.3778	.0016707	.000005
313.15	.4842	.0016436	.000005
313.15	.5882	.0016117	.000005
313.15	.7172	.0015721	.000005
313.15	.8426	.0015354	.000005
313.15	.9759	.0014964	.000005
313.15	1	.0014893	.000005
