Measured thermophysical data. Isothermal Vapor-Liquid Equilibrium Data for the Hexafluoropropylene (R1216) + Propylene System at Temperatures from (263.17 to 353.14) K
Source: J. Chem. Eng. Data, 2010, 10.1021/je900703f
Compound 1: hexafluoropropene, C3F6
Compound 2: propene, C3H6

System: hexafluoropropene; phases: Liquid, Gas
Property: Vapor or sublimation pressure, kPa (Liquid); method: Closed cell (Static) method
Temperature, K	Vapor or sublimation pressure, kPa	uncertainty
273.16	324.4	.5
263.17	224.5	.5
293.12	641	.5
313.11	1099.4	.5
333.11	1788.2	.5
353.14	2778.2	.5

System: propene + hexafluoropropene; phases: Liquid, Gas
Property: Vapor or sublimation pressure, kPa (Liquid); method: Closed cell (Static) method
Mole fraction of propene	Temperature, K	Vapor or sublimation pressure, kPa	uncertainty
0	273.16	324.4	.5
.0382	273.16	357.4	.5
.0768	273.16	387.8	.5
.1172	273.16	416.7	.5
.1665	273.16	447.9	.5
.2215	273.16	477.8	.5
.2824	273.16	506.4	.5
.362	273.16	537.1	.5
.4534	273.16	564.7	.5
.5637	273.16	589.3	.5
.6203	273.16	597.9	.5
.6945	273.16	606.8	.5
.7332	273.16	609.1	.5
.7838	273.16	611.7	.5
.8755	273.16	608.5	.5
.9416	273.16	597.7	.5
.9596	273.16	593.2	.5
.9682	273.16	590.5	.5
0	263.17	224.5	.5
.119	263.17	297.7	.5
.2054	263.17	338	.5
.3214	263.17	378	.5
.4945	263.17	417.1	.5
.6276	263.17	434.8	.5
.7713	263.17	444	.5
.8225	263.17	444.7	.5
.8586	263.17	444	.5
.9026	263.17	441	.5
.9177	263.17	439.2	.5
.9478	263.17	434.7	.5
.9701	263.17	429.6	.5
0	293.12	641	.5
.0533	293.12	694.6	.5
.1202	293.12	768.9	.5
.1942	293.12	839	.5
.2777	293.12	904.4	.5
.3924	293.12	974.6	.5
.5051	293.12	1024	.5
.6073	293.12	1055.4	.5
.7291	293.12	1077.7	.5
.7758	293.12	1080	.5
.8128	293.12	1079.8	.5
.8893	293.12	1066.7	.5
.9371	293.12	1051.4	.5
.9574	293.12	1041.9	.5
0	313.11	1099.4	.5
.0733	313.11	1225.4	.5
.1393	313.11	1327.3	.5
.2183	313.11	1431.4	.5
.3019	313.11	1525	.5
.415	313.11	1627.1	.5
.561	313.11	1712.3	.5
.6709	313.11	1749.3	.5
.7573	313.11	1759.7	.5
.7973	313.11	1757.9	.5
.8466	313.11	1748.8	.5
.897	313.11	1730.8	.5
.9171	313.11	1720.8	.5
.9506	313.11	1698.2	.5
0	333.11	1788.2	.5
.0518	333.11	1909.4	.5
.1116	333.11	2042.2	.5
.1913	333.11	2194.7	.5
.2843	333.11	2350.8	.5
.396	333.11	2502.7	.5
.5046	333.11	2613	.5
.6157	333.11	2685	.5
.684	333.11	2707.8	.5
.8067	333.11	2703.1	.5
.847	333.11	2686.9	.5
.8845	333.11	2664.4	.5
.9257	333.11	2628.2	.5
.9636	333.11	2581.8	.5
0	353.14	2778.2	.5
.0487	353.14	2925.5	.5
.1112	353.14	3103.4	.5
.1832	353.14	3284.4	.5
.1677	353.14	3244.7	.5
.9861	353.14	3750.5	.5
.9603	353.14	3808.7	.5
.9305	353.14	3864.7	.5
.9098	353.14	3899.6	.5
.89	353.14	3928.6	.5
.8676	353.14	3958.6	.5
.8483	353.14	3979.6	.5
.8265	353.14	4000.4	.5
.8111	353.14	4012.9	.5

System: propene + hexafluoropropene; phases: Gas, Liquid
Property: Mole fraction of propene (Gas); method: Chromatography
Mole fraction of propene	Temperature, K	Mole fraction of propene	uncertainty
.0382	273.16	.114	.04
.0487	353.14	.0619	.04
.0518	333.11	.0856	.04
.0533	293.12	.1281	.04
.0733	313.11	.1404	.04
.0768	273.16	.2038	.04
.1112	353.14	.1317	.04
.1116	333.11	.1701	.04
.1172	273.16	.2801	.04
.119	263.17	.3063	.04
.1202	293.12	.2468	.04
.1393	313.11	.2387	.04
.1665	273.16	.3535	.04
.1677	353.14	.1843	.04
.1832	353.14	.1976	.04
.1913	333.11	.2659	.04
.1942	293.12	.3466	.04
.2054	263.17	.4298	.04
.2183	313.11	.3342	.04
.2215	273.16	.42	.04
.2777	293.12	.4343	.04
.2824	273.16	.48	.04
.2843	333.11	.3621	.04
.3019	313.11	.4178	.04
.3214	263.17	.5381	.04
.362	273.16	.5435	.04
.3924	293.12	.5293	.04
.396	333.11	.4637	.04
.415	313.11	.5116	.04
.4534	273.16	.6035	.04
.4945	263.17	.6453	.04
.5046	333.11	.5519	.04
.5051	293.12	.606	.04
.561	313.11	.6119	.04
.5637	273.16	.6669	.04
.6073	293.12	.6696	.04
.6157	333.11	.6404	.04
.6203	273.16	.6942	.04
.6276	263.17	.7124	.04
.6709	313.11	.6963	.04
.684	333.11	.6961	.04
.6945	273.16	.735	.04
.7291	293.12	.7467	.04
.7332	273.16	.7591	.04
.7573	313.11	.7594	.04
.7713	263.17	.7887	.04
.7758	293.12	.778	.04
.7838	273.16	.7915	.04
.7973	313.11	.7895	.04
.8067	333.11	.7968	.04
.8111	353.14	.8074	.04
.8128	293.12	.8048	.04
.8225	263.17	.8242	.04
.8265	353.14	.8211	.04
.8466	313.11	.8306	.04
.847	333.11	.8324	.04
.8483	353.14	.841	.04
.8586	263.17	.8436	.04
.8676	353.14	.8591	.04
.8755	273.16	.8559	.04
.8845	333.11	.8676	.04
.8893	293.12	.8678	.04
.89	353.14	.8805	.04
.897	313.11	.877	.04
.9026	263.17	.8805	.04
.9098	353.14	.9002	.04
.9171	313.11	.8978	.04
.9177	263.17	.8938	.04
.9257	333.11	.9105	.04
.9305	353.14	.9213	.04
.9371	293.12	.9164	.04
.9416	273.16	.9201	.04
.9478	263.17	.9264	.04
.9506	313.11	.9348	.04
.9574	293.12	.9405	.04
.9596	273.16	.9412	.04
.9603	353.14	.9529	.04
.9636	333.11	.9532	.04
.9682	273.16	.9526	.04
.9701	263.17	.9536	.04
.9861	353.14	.9828	.04
