Measured thermophysical data. Refractive Indices and Deviations in Refractive Indices for Binary Mixtures of 1-Ethyl-3-methylimidazolium Trifluoromethanesulfonate with Methanol, Ethanol, 1-Propanol, and 2-Propanol at Several Temperatures
Source: J. Chem. Eng. Data, 2010, 10.1021/je9006037
Compound 1: 1-ethyl-3-methylimidazolium trifluoromethanesulfonate, C7H11F3N2O3S, purity 98%
Compound 2: methanol, CH4O, purity 99.8%
Compound 3: ethanol, C2H6O, purity 99.9%
Compound 4: 1-propanol, C3H8O, purity 99.5%
Compound 5: 2-propanol, C3H8O, purity 99.8%

System: 1-ethyl-3-methylimidazolium trifluoromethanesulfonate; phases: Liquid
Fixed: Pressure, kPa = 101.325
Property: Mass density, kg/m3 (Liquid); method: Vibrating tube method
Temperature, K	Mass density, kg/m3	uncertainty
298.15	1383.58	

System: methanol; phases: Liquid
Fixed: Pressure, kPa = 101.325
Property: Mass density, kg/m3 (Liquid); method: Vibrating tube method
Temperature, K	Mass density, kg/m3	uncertainty
298.15	786.49	

System: ethanol; phases: Liquid
Fixed: Pressure, kPa = 101.325
Property: Mass density, kg/m3 (Liquid); method: Vibrating tube method
Temperature, K	Mass density, kg/m3	uncertainty
298.15	785.1	

System: 1-propanol; phases: Liquid
Fixed: Pressure, kPa = 101.325
Property: Mass density, kg/m3 (Liquid); method: Vibrating tube method
Temperature, K	Mass density, kg/m3	uncertainty
298.15	799.56	

System: 2-propanol; phases: Liquid
Fixed: Pressure, kPa = 101.325
Property: Mass density, kg/m3 (Liquid); method: Vibrating tube method
Temperature, K	Mass density, kg/m3	uncertainty
298.15	780.89	

System: methanol + 1-ethyl-3-methylimidazolium trifluoromethanesulfonate; phases: Liquid
Fixed: Pressure, kPa = 101
Property: Refractive index (Na D-line) (Liquid); method: Standard Abbe refractometry
Temperature, K	Mole fraction of 1-ethyl-3-methylimidazolium trifluoromethanesulfonate	Refractive index (Na D-line)	uncertainty
288.15	0	1.33071	.00002
288.15	.04981	1.35401	.00002
288.15	.10059	1.37019	.00002
288.15	.1503	1.38187	.00002
288.15	.2002	1.39131	.00002
288.15	.25165	1.39849	.00002
288.15	.30177	1.40415	.00002
288.15	.39768	1.41297	.00002
288.15	.49902	1.41931	.00002
288.15	.59106	1.42382	.00002
288.15	.70591	1.42818	.00002
288.15	.80539	1.43127	.00002
288.15	.84944	1.43236	.00002
288.15	.90126	1.43359	.00002
288.15	1	1.43599	.00002
298.15	0	1.32653	.00002
298.15	.04981	1.35019	.00002
298.15	.10059	1.36654	.00002
298.15	.1503	1.37846	.00002
298.15	.2002	1.38786	.00002
298.15	.25165	1.39527	.00002
298.15	.30177	1.40103	.00002
298.15	.39768	1.40987	.00002
298.15	.49902	1.4163	.00002
298.15	.59106	1.42086	.00002
298.15	.70591	1.42529	.00002
298.15	.80539	1.42843	.00002
298.15	.84944	1.42952	.00002
298.15	.90126	1.4308	.00002
298.15	1	1.43322	.00002
308.15	0	1.32237	.00002
308.15	.04981	1.34673	.00002
308.15	.10059	1.3636	.00002
308.15	.1503	1.37522	.00002
308.15	.2002	1.38479	.00002
308.15	.25165	1.39212	.00002
308.15	.30177	1.3983	.00002
308.15	.39768	1.40694	.00002
308.15	.49902	1.41325	.00002
308.15	.59106	1.41783	.00002
308.15	.70591	1.42236	.00002
308.15	.80539	1.42553	.00002
308.15	.84944	1.42665	.00002
308.15	.90126	1.42799	.00002
308.15	1	1.4304	.00002
318.15	0	1.3182	.00002
318.15	.04981	1.34425	.00002
318.15	.10059	1.36131	.00002
318.15	.1503	1.37261	.00002
318.15	.2002	1.38175	.00002
318.15	.25165	1.38903	.00002
318.15	.30177	1.39535	.00002
318.15	.39768	1.40394	.00002
318.15	.49902	1.41035	.00002
318.15	.59106	1.41502	.00002
318.15	.70591	1.41954	.00002
318.15	.80539	1.42265	.00002
318.15	.84944	1.42387	.00002
318.15	.90126	1.42515	.00002
318.15	1	1.42767	.00002

System: ethanol + 1-ethyl-3-methylimidazolium trifluoromethanesulfonate; phases: Liquid
Fixed: Pressure, kPa = 101
Property: Refractive index (Na D-line) (Liquid); method: Standard Abbe refractometry
Temperature, K	Mole fraction of 1-ethyl-3-methylimidazolium trifluoromethanesulfonate	Refractive index (Na D-line)	uncertainty
288.15	0	1.36358	.00002
288.15	.05087	1.37603	.00002
288.15	.10037	1.38531	.00002
288.15	.15044	1.39279	.00002
288.15	.20097	1.39891	.00002
288.15	.29906	1.40822	.00002
288.15	.39764	1.41506	.00002
288.15	.49762	1.42051	.00002
288.15	.59345	1.4247	.00002
288.15	.69813	1.42832	.00002
288.15	.79935	1.43116	.00002
288.15	.8407	1.4322	.00002
288.15	.89198	1.43344	.00002
288.15	.94437	1.43452	.00002
288.15	1	1.43599	.00002
298.15	0	1.3593	.00002
298.15	.05087	1.37224	.00002
298.15	.10037	1.38169	.00002
298.15	.15044	1.38937	.00002
298.15	.20097	1.39566	.00002
298.15	.29906	1.40549	.00002
298.15	.39764	1.41187	.00002
298.15	.49762	1.41741	.00002
298.15	.59345	1.42164	.00002
298.15	.69813	1.42536	.00002
298.15	.79935	1.42826	.00002
298.15	.8407	1.42937	.00002
298.15	.89198	1.43061	.00002
298.15	.94437	1.43172	.00002
298.15	1	1.43322	.00002
308.15	0	1.35503	.00002
308.15	.05087	1.36847	.00002
308.15	.10037	1.37828	.00002
308.15	.15044	1.38635	.00002
308.15	.20097	1.39241	.00002
308.15	.29906	1.40179	.00002
308.15	.39764	1.40885	.00002
308.15	.49762	1.41441	.00002
308.15	.59345	1.41857	.00002
308.15	.69813	1.42243	.00002
308.15	.79935	1.42543	.00002
308.15	.8407	1.42653	.00002
308.15	.89198	1.42781	.00002
308.15	.94437	1.42894	.00002
308.15	1	1.4304	.00002
318.15	0	1.35073	.00002
318.15	.05087	1.3647	.00002
318.15	.10037	1.37496	.00002
318.15	.15044	1.38336	.00002
318.15	.20097	1.38923	.00002
318.15	.29906	1.39872	.00002
318.15	.39764	1.40581	.00002
318.15	.49762	1.41137	.00002
318.15	.59345	1.41564	.00002
318.15	.69813	1.41956	.00002
318.15	.79935	1.42262	.00002
318.15	.8407	1.42372	.00002
318.15	.89198	1.42501	.00002
318.15	.94437	1.42619	.00002
318.15	1	1.42767	.00002
328.15	0	1.3463	.00002
328.15	.05087	1.36088	.00002
328.15	.10037	1.37123	.00002
328.15	.15044	1.3795	.00002
328.15	.20097	1.38584	.00002
328.15	.29906	1.39607	.00002
328.15	.39764	1.40267	.00002
328.15	.49762	1.40841	.00002
328.15	.59345	1.41275	.00002
328.15	.69813	1.41673	.00002
328.15	.79935	1.41981	.00002
328.15	.8407	1.42093	.00002
328.15	.89198	1.42222	.00002
328.15	.94437	1.42346	.00002
328.15	1	1.42494	.00002

System: 1-propanol + 1-ethyl-3-methylimidazolium trifluoromethanesulfonate; phases: Liquid
Fixed: Pressure, kPa = 101
Property: Refractive index (Na D-line) (Liquid); method: Standard Abbe refractometry
Temperature, K	Mole fraction of 1-ethyl-3-methylimidazolium trifluoromethanesulfonate	Refractive index (Na D-line)	uncertainty
288.15	0	1.38732	.00002
288.15	.05007	1.39381	.00002
288.15	.10135	1.39933	.00002
288.15	.15027	1.40371	.00002
288.15	.20005	1.40743	.00002
288.15	.24971	1.41088	.00002
288.15	.30078	1.41391	.00002
288.15	.39964	1.41854	.00002
288.15	.49649	1.42297	.00002
288.15	.60201	1.42671	.00002
288.15	.70429	1.42943	.00002
288.15	.7945	1.43174	.00002
288.15	.84213	1.4325	.00002
288.15	.89876	1.43378	.00002
288.15	1	1.43599	.00002
298.15	0	1.38318	.00002
298.15	.05007	1.38991	.00002
298.15	.10135	1.39557	.00002
298.15	.15027	1.4001	.00002
298.15	.20005	1.404	.00002
298.15	.24971	1.40747	.00002
298.15	.30078	1.41061	.00002
298.15	.39964	1.41537	.00002
298.15	.49649	1.41986	.00002
298.15	.60201	1.42372	.00002
298.15	.70429	1.42647	.00002
298.15	.7945	1.42886	.00002
298.15	.84213	1.42963	.00002
298.15	.89876	1.43096	.00002
298.15	1	1.43322	.00002
308.15	0	1.37897	.00002
308.15	.05007	1.38613	.00002
308.15	.10135	1.39221	.00002
308.15	.15027	1.3968	.00002
308.15	.20005	1.4009	.00002
308.15	.24971	1.40434	.00002
308.15	.30078	1.40747	.00002
308.15	.39964	1.41218	.00002
308.15	.49649	1.41681	.00002
308.15	.60201	1.42062	.00002
308.15	.70429	1.42347	.00002
308.15	.7945	1.42604	.00002
308.15	.84213	1.4268	.00002
308.15	.89876	1.42815	.00002
308.15	1	1.4304	.00002
318.15	0	1.37471	.00002
318.15	.05007	1.38243	.00002
318.15	.10135	1.38877	.00002
318.15	.15027	1.3938	.00002
318.15	.20005	1.39795	.00002
318.15	.24971	1.40127	.00002
318.15	.30078	1.40445	.00002
318.15	.39964	1.40923	.00002
318.15	.49649	1.41376	.00002
318.15	.60201	1.41752	.00002
318.15	.70429	1.42076	.00002
318.15	.7945	1.42323	.00002
318.15	.84213	1.42398	.00002
318.15	.89876	1.42533	.00002
318.15	1	1.42767	.00002
328.15	0	1.37036	.00002
328.15	.05007	1.37892	.00002
328.15	.10135	1.38613	.00002
328.15	.15027	1.39112	.00002
328.15	.20005	1.39522	.00002
328.15	.24971	1.39872	.00002
328.15	.30078	1.40173	.00002
328.15	.39964	1.40634	.00002
328.15	.49649	1.41082	.00002
328.15	.60201	1.41447	.00002
328.15	.70429	1.41793	.00002
328.15	.7945	1.4204	.00002
328.15	.84213	1.42115	.00002
328.15	.89876	1.42258	.00002
328.15	1	1.42494	.00002
338.15	0	1.36587	.00002
338.15	.05007	1.37545	.00002
338.15	.10135	1.38306	.00002
338.15	.15027	1.38856	.00002
338.15	.20005	1.39266	.00002
338.15	.24971	1.39631	.00002
338.15	.30078	1.39926	.00002
338.15	.39964	1.40392	.00002
338.15	.49649	1.4078	.00002
338.15	.60201	1.41163	.00002
338.15	.70429	1.41508	.00002
338.15	.7945	1.41758	.00002
338.15	.84213	1.41838	.00002
338.15	.89876	1.41984	.00002
338.15	1	1.42222	.00002

System: 2-propanol + 1-ethyl-3-methylimidazolium trifluoromethanesulfonate; phases: Liquid
Fixed: Pressure, kPa = 101
Property: Refractive index (Na D-line) (Liquid); method: Standard Abbe refractometry
Temperature, K	Mole fraction of 1-ethyl-3-methylimidazolium trifluoromethanesulfonate	Refractive index (Na D-line)	uncertainty
288.15	0	1.37924	.00002
288.15	.04997	1.38697	.00002
288.15	.09937	1.39302	.00002
288.15	.15041	1.39853	.00002
288.15	.19951	1.40326	.00002
288.15	.25077	1.40739	.00002
288.15	.29966	1.411	.00002
288.15	.39876	1.41689	.00002
288.15	.50136	1.42209	.00002
288.15	.60119	1.42562	.00002
288.15	.6972	1.42868	.00002
288.15	.79781	1.43159	.00002
288.15	.83423	1.43251	.00002
288.15	.89049	1.43379	.00002
288.15	1	1.43599	.00002
298.15	0	1.37492	.00002
298.15	.04997	1.38304	.00002
298.15	.09937	1.38935	.00002
298.15	.15041	1.39494	.00002
298.15	.19951	1.39957	.00002
298.15	.25077	1.40382	.00002
298.15	.29966	1.4074	.00002
298.15	.39876	1.41365	.00002
298.15	.50136	1.41872	.00002
298.15	.60119	1.42259	.00002
298.15	.6972	1.42574	.00002
298.15	.79781	1.42861	.00002
298.15	.83423	1.42965	.00002
298.15	.89049	1.43098	.00002
298.15	1	1.43322	.00002
308.15	0	1.37048	.00002
308.15	.04997	1.37919	.00002
308.15	.09937	1.38578	.00002
308.15	.15041	1.39186	.00002
308.15	.19951	1.39662	.00002
308.15	.25077	1.40089	.00002
308.15	.29966	1.40439	.00002
308.15	.39876	1.41071	.00002
308.15	.50136	1.41564	.00002
308.15	.60119	1.41956	.00002
308.15	.6972	1.42285	.00002
308.15	.79781	1.42579	.00002
308.15	.83423	1.42678	.00002
308.15	.89049	1.42818	.00002
308.15	1	1.4304	.00002
318.15	0	1.36586	.00002
318.15	.04997	1.3753	.00002
318.15	.09937	1.38236	.00002
318.15	.15041	1.38861	.00002
318.15	.19951	1.39356	.00002
318.15	.25077	1.39817	.00002
318.15	.29966	1.40147	.00002
318.15	.39876	1.40758	.00002
318.15	.50136	1.41261	.00002
318.15	.60119	1.41667	.00002
318.15	.6972	1.41998	.00002
318.15	.79781	1.42298	.00002
318.15	.83423	1.42395	.00002
318.15	.89049	1.42541	.00002
318.15	1	1.42767	.00002
328.15	0	1.36103	.00002
328.15	.04997	1.37148	.00002
328.15	.09937	1.37896	.00002
328.15	.15041	1.38506	.00002
328.15	.19951	1.39032	.00002
328.15	.25077	1.39474	.00002
328.15	.29966	1.3983	.00002
328.15	.39876	1.40457	.00002
328.15	.50136	1.40972	.00002
328.15	.60119	1.41379	.00002
328.15	.6972	1.41714	.00002
328.15	.79781	1.42017	.00002
328.15	.83423	1.42115	.00002
328.15	.89049	1.42264	.00002
328.15	1	1.42494	.00002
338.15	0	1.35599	.00002
338.15	.04997	1.36735	.00002
338.15	.09937	1.37487	.00002
338.15	.15041	1.38103	.00002
338.15	.19951	1.38662	.00002
338.15	.25077	1.3916	.00002
338.15	.29966	1.39544	.00002
338.15	.39876	1.40189	.00002
338.15	.50136	1.4068	.00002
338.15	.60119	1.41098	.00002
338.15	.6972	1.41431	.00002
338.15	.79781	1.41738	.00002
338.15	.83423	1.41837	.00002
338.15	.89049	1.41986	.00002
338.15	1	1.42222	.00002
