Measured thermophysical data. Solubility of Quercetin in Water + Methanol and Water + Ethanol from (292.8 to 333.8) K
Source: J. Chem. Eng. Data, 2010, 10.1021/je9010757
Compound 1: quercetin, C15H10O7, purity 99%
Compound 2: methanol, CH4O
Compound 3: ethanol, C2H6O
Compound 4: water, H2O

System: methanol + quercetin + water; phases: Liquid, Crystal
Fixed: Pressure, kPa = 101
Property: Mole fraction of quercetin (Liquid); method: UV-vis spectrophotometry
Temperature, K	Solvent: Mole fraction of methanol	Mole fraction of quercetin	uncertainty
292.8	0	.0000504	
298.6	0	.0000551	
303.2	0	.0000585	
308.6	0	.0000618	
314.1	0	.0000653	
318.8	0	.000067	
322.2	0	.0000691	
325.6	0	.0000713	
331.2	0	.0000738	
333.8	0	.0000753	
292.8	.1031	.0000734	
298.6	.1031	.0000921	
303.2	.1031	.0000965	
308.6	.1031	.0001004	
314.1	.1031	.0001242	
318.8	.1031	.0001367	
322.2	.1031	.0001434	
325.6	.1031	.0001541	
331.2	.1031	.0001823	
333.8	.1031	.0001916	
292.8	.2042	.0001065	
298.6	.2042	.0001476	
303.2	.2042	.0001546	
308.6	.2042	.000161	
314.1	.2042	.0002119	
318.8	.2042	.0002315	
322.2	.2042	.0002587	
325.6	.2042	.0002713	
331.2	.2042	.0003061	
333.8	.2042	.0003184	
292.8	.3054	.0001876	
298.6	.3054	.0002244	
303.2	.3054	.0002378	
308.6	.3054	.0002585	
314.1	.3054	.0003223	
318.8	.3054	.0003304	
322.2	.3054	.0003561	
325.6	.3054	.0003719	
331.2	.3054	.0004463	
333.8	.3054	.0004613	
292.8	.4039	.0002821	
298.6	.4039	.0003479	
303.2	.4039	.0003756	
308.6	.4039	.0004061	
314.1	.4039	.0004837	
318.8	.4039	.0004874	
322.2	.4039	.0004903	
325.6	.4039	.0005336	
331.2	.4039	.0006212	
333.8	.4039	.0006438	
292.8	.5024	.0003353	
298.6	.5024	.0003968	
303.2	.5024	.0004442	
308.6	.5024	.0004731	
314.1	.5024	.0005595	
318.8	.5024	.0005643	
322.2	.5024	.0005782	
325.6	.5024	.0006151	
331.2	.5024	.0007052	
333.8	.5024	.0007193	
292.8	.601	.0004324	
298.6	.601	.0004939	
303.2	.601	.000534	
308.6	.601	.0005783	
314.1	.601	.0006758	
318.8	.601	.0007365	
322.2	.601	.0007925	
325.6	.601	.0008048	
331.2	.601	.0008505	
333.8	.601	.0008715	
292.8	.7022	.0005218	
298.6	.7022	.0006028	
303.2	.7022	.0006483	
308.6	.7022	.0006871	
314.1	.7022	.0008077	
318.8	.7022	.000853	
322.2	.7022	.0009051	
325.6	.7022	.0009316	
331.2	.7022	.0010271	
333.8	.7022	.0010834	
292.8	.808	.0006225	
298.6	.808	.0007122	
303.2	.808	.0007627	
308.6	.808	.0008072	
314.1	.808	.0008992	
318.8	.808	.0010072	
322.2	.808	.0011145	
325.6	.808	.0011474	
331.2	.808	.0012085	
333.8	.808	.0012906	
292.8	.933	.0007576	
298.6	.933	.0008262	
303.2	.933	.0008815	
308.6	.933	.0009338	
314.1	.933	.0010271	
318.8	.933	.0011351	
322.2	.933	.0012793	
325.6	.933	.0013284	
331.2	.933	.001422	
333.8	.933	.001503	
292.8	1	.000845	
298.6	1	.000919	
303.2	1	.000957	
308.6	1	.0010362	
314.1	1	.001128	
318.8	1	.0012687	
322.2	1	.0013258	
325.6	1	.0014207	
331.2	1	.0015893	
333.8	1	.0016284	

System: ethanol + quercetin + water; phases: Liquid, Crystal
Fixed: Pressure, kPa = 101
Property: Mole fraction of quercetin (Liquid); method: UV-vis spectrophotometry
Temperature, K	Solvent: Mole fraction of ethanol	Mole fraction of quercetin	uncertainty
292.8	.1031	.0001447	
298.6	.1031	.0001638	
303.2	.1031	.0001728	
308.6	.1031	.0001883	
314.1	.1031	.0002032	
318.8	.1031	.0002173	
322.2	.1031	.0002372	
325.6	.1031	.0002458	
331.2	.1031	.0002639	
333.8	.1031	.0002827	
292.8	.2042	.0002361	
298.6	.2042	.0002571	
303.2	.2042	.0002648	
308.6	.2042	.0002732	
314.1	.2042	.0003195	
318.8	.2042	.0003416	
322.2	.2042	.0003862	
325.6	.2042	.0003916	
331.2	.2042	.0004123	
333.8	.2042	.0004416	
292.8	.3054	.0003221	
298.6	.3054	.0003504	
303.2	.3054	.0003612	
308.6	.3054	.0003706	
314.1	.3054	.0004111	
318.8	.3054	.0004727	
322.2	.3054	.0005217	
325.6	.3054	.0005541	
331.2	.3054	.0005873	
333.8	.3054	.0006341	
292.8	.4039	.0004802	
298.6	.4039	.0005092	
303.2	.4039	.0005208	
308.6	.4039	.0005316	
314.1	.4039	.0006067	
318.8	.4039	.0006573	
322.2	.4039	.0007043	
325.6	.4039	.0007336	
331.2	.4039	.0008086	
333.8	.4039	.0008363	
292.8	.5024	.0005741	
298.6	.5024	.0005982	
303.2	.5024	.0006196	
308.6	.5024	.0006338	
314.1	.5024	.0006995	
318.8	.5024	.0007648	
322.2	.5024	.0008237	
325.6	.5024	.0008573	
331.2	.5024	.0009418	
333.8	.5024	.0009638	
292.8	.601	.0006831	
298.6	.601	.0007073	
303.2	.601	.0007364	
308.6	.601	.0007692	
314.1	.601	.0008883	
318.8	.601	.0009355	
322.2	.601	.0009904	
325.6	.601	.0010423	
331.2	.601	.0011642	
333.8	.601	.0012033	
292.8	.7022	.0008049	
298.6	.7022	.0008836	
303.2	.7022	.0009116	
308.6	.7022	.0009434	
314.1	.7022	.0011321	
318.8	.7022	.0011662	
322.2	.7022	.0012049	
325.6	.7022	.0012883	
331.2	.7022	.001422	
333.8	.7022	.0014913	
292.8	.808	.0009952	
298.6	.808	.0011083	
303.2	.808	.0011638	
308.6	.808	.0012121	
314.1	.808	.0013824	
318.8	.808	.0014557	
322.2	.808	.0015273	
325.6	.808	.0016171	
331.2	.808	.0017546	
333.8	.808	.0018396	
292.8	.933	.0012071	
298.6	.933	.0013452	
303.2	.933	.0014314	
308.6	.933	.001504	
314.1	.933	.0017074	
318.8	.933	.0017982	
322.2	.933	.0018828	
325.6	.933	.0020264	
331.2	.933	.0022375	
333.8	.933	.0023363	
292.8	1	.00135	
298.6	1	.00153	
303.2	1	.00165	
308.6	1	.00178	
314.1	1	.00193	
318.8	1	.00207	
322.2	1	.00218	
325.6	1	.0023	
331.2	1	.0025	
333.8	1	.00255	

System: quercetin + water; phases: Liquid, Crystal
Property: Mole fraction of quercetin (Liquid); method: UV-vis spectrophotometry
Temperature, K	Pressure, kPa	Mole fraction of quercetin	uncertainty
292.8	101	.0000504	
298.6	101	.0000551	
303.2	101	.0000585	
308.6	101	.0000618	
314.1	101	.0000653	
318.8	101	.000067	
322.2	101	.0000691	
325.6	101	.0000713	
331.2	101	.0000738	
333.8	101	.0000753	

System: methanol + quercetin; phases: Liquid, Crystal
Property: Mole fraction of quercetin (Liquid); method: UV-vis spectrophotometry
Temperature, K	Pressure, kPa	Mole fraction of quercetin	uncertainty
292.8	101	.000845	
298.6	101	.000919	
303.2	101	.000957	
308.6	101	.0010362	
314.1	101	.001128	
318.8	101	.0012687	
322.2	101	.0013258	
325.6	101	.0014207	
331.2	101	.0015893	
333.8	101	.0016284	

System: ethanol + quercetin; phases: Liquid, Crystal
Property: Mole fraction of quercetin (Liquid); method: UV-vis spectrophotometry
Temperature, K	Pressure, kPa	Mole fraction of quercetin	uncertainty
292.8	101	.00135	
298.6	101	.00153	
303.2	101	.00165	
308.6	101	.00178	
314.1	101	.00193	
318.8	101	.00207	
322.2	101	.00218	
325.6	101	.0023	
331.2	101	.0025	
333.8	101	.00255	
