Measured thermophysical data. Densities and Speeds of Sound for Binary Liquid Mixtures of Thiolane-l,l-dioxide  with Butanone, Pentan-2-one, Pentan-3-one, and 4-Methyl-pentan-2-one at T =  (303.15 or 308.15 or 313.15) K
Source: J. Chem. Eng. Data, 2009, 10.1021/je900056u
Compound 1: sulfolane, C4H8O2S, purity 99%
Compound 2: butanone, C4H8O, purity 99%
Compound 3: 2-pentanone, C5H10O, purity 99%
Compound 4: 3-pentanone, C5H10O, purity 98%
Compound 5: 4-methyl-2-pentanone, C6H12O, purity 99%

System: sulfolane; phases: Liquid
Property: Mass density, kg/m3 (Liquid); method: Pycnometric method
Temperature, K	Pressure, kPa	Mass density, kg/m3	uncertainty
303.15	101	1261.8	
308.15	101	1257	
313.15	101	1251.6	

System: sulfolane; phases: Liquid
Property: Speed of sound, m/s (Liquid); method: Linear variable-path acoustic interferometer
Temperature, K	Pressure, kPa	Speed of sound, m/s	uncertainty
303.15	101	1588	4.764
308.15	101	1576	4.728
313.15	101	1558	4.674

System: butanone; phases: Liquid
Property: Mass density, kg/m3 (Liquid); method: Pycnometric method
Temperature, K	Pressure, kPa	Mass density, kg/m3	uncertainty
303.15	101	794.6	
308.15	101	790.4	
313.15	101	783.1	

System: butanone; phases: Liquid
Property: Speed of sound, m/s (Liquid); method: Linear variable-path acoustic interferometer
Temperature, K	Pressure, kPa	Speed of sound, m/s	uncertainty
303.15	101	1178	3.534
308.15	101	1158	3.474
313.15	101	1136	3.408

System: 2-pentanone; phases: Liquid
Property: Mass density, kg/m3 (Liquid); method: Pycnometric method
Temperature, K	Pressure, kPa	Mass density, kg/m3	uncertainty
303.15	101	796.6	
308.15	101	792.7	
313.15	101	785.5	

System: 2-pentanone; phases: Liquid
Property: Speed of sound, m/s (Liquid); method: Linear variable-path acoustic interferometer
Temperature, K	Pressure, kPa	Speed of sound, m/s	uncertainty
303.15	101	1192	3.576
308.15	101	1176	3.528
313.15	101	1151	3.453

System: 3-pentanone; phases: Liquid
Property: Mass density, kg/m3 (Liquid); method: Pycnometric method
Temperature, K	Pressure, kPa	Mass density, kg/m3	uncertainty
303.15	101	804.5	
308.15	101	799.6	
313.15	101	794.3	

System: 3-pentanone; phases: Liquid
Property: Speed of sound, m/s (Liquid); method: Linear variable-path acoustic interferometer
Temperature, K	Pressure, kPa	Speed of sound, m/s	uncertainty
303.15	101	1197	3.591
308.15	101	1179	3.537
313.15	101	1160	3.48

System: 4-methyl-2-pentanone; phases: Liquid
Property: Mass density, kg/m3 (Liquid); method: Pycnometric method
Temperature, K	Pressure, kPa	Mass density, kg/m3	uncertainty
303.15	101	791.7	
308.15	101	787.7	
313.15	101	782.6	

System: 4-methyl-2-pentanone; phases: Liquid
Property: Speed of sound, m/s (Liquid); method: Linear variable-path acoustic interferometer
Temperature, K	Pressure, kPa	Speed of sound, m/s	uncertainty
303.15	101	1175	3.525
308.15	101	1156	3.468
313.15	101	1138	3.414

System: butanone + sulfolane; phases: Liquid
Fixed: Pressure, kPa = 101
Property: Mass density, kg/m3 (Liquid); method: Pycnometric method
Temperature, K	Mole fraction of sulfolane	Mass density, kg/m3	uncertainty
303.15	0	794.6	
303.15	.0293	810.6	
303.15	.1391	869.7	
303.15	.2575	931.6	
303.15	.3803	993.5	
303.15	.4834	1043.1	
303.15	.5854	1089.7	
303.15	.7119	1145.2	
303.15	.8428	1200.5	
303.15	.9756	1252.7	
303.15	1	1261.8	
308.15	0	790.4	
308.15	.0293	806.2	
308.15	.1391	865.6	
308.15	.2575	927.5	
308.15	.3803	989.6	
308.15	.4834	1039.9	
308.15	.5854	1086.6	
308.15	.7119	1142	
308.15	.8428	1196.8	
308.15	.9756	1249	
308.15	1	1257	
313.15	0	783.1	
313.15	.0293	799.2	
313.15	.1391	858.7	
313.15	.2575	920.9	
313.15	.3803	983.5	
313.15	.4834	1034.4	
313.15	.5854	1081.8	
313.15	.7119	1137.2	
313.15	.8428	1191.8	
313.15	.9756	1243.7	
313.15	1	1251.6	

System: butanone + sulfolane; phases: Liquid
Fixed: Pressure, kPa = 101
Property: Speed of sound, m/s (Liquid); method: Linear variable-path acoustic interferometer
Temperature, K	Mole fraction of sulfolane	Speed of sound, m/s	uncertainty
303.15	0	1178	3.534
303.15	.0293	1191	3.573
303.15	.1391	1234	3.702
303.15	.2575	1288	3.864
303.15	.3803	1341	4.023
303.15	.4834	1386	4.158
303.15	.5854	1431	4.293
303.15	.7119	1481	4.443
303.15	.8428	1533	4.599
303.15	.9756	1581	4.743
303.15	1	1588	4.764
308.15	0	1158	3.474
308.15	.0293	1170	3.51
308.15	.1391	1215	3.645
308.15	.2575	1266	3.798
308.15	.3803	1319	3.957
308.15	.4834	1366	4.098
308.15	.5854	1413	4.239
308.15	.7119	1465	4.395
308.15	.8428	1517	4.551
308.15	.9756	1568	4.704
308.15	1	1576	4.728
313.15	0	1136	3.408
313.15	.0293	1149	3.447
313.15	.1391	1195	3.585
313.15	.2575	1247	3.741
313.15	.3803	1300	3.9
313.15	.4834	1346	4.038
313.15	.5854	1395	4.185
313.15	.7119	1450	4.35
313.15	.8428	1502	4.506
313.15	.9756	1552	4.656
313.15	1	1558	4.674

System: 3-pentanone + sulfolane; phases: Liquid
Fixed: Pressure, kPa = 101
Property: Mass density, kg/m3 (Liquid); method: Pycnometric method
Temperature, K	Mole fraction of sulfolane	Mass density, kg/m3	uncertainty
303.15	0	804.5	
303.15	.0252	815.9	
303.15	.1627	878.1	
303.15	.2922	937.4	
303.15	.4201	996.2	
303.15	.5234	1044.1	
303.15	.6292	1093.5	
303.15	.7487	1149.4	
303.15	.8644	1202.8	
303.15	.9804	1253.5	
303.15	1	1261.8	
308.15	0	799.6	
308.15	.0252	811.1	
308.15	.1627	873.1	
308.15	.2922	931.9	
308.15	.4201	991.1	
308.15	.5234	1039.1	
308.15	.6292	1088.4	
308.15	.7487	1144.2	
308.15	.8644	1198.1	
308.15	.9804	1250	
308.15	1	1257	
313.15	0	794.3	
313.15	.0252	805.8	
313.15	.1627	867.6	
313.15	.2922	926.6	
313.15	.4201	985.6	
313.15	.5234	1033.7	
313.15	.6292	1083.1	
313.15	.7487	1139.3	
313.15	.8644	1193.2	
313.15	.9804	1244.6	
313.15	1	1251.6	

System: 3-pentanone + sulfolane; phases: Liquid
Fixed: Pressure, kPa = 101
Property: Speed of sound, m/s (Liquid); method: Linear variable-path acoustic interferometer
Temperature, K	Mole fraction of sulfolane	Speed of sound, m/s	uncertainty
303.15	0	1197	3.591
303.15	.0252	1208	3.624
303.15	.1627	1257	3.771
303.15	.2922	1300	3.9
303.15	.4201	1345	4.035
303.15	.5234	1388	4.164
303.15	.6292	1435	4.305
303.15	.7487	1490	4.47
303.15	.8644	1536	4.608
303.15	.9804	1579	4.737
303.15	1	1588	4.764
308.15	0	1179	3.537
308.15	.0252	1191	3.573
308.15	.1627	1240	3.72
308.15	.2922	1283	3.849
308.15	.4201	1331	3.993
308.15	.5234	1376	4.128
308.15	.6292	1421	4.263
308.15	.7487	1473	4.419
308.15	.8644	1520	4.56
308.15	.9804	1566	4.698
308.15	1	1576	4.728
313.15	0	1160	3.48
313.15	.0252	1170	3.51
313.15	.1627	1218	3.654
313.15	.2922	1263	3.789
313.15	.4201	1315	3.945
313.15	.5234	1361	4.083
313.15	.6292	1406	4.218
313.15	.7487	1460	4.38
313.15	.8644	1506	4.518
313.15	.9804	1550	4.65
313.15	1	1558	4.674

System: 2-pentanone + sulfolane; phases: Liquid
Fixed: Pressure, kPa = 101
Property: Mass density, kg/m3 (Liquid); method: Pycnometric method
Temperature, K	Mole fraction of sulfolane	Mass density, kg/m3	uncertainty
303.15	0	796.6	
303.15	.0261	808.2	
303.15	.162	869.2	
303.15	.2945	929.2	
303.15	.445	998.5	
303.15	.5296	1038.2	
303.15	.6319	1086.6	
303.15	.7498	1143.2	
303.15	.8677	1200.2	
303.15	.9799	1253.2	
303.15	1	1261.8	
308.15	0	792.7	
308.15	.0261	804.2	
308.15	.162	864.6	
308.15	.2945	924.8	
308.15	.445	994.6	
308.15	.5296	1034.5	
308.15	.6319	1082.8	
308.15	.7498	1139.2	
308.15	.8677	1195.8	
308.15	.9799	1248.5	
308.15	1	1257	
313.15	0	785.5	
313.15	.0261	797.8	
313.15	.162	858.8	
313.15	.2945	919.1	
313.15	.445	989.1	
313.15	.5296	1029.1	
313.15	.6319	1078	
313.15	.7498	1134.7	
313.15	.8677	1191.6	
313.15	.9799	1243.6	
313.15	1	1251.6	

System: 2-pentanone + sulfolane; phases: Liquid
Fixed: Pressure, kPa = 101
Property: Speed of sound, m/s (Liquid); method: Linear variable-path acoustic interferometer
Temperature, K	Mole fraction of sulfolane	Speed of sound, m/s	uncertainty
303.15	0	1192	3.576
303.15	.0261	1203	3.609
303.15	.162	1246	3.738
303.15	.2945	1290	3.87
303.15	.445	1352	4.056
303.15	.5296	1384	4.152
303.15	.6319	1429	4.287
303.15	.7498	1484	4.452
303.15	.8677	1536	4.608
303.15	.9799	1580	4.74
303.15	1	1588	4.764
308.15	0	1176	3.528
308.15	.0261	1183	3.549
308.15	.162	1225	3.675
308.15	.2945	1271	3.813
308.15	.445	1340	4.02
308.15	.5296	1373	4.119
308.15	.6319	1418	4.254
308.15	.7498	1469	4.407
308.15	.8677	1520	4.56
308.15	.9799	1562	4.686
308.15	1	1576	4.728
313.15	0	1151	3.453
313.15	.0261	1161	3.483
313.15	.162	1203	3.609
313.15	.2945	1251	3.753
313.15	.445	1318	3.954
313.15	.5296	1353	4.059
313.15	.6319	1401	4.203
313.15	.7498	1450	4.35
313.15	.8677	1503	4.509
313.15	.9799	1549	4.647
313.15	1	1558	4.674

System: 4-methyl-2-pentanone + sulfolane; phases: Liquid
Fixed: Pressure, kPa = 101
Property: Mass density, kg/m3 (Liquid); method: Pycnometric method
Temperature, K	Mole fraction of sulfolane	Mass density, kg/m3	uncertainty
303.15	0	791.7	
303.15	.0287	803.4	
303.15	.1852	866.6	
303.15	.3272	927.3	
303.15	.4634	989.2	
303.15	.5671	1038.9	
303.15	.6671	1088.8	
303.15	.7777	1145.1	
303.15	.8809	1198.5	
303.15	.9829	1252.3	
303.15	1	1261.8	
308.15	0	787.7	
308.15	.0287	799.3	
308.15	.1852	862.5	
308.15	.3272	923.3	
308.15	.4634	985.1	
308.15	.5671	1034.6	
308.15	.6671	1083.9	
308.15	.7777	1140.7	
308.15	.8809	1195.1	
308.15	.9829	1249.2	
308.15	1	1257	
313.15	0	782.6	
313.15	.0287	793.9	
313.15	.1852	856.8	
313.15	.3272	917.6	
313.15	.4634	979.7	
313.15	.5671	1029.3	
313.15	.6671	1078.5	
313.15	.7777	1134.1	
313.15	.8809	1187.8	
313.15	.9829	1242.3	
313.15	1	1251.6	

System: 4-methyl-2-pentanone + sulfolane; phases: Liquid
Fixed: Pressure, kPa = 101
Property: Speed of sound, m/s (Liquid); method: Linear variable-path acoustic interferometer
Temperature, K	Mole fraction of sulfolane	Speed of sound, m/s	uncertainty
303.15	0	1175	3.525
303.15	.0287	1185	3.555
303.15	.1852	1233	3.699
303.15	.3272	1281	3.843
303.15	.4634	1335	4.005
303.15	.5671	1381	4.143
303.15	.6671	1426	4.278
303.15	.7777	1479	4.437
303.15	.8809	1530	4.59
303.15	.9829	1578	4.734
303.15	1	1588	4.764
308.15	0	1156	3.468
308.15	.0287	1166	3.498
308.15	.1852	1215	3.645
308.15	.3272	1263	3.789
308.15	.4634	1316	3.948
308.15	.5671	1361	4.083
308.15	.6671	1407	4.221
308.15	.7777	1463	4.389
308.15	.8809	1513	4.539
308.15	.9829	1564	4.692
308.15	1	1576	4.728
313.15	0	1138	3.414
313.15	.0287	1147	3.441
313.15	.1852	1198	3.594
313.15	.3272	1247	3.741
313.15	.4634	1300	3.9
313.15	.5671	1345	4.035
313.15	.6671	1391	4.173
313.15	.7777	1447	4.341
313.15	.8809	1496	4.488
313.15	.9829	1550	4.65
313.15	1	1558	4.674
