Measured thermophysical data. Activity Coefficients of Potassium Chloride in Ethylene Glycol-Water Mixtures Using Electromotive Force Measurements at (278.15, 288.15, 298.15, and 308.15) K
Source: J. Chem. Eng. Data, 2010, 10.1021/je900690d
Compound 1: potassium chloride, ClK
Compound 2: 1,2-ethanediol, C2H6O2
Compound 3: water, H2O

System: 1,2-ethanediol + potassium chloride + water; phases: Liquid
Fixed: Pressure, kPa = 101
Property: Activity coefficient of potassium chloride (Liquid); method: Electrochemical Cell
Temperature, K	Solvent: Mass fraction of 1,2-ethanediol	Molality, mol/kg of potassium chloride	Activity coefficient of potassium chloride	uncertainty
278.15	0	.0025	.9474	.0009474
278.15	0	.0054	.9254	.0009254
278.15	0	.0083	.91	.00091
278.15	0	.014	.8876	.0008876
278.15	0	.0224	.8637	.0008637
278.15	0	.034	.8398	.0008398
278.15	0	.051	.8137	.0008137
278.15	0	.0752	.7863	.0007863
278.15	0	.1147	.754	.000754
278.15	0	.1839	.7149	.0007149
278.15	0	.277	.6787	.0006787
278.15	0	.3883	.6474	.0006474
278.15	0	.5559	.6129	.0006129
278.15	0	.7102	.5888	.0005888
278.15	0	.8997	.5653	.0005653
278.15	0	1.0633	.5488	.0005488
278.15	0	1.2463	.5333	.0005333
278.15	0	1.4048	.522	.000522
278.15	0	1.5466	.5131	.0005131
278.15	.1	.0026	.9429	.0009429
278.15	.1	.0053	.9215	.0009215
278.15	.1	.0079	.9066	.0009066
278.15	.1	.0131	.8841	.0008841
278.15	.1	.018	.8679	.0008679
278.15	.1	.0264	.8462	.0008462
278.15	.1	.0396	.82	.00082
278.15	.1	.0608	.7896	.0007896
278.15	.1	.0947	.7548	.0007548
278.15	.1	.1482	.7167	.0007167
278.15	.1	.2503	.6688	.0006688
278.15	.1	.3861	.6269	.0006269
278.15	.1	.5386	.5935	.0005935
278.15	.1	.7073	.5657	.0005657
278.15	.1	.8892	.5421	.0005421
278.15	.1	1.0878	.5212	.0005212
278.15	.1	1.2607	.506	.000506
278.15	.1	1.3962	.4956	.0004956
278.15	.1	1.5302	.4863	.0004863
278.15	.2	.0015	.9536	.0009536
278.15	.2	.0031	.9349	.0009349
278.15	.2	.0046	.9218	.0009218
278.15	.2	.0082	.8996	.0008996
278.15	.2	.0116	.8834	.0008834
278.15	.2	.0172	.8631	.0008631
278.15	.2	.0254	.8403	.0008403
278.15	.2	.0411	.8083	.0008083
278.15	.2	.0637	.7757	.0007757
278.15	.2	.0987	.74	.00074
278.15	.2	.1403	.709	.000709
278.15	.2	.2032	.6743	.0006743
278.15	.2	.2801	.6426	.0006426
278.15	.2	.4034	.6047	.0006047
278.15	.2	.5208	.5769	.0005769
278.15	.2	.6424	.5535	.0005535
278.15	.2	.7592	.5346	.0005346
278.15	.2	.8877	.5167	.0005167
278.15	.2	1.0027	.5028	.0005028
278.15	.2	1.1046	.4919	.0004919
278.15	.2	1.1953	.483	.000483
278.15	.2	1.277	.4757	.0004757
278.15	.2	1.3652	.4684	.0004684
278.15	.2	1.4965	.4586	.0004586
278.15	.3	.0013	.9528	.0009528
278.15	.3	.0028	.9341	.0009341
278.15	.3	.0044	.9187	.0009187
278.15	.3	.0076	.897	.000897
278.15	.3	.0107	.8809	.0008809
278.15	.3	.0166	.857	.000857
278.15	.3	.0258	.8297	.0008297
278.15	.3	.0398	.7992	.0007992
278.15	.3	.0613	.7655	.0007655
278.15	.3	.0951	.7275	.0007275
278.15	.3	.1319	.697	.000697
278.15	.3	.196	.6575	.0006575
278.15	.3	.2717	.6228	.0006228
278.15	.3	.377	.5861	.0005861
278.15	.3	.4804	.5578	.0005578
278.15	.3	.5852	.5341	.0005341
278.15	.3	.6974	.5127	.0005127
278.15	.3	.8092	.4945	.0004945
278.15	.3	.9071	.4806	.0004806
278.15	.3	1.0113	.4674	.0004674
278.15	.3	1.1422	.4529	.0004529
278.15	.3	1.2876	.4391	.0004391
278.15	.3	1.4287	.4277	.0004277
278.15	.4	.0013	.9506	.0009506
278.15	.4	.0025	.933	.000933
278.15	.4	.005	.9081	.0009081
278.15	.4	.008	.8873	.0008873
278.15	.4	.0131	.8616	.0008616
278.15	.4	.0213	.8319	.0008319
278.15	.4	.033	.8011	.0008011
278.15	.4	.05	.7686	.0007686
278.15	.4	.0838	.7233	.0007233
278.15	.4	.1344	.6769	.0006769
278.15	.4	.1986	.6347	.0006347
278.15	.4	.29	.5902	.0005902
278.15	.4	.3777	.5571	.0005571
278.15	.4	.4681	.5292	.0005292
278.15	.4	.5565	.5062	.0005062
278.15	.4	.6453	.4864	.0004864
278.15	.4	.7408	.468	.000468
278.15	.4	.8362	.4523	.0004523
278.15	.4	.9506	.4363	.0004363
278.15	.4	1.0589	.4236	.0004236
278.15	.4	1.1826	.4117	.0004117
278.15	.4	1.3187	.4014	.0004014
288.15	0	.0026	.946	.000946
288.15	0	.005	.9269	.0009269
288.15	0	.0077	.9118	.0009118
288.15	0	.0129	.8901	.0008901
288.15	0	.0183	.8733	.0008733
288.15	0	.026	.8543	.0008543
288.15	0	.0362	.8346	.0008346
288.15	0	.0512	.8123	.0008123
288.15	0	.0744	.7864	.0007864
288.15	0	.1053	.7607	.0007607
288.15	0	.1534	.7316	.0007316
288.15	0	.2433	.6945	.0006945
288.15	0	.3142	.6736	.0006736
288.15	0	.4008	.6536	.0006536
288.15	0	.506	.6346	.0006346
288.15	0	.6305	.6167	.0006167
288.15	0	.7893	.5987	.0005987
288.15	0	.9633	.5828	.0005828
288.15	0	1.1423	.5695	.0005695
288.15	0	1.3008	.5594	.0005594
288.15	0	1.44	.5515	.0005515
288.15	0	1.5672	.545	.000545
288.15	.1	.0024	.9447	.0009447
288.15	.1	.0048	.9244	.0009244
288.15	.1	.0071	.9104	.0009104
288.15	.1	.0118	.8889	.0008889
288.15	.1	.0167	.8721	.0008721
288.15	.1	.0269	.8459	.0008459
288.15	.1	.0418	.8185	.0008185
288.15	.1	.0652	.788	.000788
288.15	.1	.0988	.7571	.0007571
288.15	.1	.1452	.7267	.0007267
288.15	.1	.1943	.7028	.0007028
288.15	.1	.2763	.6729	.0006729
288.15	.1	.3805	.645	.000645
288.15	.1	.5448	.6131	.0006131
288.15	.1	.7021	.5904	.0005904
288.15	.1	.8676	.5714	.0005714
288.15	.1	1.0392	.5555	.0005555
288.15	.1	1.2063	.5426	.0005426
288.15	.1	1.3529	.533	.000533
288.15	.1	1.4886	.5252	.0005252
288.15	.2	.0016	.9512	.0009512
288.15	.2	.0034	.9313	.0009313
288.15	.2	.0052	.9171	.0009171
288.15	.2	.0088	.8965	.0008965
288.15	.2	.0121	.8819	.0008819
288.15	.2	.0175	.863	.000863
288.15	.2	.0251	.8425	.0008425
288.15	.2	.0385	.8157	.0008157
288.15	.2	.0575	.7882	.0007882
288.15	.2	.0826	.7615	.0007615
288.15	.2	.1136	.7367	.0007367
288.15	.2	.1472	.7155	.0007155
288.15	.2	.2186	.6817	.0006817
288.15	.2	.3028	.6523	.0006523
288.15	.2	.4356	.6179	.0006179
288.15	.2	.5513	.5947	.0005947
288.15	.2	.6751	.5743	.0005743
288.15	.2	.804	.5565	.0005565
288.15	.2	.9358	.541	.000541
288.15	.2	1.0506	.5294	.0005294
288.15	.2	1.1515	.5203	.0005203
288.15	.2	1.2427	.513	.000513
288.15	.2	1.3245	.507	.000507
288.15	.2	1.3978	.5021	.0005021
288.15	.2	1.4641	.498	.000498
288.15	.3	.0015	.95	.00095
288.15	.3	.003	.9322	.0009322
288.15	.3	.0044	.9188	.0009188
288.15	.3	.0072	.8998	.0008998
288.15	.3	.0102	.8843	.0008843
288.15	.3	.0144	.8671	.0008671
288.15	.3	.0225	.842	.000842
288.15	.3	.0315	.8208	.0008208
288.15	.3	.044	.7981	.0007981
288.15	.3	.0661	.7682	.0007682
288.15	.3	.0976	.7373	.0007373
288.15	.3	.1361	.7092	.0007092
288.15	.3	.2015	.674	.000674
288.15	.3	.2701	.6461	.0006461
288.15	.3	.3793	.612	.000612
288.15	.3	.4861	.5859	.0005859
288.15	.3	.6009	.5629	.0005629
288.15	.3	.728	.5419	.0005419
288.15	.3	.8365	.5268	.0005268
288.15	.3	.9341	.5151	.0005151
288.15	.3	.9943	.5086	.0005086
288.15	.3	1.1107	.4975	.0004975
288.15	.3	1.2573	.486	.000486
288.15	.3	1.3999	.4771	.0004771
288.15	.4	.0012	.9511	.0009511
288.15	.4	.0024	.9333	.0009333
288.15	.4	.0036	.9201	.0009201
288.15	.4	.006	.9007	.0009007
288.15	.4	.0085	.8848	.0008848
288.15	.4	.0121	.867	.000867
288.15	.4	.0168	.8487	.0008487
288.15	.4	.0243	.826	.000826
288.15	.4	.0373	.797	.000797
288.15	.4	.0561	.7669	.0007669
288.15	.4	.0822	.7364	.0007364
288.15	.4	.1267	.6995	.0006995
288.15	.4	.1673	.6743	.0006743
288.15	.4	.2284	.6445	.0006445
288.15	.4	.3099	.6138	.0006138
288.15	.4	.3988	.587	.000587
288.15	.4	.4843	.5655	.0005655
288.15	.4	.587	.5437	.0005437
288.15	.4	.6726	.5281	.0005281
288.15	.4	.7818	.5108	.0005108
288.15	.4	.8668	.4991	.0004991
288.15	.4	.9504	.4889	.0004889
288.15	.4	1.0391	.4793	.0004793
288.15	.4	1.159	.4682	.0004682
288.15	.4	1.2957	.4578	.0004578
298.15	0	.0025	.9465	.0009465
298.15	0	.0049	.9271	.0009271
298.15	0	.0077	.9114	.0009114
298.15	0	.0132	.8888	.0008888
298.15	0	.019	.8713	.0008713
298.15	0	.0272	.8519	.0008519
298.15	0	.0384	.8318	.0008318
298.15	0	.0529	.8116	.0008116
298.15	0	.0731	.7899	.0007899
298.15	0	.1027	.766	.000766
298.15	0	.1458	.7404	.0007404
298.15	0	.2002	.7169	.0007169
298.15	0	.2643	.6961	.0006961
298.15	0	.3687	.6714	.0006714
298.15	0	.5383	.6442	.0006442
298.15	0	.7187	.6245	.0006245
298.15	0	.8905	.6109	.0006109
298.15	0	1.0897	.599	.000599
298.15	0	1.2399	.5921	.0005921
298.15	0	1.3977	.5862	.0005862
298.15	.1	.0021	.9477	.0009477
298.15	.1	.0043	.927	.000927
298.15	.1	.0067	.9121	.0009121
298.15	.1	.0115	.8896	.0008896
298.15	.1	.016	.8738	.0008738
298.15	.1	.0228	.855	.000855
298.15	.1	.0347	.8306	.0008306
298.15	.1	.0514	.8057	.0008057
298.15	.1	.0758	.7791	.0007791
298.15	.1	.1158	.7484	.0007484
298.15	.1	.1668	.7207	.0007207
298.15	.1	.2324	.6948	.0006948
298.15	.1	.3297	.667	.000667
298.15	.1	.4605	.6401	.0006401
298.15	.1	.624	.6158	.0006158
298.15	.1	.7839	.5981	.0005981
298.15	.1	.9516	.5839	.0005839
298.15	.1	1.1185	.5731	.0005731
298.15	.1	1.2654	.5658	.0005658
298.15	.1	1.4026	.5605	.0005605
298.15	.2	.0014	.9534	.0009534
298.15	.2	.003	.9334	.0009334
298.15	.2	.0047	.9191	.0009191
298.15	.2	.0086	.8954	.0008954
298.15	.2	.0125	.8783	.0008783
298.15	.2	.0176	.8604	.0008604
298.15	.2	.0272	.8352	.0008352
298.15	.2	.0385	.8132	.0008132
298.15	.2	.0532	.7913	.0007913
298.15	.2	.0758	.766	.000766
298.15	.2	.1061	.7407	.0007407
298.15	.2	.1445	.7169	.0007169
298.15	.2	.2205	.6835	.0006835
298.15	.2	.2903	.6614	.0006614
298.15	.2	.4115	.6333	.0006333
298.15	.2	.5235	.6138	.0006138
298.15	.2	.6441	.5971	.0005971
298.15	.2	.7832	.5813	.0005813
298.15	.2	.8991	.5702	.0005702
298.15	.2	1.0136	.5607	.0005607
298.15	.2	1.1138	.5532	.0005532
298.15	.2	1.2049	.547	.000547
298.15	.2	1.2871	.5419	.0005419
298.15	.2	1.3614	.5375	.0005375
298.15	.3	.0014	.9505	.0009505
298.15	.3	.0029	.932	.000932
298.15	.3	.0043	.919	.000919
298.15	.3	.0072	.8987	.0008987
298.15	.3	.01	.8838	.0008838
298.15	.3	.0142	.8662	.0008662
298.15	.3	.0198	.8479	.0008479
298.15	.3	.0291	.8246	.0008246
298.15	.3	.0399	.8039	.0008039
298.15	.3	.0557	.7807	.0007807
298.15	.3	.0763	.7574	.0007574
298.15	.3	.0976	.7385	.0007385
298.15	.3	.1338	.7135	.0007135
298.15	.3	.1918	.6838	.0006838
298.15	.3	.2455	.6627	.0006627
298.15	.3	.331	.6366	.0006366
298.15	.3	.4253	.614	.000614
298.15	.3	.5227	.5951	.0005951
298.15	.3	.6221	.5789	.0005789
298.15	.3	.7314	.5638	.0005638
298.15	.3	.8366	.5513	.0005513
298.15	.3	.9331	.5413	.0005413
298.15	.3	1.0216	.5332	.0005332
298.15	.3	1.0963	.527	.000527
298.15	.3	1.2133	.5184	.0005184
298.15	.3	1.2945	.5132	.0005132
298.15	.4	.0012	.9498	.0009498
298.15	.4	.0024	.9319	.0009319
298.15	.4	.0036	.9187	.0009187
298.15	.4	.0064	.8957	.0008957
298.15	.4	.009	.8802	.0008802
298.15	.4	.0123	.8642	.0008642
298.15	.4	.0161	.8492	.0008492
298.15	.4	.0218	.8308	.0008308
298.15	.4	.0323	.8052	.0008052
298.15	.4	.0482	.777	.000777
298.15	.4	.0717	.7472	.0007472
298.15	.4	.1098	.7133	.0007133
298.15	.4	.1567	.684	.000684
298.15	.4	.2163	.6565	.0006565
298.15	.4	.3082	.6252	.0006252
298.15	.4	.4005	.6013	.0006013
298.15	.4	.4933	.5819	.0005819
298.15	.4	.5803	.5664	.0005664
298.15	.4	.6687	.5527	.0005527
298.15	.4	.7464	.5421	.0005421
298.15	.4	.8397	.5308	.0005308
298.15	.4	.9154	.5225	.0005225
298.15	.4	1.0273	.5116	.0005116
298.15	.4	1.0777	.5072	.0005072
298.15	.4	1.2133	.4965	.0004965
298.15	.4	1.2796	.4919	.0004919
308.15	0	.0025	.9451	.0009451
308.15	0	.005	.9256	.0009256
308.15	0	.0073	.9123	.0009123
308.15	0	.0099	.9007	.0009007
308.15	0	.0151	.8818	.0008818
308.15	0	.0226	.8616	.0008616
308.15	0	.0332	.8402	.0008402
308.15	0	.0491	.8165	.0008165
308.15	0	.075	.7889	.0007889
308.15	0	.1006	.7687	.0007687
308.15	0	.1313	.7499	.0007499
308.15	0	.1962	.7209	.0007209
308.15	0	.2752	.6962	.0006962
308.15	0	.3636	.6759	.0006759
308.15	0	.4739	.657	.000657
308.15	0	.6044	.6402	.0006402
308.15	0	.7598	.6252	.0006252
308.15	0	.9162	.6138	.0006138
308.15	0	1.0872	.6044	.0006044
308.15	0	1.2509	.5978	.0005978
308.15	0	1.3969	.5934	.0005934
308.15	0	1.5264	.5906	.0005906
308.15	.1	.0019	.9484	.0009484
308.15	.1	.0038	.9298	.0009298
308.15	.1	.0074	.9064	.0009064
308.15	.1	.0114	.8884	.0008884
308.15	.1	.0154	.8738	.0008738
308.15	.1	.0214	.8569	.0008569
308.15	.1	.0297	.8382	.0008382
308.15	.1	.0426	.8163	.0008163
308.15	.1	.0598	.7941	.0007941
308.15	.1	.0862	.7689	.0007689
308.15	.1	.124	.7427	.0007427
308.15	.1	.1807	.7146	.0007146
308.15	.1	.2705	.6837	.0006837
308.15	.1	.4077	.6518	.0006518
308.15	.1	.5463	.6291	.0006291
308.15	.1	.704	.6101	.0006101
308.15	.1	.8765	.5946	.0005946
308.15	.1	1.0428	.5836	.0005836
308.15	.1	1.1848	.5766	.0005766
308.15	.1	1.3146	.5718	.0005718
308.15	.1	1.4262	.5689	.0005689
308.15	.1	1.5265	.5671	.0005671
308.15	.2	.0015	.9508	.0009508
308.15	.2	.0034	.9296	.0009296
308.15	.2	.0051	.916	.000916
308.15	.2	.0087	.8946	.0008946
308.15	.2	.0122	.8789	.0008789
308.15	.2	.0174	.8612	.0008612
308.15	.2	.0228	.8463	.0008463
308.15	.2	.0312	.8278	.0008278
308.15	.2	.0458	.8035	.0008035
308.15	.2	.0657	.7792	.0007792
308.15	.2	.0965	.7519	.0007519
308.15	.2	.1349	.7271	.0007271
308.15	.2	.2057	.6946	.0006946
308.15	.2	.2907	.667	.000667
308.15	.2	.4112	.6385	.0006385
308.15	.2	.5164	.6195	.0006195
308.15	.2	.6392	.6017	.0006017
308.15	.2	.7636	.5873	.0005873
308.15	.2	.8807	.5762	.0005762
308.15	.2	.9938	.5675	.0005675
308.15	.2	1.0966	.561	.000561
308.15	.2	1.1891	.5563	.0005563
308.15	.2	1.2718	.5528	.0005528
308.15	.2	1.3455	.5503	.0005503
308.15	.2	1.4362	.548	.000548
308.15	.3	.0016	.9466	.0009466
308.15	.3	.0031	.929	.000929
308.15	.3	.0042	.9182	.0009182
308.15	.3	.0074	.8964	.0008964
308.15	.3	.0122	.8732	.0008732
308.15	.3	.0168	.856	.000856
308.15	.3	.0251	.8329	.0008329
308.15	.3	.0349	.8121	.0008121
308.15	.3	.0497	.7882	.0007882
308.15	.3	.0704	.7633	.0007633
308.15	.3	.0997	.7372	.0007372
308.15	.3	.146	.7073	.0007073
308.15	.3	.2171	.675	.000675
308.15	.3	.3327	.6389	.0006389
308.15	.3	.443	.614	.000614
308.15	.3	.5532	.5945	.0005945
308.15	.3	.6621	.5788	.0005788
308.15	.3	.7803	.565	.000565
308.15	.3	.8836	.555	.000555
308.15	.3	.9891	.5465	.0005465
308.15	.3	1.0854	.5402	.0005402
308.15	.3	1.2294	.5328	.0005328
308.15	.3	1.373	.5279	.0005279
308.15	.4	.0012	.9501	.0009501
308.15	.4	.0036	.9177	.0009177
308.15	.4	.0058	.8987	.0008987
308.15	.4	.0085	.8815	.0008815
308.15	.4	.0109	.8686	.0008686
308.15	.4	.0151	.851	.000851
308.15	.4	.0218	.8292	.0008292
308.15	.4	.0313	.8055	.0008055
308.15	.4	.0434	.7827	.0007827
308.15	.4	.0638	.7544	.0007544
308.15	.4	.095	.7236	.0007236
308.15	.4	.1513	.686	.000686
308.15	.4	.2491	.6442	.0006442
308.15	.4	.3468	.6156	.0006156
308.15	.4	.4451	.5938	.0005938
308.15	.4	.5547	.5745	.0005745
308.15	.4	.6457	.5614	.0005614
308.15	.4	.7252	.5516	.0005516
308.15	.4	.8051	.5431	.0005431
308.15	.4	.8958	.5349	.0005349
308.15	.4	1.0012	.5269	.0005269
308.15	.4	1.0913	.5214	.0005214
308.15	.4	1.2037	.516	.000516
308.15	.4	1.329	.5118	.0005118
