Measured thermophysical data. Thermophysical Properties of Aqueous Piperazine and Aqueous  (N-Methyldiethanolamine + Piperazine) Solutions at Temperatures (298.15 to  338.15) K
Source: J. Chem. Eng. Data, 2009, 10.1021/je9000069
Compound 1: piperazine, C4H10N2
Compound 2: N-methyldiethanolamine, C5H13NO2
Compound 3: water, H2O
Compound 4: piperazine hexahydrate, C4H22N2O6

System: N-methyldiethanolamine + piperazine; phases: Liquid, Crystal
Fixed: Pressure, kPa = 101
Property: Mole fraction of piperazine (Liquid); method: Titration method
Temperature, K	Mole fraction of piperazine	uncertainty
313	.121	.001
318	.124	.001
323	.127	.001
328	.13	.001
333	.132	.001
338	.134	.001
343	.136	.001

System: piperazine + water; phases: Liquid
Fixed: Pressure, kPa = 101
Property: Mass density, kg/m3 (Liquid); method: Vibrating tube method
Temperature, K	Mass fraction of piperazine	Mass density, kg/m3	uncertainty
298.15	.0174	998.287	.002
303.15	.0174	996.868	.002
308.15	.0174	995.233	.002
313.15	.0174	993.399	.002
318.15	.0174	991.382	.002
323.15	.0174	989.188	.002
328.15	.0174	986.804	.002
333.15	.0174	984.32	.002
338.15	.0174	981.667	.002
298.15	.0516	999.36	.002
303.15	.0516	997.913	.002
308.15	.0516	996.252	.002
313.15	.0516	994.396	.002
318.15	.0516	992.359	.002
323.15	.0516	990.147	.002
328.15	.0516	987.769	.002
333.15	.0516	985.241	.002
338.15	.0516	982.506	.002
298.15	.1035	1001.285	.002
303.15	.1035	999.758	.002
308.15	.1035	998.022	.002
313.15	.1035	996.095	.002
318.15	.1035	993.991	.002
323.15	.1035	991.722	.002
328.15	.1035	989.288	.002
333.15	.1035	986.131	.002
338.15	.1035	983.952	.002

System: piperazine + water; phases: Liquid
Fixed: Pressure, kPa = 101
Property: Viscosity, Pa*s (Liquid); method: Capillary tube (Ostwald; Ubbelohde) method
Temperature, K	Mass fraction of piperazine	Viscosity, Pa*s	uncertainty
303.15	.0174	.00086	.00000258
313.15	.0174	.00069	.00000207
318.15	.0174	.00061	.00000183
323.15	.0174	.00057	.00000171
333.15	.0174	.00047	.00000141
303.15	.0516	.00097	.00000291
313.15	.0516	.00076	.00000228
318.15	.0516	.00069	.00000207
323.15	.0516	.00062	.00000186
333.15	.0516	.00051	.00000153
303.15	.1035	.00128	.00000384
313.15	.1035	.00102	.00000306
318.15	.1035	.00092	.00000276
323.15	.1035	.00081	.00000243
333.15	.1035	.00059	.00000177

System: piperazine + water; phases: Liquid
Fixed: Pressure, kPa = 101
Property: Refractive index (Na D-line) (Liquid); method: Standard Abbe refractometry
Temperature, K	Mass fraction of piperazine	Refractive index (Na D-line)	uncertainty
303.15	.0174	1.33449	.00004
313.15	.0174	1.33366	.00004
318.15	.0174	1.33324	.00004
323.15	.0174	1.33287	.00004
333.15	.0174	1.33241	.00004
303.15	.0516	1.34019	.00004
313.15	.0516	1.33914	.00004
318.15	.0516	1.33831	.00004
323.15	.0516	1.33793	.00004
333.15	.0516	1.33638	.00004
303.15	.1035	1.34847	.00004
313.15	.1035	1.34797	.00004
318.15	.1035	1.34752	.00004
323.15	.1035	1.34699	.00004
333.15	.1035	1.34632	.00004

System: piperazine + water; phases: Liquid, Air at 1 atmosphere
Property: Surface tension liquid-gas, N/m (Liquid); method: Ring tensiometer
Temperature, K	Mass fraction of piperazine	Surface tension liquid-gas, N/m	uncertainty
303.1	.0174	.07148	.00002
313.2	.0174	.06934	.00002
318.2	.0174	.06876	.00002
323.1	.0174	.06784	.00002
333.3	.0174	.06621	.00002
303.1	.0516	.07024	.00002
313.2	.0516	.06851	.00002
318.2	.0516	.06735	.00002
323.1	.0516	.0667	.00002
333.3	.0516	.06526	.00002
303.1	.1035	.0691	.00002
313.2	.1035	.06792	.00002
318.2	.1035	.06675	.00002
323.1	.1035	.06537	.00002
333.3	.1035	.06414	.00002

System: N-methyldiethanolamine + piperazine + water; phases: Liquid
Fixed: Pressure, kPa = 101
Property: Mass density, kg/m3 (Liquid); method: Vibrating tube method
Temperature, K	Mass fraction of N-methyldiethanolamine	Mass fraction of piperazine	Mass density, kg/m3	uncertainty
298.15	.3228	.0174	1024.783	.002
303.15	.3228	.0174	1022.845	.002
308.15	.3228	.0174	1020.478	.002
313.15	.3228	.0174	1018.342	.002
318.15	.3228	.0174	1015.946	.002
323.15	.3228	.0174	1013.41	.002
328.15	.3228	.0174	1010.647	.002
333.15	.3228	.0174	1007.861	.002
338.15	.3228	.0174	1004.814	.002
298.15	.3228	.0516	1025.327	.002
303.15	.3228	.0516	1023.638	.002
308.15	.3228	.0516	1021.327	.002
313.15	.3228	.0516	1018.923	.002
318.15	.3228	.0516	1016.452	.002
323.15	.3228	.0516	1013.896	.002
328.15	.3228	.0516	1011.128	.002
333.15	.3228	.0516	1008.326	.002
338.15	.3228	.0516	1005.21	.002
298.15	.3228	.1035	1026.382	.002
303.15	.3228	.1035	1024.216	.002
308.15	.3228	.1035	1022.135	.002
313.15	.3228	.1035	1019.582	.002
318.15	.3228	.1035	1017.222	.002
323.15	.3228	.1035	1014.68	.002
328.15	.3228	.1035	1011.882	.002
333.15	.3228	.1035	1008.763	.002
338.15	.3228	.1035	1005.946	.002
298.15	.488	.0174	1036.829	.002
303.15	.488	.0174	1034.515	.002
308.15	.488	.0174	1032.086	.002
313.15	.488	.0174	1029.57	.002
318.15	.488	.0174	1026.868	.002
323.15	.488	.0174	1024.008	.002
328.15	.488	.0174	1021.093	.002
333.15	.488	.0174	1018.037	.002
338.15	.488	.0174	1014.921	.002
298.15	.488	.0516	1037.365	.002
303.15	.488	.0516	1035.038	.002
308.15	.488	.0516	1032.595	.002
313.15	.488	.0516	1030.069	.002
318.15	.488	.0516	1027.357	.002
323.15	.488	.0516	1024.487	.002
328.15	.488	.0516	1021.576	.002
333.15	.488	.0516	1018.498	.002
338.15	.488	.0516	1015.341	.002
298.15	.488	.1035	1038.328	.002
303.15	.488	.1035	1035.96	.002
308.15	.488	.1035	1033.48	.002
313.15	.488	.1035	1030.918	.002
318.15	.488	.1035	1028.172	.002
323.15	.488	.1035	1025.274	.002
328.15	.488	.1035	1022.335	.002
333.15	.488	.1035	1018.942	.002
338.15	.488	.1035	1016.063	.002

System: N-methyldiethanolamine + piperazine + water; phases: Liquid
Fixed: Pressure, kPa = 101
Property: Viscosity, Pa*s (Liquid); method: Capillary tube (Ostwald; Ubbelohde) method
Temperature, K	Mass fraction of N-methyldiethanolamine	Mass fraction of piperazine	Viscosity, Pa*s	uncertainty
303.15	.3228	.0174	.00362	.00001086
313.15	.3228	.0174	.00248	.00000744
318.15	.3228	.0174	.0022	.0000066
323.15	.3228	.0174	.00196	.00000588
333.15	.3228	.0174	.00132	.00000396
303.15	.3228	.0516	.00411	.00001233
313.15	.3228	.0516	.00297	.00000891
318.15	.3228	.0516	.00267	.00000801
323.15	.3228	.0516	.00238	.00000714
333.15	.3228	.0516	.00172	.00000516
303.15	.3228	.1035	.00562	.00001686
313.15	.3228	.1035	.00404	.00001212
318.15	.3228	.1035	.00357	.00001071
323.15	.3228	.1035	.00294	.00000882
333.15	.3228	.1035	.00221	.00000663
303.15	.488	.0174	.00693	.00002079
313.15	.488	.0174	.00502	.00001506
318.15	.488	.0174	.00438	.00001314
323.15	.488	.0174	.00362	.00001086
333.15	.488	.0174	.00273	.00000819
303.15	.488	.0516	.00863	.00002589
313.15	.488	.0516	.00623	.00001869
318.15	.488	.0516	.00555	.00001665
323.15	.488	.0516	.00456	.00001368
333.15	.488	.0516	.00342	.00001026
303.15	.488	.1035	.01174	.00003522
313.15	.488	.1035	.00841	.00002523
318.15	.488	.1035	.0074	.0000222
323.15	.488	.1035	.00628	.00001884
333.15	.488	.1035	.00462	.00001386

System: N-methyldiethanolamine + piperazine + water; phases: Liquid
Fixed: Pressure, kPa = 101
Property: Refractive index (Na D-line) (Liquid); method: Standard Abbe refractometry
Temperature, K	Mass fraction of N-methyldiethanolamine	Mass fraction of piperazine	Refractive index (Na D-line)	uncertainty
303.15	.3228	.0174	1.36487	.00004
313.15	.3228	.0174	1.35989	.00004
318.15	.3228	.0174	1.35718	.00004
323.15	.3228	.0174	1.35309	.00004
333.15	.3228	.0174	1.34624	.00004
303.15	.3228	.0516	1.37197	.00004
313.15	.3228	.0516	1.36458	.00004
318.15	.3228	.0516	1.36031	.00004
323.15	.3228	.0516	1.35702	.00004
333.15	.3228	.0516	1.35166	.00004
303.15	.3228	.1035	1.37818	.00004
313.15	.3228	.1035	1.37242	.00004
318.15	.3228	.1035	1.36734	.00004
323.15	.3228	.1035	1.36166	.00004
333.15	.3228	.1035	1.35506	.00004
303.15	.488	.0174	1.37118	.00004
313.15	.488	.0174	1.36578	.00004
318.15	.488	.0174	1.36227	.00004
323.15	.488	.0174	1.35984	.00004
333.15	.488	.0174	1.35502	.00004
303.15	.488	.0516	1.37752	.00004
313.15	.488	.0516	1.37285	.00004
318.15	.488	.0516	1.36942	.00004
323.15	.488	.0516	1.36664	.00004
333.15	.488	.0516	1.36139	.00004
303.15	.488	.1035	1.38286	.00004
313.15	.488	.1035	1.37764	.00004
318.15	.488	.1035	1.37418	.00004
323.15	.488	.1035	1.37124	.00004
333.15	.488	.1035	1.36743	.00004

System: N-methyldiethanolamine + piperazine + water; phases: Liquid, Air at 1 atmosphere
Property: Surface tension liquid-gas, N/m (Liquid); method: Ring tensiometer
Temperature, K	Mass fraction of N-methyldiethanolamine	Mass fraction of piperazine	Surface tension liquid-gas, N/m	uncertainty
303.1	.3228	.0174	.06032	.00002
313.2	.3228	.0174	.05886	.00002
318.2	.3228	.0174	.05814	.00002
323.1	.3228	.0174	.05763	.00002
333.3	.3228	.0174	.05644	.00002
303.1	.3228	.0516	.0597	.00002
313.2	.3228	.0516	.05832	.00002
318.2	.3228	.0516	.0576	.00002
323.1	.3228	.0516	.05706	.00002
333.3	.3228	.0516	.05585	.00002
303.1	.3228	.1035	.05886	.00002
313.2	.3228	.1035	.0579	.00002
318.2	.3228	.1035	.05681	.00002
323.1	.3228	.1035	.05623	.00002
333.3	.3228	.1035	.05532	.00002
303.1	.488	.0174	.05752	.00002
313.2	.488	.0174	.05613	.00002
318.2	.488	.0174	.05536	.00002
323.1	.488	.0174	.05462	.00002
333.3	.488	.0174	.05372	.00002
303.1	.488	.0516	.05672	.00002
313.2	.488	.0516	.0555	.00002
318.2	.488	.0516	.05482	.00002
323.1	.488	.0516	.05414	.00002
333.3	.488	.0516	.05305	.00002
303.1	.488	.1035	.05623	.00002
313.2	.488	.1035	.05522	.00002
318.2	.488	.1035	.05438	.00002
323.1	.488	.1035	.05367	.00002
333.3	.488	.1035	.05249	.00002

System: piperazine hexahydrate + water; phases: Liquid, Crystal
Fixed: Pressure, kPa = 101
Property: Mole fraction of piperazine hexahydrate (Liquid); method: Titration method
Temperature, K	Mole fraction of piperazine hexahydrate	uncertainty
278	.015	.001
283	.022	.001
288	.025	.001
293	.03	.001
298	.034	.001
