Measured thermophysical data. Solubility and Metastable Zone Width of the Methionine Enantiomers and Their  Mixtures in Water
Source: J. Chem. Eng. Data, 2009, 10.1021/je9001834
Compound 1: L-methionine, C5H11NO2S
Compound 2: DL-methionine, C5H11NO2S
Compound 3: water, H2O

System: L-methionine + water; phases: Liquid, Crystal
Fixed: Pressure, kPa = 101
Property: Mass fraction of L-methionine (Liquid); method: gravimetric
Temperature, K	Mass fraction of L-methionine	uncertainty
274.15	.032	
283.15	.042	
293.15	.05	
303.15	.059	
313.15	.067	
323.15	.075	
333.15	.087	

System: DL-methionine + water; phases: Liquid, Crystal
Fixed: Pressure, kPa = 101
Property: Mass fraction of DL-methionine (Liquid); method: gravimetric
Temperature, K	Mass fraction of DL-methionine	uncertainty
274.15	.016	
283.15	.022	
293.15	.028	
298.15	.03	
303.15	.035	
313.15	.044	
323.15	.055	
333.15	.069	
