Measured thermophysical data. Density and Viscosity of Binary Mixtures of {1-Butyl-3-methylimidazolium Thiocyanate + 1-Heptanol, 1-Octanol, 1-Nonanol, or 1-Decanol}
Source: J. Chem. Eng. Data, 2010, 10.1021/je901043q
Compound 1: 1-butyl-3-methylimidazolium thiocyanate, C9H15N3S, purity 98%
Compound 2: 1-heptanol, C7H16O, purity 99%
Compound 3: 1-octanol, C8H18O, purity 99%
Compound 4: 1-nonanol, C9H20O, purity 99.8%
Compound 5: 1-decanol, C10H22O, purity 99%

System: 1-butyl-3-methylimidazolium thiocyanate; phases: Liquid
Property: Mass density, kg/m3 (Liquid); method: Vibrating tube method
Temperature, K	Pressure, kPa	Mass density, kg/m3	uncertainty
298.15	101	1069.79	.1
308.15	101	1063.89	.1
318.15	101	1058.02	.1
328.15	101	1052.19	.1
338.15	101	1046.43	.1
348.15	101	1040.7	.1

System: 1-butyl-3-methylimidazolium thiocyanate; phases: Liquid
Property: Viscosity, Pa*s (Liquid); method: Concentric cylinders viscometry
Temperature, K	Pressure, kPa	Viscosity, Pa*s	uncertainty
298.15	101	.05174	.000003
308.15	101	.03487	.000003
318.15	101	.02419	.000003
328.15	101	.0167	.000003
338.15	101	.01273	.000003
348.15	101	.00998	.000003

System: 1-heptanol; phases: Liquid
Property: Mass density, kg/m3 (Liquid); method: Vibrating tube method
Temperature, K	Pressure, kPa	Mass density, kg/m3	uncertainty
298.15	101	818.81	.1
308.15	101	811.73	.1
318.15	101	804.55	.1
328.15	101	797.22	.1
338.15	101	789.75	.1
348.15	101	782.08	.1

System: 1-heptanol; phases: Liquid
Property: Viscosity, Pa*s (Liquid); method: Concentric cylinders viscometry
Temperature, K	Pressure, kPa	Viscosity, Pa*s	uncertainty
298.15	101	.005851	.000003
308.15	101	.00426	.000003
318.15	101	.003184	.000003
328.15	101	.002434	.000003
338.15	101	.0019	.000003
348.15	101	.001512	.000003

System: 1-octanol; phases: Liquid
Property: Mass density, kg/m3 (Liquid); method: Vibrating tube method
Temperature, K	Pressure, kPa	Mass density, kg/m3	uncertainty
298.15	101	821.61	.1
308.15	101	814.64	.1
318.15	101	807.57	.1
328.15	101	800.39	.1
338.15	101	793.09	.1
348.15	101	785.59	.1

System: 1-octanol; phases: Liquid
Property: Viscosity, Pa*s (Liquid); method: Concentric cylinders viscometry
Temperature, K	Pressure, kPa	Viscosity, Pa*s	uncertainty
298.15	101	.007398	.000003
308.15	101	.005285	.000003
318.15	101	.003887	.000003
328.15	101	.002931	.000003
338.15	101	.002262	.000003
348.15	101	.001782	.000003

System: 1-nonanol; phases: Liquid
Property: Mass density, kg/m3 (Liquid); method: Vibrating tube method
Temperature, K	Pressure, kPa	Mass density, kg/m3	uncertainty
298.15	101	824.27	.1
308.15	101	817.36	.1
318.15	101	810.4	.1
328.15	101	803.29	.1
338.15	101	796.1	.1
348.15	101	788.72	.1

System: 1-nonanol; phases: Liquid
Property: Viscosity, Pa*s (Liquid); method: Concentric cylinders viscometry
Temperature, K	Pressure, kPa	Viscosity, Pa*s	uncertainty
298.15	101	.009343	.000003
308.15	101	.006497	.000003
318.15	101	.004674	.000003
328.15	101	.003452	.000003
338.15	101	.002664	.000003
348.15	101	.002256	.000003

System: 1-decanol; phases: Liquid
Property: Mass density, kg/m3 (Liquid); method: Vibrating tube method
Temperature, K	Pressure, kPa	Mass density, kg/m3	uncertainty
298.15	101	826.38	.1
308.15	101	819.53	.1
318.15	101	812.62	.1
328.15	101	805.61	.1
338.15	101	798.48	.1
348.15	101	791.21	.1

System: 1-decanol; phases: Liquid
Property: Viscosity, Pa*s (Liquid); method: Concentric cylinders viscometry
Temperature, K	Pressure, kPa	Viscosity, Pa*s	uncertainty
298.15	101	.01109	.000003
308.15	101	.007632	.000003
318.15	101	.005375	.000003
328.15	101	.003928	.000003
338.15	101	.002964	.000003
348.15	101	.002399	.000003

System: 1-heptanol + 1-butyl-3-methylimidazolium thiocyanate; phases: Liquid
Fixed: Pressure, kPa = 101
Property: Mass density, kg/m3 (Liquid); method: Vibrating tube method
Temperature, K	Mole fraction of 1-butyl-3-methylimidazolium thiocyanate	Mass density, kg/m3	uncertainty
298.15	1	1069.79	.1
298.15	.9793	1066.13	.1
298.15	.8852	1048.62	.1
298.15	.7981	1031.04	.1
298.15	.6949	1008.83	.1
298.15	.5703	980.45	.1
298.15	.4903	960.98	.1
298.15	.3997	937.73	.1
298.15	.3006	910.91	.1
298.15	.2203	888.14	.1
298.15	.14	864.24	.1
298.15	.0806	845.64	.1
298.15	0	818.81	.1
308.15	1	1063.89	.1
308.15	.9793	1060.22	.1
308.15	.8852	1042.69	.1
308.15	.7981	1025.06	.1
308.15	.6949	1002.79	.1
308.15	.5703	974.26	.1
308.15	.4903	954.7	.1
308.15	.3997	931.34	.1
308.15	.3006	904.36	.1
308.15	.2203	881.49	.1
308.15	.14	857.45	.1
308.15	.0806	838.75	.1
308.15	0	811.73	.1
318.15	1	1058.02	.1
318.15	.9793	1054.36	.1
318.15	.8852	1036.79	.1
318.15	.7981	1019.11	.1
318.15	.6949	996.76	.1
318.15	.5703	968.12	.1
318.15	.4903	948.46	.1
318.15	.3997	924.97	.1
318.15	.3006	897.84	.1
318.15	.2203	874.82	.1
318.15	.14	850.63	.1
318.15	.0806	831.82	.1
318.15	0	804.55	.1
328.15	1	1052.19	.1
328.15	.9793	1048.56	.1
328.15	.8852	1030.94	.1
328.15	.7981	1013.22	.1
328.15	.6949	990.79	.1
328.15	.5703	962.02	.1
328.15	.4903	942.26	.1
328.15	.3997	918.62	.1
328.15	.3006	891.32	.1
328.15	.2203	868.14	.1
328.15	.14	843.79	.1
328.15	.0806	824.81	.1
328.15	0	797.22	.1
338.15	1	1046.43	.1
338.15	.9793	1042.8	.1
338.15	.8852	1025.11	.1
338.15	.7981	1007.36	.1
338.15	.6949	984.85	.1
338.15	.5703	955.92	.1
338.15	.4903	936.05	.1
338.15	.3997	912.28	.1
338.15	.3006	884.79	.1
338.15	.2203	861.43	.1
338.15	.14	836.85	.1
338.15	.0806	817.69	.1
338.15	0	789.75	.1
348.15	1	1040.7	.1
348.15	.9793	1037.06	.1
348.15	.8852	1019.34	.1
348.15	.7981	1001.53	.1
348.15	.6949	978.95	.1
348.15	.5703	949.88	.1
348.15	.4903	929.89	.1
348.15	.3997	905.95	.1
348.15	.3006	878.24	.1
348.15	.2203	854.69	.1
348.15	.14	829.85	.1
348.15	.0806	810.46	.1
348.15	0	782.08	.1

System: 1-heptanol + 1-butyl-3-methylimidazolium thiocyanate; phases: Liquid
Fixed: Pressure, kPa = 101
Property: Viscosity, Pa*s (Liquid); method: Concentric cylinders viscometry
Temperature, K	Mole fraction of 1-butyl-3-methylimidazolium thiocyanate	Viscosity, Pa*s	uncertainty
298.15	1	.05174	.000003
298.15	.9793	.04721	.000003
298.15	.8852	.03981	.000003
298.15	.7981	.0346	.000003
298.15	.6949	.02865	.000003
298.15	.5703	.02222	.000003
298.15	.4903	.01892	.000003
298.15	.3997	.0155	.000003
298.15	.3006	.01231	.000003
298.15	.2203	.01016	.000003
298.15	.14	.008422	.000003
298.15	.0806	.007319	.000003
298.15	0	.005851	.000003
308.15	1	.03487	.000003
308.15	.9793	.0312	.000003
308.15	.8852	.02677	.000003
308.15	.7981	.02367	.000003
308.15	.6949	.01986	.000003
308.15	.5703	.01573	.000003
308.15	.4903	.01359	.000003
308.15	.3997	.01131	.000003
308.15	.3006	.009061	.000003
308.15	.2203	.007479	.000003
308.15	.14	.006213	.000003
308.15	.0806	.005395	.000003
308.15	0	.00426	.000003
318.15	1	.02419	.000003
318.15	.9793	.0219	.000003
318.15	.8852	.01903	.000003
318.15	.7981	.01702	.000003
318.15	.6949	.01449	.000003
318.15	.5703	.01167	.000003
318.15	.4903	.01019	.000003
318.15	.3997	.00855	.000003
318.15	.3006	.006884	.000003
318.15	.2203	.005654	.000003
318.15	.14	.004725	.000003
318.15	.0806	.004085	.000003
318.15	0	.003184	.000003
328.15	1	.0167	.000003
328.15	.9793	.01616	.000003
328.15	.8852	.0142	.000003
328.15	.7981	.01279	.000003
328.15	.6949	.01102	.000003
328.15	.5703	.008926	.000003
328.15	.4903	.007875	.000003
328.15	.3997	.006634	.000003
328.15	.3006	.005306	.000003
328.15	.2203	.004369	.000003
328.15	.14	.003685	.000003
328.15	.0806	.003166	.000003
328.15	0	.002434	.000003
338.15	1	.01273	.000003
338.15	.9793	.01238	.000003
338.15	.8852	.01097	.000003
338.15	.7981	.009943	.000003
338.15	.6949	.00862	.000003
338.15	.5703	.007057	.000003
338.15	.4903	.00624	.000003
338.15	.3997	.005262	.000003
338.15	.3006	.004186	.000003
338.15	.2203	.00347	.000003
338.15	.14	.002935	.000003
338.15	.0806	.002508	.000003
338.15	0	.0019	.000003
348.15	1	.00998	.000003
348.15	.9793	.009802	.000003
348.15	.8852	.008707	.000003
348.15	.7981	.00793	.000003
348.15	.6949	.006884	.000003
348.15	.5703	.005663	.000003
348.15	.4903	.005029	.000003
348.15	.3997	.004222	.000003
348.15	.3006	.003403	.000003
348.15	.2203	.002837	.000003
348.15	.14	.002383	.000003
348.15	.0806	.002022	.000003
348.15	0	.001512	.000003

System: 1-octanol + 1-butyl-3-methylimidazolium thiocyanate; phases: Liquid
Fixed: Pressure, kPa = 101
Property: Mass density, kg/m3 (Liquid); method: Vibrating tube method
Temperature, K	Mole fraction of 1-butyl-3-methylimidazolium thiocyanate	Mass density, kg/m3	uncertainty
298.15	1	1069.79	.1
298.15	.9619	1062.27	.1
298.15	.8721	1043.42	.1
298.15	.7673	1020.12	.1
298.15	.675	998.86	.1
298.15	.5739	974.82	.1
298.15	.4693	949.07	.1
298.15	.3599	921.24	.1
298.15	.2208	884.32	.1
298.15	.1352	860.64	.1
298.15	.0874	847.17	.1
298.15	0	821.61	.1
308.15	1	1063.89	.1
308.15	.9619	1056.33	.1
308.15	.8721	1037.47	.1
308.15	.7673	1014.13	.1
308.15	.675	992.79	.1
308.15	.5739	968.64	.1
308.15	.4693	942.78	.1
308.15	.3599	914.82	.1
308.15	.2208	877.72	.1
308.15	.1352	853.92	.1
308.15	.0874	840.37	.1
308.15	0	814.64	.1
318.15	1	1058.02	.1
318.15	.9619	1050.45	.1
318.15	.8721	1031.58	.1
318.15	.7673	1008.17	.1
318.15	.675	986.77	.1
318.15	.5739	962.5	.1
318.15	.4693	936.52	.1
318.15	.3599	908.42	.1
318.15	.2208	871.11	.1
318.15	.1352	847.19	.1
318.15	.0874	833.52	.1
318.15	0	807.57	.1
328.15	1	1052.19	.1
328.15	.9619	1044.62	.1
328.15	.8721	1025.72	.1
328.15	.7673	1002.28	.1
328.15	.675	980.77	.1
328.15	.5739	956.41	.1
328.15	.4693	930.28	.1
328.15	.3599	902.01	.1
328.15	.2208	864.48	.1
328.15	.1352	840.37	.1
328.15	.0874	826.65	.1
328.15	0	800.39	.1
338.15	1	1046.43	.1
338.15	.9619	1038.82	.1
338.15	.8721	1019.88	.1
338.15	.7673	996.4	.1
338.15	.675	974.82	.1
338.15	.5739	950.33	.1
338.15	.4693	924.05	.1
338.15	.3599	895.62	.1
338.15	.2208	857.82	.1
338.15	.1352	833.53	.1
338.15	.0874	819.63	.1
338.15	0	793.09	.1
348.15	1	1040.7	.1
348.15	.9619	1033.09	.1
348.15	.8721	1014.14	.1
348.15	.7673	990.57	.1
348.15	.675	968.89	.1
348.15	.5739	944.27	.1
348.15	.4693	917.85	.1
348.15	.3599	889.21	.1
348.15	.2208	851.13	.1
348.15	.1352	826.58	.1
348.15	.0874	812.55	.1
348.15	0	785.59	.1

System: 1-octanol + 1-butyl-3-methylimidazolium thiocyanate; phases: Liquid
Fixed: Pressure, kPa = 101
Property: Viscosity, Pa*s (Liquid); method: Concentric cylinders viscometry
Temperature, K	Mole fraction of 1-butyl-3-methylimidazolium thiocyanate	Viscosity, Pa*s	uncertainty
298.15	1	.05174	.000003
298.15	.9619	.04509	.000003
298.15	.8721	.03969	.000003
298.15	.675	.02944	.000003
298.15	.5739	.02486	.000003
298.15	.4693	.02044	.000003
298.15	.3599	.0163	.000003
298.15	.2208	.01208	.000003
298.15	.1352	.01003	.000003
298.15	.0874	.009062	.000003
298.15	0	.007398	.000003
308.15	1	.03487	.000003
308.15	.9619	.02999	.000003
308.15	.8721	.02663	.000003
308.15	.675	.02038	.000003
308.15	.5739	.01739	.000003
308.15	.4693	.01447	.000003
308.15	.3599	.0117	.000003
308.15	.2208	.008726	.000003
308.15	.1352	.007237	.000003
308.15	.0874	.006504	.000003
308.15	0	.005285	.000003
318.15	1	.02419	.000003
318.15	.9619	.02114	.000003
318.15	.8721	.01895	.000003
318.15	.675	.01479	.000003
318.15	.5739	.01272	.000003
318.15	.4693	.01067	.000003
318.15	.3599	.008719	.000003
318.15	.2208	.006516	.000003
318.15	.1352	.005396	.000003
318.15	.0874	.004842	.000003
318.15	0	.003887	.000003
328.15	1	.0167	.000003
328.15	.9619	.01559	.000003
328.15	.8721	.01406	.000003
328.15	.675	.01114	.000003
328.15	.5739	.009644	.000003
328.15	.4693	.008141	.000003
328.15	.3599	.006654	.000003
328.15	.2208	.005003	.000003
328.15	.1352	.004158	.000003
328.15	.0874	.003691	.000003
328.15	0	.002931	.000003
338.15	1	.01273	.000003
338.15	.9619	.01194	.000003
338.15	.8721	.01082	.000003
338.15	.675	.008648	.000003
338.15	.5739	.007509	.000003
338.15	.4693	.006379	.000003
338.15	.3599	.005233	.000003
338.15	.2208	.003928	.000003
338.15	.1352	.003272	.000003
338.15	.0874	.002884	.000003
338.15	0	.002262	.000003
348.15	1	.00998	.000003
348.15	.9619	.009462	.000003
348.15	.8721	.008592	.000003
348.15	.675	.006874	.000003
348.15	.5739	.005987	.000003
348.15	.4693	.0051	.000003
348.15	.3599	.004233	.000003
348.15	.2208	.003171	.000003
348.15	.1352	.002633	.000003
348.15	.0874	.002306	.000003
348.15	0	.001782	.000003

System: 1-nonanol + 1-butyl-3-methylimidazolium thiocyanate; phases: Liquid
Fixed: Pressure, kPa = 101
Property: Mass density, kg/m3 (Liquid); method: Vibrating tube method
Temperature, K	Mole fraction of 1-butyl-3-methylimidazolium thiocyanate	Mass density, kg/m3	uncertainty
298.15	1	1069.79	.1
298.15	.9651	1062.11	.1
298.15	.8618	1038.46	.1
298.15	.7658	1015.88	.1
298.15	.6709	993.14	.1
298.15	.5697	968.54	.1
298.15	.3884	923.66	.1
298.15	.2814	896.75	.1
298.15	.2008	876.27	.1
298.15	.1203	855.59	.1
298.15	0	824.27	.1
308.15	1	1063.89	.1
308.15	.9651	1056.18	.1
308.15	.8618	1032.53	.1
308.15	.7658	1009.89	.1
308.15	.6709	987.05	.1
308.15	.5697	962.4	.1
308.15	.3884	917.27	.1
308.15	.2814	890.24	.1
308.15	.2008	869.7	.1
308.15	.1203	848.88	.1
308.15	0	817.36	.1
318.15	1	1058.02	.1
318.15	.9651	1050.33	.1
318.15	.8618	1026.62	.1
318.15	.7658	1003.93	.1
318.15	.6709	981.02	.1
318.15	.5697	956.26	.1
318.15	.3884	910.89	.1
318.15	.2814	883.74	.1
318.15	.2008	862.96	.1
318.15	.1203	841.98	.1
318.15	0	810.4	.1
328.15	1	1052.19	.1
328.15	.9651	1044.5	.1
328.15	.8618	1020.79	.1
328.15	.7658	998.03	.1
328.15	.6709	975	.1
328.15	.5697	950.15	.1
328.15	.3884	904.56	.1
328.15	.2814	877.25	.1
328.15	.2008	856.36	.1
328.15	.1203	835.4	.1
328.15	0	803.29	.1
338.15	1	1046.43	.1
338.15	.9651	1038.73	.1
338.15	.8618	1014.99	.1
338.15	.7658	992.15	.1
338.15	.6709	969.04	.1
338.15	.5697	944.06	.1
338.15	.3884	898.2	.1
338.15	.2814	870.73	.1
338.15	.2008	849.77	.1
338.15	.1203	828.56	.1
338.15	0	796.1	.1
348.15	1	1040.7	.1
348.15	.9651	1032.99	.1
348.15	.8618	1009.22	.1
348.15	.7658	986.31	.1
348.15	.6709	963.09	.1
348.15	.5697	937.98	.1
348.15	.3884	891.86	.1
348.15	.2814	864.18	.1
348.15	.2008	843.14	.1
348.15	.1203	821.64	.1
348.15	0	788.72	.1

System: 1-nonanol + 1-butyl-3-methylimidazolium thiocyanate; phases: Liquid
Fixed: Pressure, kPa = 101
Property: Viscosity, Pa*s (Liquid); method: Concentric cylinders viscometry
Temperature, K	Mole fraction of 1-butyl-3-methylimidazolium thiocyanate	Viscosity, Pa*s	uncertainty
298.15	1	.05174	.000003
298.15	.9651	.04689	.000003
298.15	.8618	.04161	.000003
298.15	.6709	.03231	.000003
298.15	.5697	.02804	.000003
298.15	.3884	.0203	.000003
298.15	.2814	.01658	.000003
298.15	.2008	.0142	.000003
298.15	.1203	.01219	.000003
298.15	0	.009343	.000003
308.15	1	.03487	.000003
308.15	.9651	.03109	.000003
308.15	.8618	.0278	.000003
308.15	.6709	.02223	.000003
308.15	.5697	.01935	.000003
308.15	.3884	.0143	.000003
308.15	.2814	.01181	.000003
308.15	.2008	.01014	.000003
308.15	.1203	.008664	.000003
308.15	0	.006497	.000003
318.15	1	.02419	.000003
318.15	.9651	.02181	.000003
318.15	.8618	.01967	.000003
318.15	.6709	.01601	.000003
318.15	.5697	.01403	.000003
318.15	.3884	.01055	.000003
318.15	.2814	.008739	.000003
318.15	.2008	.007487	.000003
318.15	.1203	.006378	.000003
318.15	0	.004674	.000003
328.15	1	.0167	.000003
328.15	.9651	.01606	.000003
328.15	.8618	.01455	.000003
328.15	.6709	.01204	.000003
328.15	.5697	.01061	.000003
328.15	.3884	.008032	.000003
328.15	.2814	.006629	.000003
328.15	.2008	.005662	.000003
328.15	.1203	.004782	.000003
328.15	0	.003452	.000003
338.15	1	.01273	.000003
338.15	.9651	.01232	.000003
338.15	.8618	.01122	.000003
338.15	.6709	.00933	.000003
338.15	.5697	.00826	.000003
338.15	.3884	.006237	.000003
338.15	.2814	.005139	.000003
338.15	.2008	.004408	.000003
338.15	.1203	.003695	.000003
338.15	0	.002664	.000003
348.15	1	.00998	.000003
348.15	.9651	.00974	.000003
348.15	.8618	.00889	.000003
348.15	.6709	.007404	.000003
348.15	.5697	.006512	.000003
348.15	.3884	.004962	.000003
348.15	.2814	.004102	.000003
348.15	.2008	.003521	.000003
348.15	.1203	.002971	.000003
348.15	0	.002256	.000003

System: 1-decanol + 1-butyl-3-methylimidazolium thiocyanate; phases: Liquid
Fixed: Pressure, kPa = 101
Property: Mass density, kg/m3 (Liquid); method: Vibrating tube method
Temperature, K	Mole fraction of 1-butyl-3-methylimidazolium thiocyanate	Mass density, kg/m3	uncertainty
298.15	1	1069.79	.1
298.15	.9587	1059.8	.1
298.15	.8692	1037.62	.1
298.15	.7576	1009.83	.1
298.15	.6659	987.05	.1
298.15	.5922	968.81	.1
298.15	.4924	944.3	.1
298.15	.3512	910.03	.1
298.15	.2537	886.57	.1
298.15	.1621	864.67	.1
298.15	.0747	843.95	.1
298.15	0	826.38	.1
308.15	1	1063.89	.1
308.15	.9587	1053.86	.1
308.15	.8692	1031.69	.1
308.15	.7576	1003.83	.1
308.15	.6659	981.01	.1
308.15	.5922	962.63	.1
308.15	.4924	938.02	.1
308.15	.3512	903.51	.1
308.15	.2537	879.95	.1
308.15	.1621	857.99	.1
308.15	.0747	837.19	.1
308.15	0	819.53	.1
318.15	1	1058.02	.1
318.15	.9587	1048.02	.1
318.15	.8692	1025.8	.1
318.15	.7576	997.87	.1
318.15	.6659	974.94	.1
318.15	.5922	956.5	.1
318.15	.4924	931.78	.1
318.15	.3512	897.08	.1
318.15	.2537	873.42	.1
318.15	.1621	851.35	.1
318.15	.0747	830.4	.1
318.15	0	812.62	.1
328.15	1	1052.19	.1
328.15	.9587	1042.2	.1
328.15	.8692	1019.98	.1
328.15	.7576	991.96	.1
328.15	.6659	968.92	.1
328.15	.5922	950.4	.1
328.15	.4924	925.54	.1
328.15	.3512	890.79	.1
328.15	.2537	866.89	.1
328.15	.1621	844.7	.1
328.15	.0747	823.59	.1
328.15	0	805.61	.1
338.15	1	1046.43	.1
338.15	.9587	1036.43	.1
338.15	.8692	1014.18	.1
338.15	.7576	986.05	.1
338.15	.6659	962.91	.1
338.15	.5922	944.32	.1
338.15	.4924	919.35	.1
338.15	.3512	884.37	.1
338.15	.2537	860.36	.1
338.15	.1621	838	.1
338.15	.0747	816.7	.1
338.15	0	798.48	.1
348.15	1	1040.7	.1
348.15	.9587	1030.7	.1
348.15	.8692	1008.43	.1
348.15	.7576	980.21	.1
348.15	.6659	956.95	.1
348.15	.5922	938.26	.1
348.15	.4924	913.13	.1
348.15	.3512	877.97	.1
348.15	.2537	853.79	.1
348.15	.1621	831.23	.1
348.15	.0747	809.76	.1
348.15	0	791.21	.1

System: 1-decanol + 1-butyl-3-methylimidazolium thiocyanate; phases: Liquid
Fixed: Pressure, kPa = 101
Property: Viscosity, Pa*s (Liquid); method: Concentric cylinders viscometry
Temperature, K	Mole fraction of 1-butyl-3-methylimidazolium thiocyanate	Viscosity, Pa*s	uncertainty
298.15	1	.05174	.000003
298.15	.9587	.04931	.000003
298.15	.8692	.04501	.000003
298.15	.7576	.04	.000003
298.15	.6659	.03609	.000003
298.15	.5922	.03287	.000003
298.15	.4924	.02836	.000003
298.15	.3512	.02248	.000003
298.15	.2537	.01867	.000003
298.15	.1621	.0155	.000003
298.15	.0747	.01307	.000003
298.15	0	.01109	.000003
308.15	1	.03487	.000003
308.15	.9587	.0333	.000003
308.15	.8692	.03046	.000003
308.15	.7576	.02712	.000003
308.15	.6659	.0245	.000003
308.15	.5922	.02229	.000003
308.15	.4924	.01952	.000003
308.15	.3512	.01562	.000003
308.15	.2537	.01308	.000003
308.15	.1621	.01096	.000003
308.15	.0747	.009168	.000003
308.15	0	.007632	.000003
318.15	1	.02419	.000003
318.15	.9587	.0233	.000003
318.15	.8692	.02156	.000003
318.15	.7576	.0194	.000003
318.15	.6659	.01759	.000003
318.15	.5922	.01604	.000003
318.15	.4924	.01406	.000003
318.15	.3512	.01139	.000003
318.15	.2537	.009541	.000003
318.15	.1621	.007964	.000003
318.15	.0747	.006582	.000003
318.15	0	.005375	.000003
328.15	1	.0167	.000003
328.15	.9587	.0161	.000003
328.15	.8692	.01515	.000003
328.15	.7576	.01404	.000003
328.15	.6659	.01298	.000003
328.15	.5922	.01198	.000003
328.15	.4924	.01062	.000003
328.15	.3512	.008553	.000003
328.15	.2537	.007162	.000003
328.15	.1621	.005959	.000003
328.15	.0747	.00488	.000003
328.15	0	.003928	.000003
338.15	1	.01273	.000003
338.15	.9587	.01218	.000003
338.15	.8692	.01146	.000003
338.15	.7576	.01076	.000003
338.15	.6659	.009998	.000003
338.15	.5922	.009243	.000003
338.15	.4924	.008183	.000003
338.15	.3512	.006586	.000003
338.15	.2537	.005526	.000003
338.15	.1621	.004567	.000003
338.15	.0747	.003741	.000003
338.15	0	.002964	.000003
348.15	1	.00998	.000003
348.15	.9587	.009624	.000003
348.15	.8692	.009047	.000003
348.15	.7576	.008487	.000003
348.15	.6659	.007875	.000003
348.15	.5922	.007278	.000003
348.15	.4924	.006455	.000003
348.15	.3512	.005195	.000003
348.15	.2537	.004411	.000003
348.15	.1621	.003578	.000003
348.15	.0747	.002909	.000003
348.15	0	.002399	.000003
