Measured thermophysical data. Densities, Viscosities, Refractive Indices, and Heat Capacities of Poly(ethylene glycol-ran-propylene glycol) + Esters of Carbonic Acid at (293.15 and 313.15) K and at Atmospheric Pressure
Source: J. Chem. Eng. Data, 2010, 10.1021/je900307z
Compound 1: dimethyl carbonate, C3H6O3
Compound 2: diethyl carbonate, C5H10O3
Compound 3: 4-methyl-1,3-dioxolan-2-one, C4H6O3

System: dimethyl carbonate; phases: Liquid
Fixed: Pressure, kPa = 101.325
Property: Mass density, kg/m3 (Liquid); method: Vibrating tube method
Temperature, K	Mass density, kg/m3	uncertainty
293.15	1069.8	
313.15	1043.25	

System: dimethyl carbonate; phases: Liquid
Fixed: Pressure, kPa = 101.325
Property: Viscosity, Pa*s (Liquid); method: Capillary tube (Ostwald; Ubbelohde) method
Temperature, K	Viscosity, Pa*s	uncertainty
293.15	.000629	
313.15	.000494	

System: dimethyl carbonate; phases: Liquid
Fixed: Pressure, kPa = 101.325
Property: Refractive index (Na D-line) (Liquid); method: Standard Abbe refractometry
Temperature, K	Refractive index (Na D-line)	uncertainty
293.15	1.3689	
313.15	1.3604	

System: dimethyl carbonate; phases: Liquid
Fixed: Pressure, kPa = 101.325
Property: Molar heat capacity at constant pressure, J/K/mol (Liquid); method: Small sample (50 mg) DSC
Temperature, K	Molar heat capacity at constant pressure, J/K/mol	uncertainty
288.15	165.5101077354	
293.15	166.0685909634	
298.15	167.1044872734	
303.15	168.4763742996	
308.15	169.720350651	
313.15	170.8319124306	
318.15	172.1767760748	
323.15	173.6756729964	

System: diethyl carbonate; phases: Liquid
Fixed: Pressure, kPa = 101.325
Property: Mass density, kg/m3 (Liquid); method: Vibrating tube method
Temperature, K	Mass density, kg/m3	uncertainty
293.15	975.84	
313.15	952.39	

System: diethyl carbonate; phases: Liquid
Fixed: Pressure, kPa = 101.325
Property: Viscosity, Pa*s (Liquid); method: Capillary tube (Ostwald; Ubbelohde) method
Temperature, K	Viscosity, Pa*s	uncertainty
293.15	.000817	
313.15	.000623	

System: diethyl carbonate; phases: Liquid
Fixed: Pressure, kPa = 101.325
Property: Refractive index (Na D-line) (Liquid); method: Standard Abbe refractometry
Temperature, K	Refractive index (Na D-line)	uncertainty
293.15	1.3858	
313.15	1.3764	

System: diethyl carbonate; phases: Liquid
Fixed: Pressure, kPa = 101.325
Property: Molar heat capacity at constant pressure, J/K/mol (Liquid); method: Small sample (50 mg) DSC
Temperature, K	Molar heat capacity at constant pressure, J/K/mol	uncertainty
288.15	210.196572785	
293.15	211.488927019	
298.15	212.461145972	
303.15	213.826741488	
308.15	214.891102699	
313.15	215.800712169	
318.15	218.550804177	
323.15	220.316864122	

System: 4-methyl-1,3-dioxolan-2-one; phases: Liquid
Fixed: Pressure, kPa = 101.325
Property: Mass density, kg/m3 (Liquid); method: Vibrating tube method
Temperature, K	Mass density, kg/m3	uncertainty
293.15	1204.66	
313.15	1183.06	

System: 4-methyl-1,3-dioxolan-2-one; phases: Liquid
Fixed: Pressure, kPa = 101.325
Property: Viscosity, Pa*s (Liquid); method: Capillary tube (Ostwald; Ubbelohde) method
Temperature, K	Viscosity, Pa*s	uncertainty
293.15	.002778	
313.15	.001909	

System: 4-methyl-1,3-dioxolan-2-one; phases: Liquid
Fixed: Pressure, kPa = 101.325
Property: Refractive index (Na D-line) (Liquid); method: Standard Abbe refractometry
Temperature, K	Refractive index (Na D-line)	uncertainty
293.15	1.4223	
313.15	1.4149	

System: 4-methyl-1,3-dioxolan-2-one; phases: Liquid
Fixed: Pressure, kPa = 101.325
Property: Molar heat capacity at constant pressure, J/K/mol (Liquid); method: Small sample (50 mg) DSC
Temperature, K	Molar heat capacity at constant pressure, J/K/mol	uncertainty
288.15	166.2778932864	
293.15	167.971543824	
298.15	169.4814348096	
303.15	170.7861276288	
308.15	172.22353568	
313.15	174.1407603392	
318.15	175.8691210144	
323.15	177.450474048	
