Measured thermophysical data. Ion-Solvent Interactions of Some Halides of Common Cations with Organic Solvent Mixtures by Conductometric, Volumetric, Viscometric, and Refractometric Techniques
Source: J. Chem. Eng. Data, 2010, 10.1021/je900656c
Compound 1: methanol, CH4O, purity 97%
Compound 2: 2-methoxyethanol, C3H8O2, purity 97%
Compound 3: lithium bromide, BrLi, purity 97%
Compound 4: lithium chloride, ClLi, purity 97%
Compound 5: lithium iodide, ILi, purity 97%

System: methanol; phases: Liquid
Property: Mass density, kg/m3 (Liquid); method: Pycnometric method
Pressure, kPa	Temperature, K	Mass density, kg/m3	uncertainty
101	303.15	782	.3

System: methanol; phases: Liquid
Property: Viscosity, Pa*s (Liquid); method: Capillary tube (Ostwald; Ubbelohde) method
Pressure, kPa	Temperature, K	Viscosity, Pa*s	uncertainty
101	303.15	.000523	.000003

System: 2-methoxyethanol; phases: Liquid
Property: Mass density, kg/m3 (Liquid); method: Pycnometric method
Pressure, kPa	Temperature, K	Mass density, kg/m3	uncertainty
101	303.15	956	.3

System: 2-methoxyethanol; phases: Liquid
Property: Viscosity, Pa*s (Liquid); method: Capillary tube (Ostwald; Ubbelohde) method
Pressure, kPa	Temperature, K	Viscosity, Pa*s	uncertainty
101	303.15	.001404	.000003

System: methanol + 2-methoxyethanol; phases: Liquid
Fixed: Pressure, kPa = 101
Fixed: Temperature, K = 303.15
Property: Mass density, kg/m3 (Liquid); method: Pycnometric method
Mass fraction of 2-methoxyethanol	Mass density, kg/m3	uncertainty
0	782	.3
.1	798	.3
.2	817	.3
.3	833	.3
1	956	.3

System: methanol + 2-methoxyethanol; phases: Liquid
Fixed: Pressure, kPa = 101
Fixed: Temperature, K = 303.15
Property: Viscosity, Pa*s (Liquid); method: Capillary tube (Ostwald; Ubbelohde) method
Mass fraction of 2-methoxyethanol	Viscosity, Pa*s	uncertainty
0	.000523	.000003
.1	.000538	.000003
.2	.000557	.000003
.3	.000577	.000003
1	.001404	.000003

System: methanol + 2-methoxyethanol + lithium chloride; phases: Liquid
Fixed: Temperature, K = 303.15
Fixed: Pressure, kPa = 101
Property: Molar conductivity, S*m2/mol (Liquid); method: dip-type immersion conductivity cell
Solvent: Mass fraction of 2-methoxyethanol	Amount concentration (molarity), mol/dm3 of lithium chloride	Molar conductivity, S*m2/mol	uncertainty
.1	.00127487	.010213	.000030639
.1	.00176521	.010115	.000030345
.1	.0021855	.010016	.000030048
.1	.00254975	.009933	.000029799
.1	.00286847	.009866	.000029598
.1	.00314969	.009773	.000029319
.1	.00382462	.009652	.000028956
.1	.00417232	.009546	.000028638
.1	.00458955	.009467	.000028401
.1	.00501158	.00941	.00002823
.2	.00105624	.009941	.000029823
.2	.00146248	.009846	.000029538
.2	.00181069	.009756	.000029268
.2	.00211247	.00961	.00002883
.2	.00260953	.009504	.000028512
.2	.00291179	.00941	.00002823
.2	.00352079	.009316	.000027948
.2	.00375072	.009225	.000027675
.2	.00438745	.00914	.00002742
.2	.00505714	.009037	.000027111
.3	.00093396	.008652	.000025956
.3	.00133423	.008533	.000025599
.3	.0015566	.008476	.000025428
.3	.00183962	.008396	.000025188
.3	.00239185	.008248	.000024744
.3	.00276377	.008136	.000024408
.3	.00303128	.00807	.00002421
.3	.00331624	.008003	.000024009
.3	.00364348	.00796	.00002388
.3	.0037451	.007937	.000023811

System: methanol + 2-methoxyethanol + lithium chloride; phases: Liquid
Fixed: Temperature, K = 303.15
Fixed: Pressure, kPa = 101
Property: Mass density, kg/m3 (Liquid); method: Pycnometric method
Solvent: Mass fraction of 2-methoxyethanol	Amount concentration (molarity), mol/dm3 of lithium chloride	Mass density, kg/m3	uncertainty
.1	.0121	799	.3
.1	.0242	799	.3
.1	.0403	799	.3
.1	.0565	800	.3
.1	.0726	800	.3
.1	.0847	801	.3
.2	.0121	817	.3
.2	.0242	818	.3
.2	.0403	818	.3
.2	.0564	819	.3
.2	.0726	819	.3
.2	.0847	819	.3
.3	.0121	833	.3
.3	.0242	834	.3
.3	.0403	834	.3
.3	.0565	835	.3
.3	.0726	835	.3
.3	.0847	835	.3

System: methanol + 2-methoxyethanol + lithium chloride; phases: Liquid
Fixed: Temperature, K = 303.15
Fixed: Pressure, kPa = 101
Property: Viscosity, Pa*s (Liquid); method: Capillary tube (Ostwald; Ubbelohde) method
Solvent: Mass fraction of 2-methoxyethanol	Amount concentration (molarity), mol/dm3 of lithium chloride	Viscosity, Pa*s	uncertainty
.1	.0121	.000538	.000003
.1	.0242	.00054	.000003
.1	.0403	.000542	.000003
.1	.0565	.000545	.000003
.1	.0726	.000547	.000003
.1	.0847	.00055	.000003
.2	.0121	.000539	.000003
.2	.0242	.000541	.000003
.2	.0403	.000543	.000003
.2	.0564	.000546	.000003
.2	.0726	.00055	.000003
.2	.0847	.000552	.000003
.3	.0121	.00054	.000003
.3	.0242	.000543	.000003
.3	.0403	.000546	.000003
.3	.0565	.000551	.000003
.3	.0726	.000555	.000003
.3	.0847	.000559	.000003

System: methanol + 2-methoxyethanol + lithium chloride; phases: Liquid
Fixed: Temperature, K = 303.15
Fixed: Pressure, kPa = 101
Property: Refractive index (Na D-line) (Liquid); method: Standard Abbe refractometry
Solvent: Mass fraction of 2-methoxyethanol	Amount concentration (molarity), mol/dm3 of lithium chloride	Refractive index (Na D-line)	uncertainty
.1	.0121	1.3337	.0002
.1	.0242	1.334	.0002
.1	.0403	1.3344	.0002
.1	.0565	1.3348	.0002
.1	.0726	1.3352	.0002
.1	.0847	1.3356	.0002
.2	.0121	1.3407	.0002
.2	.0242	1.3412	.0002
.2	.0403	1.342	.0002
.2	.0564	1.3427	.0002
.2	.0726	1.3432	.0002
.2	.0847	1.3437	.0002
.3	.0121	1.3467	.0002
.3	.0242	1.3473	.0002
.3	.0403	1.3482	.0002
.3	.0565	1.3491	.0002
.3	.0726	1.3499	.0002
.3	.0847	1.3505	.0002

System: methanol + 2-methoxyethanol + lithium bromide; phases: Liquid
Fixed: Temperature, K = 303.15
Fixed: Pressure, kPa = 101
Property: Molar conductivity, S*m2/mol (Liquid); method: dip-type immersion conductivity cell
Solvent: Mass fraction of 2-methoxyethanol	Amount concentration (molarity), mol/dm3 of lithium bromide	Molar conductivity, S*m2/mol	uncertainty
.1	.0012987	.008393	.000025179
.1	.00168349	.00824	.00002472
.1	.00201522	.008138	.000024414
.1	.00267378	.007966	.000023898
.1	.00307586	.007933	.000023799
.1	.00340134	.00785	.00002355
.1	.00408848	.007753	.000023259
.1	.00439881	.007707	.000023121
.1	.00473848	.00764	.00002292
.1	.00501769	.007573	.000022719
.2	.00106467	.007993	.000023979
.2	.00122847	.007943	.000023829
.2	.00152096	.00784	.00002352
.2	.00177445	.007764	.000023292
.2	.00199626	.00768	.00002304
.2	.00266167	.007552	.000022656
.2	.00388461	.007285	.000021855
.2	.00414038	.007246	.000021738
.2	.00433754	.007216	.000021648
.2	.00449158	.007169	.000021507
.3	.0011558	.007211	.000021633
.3	.00127374	.00716	.00002148
.3	.00148603	.007066	.000021198
.3	.00198137	.006936	.000020808
.3	.00228341	.006876	.000020628
.3	.00270982	.00679	.00002037
.3	.00299642	.006708	.000020124
.3	.0032367	.006673	.000020019
.3	.00345627	.006655	.000019965
.3	.0036248	.006618	.000019854

System: methanol + 2-methoxyethanol + lithium bromide; phases: Liquid
Fixed: Temperature, K = 303.15
Fixed: Pressure, kPa = 101
Property: Mass density, kg/m3 (Liquid); method: Pycnometric method
Solvent: Mass fraction of 2-methoxyethanol	Amount concentration (molarity), mol/dm3 of lithium bromide	Mass density, kg/m3	uncertainty
.1	.0114	799	.3
.1	.0229	800	.3
.1	.04	801	.3
.1	.0572	802	.3
.1	.0743	804	.3
.1	.0858	804	.3
.2	.0114	818	.3
.2	.0229	819	.3
.2	.04	820	.3
.2	.0572	821	.3
.2	.0743	822	.3
.2	.0858	823	.3
.3	.0116	833	.3
.3	.0231	835	.3
.3	.0405	836	.3
.3	.0579	837	.3
.3	.0752	839	.3
.3	.0867	839	.3

System: methanol + 2-methoxyethanol + lithium bromide; phases: Liquid
Fixed: Temperature, K = 303.15
Fixed: Pressure, kPa = 101
Property: Viscosity, Pa*s (Liquid); method: Capillary tube (Ostwald; Ubbelohde) method
Solvent: Mass fraction of 2-methoxyethanol	Amount concentration (molarity), mol/dm3 of lithium bromide	Viscosity, Pa*s	uncertainty
.1	.0114	.000558	.000003
.1	.0229	.00056	.000003
.1	.04	.000565	.000003
.1	.0572	.000569	.000003
.1	.0743	.000573	.000003
.1	.0858	.000577	.000003
.2	.0114	.000559	.000003
.2	.0229	.000561	.000003
.2	.04	.000566	.000003
.2	.0572	.000572	.000003
.2	.0743	.000577	.000003
.2	.0858	.000581	.000003
.3	.0116	.00056	.000003
.3	.0231	.000564	.000003
.3	.0405	.000571	.000003
.3	.0579	.000577	.000003
.3	.0752	.000586	.000003
.3	.0867	.00059	.000003

System: methanol + 2-methoxyethanol + lithium bromide; phases: Liquid
Fixed: Temperature, K = 303.15
Fixed: Pressure, kPa = 101
Property: Refractive index (Na D-line) (Liquid); method: Standard Abbe refractometry
Solvent: Mass fraction of 2-methoxyethanol	Amount concentration (molarity), mol/dm3 of lithium bromide	Refractive index (Na D-line)	uncertainty
.1	.0114	1.3344	.0002
.1	.0229	1.3348	.0002
.1	.04	1.3352	.0002
.1	.0572	1.3357	.0002
.1	.0743	1.3362	.0002
.1	.0858	1.3366	.0002
.2	.0114	1.3418	.0002
.2	.0229	1.3422	.0002
.2	.04	1.343	.0002
.2	.0572	1.3436	.0002
.2	.0743	1.3444	.0002
.2	.0858	1.3448	.0002
.3	.0116	1.3478	.0002
.3	.0231	1.3483	.0002
.3	.0405	1.3493	.0002
.3	.0579	1.3504	.0002
.3	.0752	1.3513	.0002
.3	.0867	1.3521	.0002

System: methanol + 2-methoxyethanol + lithium iodide; phases: Liquid
Fixed: Temperature, K = 303.15
Fixed: Pressure, kPa = 101
Property: Molar conductivity, S*m2/mol (Liquid); method: dip-type immersion conductivity cell
Solvent: Mass fraction of 2-methoxyethanol	Amount concentration (molarity), mol/dm3 of lithium iodide	Molar conductivity, S*m2/mol	uncertainty
.1	.00115613	.005338	.000016014
.1	.0016008	.005229	.000015687
.1	.00198194	.005147	.000015441
.1	.00231227	.005103	.000015309
.1	.0026013	.005074	.000015222
.1	.00285633	.005018	.000015054
.1	.00328585	.004964	.000014892
.1	.00363356	.004926	.000014778
.1	.0042688	.004849	.000014547
.1	.00462453	.004832	.000014496
.2	.001156	.004467	.000013401
.2	.00183095	.004325	.000012975
.2	.00205982	.004301	.000012903
.2	.00226176	.004258	.000012774
.2	.00244127	.004219	.000012657
.2	.00260188	.004189	.000012567
.2	.00274642	.004169	.000012507
.2	.0029961	.00414	.00001242
.2	.00338021	.004091	.000012273
.2	.00359876	.00405	.00001215
.3	.00104709	.004436	.000013308
.3	.00151246	.00434	.00001302
.3	.00186833	.004232	.000012696
.3	.00214929	.004179	.000012537
.3	.00247494	.004128	.000012384
.3	.00279223	.004082	.000012246
.3	.00302492	.004066	.000012198
.3	.003277	.004028	.000012084
.3	.00348218	.003992	.000011976
.3	.00372713	.003975	.000011925

System: methanol + 2-methoxyethanol + lithium iodide; phases: Liquid
Fixed: Temperature, K = 303.15
Fixed: Pressure, kPa = 101
Property: Mass density, kg/m3 (Liquid); method: Pycnometric method
Solvent: Mass fraction of 2-methoxyethanol	Amount concentration (molarity), mol/dm3 of lithium iodide	Mass density, kg/m3	uncertainty
.1	.0114	800	.3
.1	.0229	801	.3
.1	.04	803	.3
.1	.0572	805	.3
.1	.0743	807	.3
.1	.0858	808	.3
.2	.0114	818	.3
.2	.0229	820	.3
.2	.04	822	.3
.2	.0572	824	.3
.2	.0743	826	.3
.2	.0858	827	.3
.3	.0116	834	.3
.3	.0231	836	.3
.3	.0405	838	.3
.3	.0579	840	.3
.3	.0752	842	.3
.3	.0867	843	.3

System: methanol + 2-methoxyethanol + lithium iodide; phases: Liquid
Fixed: Temperature, K = 303.15
Fixed: Pressure, kPa = 101
Property: Viscosity, Pa*s (Liquid); method: Capillary tube (Ostwald; Ubbelohde) method
Solvent: Mass fraction of 2-methoxyethanol	Amount concentration (molarity), mol/dm3 of lithium iodide	Viscosity, Pa*s	uncertainty
.1	.0114	.00058	.000003
.1	.0229	.000585	.000003
.1	.04	.000593	.000003
.1	.0572	.000602	.000003
.1	.0743	.00061	.000003
.1	.0858	.000618	.000003
.2	.0114	.000581	.000003
.2	.0229	.000587	.000003
.2	.04	.000596	.000003
.2	.0572	.000606	.000003
.2	.0743	.000617	.000003
.2	.0858	.000624	.000003
.3	.0116	.000583	.000003
.3	.0231	.000591	.000003
.3	.0405	.000604	.000003
.3	.0579	.000618	.000003
.3	.0752	.000631	.000003
.3	.0867	.000641	.000003

System: methanol + 2-methoxyethanol + lithium iodide; phases: Liquid
Fixed: Temperature, K = 303.15
Fixed: Pressure, kPa = 101
Property: Refractive index (Na D-line) (Liquid); method: Standard Abbe refractometry
Solvent: Mass fraction of 2-methoxyethanol	Amount concentration (molarity), mol/dm3 of lithium iodide	Refractive index (Na D-line)	uncertainty
.1	.0114	1.3366	.0002
.1	.0229	1.337	.0002
.1	.04	1.3377	.0002
.1	.0572	1.3383	.0002
.1	.0743	1.3389	.0002
.1	.0858	1.3393	.0002
.2	.0114	1.3441	.0002
.2	.0229	1.3446	.0002
.2	.04	1.3453	.0002
.2	.0572	1.3461	.0002
.2	.0743	1.3468	.0002
.2	.0858	1.3474	.0002
.3	.0116	1.3503	.0002
.3	.0231	1.351	.0002
.3	.0405	1.3522	.0002
.3	.0579	1.3533	.0002
.3	.0752	1.3545	.0002
.3	.0867	1.3553	.0002
