Measured thermophysical data. Densities, Viscosities, and Refractive Indices of Binary Mixtures of Acetophenone and 2-Alkanols
Source: J. Chem. Eng. Data, 2010, 10.1021/je9005823
Compound 1: acetophenone, C8H8O
Compound 2: 2-propanol, C3H8O
Compound 3: 2-butanol, dl-, C4H10O
Compound 4: 2-pentanol, C5H12O
Compound 5: 2-hexanol, C6H14O
Compound 6: 2-heptanol, C7H16O

System: acetophenone; phases: Liquid
Property: Mass density, kg/m3 (Liquid); method: Vibrating tube method
Temperature, K	Pressure, kPa	Mass density, kg/m3	uncertainty
298.15	101	1023.3	.01

System: acetophenone; phases: Liquid
Property: Viscosity, Pa*s (Liquid); method: Capillary tube (Ostwald; Ubbelohde) method
Temperature, K	Pressure, kPa	Viscosity, Pa*s	uncertainty
298.15	101	.001678	.00000002

System: acetophenone; phases: Liquid
Fixed: Pressure, kPa = 101.325
Property: Refractive index (Na D-line) (Liquid); method: Standard Abbe refractometry
Temperature, K	Refractive index (Na D-line)	uncertainty
298.15	1.5308	.00004

System: 2-propanol; phases: Liquid
Property: Mass density, kg/m3 (Liquid); method: Vibrating tube method
Temperature, K	Pressure, kPa	Mass density, kg/m3	uncertainty
298.15	101	780.98	.01

System: 2-propanol; phases: Liquid
Property: Viscosity, Pa*s (Liquid); method: Capillary tube (Ostwald; Ubbelohde) method
Temperature, K	Pressure, kPa	Viscosity, Pa*s	uncertainty
298.15	101	.0020439	.00000002

System: 2-propanol; phases: Liquid
Fixed: Pressure, kPa = 101.325
Property: Refractive index (Na D-line) (Liquid); method: Standard Abbe refractometry
Temperature, K	Refractive index (Na D-line)	uncertainty
298.15	1.3745	.00004

System: 2-butanol, dl-; phases: Liquid
Property: Mass density, kg/m3 (Liquid); method: Vibrating tube method
Temperature, K	Pressure, kPa	Mass density, kg/m3	uncertainty
298.15	101	802.56	.01

System: 2-butanol, dl-; phases: Liquid
Property: Viscosity, Pa*s (Liquid); method: Capillary tube (Ostwald; Ubbelohde) method
Temperature, K	Pressure, kPa	Viscosity, Pa*s	uncertainty
298.15	101	.0031318	.00000002

System: 2-butanol, dl-; phases: Liquid
Fixed: Pressure, kPa = 101.325
Property: Refractive index (Na D-line) (Liquid); method: Standard Abbe refractometry
Temperature, K	Refractive index (Na D-line)	uncertainty
298.15	1.3946	.00004

System: 2-pentanol; phases: Liquid
Property: Mass density, kg/m3 (Liquid); method: Vibrating tube method
Temperature, K	Pressure, kPa	Mass density, kg/m3	uncertainty
298.15	101	805.24	.01

System: 2-pentanol; phases: Liquid
Property: Viscosity, Pa*s (Liquid); method: Capillary tube (Ostwald; Ubbelohde) method
Temperature, K	Pressure, kPa	Viscosity, Pa*s	uncertainty
298.15	101	.0034785	.00000002

System: 2-pentanol; phases: Liquid
Fixed: Pressure, kPa = 101.325
Property: Refractive index (Na D-line) (Liquid); method: Standard Abbe refractometry
Temperature, K	Refractive index (Na D-line)	uncertainty
298.15	1.4045	.00004

System: 2-hexanol; phases: Liquid
Property: Mass density, kg/m3 (Liquid); method: Vibrating tube method
Temperature, K	Pressure, kPa	Mass density, kg/m3	uncertainty
298.15	101	810.14	.01

System: 2-hexanol; phases: Liquid
Property: Viscosity, Pa*s (Liquid); method: Capillary tube (Ostwald; Ubbelohde) method
Temperature, K	Pressure, kPa	Viscosity, Pa*s	uncertainty
298.15	101	.0041	.00000002

System: 2-hexanol; phases: Liquid
Fixed: Pressure, kPa = 101.325
Property: Refractive index (Na D-line) (Liquid); method: Standard Abbe refractometry
Temperature, K	Refractive index (Na D-line)	uncertainty
298.15	1.4116	.00004

System: 2-heptanol; phases: Liquid
Property: Mass density, kg/m3 (Liquid); method: Vibrating tube method
Temperature, K	Pressure, kPa	Mass density, kg/m3	uncertainty
298.15	101	813.33	.01

System: 2-heptanol; phases: Liquid
Property: Viscosity, Pa*s (Liquid); method: Capillary tube (Ostwald; Ubbelohde) method
Temperature, K	Pressure, kPa	Viscosity, Pa*s	uncertainty
298.15	101	.0053305	.00000002

System: 2-heptanol; phases: Liquid
Fixed: Pressure, kPa = 101.325
Property: Refractive index (Na D-line) (Liquid); method: Standard Abbe refractometry
Temperature, K	Refractive index (Na D-line)	uncertainty
298.15	1.4188	.00004

System: 2-propanol + acetophenone; phases: Liquid
Fixed: Temperature, K = 298.15
Fixed: Pressure, kPa = 101
Property: Mass density, kg/m3 (Liquid); method: Vibrating tube method
Mole fraction of acetophenone	Mass density, kg/m3	uncertainty
0	780.98	.01
.0892	813.69	.01
.1658	839.2	.01
.2517	865.44	.01
.3432	890.91	.01
.4297	913.04	.01
.5345	937.56	.01
.6466	961.31	.01
.7561	982.35	.01
.8635	1001.26	.01
.9568	1016.5	.01
1	1023.3	.01

System: 2-propanol + acetophenone; phases: Liquid
Fixed: Temperature, K = 298.15
Fixed: Pressure, kPa = 101
Property: Viscosity, Pa*s (Liquid); method: Capillary tube (Ostwald; Ubbelohde) method
Mole fraction of acetophenone	Viscosity, Pa*s	uncertainty
0	.0020439	.00000002
.0892	.0016779	.00000002
.1658	.0015027	.00000002
.2517	.0013986	.00000002
.3432	.0013538	.00000002
.4297	.0013523	.00000002
.5345	.0013667	.00000002
.6466	.0014213	.00000002
.7561	.0014844	.00000002
.8635	.0015558	.00000002
.9568	.0016263	.00000002
1	.001678	.00000002

System: 2-propanol + acetophenone; phases: Liquid
Fixed: Temperature, K = 298.15
Fixed: Pressure, kPa = 101
Property: Refractive index (Na D-line) (Liquid); method: Standard Abbe refractometry
Mole fraction of acetophenone	Refractive index (Na D-line)	uncertainty
0	1.3745	.00004
.0892	1.3971	.00004
.1658	1.4181	.00004
.2517	1.4393	.00004
.3432	1.4601	.00004
.4297	1.4775	.00004
.5345	1.4953	.00004
.6466	1.5099	.00004
.7561	1.5195	.00004
.8635	1.5255	.00004
.9568	1.5276	.00004
1	1.5308	.00004

System: 2-butanol, dl- + acetophenone; phases: Liquid
Fixed: Temperature, K = 298.15
Fixed: Pressure, kPa = 101
Property: Mass density, kg/m3 (Liquid); method: Vibrating tube method
Mole fraction of acetophenone	Mass density, kg/m3	uncertainty
0	802.56	.01
.1031	830.43	.01
.1635	846.12	.01
.2517	868.13	.01
.3422	889.8	.01
.4361	911.31	.01
.533	932.56	.01
.6461	956.27	.01
.7517	977.34	.01
.8675	999.34	.01
.9462	1013.72	.01
1	1023.3	.01

System: 2-butanol, dl- + acetophenone; phases: Liquid
Fixed: Temperature, K = 298.15
Fixed: Pressure, kPa = 101
Property: Viscosity, Pa*s (Liquid); method: Capillary tube (Ostwald; Ubbelohde) method
Mole fraction of acetophenone	Viscosity, Pa*s	uncertainty
0	.0031318	.00000002
.1031	.0023449	.00000002
.1635	.0020092	.00000002
.2517	.0017049	.00000002
.3422	.0015443	.00000002
.4361	.0014614	.00000002
.533	.0014601	.00000002
.6461	.0015063	.00000002
.7517	.0015616	.00000002
.8675	.0016167	.00000002
.9462	.0016497	.00000002
1	.001678	.00000002

System: 2-butanol, dl- + acetophenone; phases: Liquid
Fixed: Temperature, K = 298.15
Fixed: Pressure, kPa = 101
Property: Refractive index (Na D-line) (Liquid); method: Standard Abbe refractometry
Mole fraction of acetophenone	Refractive index (Na D-line)	uncertainty
0	1.3946	.00004
.1031	1.4255	.00004
.1635	1.4443	.00004
.2517	1.4669	.00004
.3422	1.4877	.00004
.4361	1.5044	.00004
.533	1.5189	.00004
.6461	1.5314	.00004
.7517	1.5367	.00004
.8675	1.5351	.00004
.9462	1.5336	.00004
1	1.5308	.00004

System: acetophenone + 2-pentanol; phases: Liquid
Fixed: Temperature, K = 298.15
Fixed: Pressure, kPa = 101
Property: Mass density, kg/m3 (Liquid); method: Vibrating tube method
Mole fraction of acetophenone	Mass density, kg/m3	uncertainty
0	805.24	.01
.0917	826.19	.01
.1629	842.36	.01
.2502	862.04	.01
.3416	882.41	.01
.4371	903.49	.01
.5387	925.71	.01
.6442	948.51	.01
.7547	972.08	.01
.8716	996.7	.01
.949	1012.77	.01
1	1023.3	.01

System: acetophenone + 2-pentanol; phases: Liquid
Fixed: Temperature, K = 298.15
Fixed: Pressure, kPa = 101
Property: Viscosity, Pa*s (Liquid); method: Capillary tube (Ostwald; Ubbelohde) method
Mole fraction of acetophenone	Viscosity, Pa*s	uncertainty
0	.0034785	.00000002
.0917	.0027668	.00000002
.1629	.002314	.00000002
.2502	.0018755	.00000002
.3416	.0016264	.00000002
.4371	.0015018	.00000002
.5387	.0014892	.00000002
.6442	.0015344	.00000002
.7547	.0016047	.00000002
.8716	.0016583	.00000002
.949	.001669	.00000002
1	.001678	.00000002

System: acetophenone + 2-pentanol; phases: Liquid
Fixed: Temperature, K = 298.15
Fixed: Pressure, kPa = 101
Property: Refractive index (Na D-line) (Liquid); method: Standard Abbe refractometry
Mole fraction of acetophenone	Refractive index (Na D-line)	uncertainty
0	1.4045	.00004
.0917	1.4627	.00004
.1629	1.4972	.00004
.2502	1.5257	.00004
.3416	1.5487	.00004
.4371	1.5642	.00004
.5387	1.5695	.00004
.6442	1.5674	.00004
.7547	1.5605	.00004
.8716	1.547	.00004
.949	1.539	.00004
1	1.5308	.00004

System: acetophenone + 2-heptanol; phases: Liquid
Fixed: Temperature, K = 298.15
Fixed: Pressure, kPa = 101
Property: Mass density, kg/m3 (Liquid); method: Vibrating tube method
Mole fraction of acetophenone	Mass density, kg/m3	uncertainty
0	813.33	.01
.0913	829.12	.01
.1631	841.87	.01
.2637	860.39	.01
.3425	875.43	.01
.4374	894.2	.01
.5387	915.07	.01
.6446	937.92	.01
.7571	963.35	.01
.8733	991.14	.01
.9542	1011.38	.01
1	1023.3	.01

System: acetophenone + 2-heptanol; phases: Liquid
Fixed: Temperature, K = 298.15
Fixed: Pressure, kPa = 101
Property: Viscosity, Pa*s (Liquid); method: Capillary tube (Ostwald; Ubbelohde) method
Mole fraction of acetophenone	Viscosity, Pa*s	uncertainty
0	.0053305	.00000002
.0913	.0042819	.00000002
.1631	.0035719	.00000002
.2637	.0027634	.00000002
.3425	.0022961	.00000002
.4374	.0019084	.00000002
.5387	.0016617	.00000002
.6446	.0015504	.00000002
.7571	.0015484	.00000002
.8733	.0016058	.00000002
.9542	.0016512	.00000002
1	.001678	.00000002

System: acetophenone + 2-heptanol; phases: Liquid
Fixed: Temperature, K = 298.15
Fixed: Pressure, kPa = 101
Property: Refractive index (Na D-line) (Liquid); method: Standard Abbe refractometry
Mole fraction of acetophenone	Refractive index (Na D-line)	uncertainty
0	1.4188	.00004
.0913	1.4489	.00004
.1631	1.4748	.00004
.2637	1.5079	.00004
.3425	1.5298	.00004
.4374	1.5535	.00004
.5387	1.5708	.00004
.6446	1.582	.00004
.7571	1.5816	.00004
.8733	1.5669	.00004
.9542	1.5486	.00004
1	1.5308	.00004

System: acetophenone + 2-hexanol; phases: Liquid
Fixed: Temperature, K = 298.15
Fixed: Pressure, kPa = 101
Property: Mass density, kg/m3 (Liquid); method: Vibrating tube method
Mole fraction of acetophenone	Mass density, kg/m3	uncertainty
0	810.14	.01
.0902	827.84	.01
.1678	843.27	.01
.2536	860.63	.01
.34	878.39	.01
.4382	898.86	.01
.5395	920.38	.01
.6451	943.23	.01
.75	966.34	.01
.8628	991.72	.01
.9511	1011.93	.01
1	1023.3	.01

System: acetophenone + 2-hexanol; phases: Liquid
Fixed: Temperature, K = 298.15
Fixed: Pressure, kPa = 101
Property: Viscosity, Pa*s (Liquid); method: Capillary tube (Ostwald; Ubbelohde) method
Mole fraction of acetophenone	Viscosity, Pa*s	uncertainty
0	.0041	.00000002
.0902	.0031929	.00000002
.1678	.0026581	.00000002
.2536	.0021599	.00000002
.34	.0018024	.00000002
.4382	.0015062	.00000002
.5395	.0013435	.00000002
.6451	.001273	.00000002
.75	.001313	.00000002
.8628	.0013995	.00000002
.9511	.0015564	.00000002
1	.001678	.00000002

System: acetophenone + 2-hexanol; phases: Liquid
Fixed: Temperature, K = 298.15
Fixed: Pressure, kPa = 101
Property: Refractive index (Na D-line) (Liquid); method: Standard Abbe refractometry
Mole fraction of acetophenone	Refractive index (Na D-line)	uncertainty
0	1.4116	.00004
.0902	1.4485	.00004
.1678	1.4782	.00004
.2536	1.5037	.00004
.34	1.5247	.00004
.4382	1.5425	.00004
.5395	1.5556	.00004
.6451	1.5615	.00004
.75	1.5593	.00004
.8628	1.5505	.00004
.9511	1.5394	.00004
1	1.5308	.00004
