Measured thermophysical data. Experimental Measurements and Correlations of Excess Molar Enthalpies for the Binary and Ternary Mixtures of (Cyclohexane, Tetrahydropyran, and Morpholine) or (Cyclohexane, 1,4-Dioxane, and Morpholine) at 308.15 K and Atmospheric Pressure
Source: J. Chem. Eng. Data, 2010, 10.1021/je9010097
Compound 1: tetrahydropyran, C5H10O, purity 99%
Compound 2: 1,4-oxazine, tetrahydro-, C4H9NO, purity 99%
Compound 3: dioxane, C4H8O2, purity 99%
Compound 4: cyclohexane, C6H12, purity 99%

System: cyclohexane + 1,4-oxazine, tetrahydro-; phases: Liquid
Fixed: Pressure, kPa = 101
Fixed: Temperature, K = 308.15
Property: Excess molar enthalpy (molar enthalpy of mixing), kJ/mol (Liquid); method: Flow calorimetry
Mole fraction of cyclohexane	Excess molar enthalpy (molar enthalpy of mixing), kJ/mol	uncertainty
.1	.612	.01836
.201	1.093	.03279
.3	1.482	.04446
.401	1.75	.0525
.5	1.865	.05595
.6	1.825	.05475
.7	1.641	.04923
.801	1.304	.03912
.9	.814	.02442

System: 1,4-oxazine, tetrahydro- + tetrahydropyran; phases: Liquid
Fixed: Pressure, kPa = 101
Fixed: Temperature, K = 308.15
Property: Excess molar enthalpy (molar enthalpy of mixing), kJ/mol (Liquid); method: Flow calorimetry
Mole fraction of tetrahydropyran	Excess molar enthalpy (molar enthalpy of mixing), kJ/mol	uncertainty
.101	.163	.00489
.199	.294	.00882
.3	.396	.01188
.401	.458	.01374
.501	.48	.0144
.6	.459	.01377
.702	.403	.01209
.8	.306	.00918
.899	.172	.00516

System: 1,4-oxazine, tetrahydro- + dioxane; phases: Liquid
Fixed: Pressure, kPa = 101
Fixed: Temperature, K = 308.15
Property: Excess molar enthalpy (molar enthalpy of mixing), kJ/mol (Liquid); method: Flow calorimetry
Mole fraction of dioxane	Excess molar enthalpy (molar enthalpy of mixing), kJ/mol	uncertainty
.108	.124	.00372
.201	.212	.00636
.303	.285	.00855
.403	.323	.00969
.506	.331	.00993
.6	.315	.00945
.703	.27	.0081
.803	.207	.00621
.905	.114	.00342

System: cyclohexane + 1,4-oxazine, tetrahydro- + tetrahydropyran; phases: Liquid
Fixed: Pressure, kPa = 101
Fixed: Temperature, K = 308.15
Property: Molar enthalpy of mixing with solvent, kJ/mol of 1,4-oxazine, tetrahydro- (Liquid); method: Flow calorimetry
Mole fraction of tetrahydropyran	Mole fraction of 1,4-oxazine, tetrahydro-	Molar enthalpy of mixing with solvent, kJ/mol of 1,4-oxazine, tetrahydro-	uncertainty
.719	.101	.251	.00753
.639	.201	.424	.01272
.56	.3	.529	.01587
.48	.4	.597	.01791
.399	.501	.638	.01914
.319	.601	.589	.01767
.24	.7	.53	.0159
.08	.8	.22	.0066
.449	.102	.418	.01254
.401	.2	.688	.02064
.351	.3	.841	.02523
.3	.401	.948	.02844
.25	.501	1.009	.03027
.2	.601	.974	.02922
.151	.701	.827	.02481
.1	.801	.611	.01833
.05	.9	.338	.01014
.18	.102	.632	.01896
.16	.2	1.028	.03084
.14	.3	1.259	.03777
.12	.401	1.374	.04122
.1	.5	1.432	.04296
.08	.601	1.397	.04191
.06	.703	1.149	.03447

System: cyclohexane + 1,4-oxazine, tetrahydro- + dioxane; phases: Liquid
Fixed: Pressure, kPa = 101
Fixed: Temperature, K = 308.15
Property: Molar enthalpy of mixing with solvent, kJ/mol of 1,4-oxazine, tetrahydro- (Liquid); method: Flow calorimetry
Mole fraction of dioxane	Mole fraction of 1,4-oxazine, tetrahydro-	Molar enthalpy of mixing with solvent, kJ/mol of 1,4-oxazine, tetrahydro-	uncertainty
.719	.101	.142	.00426
.637	.204	.227	.00681
.556	.305	.266	.00798
.477	.404	.285	.00855
.397	.504	.3	.009
.318	.605	.301	.00903
.237	.704	.267	.00801
.447	.105	.249	.00747
.399	.201	.403	.01209
.351	.298	.514	.01542
.298	.403	.587	.01761
.249	.502	.614	.01842
.198	.604	.577	.01731
.149	.702	.519	.01557
.099	.802	.423	.01269
.18	.101	.493	.01479
.16	.2	.828	.02484
.14	.304	1.022	.03066
.12	.402	1.152	.03456
.1	.501	1.188	.03564
.08	.603	1.134	.03402
.06	.701	1.005	.03015
