Measured thermophysical data. Electrical Conductivity and Phase Transitions of Calcium Nitrate + Ammonium Nitrate + Water Mixtures
Source: J. Chem. Eng. Data, 2010, 10.1021/je900927a
Compound 1: calcium nitrate, CaN2O6
Compound 2: nitric acid ammonium salt, H4N2O3
Compound 3: water, H2O

System: nitric acid ammonium salt + water + calcium nitrate; phases: Liquid
Fixed: Pressure, kPa = 101
Fixed: Mole fraction of calcium nitrate = 0
Fixed: Mole fraction of water = .8
Property: Electrical conductivity, S/m (Liquid); method: Direct current cell with electrodes
Temperature, K	Electrical conductivity, S/m	uncertainty
358.15	5.62	
358.15	5.616	
358.15	5.609	
358.05	5.599	
358.05	5.588	
357.85	5.579	
357.75	5.569	
357.65	5.559	
357.55	5.548	
357.45	5.537	
357.25	5.524	
357.15	5.511	
357.05	5.497	
356.85	5.484	
356.75	5.47	
356.65	5.457	
356.55	5.442	
356.35	5.429	
356.25	5.414	
356.15	5.399	
355.95	5.385	
355.85	5.371	
355.75	5.355	
355.65	5.34	
355.45	5.324	
355.35	5.31	
355.25	5.295	
355.05	5.28	
354.95	5.265	
354.75	5.249	
354.65	5.234	
354.55	5.221	
354.35	5.206	
354.25	5.19	
354.15	5.175	
353.95	5.162	
353.85	5.149	
353.75	5.133	
353.65	5.119	
353.55	5.109	
353.45	5.094	
353.25	5.08	
353.15	5.065	
353.05	5.052	
352.95	5.039	
352.85	5.025	
352.75	5.011	
352.55	4.997	
352.45	4.983	
352.35	4.97	
352.25	4.956	
352.15	4.943	
352.05	4.93	
351.95	4.916	
351.75	4.903	
351.65	4.895	
351.55	4.885	
351.45	4.89	
351.35	4.883	
351.25	4.862	
351.15	4.849	
351.05	4.836	
350.95	4.824	
350.85	4.811	
350.75	4.8	
350.55	4.786	
350.45	4.774	
350.35	4.763	
350.25	4.759	
350.15	4.766	
349.95	4.766	
349.85	4.755	
349.75	4.745	
349.65	4.737	
349.45	4.729	
349.35	4.716	
349.25	4.708	
349.15	4.697	
348.95	4.685	
348.85	4.672	
348.75	4.658	
348.65	4.645	
348.55	4.631	
348.35	4.626	
348.25	4.621	
348.15	4.608	
348.05	4.595	
347.85	4.582	
347.75	4.567	
347.65	4.554	
347.55	4.542	
347.45	4.529	
347.35	4.516	
347.25	4.504	
347.15	4.49	
347.05	4.478	
346.95	4.466	
346.85	4.454	
346.75	4.442	
346.65	4.429	
346.55	4.417	
346.45	4.404	
346.35	4.392	
346.25	4.38	
346.15	4.367	
346.05	4.356	
345.95	4.344	
345.85	4.331	
345.75	4.32	
345.65	4.308	
345.55	4.296	
345.45	4.284	
345.35	4.272	
345.25	4.26	
345.15	4.249	
345.05	4.237	
344.95	4.225	
344.85	4.214	
344.75	4.201	
344.65	4.191	
344.55	4.179	
344.45	4.167	
344.35	4.156	
344.25	4.145	
344.15	4.133	
344.05	4.122	
343.95	4.112	
343.85	4.099	
343.75	4.089	
343.65	4.077	
343.55	4.067	
343.55	4.057	
343.45	4.046	
343.35	4.036	
343.25	4.026	
343.15	4.015	
343.15	4.004	
343.05	3.994	
342.95	3.983	
342.85	3.973	
342.75	3.963	
342.65	3.951	
342.55	3.942	
342.45	3.93	
342.35	3.92	
342.25	3.91	
342.25	3.9	
342.15	3.89	
342.05	3.879	
341.95	3.869	
341.85	3.86	
341.75	3.849	
341.65	3.839	
341.55	3.829	
341.45	3.819	
341.35	3.809	
341.25	3.799	
341.15	3.79	
341.15	3.78	
340.95	3.77	
340.95	3.759	
340.85	3.75	
340.75	3.74	
340.65	3.73	
340.55	3.721	
340.45	3.711	
340.35	3.702	
340.25	3.692	
340.25	3.683	
340.15	3.674	
340.05	3.665	
339.95	3.656	
339.95	3.646	
339.85	3.638	
339.75	3.627	
339.65	3.618	
339.65	3.61	
339.55	3.601	
339.45	3.591	
339.35	3.582	
339.25	3.574	
339.15	3.563	
339.15	3.555	
339.05	3.546	
338.95	3.537	
338.85	3.529	
338.75	3.52	
338.75	3.511	
338.65	3.504	
338.55	3.495	
338.55	3.487	
338.45	3.479	
338.35	3.471	
338.35	3.463	
338.25	3.455	
338.15	3.446	
338.05	3.437	
337.95	3.428	
337.95	3.421	
337.85	3.411	
337.75	3.404	
337.65	3.395	
337.55	3.386	
337.45	3.378	
337.35	3.37	
337.35	3.361	
337.25	3.354	
337.15	3.345	
337.05	3.337	
337.05	3.33	
336.95	3.321	
336.85	3.313	
336.75	3.305	
336.75	3.298	
336.65	3.289	
336.55	3.282	
336.45	3.273	
336.45	3.267	
336.35	3.259	
336.25	3.25	
336.25	3.243	
336.15	3.236	
336.05	3.227	
335.95	3.221	
335.95	3.212	
335.85	3.205	
335.75	3.198	
335.75	3.19	
335.65	3.182	
335.55	3.176	
335.55	3.169	
335.45	3.161	
335.35	3.154	
335.35	3.146	
335.25	3.139	
335.15	3.132	
335.15	3.125	
335.05	3.118	
334.95	3.111	
334.95	3.104	
334.85	3.097	
334.75	3.09	
334.75	3.084	
334.65	3.076	
334.55	3.07	
334.55	3.062	
334.45	3.056	
334.35	3.049	
334.35	3.043	
334.25	3.036	
334.25	3.03	
334.15	3.023	
334.05	3.016	
334.05	3.009	
333.95	3.003	
333.85	2.996	
333.85	2.99	
333.75	2.983	
333.75	2.977	
333.65	2.971	
333.65	2.964	
333.55	2.958	
333.45	2.951	
333.45	2.945	
333.35	2.938	
333.25	2.932	
333.25	2.925	
333.15	2.919	
333.05	2.913	
333.05	2.906	
332.95	2.9	
332.85	2.893	
332.85	2.887	
332.75	2.88	
332.65	2.874	
332.65	2.868	
332.55	2.862	
332.45	2.856	
332.45	2.849	
332.35	2.843	
332.25	2.837	
332.15	2.829	
332.15	2.821	
332.05	2.815	
331.95	2.808	
331.95	2.802	
331.85	2.795	
331.75	2.789	
331.75	2.784	
331.65	2.776	
331.55	2.771	
331.45	2.765	
331.45	2.758	
331.35	2.753	
331.35	2.747	
331.25	2.741	
331.15	2.735	
331.05	2.725	
330.95	2.708	
330.75	2.683	
330.55	2.655	
330.25	2.624	
329.95	2.588	
329.55	2.552	
329.15	2.517	
328.85	2.481	
328.45	2.444	
328.05	2.409	
327.65	2.375	
327.35	2.342	
327.05	2.309	
326.65	2.278	
326.35	2.246	
325.95	2.216	
325.65	2.186	
325.25	2.157	
324.95	2.128	
324.55	2.1	
324.25	2.07	
323.95	2.044	
323.65	2.018	
323.35	1.992	
323.05	1.967	
322.75	1.942	
322.45	1.918	
322.15	1.895	
321.75	1.871	
321.55	1.848	
321.25	1.827	
320.95	1.807	
320.75	1.785	
320.55	1.765	
320.25	1.744	
319.95	1.724	
319.65	1.704	
319.45	1.685	
319.15	1.665	
318.85	1.646	
318.55	1.627	
318.35	1.608	
318.05	1.59	
317.85	1.572	
317.55	1.554	
317.35	1.537	
317.05	1.519	
316.85	1.503	
316.55	1.485	
316.35	1.469	
316.05	1.454	
315.85	1.438	
315.55	1.423	
315.35	1.408	
315.15	1.393	
314.95	1.378	
314.75	1.363	
314.55	1.35	
314.25	1.337	
314.05	1.323	
313.85	1.309	
313.65	1.296	
313.45	1.283	
313.25	1.271	
313.05	1.259	
312.85	1.247	
312.65	1.235	
312.45	1.224	
312.35	1.213	
312.15	1.204	
311.95	1.193	
311.85	1.184	
311.75	1.175	
311.55	1.165	
311.45	1.156	
311.25	1.147	
311.15	1.137	
310.95	1.129	
310.85	1.119	
310.65	1.11	
310.45	1.103	
310.35	1.093	
310.15	1.085	
310.05	1.076	
309.85	1.068	
309.75	1.06	
309.55	1.052	
309.45	1.044	
309.25	1.036	
309.15	1.028	
308.95	1.021	
308.85	1.013	
308.75	1.006	
308.65	.999	
308.45	.992	
308.35	.985	
308.25	.978	
308.15	.972	
307.95	.965	
307.85	.959	
307.75	.954	
307.65	.948	
307.55	.942	
307.45	.938	
307.35	.932	
307.25	.923	
307.15	.918	
307.05	.895	
306.95	.89	
306.75	.886	
306.65	.881	
306.55	.876	
306.55	.871	
306.45	.867	
306.35	.862	
306.25	.858	
306.15	.853	
306.05	.849	
305.95	.844	
305.85	.84	
305.75	.836	
305.75	.831	
305.65	.827	
305.55	.823	
305.45	.819	
305.35	.815	
305.25	.811	
305.15	.807	
305.05	.803	
305.05	.799	
304.95	.795	
304.85	.792	
304.75	.788	
304.65	.785	
304.65	.782	
304.55	.778	
304.55	.775	
304.45	.773	
304.35	.77	
304.35	.767	
304.25	.764	
304.15	.762	
304.15	.759	
304.05	.756	
303.95	.753	
303.95	.75	
303.85	.748	
303.75	.745	
303.75	.742	
303.65	.739	
303.65	.737	
303.55	.734	
303.45	.732	
303.45	.729	
303.35	.726	
303.35	.724	
303.25	.721	
303.25	.719	
303.15	.717	

System: nitric acid ammonium salt + water + calcium nitrate; phases: Liquid
Fixed: Pressure, kPa = 101
Fixed: Mole fraction of calcium nitrate = .1957
Fixed: Mole fraction of water = .7826
Property: Electrical conductivity, S/m (Liquid); method: Direct current cell with electrodes
Temperature, K	Electrical conductivity, S/m	uncertainty
359.65	6.646	
359.55	6.624	
359.45	6.602	
359.25	6.579	
359.15	6.555	
359.05	6.532	
358.95	6.509	
358.75	6.487	
358.65	6.463	
358.55	6.441	
358.45	6.418	
358.25	6.396	
358.15	6.373	
357.95	6.351	
357.85	6.329	
357.65	6.306	
357.55	6.284	
357.45	6.262	
357.25	6.241	
357.15	6.219	
356.95	6.198	
356.85	6.176	
356.75	6.154	
356.55	6.134	
356.45	6.113	
356.25	6.092	
356.15	6.071	
356.05	6.051	
355.95	6.03	
355.75	6.009	
355.65	5.99	
355.55	5.97	
355.45	5.95	
355.25	5.931	
355.15	5.911	
355.05	5.891	
354.85	5.872	
354.75	5.852	
354.55	5.833	
354.45	5.813	
354.35	5.793	
354.15	5.775	
354.05	5.755	
353.85	5.737	
353.75	5.716	
353.65	5.699	
353.45	5.68	
353.35	5.661	
353.25	5.642	
353.05	5.623	
352.95	5.605	
352.85	5.587	
352.65	5.569	
352.55	5.55	
352.45	5.532	
352.25	5.513	
352.15	5.496	
352.05	5.478	
351.85	5.46	
351.75	5.443	
351.65	5.425	
351.55	5.408	
351.45	5.391	
351.25	5.374	
351.15	5.357	
351.05	5.341	
350.95	5.324	
350.85	5.308	
350.65	5.291	
350.55	5.274	
350.45	5.258	
350.35	5.242	
350.25	5.225	
350.15	5.21	
350.05	5.193	
349.95	5.178	
349.85	5.162	
349.75	5.147	
349.65	5.131	
349.45	5.117	
349.35	5.101	
349.25	5.086	
349.15	5.071	
349.05	5.055	
348.95	5.039	
348.85	5.024	
348.75	5.009	
348.65	4.994	
348.55	4.979	
348.45	4.965	
348.35	4.951	
348.25	4.935	
348.05	4.921	
347.95	4.907	
347.85	4.893	
347.75	4.878	
347.65	4.863	
347.55	4.849	
347.45	4.836	
347.35	4.821	
347.25	4.807	
347.15	4.793	
347.05	4.779	
346.95	4.764	
346.85	4.751	
346.75	4.737	
346.65	4.723	
346.55	4.71	
346.45	4.696	
346.25	4.683	
346.15	4.669	
346.05	4.656	
345.95	4.642	
345.85	4.629	
345.75	4.616	
345.65	4.603	
345.55	4.589	
345.45	4.576	
345.35	4.564	
345.25	4.55	
345.25	4.537	
345.05	4.525	
344.95	4.512	
344.85	4.499	
344.75	4.486	
344.65	4.473	
344.55	4.46	
344.45	4.448	
344.35	4.436	
344.25	4.423	
344.15	4.411	
344.05	4.398	
343.95	4.386	
343.85	4.373	
343.75	4.361	
343.65	4.349	
343.55	4.336	
343.55	4.325	
343.45	4.313	
343.35	4.3	
343.25	4.289	
343.15	4.277	
343.05	4.265	
342.95	4.253	
342.85	4.241	
342.75	4.229	
342.65	4.219	
342.55	4.207	
342.55	4.195	
342.45	4.183	
342.35	4.172	
342.25	4.161	
342.15	4.149	
342.05	4.138	
341.95	4.127	
341.85	4.116	
341.75	4.105	
341.65	4.094	
341.55	4.082	
341.45	4.071	
341.35	4.06	
341.25	4.049	
341.15	4.038	
341.15	4.027	
341.05	4.017	
340.95	4.006	
340.85	3.995	
340.75	3.985	
340.65	3.974	
340.55	3.964	
340.45	3.953	
340.35	3.942	
340.35	3.932	
340.25	3.922	
340.15	3.911	
340.05	3.902	
339.95	3.892	
339.85	3.88	
339.85	3.87	
339.75	3.861	
339.65	3.851	
339.55	3.84	
339.45	3.83	
339.45	3.82	
339.35	3.811	
339.25	3.8	
339.15	3.79	
339.05	3.781	
339.05	3.772	
338.95	3.761	
338.85	3.751	
338.75	3.741	
338.65	3.732	
338.55	3.722	
338.45	3.712	
338.35	3.703	
338.25	3.693	
338.25	3.683	
338.15	3.674	
338.05	3.665	
337.95	3.656	
337.85	3.647	
337.85	3.637	
337.75	3.628	
337.65	3.619	
337.55	3.61	
337.45	3.601	
337.45	3.592	
337.35	3.583	
337.25	3.574	
337.15	3.565	
337.15	3.555	
337.05	3.547	
336.95	3.539	
336.95	3.529	
336.85	3.52	
336.75	3.512	
336.75	3.503	
336.65	3.495	
336.55	3.486	
336.45	3.477	
336.45	3.468	
336.35	3.46	
336.25	3.452	
336.15	3.443	
336.15	3.434	
336.05	3.426	
335.95	3.417	
335.85	3.41	
335.85	3.401	
335.75	3.393	
335.65	3.383	
335.55	3.374	
335.45	3.366	
335.45	3.359	
335.35	3.35	
335.25	3.342	
335.15	3.334	
335.05	3.326	
335.05	3.318	
334.95	3.31	
334.85	3.302	
334.75	3.294	
334.65	3.285	
334.65	3.278	
334.55	3.27	
334.45	3.262	
334.35	3.254	
334.35	3.246	
334.25	3.24	
334.15	3.232	
334.15	3.224	
334.05	3.218	
334.05	3.211	
333.95	3.204	
333.95	3.196	
333.85	3.19	
333.85	3.183	
333.75	3.176	
333.75	3.169	
333.65	3.163	
333.65	3.155	
333.55	3.149	
333.55	3.142	
333.45	3.136	
333.45	3.129	
333.35	3.121	
333.25	3.115	
333.25	3.109	
333.15	3.102	
333.05	3.096	
333.05	3.088	
332.95	3.082	
332.95	3.076	
332.85	3.07	
332.85	3.062	
332.75	3.056	
332.65	3.049	
332.65	3.044	
332.55	3.037	
332.55	3.031	
332.45	3.024	
332.35	3.019	
332.35	3.012	
332.25	3.005	
332.25	2.999	
332.15	2.993	
332.15	2.987	
332.05	2.975	
331.85	2.954	
331.65	2.928	
331.35	2.898	
331.05	2.866	
330.75	2.833	
330.45	2.798	
330.15	2.763	
329.85	2.729	
329.55	2.695	
329.25	2.661	
328.85	2.628	
328.55	2.595	
328.25	2.563	
327.85	2.533	
327.65	2.503	
327.35	2.473	
327.05	2.444	
326.75	2.414	
326.45	2.387	
326.15	2.359	
325.85	2.332	
325.55	2.305	
325.25	2.279	
324.95	2.253	
324.75	2.228	
324.45	2.203	
324.15	2.178	
323.95	2.155	
323.65	2.131	
323.35	2.109	
323.15	2.086	
322.85	2.064	
322.65	2.043	
322.35	2.021	
322.15	2	
321.85	1.98	
321.55	1.96	
321.35	1.941	
321.15	1.921	
320.95	1.902	
320.65	1.884	
320.45	1.865	
320.25	1.848	
320.05	1.83	
319.85	1.813	
319.55	1.796	
319.35	1.78	
319.15	1.764	
318.95	1.748	
318.75	1.733	
318.55	1.717	
318.35	1.703	
318.15	1.688	
317.95	1.674	
317.85	1.66	
317.65	1.646	
317.45	1.633	
317.35	1.619	
317.15	1.606	
316.95	1.593	
316.75	1.581	
316.65	1.568	
316.45	1.557	
316.25	1.544	
316.05	1.532	
315.95	1.521	
315.75	1.51	
315.55	1.499	
315.45	1.487	
315.25	1.476	
315.15	1.466	
315.05	1.456	
314.85	1.445	
314.75	1.436	
314.55	1.426	
314.45	1.416	
314.35	1.407	
314.15	1.397	
314.05	1.388	
313.95	1.378	
313.75	1.37	
313.65	1.362	
313.55	1.353	
313.35	1.345	
313.25	1.337	
313.15	1.328	
313.05	1.32	
312.85	1.312	
312.75	1.305	
312.65	1.297	
312.55	1.289	
312.45	1.282	
312.25	1.275	
312.15	1.267	
312.05	1.261	
311.95	1.253	
311.85	1.247	
311.75	1.24	
311.65	1.234	
311.55	1.226	
311.45	1.221	
311.35	1.214	
311.25	1.208	
311.15	1.202	
311.05	1.196	
310.95	1.191	
310.85	1.184	
310.75	1.178	
310.65	1.173	
310.55	1.168	
310.45	1.162	
310.35	1.157	
310.35	1.151	
310.25	1.146	
310.05	1.136	
309.95	1.132	
309.85	1.126	
309.75	1.122	
309.75	1.117	
309.65	1.112	
309.55	1.108	
309.45	1.103	
309.35	1.098	
309.35	1.094	
309.25	1.09	
309.15	1.086	
309.15	1.082	
309.05	1.078	
308.95	1.074	
308.95	1.07	
308.85	1.066	
308.85	1.062	
308.75	1.058	
308.65	1.054	
308.55	1.051	
308.55	1.048	
308.45	1.043	
308.45	1.04	
308.35	1.036	
308.25	1.033	
308.25	1.03	
308.15	1.026	
308.05	1.023	
308.05	1.02	
307.95	1.017	
307.95	1.013	
307.85	1.01	
307.85	1.007	
307.75	1.003	
307.65	1	
307.65	.998	
307.55	.994	
307.55	.992	
307.45	.989	
307.45	.986	
307.35	.984	
307.35	.981	
307.25	.978	
307.25	.975	
307.15	.974	
307.15	.971	
307.05	.968	
307.05	.965	
306.95	.963	
306.95	.96	
306.85	.959	
306.85	.956	
306.75	.954	
306.75	.952	
306.75	.95	
306.65	.947	
306.65	.945	
306.55	.943	
306.55	.941	
306.55	.939	
306.45	.937	
306.45	.935	
306.45	.933	
306.35	.931	
306.35	.928	
306.35	.927	
306.25	.925	
306.25	.923	
306.25	.921	
306.15	.919	
306.15	.919	
306.15	.91	
306.05	.908	
306.05	.906	
306.05	.905	
305.95	.903	
305.95	.902	
305.95	.9	
305.85	.899	
305.85	.897	
305.85	.896	
305.85	.894	
305.75	.892	
305.75	.891	
305.75	.89	
305.75	.888	
305.65	.887	
305.65	.885	
305.65	.884	
305.55	.883	
305.55	.881	
305.55	.88	
305.55	.879	

System: nitric acid ammonium salt + water + calcium nitrate; phases: Liquid
Fixed: Pressure, kPa = 101
Fixed: Mole fraction of calcium nitrate = .1905
Fixed: Mole fraction of water = .7619
Property: Electrical conductivity, S/m (Liquid); method: Direct current cell with electrodes
Temperature, K	Electrical conductivity, S/m	uncertainty
359.35	7.338	
359.25	7.313	
359.05	7.287	
358.95	7.261	
358.75	7.237	
358.65	7.212	
358.55	7.186	
358.35	7.161	
358.25	7.137	
358.05	7.112	
357.95	7.087	
357.75	7.063	
357.55	7.037	
357.45	7.013	
357.25	6.988	
357.15	6.965	
357.05	6.94	
356.85	6.916	
356.75	6.893	
356.55	6.87	
356.45	6.846	
356.35	6.823	
356.15	6.8	
356.05	6.777	
355.95	6.754	
355.75	6.732	
355.65	6.71	
355.55	6.691	
355.45	6.67	
355.35	6.648	
355.25	6.628	
355.05	6.606	
354.95	6.583	
354.85	6.562	
354.65	6.539	
354.55	6.52	
354.35	6.498	
354.25	6.475	
354.05	6.453	
353.95	6.433	
353.75	6.412	
353.65	6.391	
353.55	6.37	
353.45	6.35	
353.35	6.329	
353.15	6.309	
353.05	6.289	
352.95	6.269	
352.75	6.249	
352.65	6.228	
352.55	6.208	
352.45	6.188	
352.35	6.169	
352.15	6.15	
352.05	6.131	
351.95	6.111	
351.85	6.091	
351.75	6.074	
351.55	6.056	
351.45	6.037	
351.35	6.018	
351.25	6.001	
351.15	5.984	
351.05	5.966	
350.95	5.949	
350.85	5.931	
350.75	5.914	
350.65	5.897	
350.55	5.882	
350.45	5.864	
350.35	5.849	
350.25	5.832	
350.15	5.817	
350.05	5.801	
349.95	5.785	
349.95	5.77	
349.85	5.753	
349.75	5.738	
349.65	5.722	
349.55	5.707	
349.45	5.69	
349.35	5.675	
349.25	5.658	
349.15	5.644	
349.05	5.627	
348.95	5.613	
348.85	5.599	
348.75	5.583	
348.65	5.568	
348.55	5.554	
348.55	5.538	
348.45	5.524	
348.35	5.51	
348.25	5.494	
348.15	5.48	
348.05	5.466	
347.95	5.451	
347.85	5.437	
347.75	5.422	
347.65	5.408	
347.55	5.394	
347.45	5.38	
347.35	5.366	
347.25	5.352	
347.15	5.338	
347.05	5.324	
346.95	5.31	
346.85	5.296	
346.75	5.283	
346.65	5.269	
346.65	5.256	
346.55	5.242	
346.45	5.229	
346.35	5.216	
346.25	5.202	
346.15	5.189	
346.05	5.175	
345.95	5.162	
345.85	5.15	
345.75	5.136	
345.65	5.123	
345.65	5.111	
345.45	5.098	
345.45	5.085	
345.35	5.073	
345.25	5.059	
345.15	5.047	
345.05	5.034	
344.95	5.022	
344.85	5.009	
344.75	4.997	
344.65	4.984	
344.55	4.972	
344.45	4.959	
344.35	4.947	
344.25	4.935	
344.25	4.923	
344.15	4.911	
344.05	4.898	
343.95	4.886	
343.85	4.875	
343.75	4.862	
343.65	4.85	
343.55	4.838	
343.55	4.827	
343.45	4.815	
343.35	4.803	
343.25	4.791	
343.15	4.781	
343.15	4.769	
343.05	4.758	
342.95	4.746	
342.85	4.735	
342.75	4.724	
342.75	4.712	
342.65	4.701	
342.55	4.69	
342.45	4.679	
342.35	4.668	
342.35	4.656	
342.25	4.645	
342.15	4.634	
342.05	4.624	
341.95	4.612	
341.85	4.603	
341.85	4.59	
341.75	4.579	
341.65	4.569	
341.55	4.558	
341.45	4.547	
341.35	4.536	
341.25	4.525	
341.25	4.514	
341.15	4.504	
341.05	4.493	
340.95	4.483	
340.85	4.473	
340.75	4.462	
340.75	4.452	
340.65	4.442	
340.55	4.431	
340.45	4.421	
340.45	4.411	
340.35	4.402	
340.25	4.39	
340.15	4.38	
340.15	4.37	
340.05	4.36	
339.95	4.35	
339.95	4.34	
339.85	4.33	
339.75	4.321	
339.65	4.31	
339.65	4.3	
339.55	4.29	
339.45	4.281	
339.35	4.272	
339.35	4.262	
339.25	4.252	
339.15	4.242	
339.15	4.232	
339.05	4.223	
338.95	4.214	
338.95	4.205	
338.85	4.196	
338.75	4.187	
338.75	4.178	
338.65	4.168	
338.55	4.158	
338.55	4.148	
338.45	4.139	
338.35	4.13	
338.35	4.121	
338.25	4.112	
338.15	4.103	
338.05	4.094	
338.05	4.085	
337.95	4.076	
337.85	4.067	
337.75	4.058	
337.65	4.049	
337.65	4.04	
337.55	4.031	
337.45	4.022	
337.35	4.014	
337.35	4.005	
337.25	3.997	
337.15	3.988	
337.15	3.98	
337.05	3.97	
337.05	3.962	
336.95	3.953	
336.85	3.946	
336.85	3.937	
336.75	3.928	
336.65	3.919	
336.65	3.911	
336.55	3.902	
336.45	3.894	
336.35	3.886	
336.35	3.877	
336.25	3.869	
336.15	3.86	
336.15	3.852	
336.05	3.843	
335.95	3.835	
335.95	3.828	
335.85	3.819	
335.75	3.812	
335.75	3.803	
335.65	3.796	
335.55	3.788	
335.55	3.78	
335.45	3.772	
335.45	3.764	
335.35	3.757	
335.25	3.749	
335.25	3.741	
335.15	3.734	
335.15	3.727	
335.05	3.718	
335.05	3.711	
334.95	3.703	
334.85	3.696	
334.85	3.688	
334.75	3.681	
334.65	3.674	
334.65	3.665	
334.55	3.658	
334.45	3.651	
334.35	3.643	
334.35	3.636	
334.25	3.629	
334.15	3.62	
334.15	3.613	
334.05	3.607	
334.05	3.598	
333.95	3.591	
333.85	3.584	
333.75	3.575	
333.75	3.568	
333.65	3.562	
333.55	3.553	
333.55	3.547	
333.45	3.54	
333.45	3.533	
333.35	3.526	
333.35	3.519	
333.25	3.512	
333.25	3.504	
333.15	3.498	
333.05	3.49	
333.05	3.483	
332.95	3.476	
332.85	3.468	
332.75	3.452	
332.55	3.427	
332.35	3.394	
332.05	3.358	
331.75	3.319	
331.45	3.278	
331.15	3.238	
330.75	3.198	
330.45	3.159	
330.15	3.12	
329.85	3.083	
329.55	3.046	
329.25	3.009	
328.95	2.972	
328.55	2.937	
328.25	2.903	
327.95	2.869	
327.65	2.835	
327.35	2.801	
327.05	2.768	
326.75	2.736	
326.45	2.704	
326.15	2.673	
325.85	2.643	
325.55	2.613	
325.15	2.584	
324.95	2.556	
324.65	2.527	
324.35	2.5	
324.15	2.474	
323.85	2.448	
323.55	2.423	
323.35	2.399	
323.15	2.374	
322.85	2.349	
322.55	2.325	
322.35	2.302	
322.15	2.28	
321.85	2.258	
321.65	2.236	
321.35	2.215	
321.15	2.194	
320.95	2.173	
320.75	2.153	
320.55	2.133	
320.35	2.114	
320.05	2.096	
319.85	2.076	
319.65	2.057	
319.45	2.039	
319.25	2.021	
319.05	2.004	
318.85	1.986	
318.65	1.97	
318.45	1.953	
318.25	1.936	
318.05	1.92	
317.85	1.905	
317.65	1.889	
317.55	1.874	
317.35	1.86	
317.15	1.845	
316.95	1.829	
316.85	1.816	
316.65	1.802	
316.45	1.788	
316.25	1.775	
316.15	1.762	
315.95	1.749	
315.75	1.736	
315.65	1.723	
315.45	1.711	
315.35	1.699	
315.15	1.686	
315.05	1.676	
314.85	1.664	
314.75	1.652	
314.65	1.641	
314.45	1.631	
314.35	1.62	
314.25	1.61	
314.05	1.601	
313.95	1.59	
313.85	1.58	
313.65	1.57	
313.55	1.561	
313.45	1.551	
313.25	1.541	
313.15	1.532	
313.05	1.523	
312.85	1.514	
312.75	1.505	
312.65	1.497	
312.55	1.488	
312.45	1.48	
312.35	1.473	
312.25	1.464	
312.15	1.457	
312.05	1.45	
311.95	1.441	
311.85	1.434	
311.75	1.427	
311.65	1.42	
311.55	1.413	
311.45	1.405	
311.35	1.398	
311.25	1.391	
311.15	1.385	
310.95	1.372	
310.85	1.366	
310.75	1.359	
310.65	1.354	
310.55	1.348	
310.55	1.342	
310.45	1.336	
310.35	1.33	
310.25	1.325	
310.15	1.318	
310.05	1.314	
309.95	1.308	
309.85	1.302	
309.85	1.297	
309.75	1.291	
309.65	1.286	
309.55	1.281	
309.45	1.276	
309.45	1.271	
309.35	1.266	
309.25	1.262	
309.25	1.257	
309.15	1.252	
309.05	1.247	
308.95	1.243	
308.95	1.239	
308.85	1.234	
308.85	1.23	
308.75	1.225	
308.65	1.222	
308.65	1.217	
308.55	1.213	
308.45	1.209	
308.45	1.204	
308.35	1.2	
308.35	1.197	
308.25	1.194	
308.25	1.19	
308.15	1.186	
308.05	1.183	
308.05	1.179	
307.95	1.176	
307.95	1.172	
307.85	1.168	
307.85	1.165	
307.75	1.162	
307.75	1.159	
307.65	1.155	
307.55	1.152	
307.55	1.15	
307.45	1.146	
307.45	1.142	
307.35	1.14	
307.35	1.137	
307.25	1.133	
307.25	1.131	
307.15	1.128	
307.15	1.125	
307.05	1.122	
307.05	1.12	
307.05	1.117	
306.95	1.115	
306.95	1.112	
306.85	1.11	
306.85	1.107	
306.75	1.105	
306.75	1.102	
306.75	1.1	
306.65	1.097	
306.65	1.095	
306.55	1.092	
306.55	1.09	
306.55	1.088	
306.45	1.086	
306.45	1.083	
306.45	1.081	
306.35	1.079	
306.35	1.076	
306.35	1.075	
306.25	1.072	
306.25	1.07	
306.25	1.068	
306.15	1.066	
306.15	1.064	
306.15	1.061	
306.05	1.061	
306.05	1.058	
306.05	1.057	
305.95	1.054	
305.95	1.052	
305.95	1.051	
305.85	1.048	
305.85	1.047	
305.85	1.044	

System: nitric acid ammonium salt + water + calcium nitrate; phases: Liquid
Fixed: Pressure, kPa = 101
Fixed: Mole fraction of calcium nitrate = .1842
Fixed: Mole fraction of water = .7368
Property: Electrical conductivity, S/m (Liquid); method: Direct current cell with electrodes
Temperature, K	Electrical conductivity, S/m	uncertainty
359.85	8.634	
359.75	8.606	
359.65	8.579	
359.55	8.553	
359.45	8.526	
359.25	8.498	
359.15	8.471	
359.05	8.445	
358.85	8.416	
358.75	8.389	
358.65	8.361	
358.45	8.334	
358.35	8.306	
358.15	8.278	
358.05	8.251	
357.85	8.226	
357.75	8.201	
357.65	8.176	
357.45	8.149	
357.35	8.123	
357.25	8.098	
357.05	8.073	
356.95	8.047	
356.85	8.022	
356.65	7.998	
356.55	7.973	
356.45	7.947	
356.35	7.923	
356.15	7.898	
356.05	7.875	
355.95	7.852	
355.85	7.829	
355.75	7.808	
355.65	7.784	
355.55	7.763	
355.35	7.739	
355.25	7.716	
355.15	7.693	
355.05	7.668	
354.85	7.646	
354.75	7.622	
354.55	7.599	
354.45	7.576	
354.25	7.552	
354.15	7.53	
353.95	7.507	
353.85	7.483	
353.65	7.461	
353.55	7.437	
353.45	7.416	
353.35	7.394	
353.15	7.372	
353.05	7.35	
352.95	7.329	
352.85	7.31	
352.75	7.289	
352.65	7.267	
352.55	7.246	
352.35	7.226	
352.25	7.207	
352.15	7.187	
352.05	7.168	
351.95	7.148	
351.85	7.128	
351.75	7.108	
351.65	7.087	
351.55	7.067	
351.45	7.048	
351.25	7.028	
351.15	7.009	
351.05	6.991	
350.95	6.971	
350.85	6.951	
350.65	6.929	
350.55	6.911	
350.45	6.89	
350.35	6.871	
350.25	6.852	
350.15	6.832	
350.05	6.813	
349.85	6.794	
349.75	6.776	
349.65	6.757	
349.55	6.739	
349.45	6.72	
349.35	6.7	
349.25	6.683	
349.15	6.665	
349.05	6.647	
348.95	6.629	
348.85	6.611	
348.75	6.592	
348.65	6.575	
348.45	6.555	
348.35	6.538	
348.25	6.52	
348.15	6.502	
348.05	6.485	
347.95	6.468	
347.85	6.451	
347.75	6.434	
347.65	6.419	
347.55	6.402	
347.45	6.386	
347.35	6.37	
347.35	6.355	
347.25	6.338	
347.15	6.322	
347.05	6.304	
346.95	6.289	
346.85	6.271	
346.75	6.257	
346.65	6.239	
346.55	6.222	
346.45	6.206	
346.35	6.189	
346.25	6.173	
346.15	6.156	
346.05	6.141	
345.95	6.124	
345.85	6.109	
345.75	6.092	
345.65	6.077	
345.55	6.061	
345.45	6.047	
345.35	6.03	
345.25	6.015	
345.15	6	
345.05	5.985	
344.95	5.971	
344.85	5.955	
344.75	5.94	
344.65	5.926	
344.55	5.911	
344.45	5.895	
344.35	5.88	
344.25	5.865	
344.15	5.851	
344.05	5.837	
344.05	5.824	
343.95	5.81	
343.85	5.795	
343.75	5.78	
343.65	5.766	
343.55	5.751	
343.45	5.738	
343.45	5.724	
343.35	5.709	
343.25	5.694	
343.15	5.681	
343.05	5.667	
342.95	5.653	
342.85	5.639	
342.75	5.625	
342.65	5.611	
342.65	5.597	
342.55	5.585	
342.45	5.57	
342.35	5.558	
342.25	5.542	
342.15	5.529	
342.05	5.515	
342.05	5.502	
341.95	5.488	
341.85	5.475	
341.75	5.462	
341.65	5.449	
341.55	5.436	
341.45	5.424	
341.45	5.411	
341.35	5.399	
341.25	5.386	
341.15	5.375	
341.15	5.363	
341.05	5.35	
340.95	5.336	
340.85	5.324	
340.75	5.311	
340.65	5.298	
340.55	5.285	
340.45	5.274	
340.45	5.26	
340.35	5.247	
340.25	5.235	
340.15	5.222	
340.05	5.211	
339.95	5.198	
339.95	5.187	
339.85	5.174	
339.75	5.162	
339.65	5.152	
339.65	5.14	
339.55	5.128	
339.45	5.117	
339.35	5.095	
339.15	5.056	
338.85	5.003	
338.55	4.94	
338.05	4.873	
337.65	4.804	
337.15	4.732	
336.65	4.659	
336.25	4.588	
335.75	4.517	
335.25	4.447	
334.75	4.378	
334.25	4.309	
333.75	4.243	
333.25	4.178	
332.85	4.113	
332.35	4.051	
331.85	3.989	
331.45	3.928	
330.95	3.87	
330.55	3.812	
330.05	3.757	
329.65	3.702	
329.25	3.649	
328.85	3.598	
328.45	3.547	
328.05	3.498	
327.65	3.449	
327.25	3.402	
326.85	3.356	
326.45	3.311	
326.15	3.266	
325.75	3.222	
325.35	3.179	
325.05	3.138	
324.65	3.098	
324.35	3.06	
324.05	3.024	
323.75	2.989	
323.45	2.953	
323.15	2.917	
322.75	2.881	
322.45	2.846	
322.15	2.811	
321.85	2.779	
321.45	2.745	
321.25	2.713	
320.95	2.681	
320.65	2.649	
320.35	2.619	
320.05	2.588	
319.75	2.559	
319.45	2.529	
319.15	2.502	
318.85	2.473	
318.65	2.445	
318.35	2.418	
318.05	2.394	
317.85	2.367	
317.65	2.343	
317.35	2.319	
317.15	2.297	
316.95	2.276	
316.75	2.253	
316.45	2.233	
316.25	2.212	
316.05	2.191	
315.85	2.171	
315.65	2.15	
315.35	2.13	
315.15	2.11	
314.95	2.091	
314.75	2.072	
314.55	2.054	
314.35	2.035	
314.15	2.017	
314.05	2.001	
313.85	1.983	
313.65	1.966	
313.45	1.948	
313.25	1.932	
313.05	1.915	
312.85	1.898	
312.65	1.883	
312.45	1.867	
312.25	1.852	
312.15	1.838	
311.95	1.823	
311.85	1.809	
311.65	1.795	
311.45	1.782	
311.35	1.768	
311.15	1.756	
311.05	1.744	
310.85	1.73	
310.75	1.718	
310.55	1.706	
310.45	1.695	
310.25	1.684	
310.15	1.673	
310.05	1.661	
309.85	1.651	
309.75	1.641	
309.65	1.631	
309.55	1.621	
309.45	1.61	
309.25	1.601	
309.15	1.592	
309.05	1.582	
308.95	1.574	
308.85	1.563	
308.75	1.554	
308.55	1.545	
308.45	1.536	
308.35	1.527	
308.25	1.519	
308.15	1.51	
308.05	1.501	
307.95	1.494	
307.85	1.486	
307.75	1.48	
307.65	1.472	
307.55	1.465	
307.45	1.458	
307.35	1.451	
307.25	1.444	
307.15	1.437	
307.05	1.43	
306.95	1.423	
306.85	1.417	
306.75	1.41	
306.65	1.403	
306.55	1.396	
306.55	1.39	
306.45	1.383	
306.35	1.378	
306.25	1.372	
306.15	1.365	
306.05	1.36	
306.05	1.354	
305.95	1.347	
305.85	1.342	
305.75	1.337	
305.75	1.332	
305.65	1.326	
305.55	1.322	
305.55	1.317	
305.45	1.312	
305.35	1.308	
305.35	1.303	
305.25	1.298	
305.15	1.293	
305.15	1.289	
305.05	1.284	
304.95	1.28	
304.95	1.275	
304.85	1.271	
304.75	1.266	
304.75	1.262	
304.65	1.257	
304.55	1.253	

System: nitric acid ammonium salt + water + calcium nitrate; phases: Liquid
Fixed: Pressure, kPa = 101
Fixed: Mole fraction of calcium nitrate = .1765
Fixed: Mole fraction of water = .7059
Property: Electrical conductivity, S/m (Liquid); method: Direct current cell with electrodes
Temperature, K	Electrical conductivity, S/m	uncertainty
358.55	9.293	
358.45	9.269	
358.35	9.241	
358.25	9.215	
358.05	9.182	
357.95	9.153	
357.85	9.122	
357.65	9.094	
357.55	9.064	
357.35	9.034	
357.25	9.005	
357.05	8.977	
356.95	8.947	
356.85	8.917	
356.65	8.889	
356.55	8.862	
356.45	8.835	
356.35	8.808	
356.15	8.781	
356.05	8.755	
355.95	8.728	
355.85	8.7	
355.65	8.674	
355.55	8.644	
355.45	8.618	
355.25	8.589	
355.15	8.562	
354.95	8.534	
354.85	8.505	
354.65	8.479	
354.55	8.454	
354.35	8.426	
354.25	8.4	
354.15	8.374	
353.95	8.347	
353.85	8.322	
353.75	8.297	
353.55	8.273	
353.45	8.249	
353.35	8.225	
353.25	8.2	
353.15	8.177	
353.05	8.152	
352.95	8.128	
352.75	8.102	
352.65	8.077	
352.55	8.052	
352.35	8.029	
352.25	8.003	
352.15	7.979	
351.95	7.955	
351.85	7.931	
351.75	7.907	
351.65	7.883	
351.45	7.861	
351.35	7.835	
351.25	7.814	
351.15	7.789	
350.95	7.767	
350.85	7.743	
350.75	7.72	
350.65	7.698	
350.45	7.674	
350.35	7.653	
350.25	7.631	
350.15	7.609	
350.05	7.587	
349.95	7.566	
349.85	7.544	
349.75	7.524	
349.65	7.501	
349.55	7.481	
349.45	7.459	
349.35	7.437	
349.25	7.419	
349.15	7.397	
349.05	7.375	
348.85	7.354	
348.75	7.333	
348.65	7.312	
348.55	7.29	
348.45	7.268	
348.25	7.246	
348.15	7.228	
348.05	7.207	
347.95	7.186	
347.85	7.166	
347.65	7.147	
347.55	7.125	
347.45	7.105	
347.35	7.086	
347.25	7.067	
347.15	7.048	
347.05	7.027	
346.95	7.009	
346.85	6.991	
346.75	6.972	
346.65	6.954	
346.55	6.933	
346.45	6.915	
346.35	6.895	
346.25	6.875	
346.15	6.857	
346.05	6.84	
345.95	6.821	
345.85	6.801	
345.75	6.783	
345.65	6.763	
345.55	6.745	
345.35	6.727	
345.25	6.709	
345.25	6.692	
345.15	6.676	
345.05	6.66	
344.95	6.642	
344.85	6.626	
344.75	6.608	
344.65	6.59	
344.55	6.573	
344.45	6.555	
344.35	6.538	
344.25	6.521	
344.15	6.503	
344.05	6.485	
343.85	6.466	
343.75	6.449	
343.65	6.432	
343.55	6.414	
343.45	6.396	
343.35	6.38	
343.25	6.362	
343.15	6.346	
343.05	6.329	
342.95	6.313	
342.95	6.297	
342.85	6.281	
342.75	6.264	
342.65	6.249	
342.55	6.233	
342.45	6.217	
342.35	6.202	
342.35	6.187	
342.25	6.173	
342.15	6.159	
342.15	6.144	
342.05	6.128	
341.95	6.113	
341.85	6.097	
341.75	6.082	
341.65	6.065	
341.55	6.051	
341.45	6.035	
341.35	6.02	
341.25	6.003	
341.15	5.989	
341.05	5.972	
340.95	5.958	
340.85	5.941	
340.75	5.927	
340.65	5.911	
340.55	5.896	
340.45	5.882	
340.35	5.867	
340.25	5.853	
340.25	5.84	
340.15	5.826	
340.05	5.812	
339.95	5.799	
339.95	5.785	
339.85	5.771	
339.75	5.757	
339.65	5.742	
339.55	5.728	
339.45	5.713	
339.35	5.699	
339.35	5.684	
339.25	5.67	
339.15	5.656	
339.05	5.642	
338.95	5.627	
338.85	5.613	
338.75	5.6	
338.65	5.587	
338.55	5.573	
338.45	5.56	
338.45	5.547	
338.35	5.533	
338.25	5.521	
338.15	5.508	
338.15	5.495	
338.05	5.48	
337.95	5.468	
337.85	5.455	
337.75	5.441	
337.65	5.421	
337.45	5.382	
337.15	5.326	
336.85	5.259	
336.45	5.187	
335.95	5.111	
335.45	5.031	
334.95	4.951	
334.45	4.872	
333.95	4.794	
333.45	4.717	
333.05	4.643	
332.55	4.569	
332.05	4.502	
331.65	4.434	
331.15	4.369	
330.75	4.305	
330.35	4.243	
329.85	4.182	
329.45	4.121	
329.05	4.061	
328.65	4.001	
328.15	3.942	
327.75	3.884	
327.35	3.826	
326.95	3.772	
326.55	3.717	
326.15	3.663	
325.75	3.61	
325.35	3.559	
324.85	3.509	
324.55	3.461	
324.15	3.415	
323.85	3.371	
323.45	3.329	
323.15	3.288	
322.85	3.245	
322.55	3.207	
322.15	3.167	
321.85	3.128	
321.55	3.088	
321.25	3.051	
320.95	3.013	
320.65	2.976	
320.35	2.939	
319.95	2.903	
319.65	2.868	
319.35	2.833	
319.05	2.799	
318.75	2.766	
318.45	2.734	
318.15	2.703	
317.95	2.672	
317.65	2.642	
317.45	2.615	
317.15	2.587	
316.95	2.56	
316.65	2.535	
316.45	2.508	
316.15	2.482	
315.95	2.458	
315.75	2.432	
315.45	2.408	
315.25	2.383	
315.05	2.36	
314.85	2.337	
314.55	2.314	
314.35	2.292	
314.15	2.269	
313.95	2.247	
313.75	2.226	
313.45	2.204	
313.25	2.184	
313.05	2.165	
312.85	2.147	
312.75	2.128	
312.55	2.112	
312.35	2.095	
312.15	2.078	
312.05	2.061	
311.85	2.044	
311.65	2.028	
311.55	2.012	
311.35	1.994	
311.15	1.979	
311.05	1.963	
310.85	1.949	
310.65	1.932	
310.55	1.918	
310.35	1.904	
310.25	1.89	
310.05	1.877	
309.85	1.863	
309.75	1.851	
309.65	1.839	
309.45	1.828	
309.35	1.816	
309.25	1.806	
309.15	1.794	
309.05	1.783	
308.95	1.771	
308.75	1.76	
308.65	1.749	
308.55	1.738	
308.45	1.727	
308.25	1.716	
308.15	1.705	
308.05	1.695	
307.95	1.683	
307.75	1.673	
307.65	1.663	
307.55	1.652	
307.35	1.643	
307.25	1.633	
307.15	1.624	
307.05	1.615	
306.95	1.605	
306.75	1.596	
306.65	1.587	
306.55	1.579	
306.45	1.57	
306.45	1.562	
306.35	1.555	
306.25	1.548	
306.15	1.539	
306.05	1.532	
305.95	1.525	
305.85	1.517	
305.75	1.512	
305.75	1.504	
305.65	1.498	
305.55	1.491	
305.45	1.486	
305.45	1.48	
305.35	1.473	
305.25	1.467	
305.15	1.461	
305.05	1.454	
305.05	1.449	
304.95	1.441	
304.85	1.435	
304.75	1.429	
304.65	1.422	
304.55	1.416	
304.45	1.409	
304.45	1.404	
304.35	1.398	
304.25	1.391	
304.15	1.387	
304.15	1.381	
304.05	1.376	
303.95	1.372	
303.95	1.367	
303.85	1.362	
303.75	1.357	
303.75	1.353	
303.65	1.348	
303.65	1.343	
303.55	1.339	
303.45	1.334	
303.45	1.329	
303.35	1.325	

System: nitric acid ammonium salt + water + calcium nitrate; phases: Liquid
Fixed: Pressure, kPa = 101
Fixed: Mole fraction of calcium nitrate = .1667
Fixed: Mole fraction of water = .6667
Property: Electrical conductivity, S/m (Liquid); method: Direct current cell with electrodes
Temperature, K	Electrical conductivity, S/m	uncertainty
358.95	10.59	
358.85	10.57	
358.85	10.55	
358.75	10.52	
358.65	10.49	
358.55	10.46	
358.45	10.43	
358.35	10.4	
358.15	10.37	
358.05	10.34	
357.95	10.31	
357.85	10.28	
357.65	10.25	
357.55	10.21	
357.45	10.19	
357.25	10.16	
357.15	10.13	
357.05	10.1	
356.95	10.07	
356.75	10.04	
356.65	10.01	
356.55	9.98	
356.45	9.95	
356.25	9.92	
356.15	9.89	
356.05	9.86	
355.95	9.83	
355.75	9.8	
355.65	9.78	
355.45	9.75	
355.35	9.71	
355.25	9.69	
355.15	9.67	
355.05	9.64	
354.85	9.62	
354.75	9.58	
354.65	9.55	
354.55	9.53	
354.35	9.5	
354.25	9.48	
354.15	9.45	
353.95	9.42	
353.85	9.4	
353.75	9.37	
353.65	9.35	
353.55	9.32	
353.35	9.29	
353.25	9.27	
353.15	9.24	
353.05	9.22	
352.95	9.19	
352.85	9.17	
352.75	9.14	
352.55	9.12	
352.45	9.09	
352.35	9.07	
352.25	9.05	
352.15	9.02	
352.05	9	
351.95	8.98	
351.85	8.95	
351.75	8.93	
351.65	8.91	
351.55	8.887	
351.45	8.865	
351.35	8.841	
351.25	8.82	
351.15	8.797	
350.95	8.776	
350.85	8.753	
350.75	8.732	
350.65	8.71	
350.55	8.689	
350.45	8.667	
350.35	8.646	
350.25	8.625	
350.15	8.602	
350.05	8.58	
349.95	8.56	
349.85	8.538	
349.75	8.517	
349.65	8.495	
349.55	8.473	
349.45	8.452	
349.35	8.431	
349.25	8.41	
349.15	8.389	
349.05	8.367	
348.95	8.347	
348.85	8.326	
348.65	8.305	
348.55	8.285	
348.45	8.264	
348.35	8.244	
348.25	8.223	
348.15	8.203	
348.05	8.183	
347.95	8.164	
347.85	8.144	
347.75	8.125	
347.65	8.106	
347.55	8.088	
347.45	8.067	
347.35	8.048	
347.25	8.029	
347.15	8.011	
347.05	7.992	
346.95	7.972	
346.95	7.953	
346.85	7.935	
346.75	7.916	
346.65	7.897	
346.55	7.879	
346.45	7.861	
346.35	7.843	
346.25	7.824	
346.25	7.806	
346.15	7.788	
346.05	7.768	
345.95	7.752	
345.85	7.733	
345.75	7.715	
345.65	7.697	
345.55	7.68	
345.45	7.661	
345.35	7.643	
345.25	7.626	
345.15	7.609	
345.05	7.591	
344.95	7.574	
344.95	7.557	
344.85	7.54	
344.75	7.523	
344.65	7.506	
344.55	7.489	
344.45	7.472	
344.45	7.456	
344.35	7.438	
344.25	7.421	
344.15	7.405	
344.05	7.388	
343.95	7.372	
343.85	7.355	
343.75	7.339	
343.65	7.323	
343.65	7.307	
343.55	7.291	
343.45	7.273	
343.35	7.257	
343.25	7.242	
343.25	7.225	
343.15	7.21	
343.05	7.194	
342.95	7.178	
342.85	7.161	
342.75	7.146	
342.75	7.131	
342.65	7.115	
342.55	7.099	
342.45	7.084	
342.35	7.068	
342.35	7.054	
342.25	7.038	
342.15	7.023	
342.05	7.008	
341.95	6.992	
341.95	6.978	
341.85	6.963	
341.75	6.947	
341.65	6.933	
341.55	6.918	
341.45	6.903	
341.45	6.888	
341.35	6.874	
341.25	6.859	
341.15	6.844	
341.05	6.83	
341.05	6.817	
340.95	6.801	
340.85	6.787	
340.75	6.774	
340.65	6.759	
340.65	6.745	
340.55	6.731	
340.45	6.717	
340.35	6.703	
340.25	6.688	
340.25	6.675	
340.15	6.66	
340.05	6.647	
339.95	6.633	
339.95	6.62	
339.85	6.605	
339.75	6.592	
339.65	6.578	
339.65	6.566	
339.55	6.55	
339.45	6.538	
339.35	6.523	
339.35	6.51	
339.25	6.496	
339.15	6.482	
339.05	6.469	
338.95	6.456	
338.95	6.443	
338.85	6.43	
338.75	6.416	
338.65	6.403	
338.65	6.39	
338.55	6.377	
338.45	6.363	
338.35	6.351	
338.35	6.338	
338.25	6.324	
338.15	6.311	
338.05	6.298	
337.95	6.285	
337.95	6.273	
337.85	6.259	
337.75	6.247	
337.65	6.234	
337.65	6.222	
337.55	6.209	
337.45	6.198	
337.35	6.184	
337.35	6.172	
337.25	6.159	
337.15	6.147	
337.15	6.134	
337.05	6.122	
336.95	6.11	
336.85	6.098	
336.85	6.086	
336.75	6.074	
336.65	6.061	
336.65	6.049	
336.55	6.038	
336.45	6.025	
336.45	6.013	
336.35	6.002	
336.25	5.985	
336.15	5.95	
335.95	5.9	
335.65	5.839	
335.25	5.773	
334.85	5.7	
334.45	5.626	
334.05	5.552	
333.65	5.478	
333.25	5.403	
332.85	5.332	
332.35	5.26	
331.95	5.189	
331.55	5.122	
331.15	5.054	
330.75	4.987	
330.35	4.921	
329.95	4.858	
329.55	4.795	
329.25	4.734	
328.85	4.675	
328.45	4.618	
328.05	4.56	
327.65	4.505	
327.35	4.451	
326.95	4.397	
326.65	4.346	
326.35	4.294	
325.95	4.244	
325.65	4.194	
325.25	4.147	
324.95	4.1	
324.55	4.053	
324.25	4.008	
323.95	3.964	
323.65	3.919	
323.35	3.876	
323.05	3.835	
322.75	3.794	
322.45	3.755	
322.15	3.715	
321.85	3.677	
321.55	3.639	
321.25	3.602	
321.05	3.566	
320.75	3.53	
320.55	3.495	
320.25	3.46	
319.95	3.426	
319.75	3.392	
319.45	3.359	
319.15	3.327	
318.95	3.294	
318.65	3.263	
318.45	3.233	
318.25	3.202	
317.95	3.173	
317.75	3.144	
317.55	3.116	
317.35	3.088	
317.05	3.062	
316.85	3.035	
316.65	3.009	
316.45	2.983	
316.25	2.958	
316.05	2.933	
315.75	2.911	
315.55	2.887	
315.35	2.864	
315.25	2.841	
315.05	2.82	
314.85	2.798	
314.65	2.778	
314.55	2.757	
314.35	2.736	
314.15	2.717	
314.05	2.698	
313.85	2.677	
313.65	2.659	
313.55	2.64	
313.35	2.62	
313.15	2.603	
312.95	2.584	
312.85	2.567	
312.65	2.55	
312.55	2.533	
312.35	2.517	
312.25	2.5	
312.05	2.484	
311.95	2.468	
311.85	2.453	
311.65	2.437	
311.55	2.422	
311.35	2.407	
311.25	2.393	
311.15	2.378	
310.95	2.365	
310.85	2.35	
310.75	2.336	
310.65	2.324	
310.45	2.31	
310.35	2.297	
310.25	2.284	
310.15	2.271	
309.95	2.26	
309.85	2.247	
309.75	2.235	
309.65	2.223	
309.45	2.212	
309.35	2.2	
309.25	2.188	
309.15	2.176	
309.05	2.164	
308.95	2.155	
308.85	2.144	
308.75	2.133	
308.65	2.123	
308.55	2.112	
308.45	2.102	
308.35	2.092	
308.25	2.083	
308.15	2.072	
308.05	2.063	
307.95	2.053	
307.85	2.043	
307.75	2.035	
307.65	2.025	
307.55	2.016	
307.45	2.008	
307.35	1.999	
307.25	1.99	
307.15	1.981	
307.05	1.972	
307.05	1.963	
306.95	1.956	
306.85	1.947	
306.75	1.94	
306.65	1.932	
306.55	1.923	
306.45	1.916	
306.45	1.908	
306.35	1.901	
306.25	1.893	
306.25	1.887	
306.15	1.879	
306.05	1.873	
305.95	1.867	
305.95	1.86	
305.85	1.853	
305.75	1.847	
305.75	1.842	
305.65	1.836	
305.65	1.83	
305.55	1.825	
305.45	1.819	
305.45	1.813	
305.35	1.809	
305.35	1.803	
305.25	1.798	
305.25	1.793	
305.15	1.787	
305.15	1.782	
305.05	1.777	

System: nitric acid ammonium salt + water + calcium nitrate; phases: Liquid
Fixed: Pressure, kPa = 101
Fixed: Mole fraction of calcium nitrate = .1538
Fixed: Mole fraction of water = .6154
Property: Electrical conductivity, S/m (Liquid); method: Direct current cell with electrodes
Temperature, K	Electrical conductivity, S/m	uncertainty
358.85	12.273	
358.75	12.243	
358.65	12.203	
358.45	12.173	
358.35	12.133	
358.25	12.103	
358.05	12.063	
357.95	12.023	
357.85	11.993	
357.65	11.953	
357.55	11.913	
357.35	11.883	
357.25	11.843	
357.05	11.813	
356.95	11.773	
356.85	11.743	
356.75	11.713	
356.65	11.683	
356.45	11.643	
356.35	11.613	
356.25	11.583	
356.15	11.543	
355.95	11.513	
355.85	11.473	
355.65	11.443	
355.55	11.403	
355.45	11.373	
355.25	11.343	
355.15	11.313	
355.05	11.273	
354.85	11.243	
354.75	11.213	
354.55	11.183	
354.45	11.153	
354.35	11.123	
354.25	11.093	
354.15	11.063	
353.95	11.033	
353.85	11.003	
353.75	10.973	
353.65	10.943	
353.55	10.903	
353.35	10.883	
353.25	10.853	
353.15	10.823	
353.05	10.793	
352.85	10.763	
352.75	10.723	
352.65	10.693	
352.45	10.673	
352.35	10.643	
352.25	10.613	
352.15	10.583	
352.05	10.563	
351.95	10.533	
351.85	10.503	
351.75	10.473	
351.65	10.453	
351.45	10.423	
351.35	10.393	
351.25	10.363	
351.15	10.333	
351.05	10.303	
350.85	10.283	
350.75	10.253	
350.65	10.223	
350.55	10.203	
350.35	10.163	
350.25	10.143	
350.15	10.113	
350.05	10.093	
349.95	10.063	
349.85	10.033	
349.75	10.013	
349.65	9.983	
349.55	9.963	
349.45	9.933	
349.35	9.903	
349.25	9.883	
349.15	9.863	
349.05	9.833	
348.85	9.813	
348.75	9.783	
348.65	9.753	
348.55	9.733	
348.45	9.703	
348.35	9.673	
348.25	9.653	
348.05	9.633	
347.95	9.603	
347.85	9.583	
347.75	9.553	
347.65	9.533	
347.55	9.513	
347.45	9.493	
347.35	9.463	
347.25	9.443	
347.15	9.413	
347.05	9.393	
346.95	9.363	
346.85	9.343	
346.75	9.323	
346.65	9.293	
346.55	9.273	
346.45	9.253	
346.35	9.223	
346.25	9.203	
346.15	9.173	
346.05	9.153	
345.95	9.133	
345.85	9.113	
345.75	9.093	
345.65	9.073	
345.55	9.05	
345.45	9.02	
345.35	8.999	
345.35	8.978	
345.25	8.958	
345.15	8.935	
345.05	8.912	
344.85	8.892	
344.75	8.87	
344.65	8.849	
344.55	8.827	
344.45	8.806	
344.35	8.786	
344.25	8.764	
344.15	8.743	
344.05	8.722	
343.95	8.701	
343.85	8.683	
343.75	8.664	
343.65	8.644	
343.65	8.625	
343.55	8.607	
343.45	8.586	
343.35	8.567	
343.25	8.546	
343.25	8.525	
343.15	8.505	
343.05	8.486	
342.95	8.465	
342.85	8.446	
342.75	8.426	
342.65	8.405	
342.55	8.387	
342.45	8.367	
342.35	8.347	
342.25	8.327	
342.15	8.309	
342.05	8.292	
341.95	8.272	
341.95	8.255	
341.85	8.239	
341.75	8.219	
341.65	8.201	
341.55	8.182	
341.55	8.162	
341.45	8.144	
341.35	8.126	
341.25	8.105	
341.15	8.088	
341.05	8.07	
340.95	8.05	
340.85	8.032	
340.75	8.013	
340.65	7.997	
340.55	7.977	
340.45	7.96	
340.35	7.943	
340.25	7.926	
340.25	7.909	
340.15	7.892	
340.05	7.876	
340.05	7.859	
339.95	7.841	
339.85	7.823	
339.75	7.806	
339.65	7.788	
339.55	7.77	
339.55	7.753	
339.45	7.736	
339.35	7.716	
339.15	7.682	
338.95	7.622	
338.65	7.539	
338.25	7.449	
337.75	7.354	
337.35	7.254	
336.85	7.157	
336.45	7.058	
335.95	6.964	
335.55	6.871	
335.05	6.776	
334.55	6.686	
334.15	6.591	
333.65	6.499	
333.25	6.408	
332.75	6.319	
332.25	6.23	
331.85	6.145	
331.35	6.061	
330.85	5.977	
330.45	5.898	
330.05	5.817	
329.55	5.74	
329.15	5.665	
328.75	5.59	
328.35	5.517	
327.85	5.448	
327.55	5.38	
327.15	5.314	
326.75	5.249	
326.45	5.186	
326.05	5.125	
325.75	5.062	
325.35	5.001	
324.95	4.94	
324.65	4.883	
324.25	4.827	
323.95	4.769	
323.65	4.715	
323.35	4.661	
322.95	4.608	
322.65	4.556	
322.35	4.505	
321.95	4.458	
321.65	4.408	
321.35	4.36	
321.05	4.312	
320.75	4.266	
320.45	4.22	
320.25	4.175	
319.95	4.132	
319.65	4.089	
319.35	4.048	
319.05	4.009	
318.85	3.97	
318.55	3.934	
318.35	3.899	
318.15	3.864	
317.85	3.83	
317.65	3.794	
317.45	3.759	
317.15	3.725	
316.95	3.691	
316.75	3.657	
316.45	3.625	
316.25	3.593	
316.05	3.562	
315.75	3.531	
315.55	3.499	
315.35	3.471	
315.15	3.44	
314.95	3.41	
314.75	3.383	
314.55	3.355	
314.35	3.327	
314.15	3.301	
313.95	3.276	
313.75	3.249	
313.55	3.224	
313.35	3.2	
313.25	3.178	
313.05	3.156	
312.85	3.135	
312.65	3.113	
312.55	3.092	
312.35	3.071	
312.25	3.049	
312.05	3.028	
311.95	3.007	
311.75	2.985	
311.55	2.964	
311.45	2.943	
311.25	2.923	
311.05	2.902	
310.95	2.883	
310.75	2.863	
310.65	2.843	
310.45	2.825	
310.35	2.807	
310.15	2.789	
310.05	2.771	
309.85	2.756	
309.75	2.741	
309.65	2.727	
309.55	2.713	
309.45	2.699	
309.35	2.685	
309.25	2.671	
309.05	2.657	
308.95	2.642	
308.85	2.628	
308.75	2.614	
308.65	2.6	
308.55	2.585	
308.45	2.571	
308.25	2.558	
308.15	2.544	
308.05	2.531	
307.95	2.517	
307.85	2.506	
307.75	2.494	
307.65	2.482	
307.55	2.472	
307.45	2.461	
307.35	2.451	
307.25	2.441	
307.15	2.432	
307.15	2.422	
307.05	2.412	
306.95	2.401	
306.85	2.391	
306.75	2.382	
306.65	2.371	
306.55	2.361	
306.45	2.351	
306.35	2.341	
306.25	2.331	
306.25	2.321	
306.15	2.311	
306.05	2.303	
305.95	2.294	
305.95	2.286	
305.85	2.279	
305.75	2.271	
305.75	2.265	
305.65	2.257	
305.65	2.25	
305.55	2.244	
305.45	2.236	
305.45	2.23	
305.35	2.222	
305.25	2.215	
305.25	2.208	
305.15	2.2	
305.05	2.193	
305.05	2.186	
304.95	2.178	
304.85	2.171	
304.75	2.164	
304.75	2.158	
304.65	2.151	
304.65	2.145	

System: nitric acid ammonium salt + water + calcium nitrate; phases: Liquid
Fixed: Pressure, kPa = 101
Fixed: Mole fraction of calcium nitrate = .1364
Fixed: Mole fraction of water = .5455
Property: Electrical conductivity, S/m (Liquid); method: Direct current cell with electrodes
Temperature, K	Electrical conductivity, S/m	uncertainty
359.15	14.22	
359.05	14.19	
359.05	14.15	
358.95	14.11	
358.85	14.08	
358.75	14.04	
358.65	14	
358.55	13.97	
358.45	13.93	
358.35	13.9	
358.15	13.86	
358.05	13.83	
357.95	13.79	
357.85	13.75	
357.75	13.71	
357.65	13.68	
357.45	13.65	
357.35	13.61	
357.25	13.57	
357.05	13.54	
356.95	13.51	
356.85	13.47	
356.75	13.43	
356.55	13.4	
356.45	13.37	
356.35	13.33	
356.25	13.3	
356.15	13.26	
356.05	13.23	
355.85	13.19	
355.75	13.16	
355.65	13.13	
355.55	13.1	
355.45	13.06	
355.25	13.03	
355.15	13	
355.05	12.97	
354.95	12.93	
354.75	12.9	
354.65	12.87	
354.55	12.84	
354.45	12.8	
354.25	12.77	
354.15	12.74	
354.05	12.71	
353.85	12.68	
353.75	12.64	
353.65	12.61	
353.55	12.58	
353.35	12.55	
353.25	12.52	
353.15	12.49	
352.95	12.45	
352.85	12.43	
352.75	12.39	
352.65	12.36	
352.55	12.33	
352.45	12.3	
352.35	12.27	
352.25	12.24	
352.15	12.21	
352.05	12.18	
351.95	12.16	
351.85	12.13	
351.75	12.1	
351.65	12.07	
351.55	12.04	
351.35	12.01	
351.25	11.99	
351.15	11.96	
351.05	11.93	
350.95	11.9	
350.85	11.88	
350.75	11.85	
350.65	11.82	
350.55	11.79	
350.45	11.77	
350.35	11.74	
350.25	11.71	
350.15	11.69	
350.05	11.66	
350.05	11.63	
349.95	11.61	
349.85	11.58	
349.75	11.55	
349.65	11.52	
349.55	11.5	
349.45	11.48	
349.35	11.45	
349.25	11.42	
349.15	11.4	
349.05	11.37	
348.95	11.35	
348.85	11.32	
348.75	11.29	
348.65	11.27	
348.55	11.24	
348.35	11.22	
348.25	11.19	
348.15	11.17	
348.05	11.14	
347.95	11.12	
347.85	11.09	
347.75	11.07	
347.65	11.04	
347.55	11.02	
347.45	11	
347.35	10.97	
347.25	10.95	
347.15	10.92	
347.05	10.9	
347.05	10.88	
346.95	10.85	
346.85	10.83	
346.75	10.8	
346.65	10.78	
346.55	10.76	
346.55	10.74	
346.45	10.71	
346.35	10.69	
346.25	10.67	
346.15	10.64	
346.05	10.62	
345.95	10.59	
345.95	10.58	
345.85	10.55	
345.75	10.53	
345.65	10.51	
345.55	10.49	
345.45	10.46	
345.35	10.44	
345.25	10.42	
345.15	10.39	
345.05	10.37	
344.95	10.35	
344.75	10.32	
344.75	10.3	
344.55	10.28	
344.45	10.25	
344.35	10.23	
344.25	10.21	
344.15	10.18	
344.05	10.16	
343.95	10.14	
343.85	10.12	
343.75	10.1	
343.65	10.08	
343.55	10.05	
343.55	10.02	
343.45	10	
343.35	9.982	
343.25	9.96	
343.15	9.939	
343.05	9.918	
342.95	9.896	
342.85	9.875	
342.75	9.854	
342.75	9.833	
342.65	9.808	
342.55	9.787	
342.45	9.769	
342.35	9.748	
342.25	9.723	
342.15	9.705	
342.05	9.68	
341.95	9.662	
341.85	9.641	
341.85	9.62	
341.75	9.602	
341.65	9.574	
341.55	9.556	
341.45	9.535	
341.35	9.517	
341.25	9.496	
341.15	9.475	
341.05	9.457	
340.95	9.436	
340.85	9.414	
340.85	9.397	
340.75	9.375	
340.65	9.358	
340.55	9.336	
340.45	9.319	
340.35	9.294	
340.35	9.28	
340.25	9.258	
340.15	9.233	
340.05	9.219	
340.05	9.202	
339.95	9.18	
339.85	9.032	
339.75	9.014	
339.65	8.994	
339.65	8.975	
339.55	8.958	
339.45	8.927	
339.25	8.866	
338.85	8.779	
338.45	8.677	
338.05	8.566	
337.55	8.453	
337.05	8.34	
336.55	8.226	
336.15	8.114	
335.65	8.003	
335.15	7.891	
334.65	7.783	
334.05	7.676	
333.65	7.573	
333.15	7.47	
332.75	7.372	
332.25	7.274	
331.75	7.18	
331.35	7.088	
330.85	6.999	
330.45	6.914	
330.05	6.829	
329.65	6.749	
329.35	6.67	
328.95	6.594	
328.55	6.517	
328.15	6.441	
327.75	6.365	
327.35	6.29	
327.05	6.216	
326.65	6.141	
326.25	6.07	
325.85	5.998	
325.55	5.929	
325.15	5.86	
324.75	5.792	
324.45	5.727	
324.05	5.663	
323.75	5.602	
323.45	5.542	
323.15	5.486	
322.85	5.432	
322.55	5.38	
322.25	5.328	
321.95	5.275	
321.65	5.223	
321.35	5.17	
321.05	5.118	
320.75	5.064	
320.55	5.014	
320.25	4.965	
319.95	4.916	
319.65	4.868	
319.35	4.82	
319.05	4.775	
318.75	4.729	
318.55	4.687	
318.25	4.643	
318.05	4.6	
317.85	4.56	
317.55	4.522	
317.35	4.484	
317.15	4.448	
316.95	4.412	
316.75	4.377	
316.55	4.342	
316.25	4.306	
316.05	4.27	
315.85	4.235	
315.55	4.198	
315.35	4.162	
315.15	4.128	
314.95	4.094	
314.75	4.061	
314.55	4.028	
314.35	3.996	
314.15	3.964	
313.85	3.933	
313.65	3.902	
313.45	3.873	
313.35	3.845	
313.15	3.818	
312.95	3.793	
312.75	3.767	
312.65	3.741	
312.45	3.716	
312.25	3.691	
312.15	3.665	
311.95	3.639	
311.75	3.614	
311.65	3.588	
311.45	3.563	
311.25	3.539	
311.05	3.514	
310.95	3.49	
310.75	3.467	
310.55	3.443	
310.45	3.42	
310.25	3.398	
310.15	3.376	
309.95	3.356	
309.85	3.336	
309.65	3.317	
309.55	3.298	
309.45	3.28	
309.25	3.262	
309.15	3.244	
309.05	3.225	
308.95	3.207	
308.75	3.188	
308.65	3.169	
308.55	3.151	
308.35	3.134	
308.25	3.116	
308.15	3.099	
308.05	3.083	
307.85	3.066	
307.75	3.051	
307.65	3.035	
307.55	3.02	
307.45	3.006	
307.35	2.991	
307.25	2.978	
307.15	2.964	
307.05	2.951	
306.95	2.938	
306.85	2.925	
306.75	2.911	
306.65	2.898	
306.55	2.886	
306.45	2.873	
306.35	2.861	
306.25	2.847	
306.15	2.834	
306.05	2.822	
305.95	2.81	
305.85	2.798	
305.75	2.785	
305.65	2.775	
305.55	2.763	
305.55	2.753	
305.45	2.744	
305.35	2.735	
305.35	2.726	
305.25	2.717	
305.15	2.708	

System: nitric acid ammonium salt + water + calcium nitrate; phases: Liquid
Fixed: Pressure, kPa = 101
Fixed: Mole fraction of calcium nitrate = .2222
Fixed: Mole fraction of water = .5556
Property: Electrical conductivity, S/m (Liquid); method: Direct current cell with electrodes
Temperature, K	Electrical conductivity, S/m	uncertainty
359.05	4.697	
359.05	4.674	
358.95	4.652	
358.85	4.629	
358.65	4.606	
358.55	4.583	
358.45	4.559	
358.25	4.536	
358.15	4.513	
357.95	4.491	
357.85	4.469	
357.65	4.447	
357.55	4.424	
357.45	4.403	
357.25	4.382	
357.15	4.361	
357.05	4.34	
356.85	4.318	
356.75	4.298	
356.65	4.277	
356.45	4.257	
356.35	4.236	
356.15	4.215	
356.05	4.196	
355.95	4.174	
355.75	4.155	
355.65	4.135	
355.55	4.116	
355.35	4.097	
355.25	4.076	
355.05	4.058	
354.95	4.039	
354.85	4.02	
354.65	4.001	
354.55	3.981	
354.35	3.963	
354.25	3.943	
354.05	3.925	
353.95	3.907	
353.75	3.89	
353.65	3.87	
353.55	3.852	
353.45	3.835	
353.25	3.817	
353.15	3.799	
353.05	3.783	
352.95	3.766	
352.75	3.749	
352.65	3.732	
352.55	3.716	
352.45	3.699	
352.35	3.682	
352.15	3.665	
352.05	3.648	
351.95	3.632	
351.75	3.616	
351.65	3.598	
351.55	3.583	
351.35	3.566	
351.25	3.551	
351.05	3.534	
350.95	3.517	
350.75	3.502	
350.65	3.486	
350.55	3.47	
350.35	3.454	
350.25	3.439	
350.15	3.423	
350.05	3.407	
349.85	3.392	
349.75	3.378	
349.65	3.362	
349.55	3.348	
349.45	3.333	
349.35	3.318	
349.15	3.303	
349.05	3.289	
348.95	3.275	
348.85	3.259	
348.75	3.245	
348.55	3.231	
348.45	3.218	
348.35	3.204	
348.25	3.189	
348.15	3.176	
348.05	3.162	
347.95	3.148	
347.75	3.135	
347.65	3.121	
347.55	3.107	
347.45	3.094	
347.25	3.082	
347.15	3.068	
347.05	3.055	
346.95	3.042	
346.85	3.029	
346.75	3.017	
346.65	3.004	
346.55	2.99	
346.45	2.978	
346.35	2.965	
346.25	2.953	
346.05	2.941	
345.95	2.928	
345.85	2.915	
345.75	2.904	
345.65	2.892	
345.55	2.881	
345.45	2.87	
345.45	2.857	
345.35	2.846	
345.15	2.834	
345.05	2.822	
344.95	2.81	
344.85	2.798	
344.75	2.787	
344.65	2.776	
344.55	2.763	
344.45	2.753	
344.35	2.741	
344.15	2.729	
344.05	2.718	
343.95	2.707	
343.85	2.695	
343.75	2.685	
343.65	2.674	
343.55	2.663	
343.45	2.651	
343.35	2.641	
343.25	2.63	
343.15	2.619	
343.05	2.609	
342.95	2.598	
342.85	2.588	
342.75	2.578	
342.65	2.567	
342.55	2.557	
342.45	2.546	
342.35	2.535	
342.25	2.526	
342.15	2.515	
342.05	2.505	
341.95	2.495	
341.85	2.485	
341.75	2.475	
341.65	2.465	
341.55	2.456	
341.45	2.446	
341.35	2.436	
341.35	2.427	
341.25	2.417	
341.15	2.408	
341.05	2.398	
340.95	2.39	
340.85	2.381	
340.75	2.371	
340.65	2.363	
340.65	2.355	
340.55	2.345	
340.45	2.335	
340.35	2.325	
340.25	2.317	
340.15	2.307	
340.05	2.299	
339.95	2.289	
339.85	2.281	
339.75	2.272	
339.75	2.264	
339.65	2.254	
339.55	2.245	
339.45	2.237	
339.35	2.229	
339.25	2.22	
339.15	2.212	
339.05	2.204	
339.05	2.195	
338.95	2.186	
338.85	2.178	
338.75	2.17	
338.65	2.161	
338.55	2.154	
338.45	2.146	
338.35	2.137	
338.25	2.13	
338.25	2.121	
338.15	2.114	
338.05	2.106	
337.95	2.097	
337.85	2.089	
337.75	2.082	
337.65	2.074	
337.65	2.066	
337.55	2.059	
337.45	2.051	
337.35	2.043	
337.25	2.035	
337.15	2.028	
337.15	2.021	
337.05	2.012	
336.95	2.005	
336.85	1.998	
336.75	1.99	
336.75	1.983	
336.65	1.976	
336.55	1.968	
336.45	1.961	
336.45	1.954	
336.35	1.947	
336.25	1.94	
336.15	1.933	
336.15	1.926	
336.05	1.918	
335.95	1.911	
335.85	1.905	
335.85	1.898	
335.75	1.891	
335.65	1.884	
335.55	1.877	
335.45	1.87	
335.45	1.864	
335.35	1.857	
335.25	1.851	
335.15	1.843	
335.05	1.837	
334.95	1.83	
334.95	1.824	
334.85	1.817	
334.75	1.81	
334.65	1.803	
334.65	1.798	
334.55	1.791	
334.45	1.784	
334.35	1.779	
334.35	1.773	
334.25	1.766	
334.15	1.758	
334.05	1.748	
333.95	1.74	
333.85	1.733	
333.85	1.726	
333.75	1.72	
333.65	1.714	
333.55	1.707	
333.55	1.701	
333.45	1.695	
333.35	1.689	
333.25	1.683	
333.25	1.677	
333.15	1.673	
333.05	1.667	
333.05	1.659	
332.95	1.655	
332.85	1.65	
332.85	1.645	
332.75	1.638	
332.65	1.633	
332.65	1.628	
332.55	1.623	
332.45	1.617	
332.35	1.611	
332.35	1.606	
332.25	1.6	
332.15	1.594	
332.15	1.589	
332.05	1.583	
331.95	1.578	
331.95	1.573	
331.85	1.568	
331.75	1.563	
331.65	1.557	
331.65	1.552	
331.55	1.547	
331.45	1.542	
331.45	1.536	
331.35	1.53	
331.25	1.525	
331.25	1.52	
331.15	1.516	
331.05	1.511	
331.05	1.505	
330.95	1.5	
330.85	1.495	
330.85	1.491	
330.75	1.485	
330.65	1.477	
330.55	1.467	
330.45	1.452	
330.25	1.435	
329.95	1.416	
329.75	1.393	
329.45	1.369	
329.15	1.347	
328.75	1.321	
328.45	1.296	
328.05	1.271	
327.75	1.247	
327.45	1.224	
327.05	1.2	
326.75	1.176	
326.45	1.153	
326.05	1.129	
325.65	1.106	
325.35	1.083	
324.95	1.06	
324.55	1.039	
324.25	1.02	
323.95	1.001	
323.65	.981	
323.35	.961	
322.95	.941	
322.65	.923	
322.25	.897	
321.95	.879	
321.65	.862	
321.35	.846	
321.05	.83	
320.75	.814	
320.45	.799	
320.15	.784	
319.85	.77	
319.65	.756	
319.35	.742	
319.05	.729	
318.75	.717	
318.55	.705	
318.35	.694	
318.05	.683	
317.85	.672	
317.65	.661	
317.45	.651	
317.15	.641	
316.95	.631	
316.75	.621	
316.45	.611	
316.25	.602	
316.05	.592	
315.75	.583	
315.55	.574	
315.35	.565	
315.15	.556	
314.95	.548	
314.75	.54	
314.55	.533	
314.35	.526	
314.25	.519	
314.05	.512	
313.85	.506	
313.75	.499	
313.55	.493	
313.35	.487	
313.15	.481	
313.05	.474	
312.85	.468	
312.65	.462	
312.45	.456	
312.25	.45	
312.15	.445	
311.95	.439	
311.85	.433	
311.65	.428	
311.45	.422	
311.35	.417	
311.15	.411	
311.05	.406	
310.85	.401	
310.75	.397	
310.55	.392	
310.45	.388	
310.35	.384	
310.15	.38	
310.05	.376	
309.85	.372	
309.75	.368	
309.65	.364	
309.45	.36	
309.35	.356	
309.25	.352	
309.15	.348	
308.95	.345	
308.85	.341	
308.75	.337	
308.65	.334	
308.45	.33	
308.35	.327	
308.25	.324	
308.15	.32	
308.05	.317	
307.95	.315	
307.85	.312	
307.75	.309	
307.65	.306	
307.55	.304	
307.45	.301	
307.35	.299	
307.25	.297	
307.15	.294	
307.05	.292	
306.95	.289	
306.85	.287	
306.75	.285	
306.65	.282	
306.55	.28	
306.45	.278	
306.35	.275	
306.25	.273	
306.15	.271	
306.15	.269	
306.05	.267	
305.95	.265	
305.85	.263	
305.85	.261	
305.75	.259	
305.65	.258	
305.65	.256	
305.55	.254	
305.45	.253	
305.35	.251	
305.35	.249	
305.25	.248	
305.15	.246	
305.05	.244	
305.05	.243	
304.95	.241	
304.85	.239	
304.75	.238	
304.75	.236	
304.65	.235	
304.65	.234	
304.55	.232	
304.45	.231	
304.45	.23	
304.35	.228	
304.35	.227	
304.25	.226	
304.15	.225	
304.15	.223	
304.05	.222	
304.05	.221	
303.95	.22	
303.85	.219	
303.85	.217	
303.75	.216	
303.65	.215	
303.65	.214	
303.55	.213	
303.55	.212	
303.45	.21	
303.45	.209	
303.35	.209	
303.35	.207	
303.35	.206	
303.25	.206	
303.25	.205	
303.25	.204	
303.15	.203	
303.15	.202	
303.05	.201	
303.05	.2	
302.95	.2	
302.95	.199	
302.85	.198	
302.85	.197	
302.85	.196	
302.75	.195	
302.75	.195	
302.65	.194	
302.65	.193	
302.65	.192	
302.55	.191	
302.55	.191	
302.55	.19	
302.45	.189	
302.45	.189	
302.45	.188	
302.35	.187	
302.35	.187	
302.35	.186	
302.25	.186	
302.25	.185	
302.15	.184	
302.15	.184	
302.15	.183	
302.05	.183	
302.05	.182	
302.05	.181	
301.95	.181	
301.95	.18	
301.95	.179	
301.95	.179	
301.85	.178	
301.85	.178	
301.85	.177	
301.85	.177	
301.75	.177	
301.75	.176	
301.75	.176	
301.75	.175	
301.65	.175	
301.65	.174	
301.65	.174	
301.55	.173	
301.55	.173	
301.55	.172	
301.45	.172	
301.45	.171	
301.45	.171	
301.45	.171	
301.35	.17	
301.35	.17	
301.35	.169	
301.35	.169	
301.35	.169	
301.35	.168	
301.25	.168	
301.25	.168	
301.25	.167	
301.25	.167	
301.15	.167	
301.15	.166	
301.15	.166	
301.15	.166	
301.15	.165	
301.05	.165	
301.05	.164	
301.05	.164	
300.95	.164	
300.95	.163	
300.95	.163	
300.95	.163	
300.95	.162	
300.95	.162	
300.85	.162	
300.85	.161	
300.85	.161	
300.85	.161	
300.85	.161	
300.85	.161	
300.75	.16	
300.75	.16	
300.75	.16	
300.75	.159	
300.75	.159	
300.75	.159	
300.65	.159	
300.65	.158	
300.65	.158	
300.65	.158	
300.65	.157	
300.65	.157	
300.55	.157	
300.55	.157	
300.55	.156	
300.55	.156	
300.55	.156	
300.55	.156	
300.55	.155	
300.55	.155	
300.55	.155	
300.45	.155	
300.45	.155	
300.45	.155	
300.45	.154	

System: nitric acid ammonium salt + water + calcium nitrate; phases: Liquid
Fixed: Pressure, kPa = 101
Fixed: Mole fraction of calcium nitrate = .2
Fixed: Mole fraction of water = .6
Property: Electrical conductivity, S/m (Liquid); method: Direct current cell with electrodes
Temperature, K	Electrical conductivity, S/m	uncertainty
359.75	6.707	
359.65	6.685	
359.55	6.66	
359.45	6.633	
359.25	6.606	
359.15	6.58	
359.05	6.553	
358.85	6.526	
358.75	6.497	
358.55	6.471	
358.45	6.441	
358.35	6.416	
358.15	6.39	
358.05	6.363	
357.85	6.335	
357.75	6.31	
357.55	6.284	
357.45	6.258	
357.25	6.234	
357.05	6.208	
356.95	6.183	
356.85	6.158	
356.65	6.134	
356.55	6.111	
356.45	6.083	
356.25	6.06	
356.15	6.036	
356.05	6.012	
355.85	5.988	
355.75	5.964	
355.55	5.94	
355.45	5.917	
355.35	5.894	
355.15	5.87	
355.05	5.846	
354.85	5.824	
354.75	5.8	
354.55	5.777	
354.45	5.754	
354.25	5.731	
354.15	5.708	
353.95	5.685	
353.85	5.663	
353.65	5.641	
353.55	5.618	
353.45	5.596	
353.25	5.574	
353.15	5.551	
353.05	5.531	
352.85	5.511	
352.75	5.488	
352.65	5.466	
352.45	5.445	
352.35	5.423	
352.25	5.403	
352.15	5.382	
351.95	5.361	
351.85	5.341	
351.75	5.321	
351.55	5.3	
351.45	5.279	
351.35	5.258	
351.15	5.238	
351.05	5.218	
350.85	5.198	
350.75	5.179	
350.65	5.158	
350.45	5.139	
350.35	5.119	
350.25	5.1	
350.15	5.081	
350.05	5.061	
349.85	5.041	
349.75	5.023	
349.65	5.003	
349.55	4.985	
349.35	4.967	
349.25	4.948	
349.15	4.93	
349.05	4.912	
348.95	4.894	
348.85	4.875	
348.75	4.858	
348.55	4.84	
348.45	4.822	
348.35	4.804	
348.25	4.787	
348.05	4.769	
347.95	4.752	
347.85	4.734	
347.75	4.716	
347.55	4.698	
347.45	4.682	
347.35	4.666	
347.25	4.647	
347.15	4.63	
347.05	4.613	
346.85	4.597	
346.75	4.581	
346.65	4.563	
346.55	4.546	
346.45	4.53	
346.35	4.514	
346.25	4.498	
346.15	4.481	
346.05	4.465	
345.85	4.448	
345.75	4.433	
345.65	4.416	
345.55	4.402	
345.45	4.386	
345.35	4.37	
345.25	4.354	
345.15	4.339	
345.05	4.323	
344.95	4.308	
344.75	4.292	
344.65	4.277	
344.55	4.261	
344.45	4.246	
344.35	4.232	
344.25	4.216	
344.15	4.201	
344.05	4.188	
343.95	4.173	
343.85	4.159	
343.75	4.146	
343.65	4.131	
343.55	4.117	
343.45	4.103	
343.35	4.089	
343.25	4.076	
343.15	4.062	
343.15	4.049	
343.05	4.035	
342.95	4.022	
342.85	4.008	
342.75	3.995	
342.65	3.982	
342.55	3.969	
342.45	3.955	
342.35	3.942	
342.25	3.929	
342.15	3.915	
342.05	3.903	
341.95	3.89	
341.85	3.878	
341.75	3.865	
341.75	3.852	
341.65	3.839	
341.55	3.827	
341.45	3.815	
341.35	3.803	
341.25	3.79	
341.15	3.778	
341.05	3.765	
340.95	3.753	
340.85	3.74	
340.75	3.727	
340.65	3.716	
340.55	3.705	
340.45	3.694	
340.45	3.683	
340.35	3.673	
340.25	3.661	
340.15	3.649	
340.05	3.635	
339.95	3.623	
339.85	3.612	
339.75	3.6	
339.65	3.589	
339.55	3.578	
339.55	3.566	
339.45	3.555	
339.35	3.544	
339.25	3.532	
339.15	3.522	
339.05	3.51	
338.95	3.499	
338.95	3.488	
338.85	3.477	
338.75	3.467	
338.65	3.456	
338.55	3.444	
338.45	3.434	
338.35	3.423	
338.35	3.412	
338.25	3.401	
338.15	3.39	
338.05	3.379	
337.95	3.369	
337.85	3.359	
337.75	3.348	
337.65	3.338	
337.55	3.328	
337.55	3.318	
337.45	3.307	
337.35	3.298	
337.25	3.287	
337.15	3.277	
337.15	3.267	
337.05	3.258	
336.95	3.247	
336.85	3.238	
336.85	3.228	
336.75	3.218	
336.65	3.209	
336.55	3.199	
336.55	3.19	
336.45	3.18	
336.35	3.17	
336.25	3.161	
336.25	3.151	
336.15	3.142	
336.05	3.132	
335.95	3.123	
335.95	3.113	
335.85	3.104	
335.75	3.095	
335.65	3.086	
335.55	3.076	
335.55	3.067	
335.45	3.058	
335.35	3.049	
335.25	3.04	
335.15	3.031	
335.15	3.022	
335.05	3.013	
334.95	3.004	
334.85	2.995	
334.85	2.986	
334.75	2.978	
334.65	2.969	
334.55	2.961	
334.55	2.952	
334.45	2.943	
334.35	2.935	
334.25	2.927	
334.15	2.918	
334.15	2.91	
334.05	2.901	
333.95	2.892	
333.95	2.885	
333.85	2.876	
333.75	2.868	
333.75	2.86	
333.65	2.851	
333.55	2.843	
333.55	2.834	
333.45	2.827	
333.35	2.818	
333.35	2.811	
333.25	2.803	
333.15	2.795	
333.15	2.788	
333.05	2.78	
333.05	2.774	
332.95	2.767	
332.95	2.76	
332.85	2.753	
332.85	2.745	
332.75	2.739	
332.75	2.727	
332.55	2.707	
332.35	2.68	
332.15	2.651	
331.85	2.617	
331.65	2.583	
331.25	2.547	
330.95	2.512	
330.65	2.475	
330.45	2.439	
330.05	2.404	
329.75	2.369	
329.45	2.334	
329.15	2.302	
328.85	2.268	
328.55	2.235	
328.25	2.204	
327.85	2.174	
327.65	2.143	
327.35	2.114	
327.05	2.084	
326.75	2.057	
326.45	2.029	
326.15	2.001	
325.85	1.973	
325.55	1.946	
325.25	1.92	
325.05	1.895	
324.75	1.869	
324.45	1.844	
324.15	1.82	
323.95	1.797	
323.65	1.773	
323.45	1.75	
323.15	1.728	
322.95	1.708	
322.65	1.686	
322.45	1.665	
322.15	1.645	
321.95	1.625	
321.65	1.606	
321.45	1.587	
321.25	1.568	
321.05	1.55	
320.75	1.532	
320.55	1.515	
320.35	1.498	
320.15	1.481	
319.95	1.465	
319.75	1.45	
319.55	1.433	
319.35	1.418	
319.15	1.404	
318.95	1.388	
318.75	1.374	
318.55	1.36	
318.35	1.347	
318.15	1.333	
317.95	1.32	
317.85	1.307	
317.65	1.294	
317.45	1.281	
317.25	1.269	
317.15	1.257	
316.95	1.244	
316.75	1.233	
316.65	1.222	
316.45	1.21	
316.25	1.2	
316.05	1.189	
315.95	1.177	
315.75	1.168	
315.65	1.158	
315.45	1.148	
315.35	1.138	
315.15	1.128	
315.05	1.119	
314.95	1.11	
314.75	1.101	
314.65	1.092	
314.55	1.083	
314.35	1.075	
314.25	1.066	
314.15	1.059	
314.05	1.051	
313.85	1.043	
313.75	1.036	
313.65	1.028	
313.55	1.021	
313.35	1.013	
313.25	1.006	
313.15	.999	
313.05	.992	
312.95	.986	
312.75	.979	
312.65	.973	
312.55	.966	
312.45	.96	
312.35	.954	
312.25	.947	
312.15	.941	
312.05	.936	
311.95	.931	
311.85	.924	
311.85	.919	
311.75	.906	
311.65	.901	
311.55	.896	
311.45	.891	
311.35	.886	
311.25	.881	
311.15	.877	
311.05	.872	
311.05	.867	
310.95	.862	
310.85	.858	
310.75	.854	
310.65	.849	
310.65	.845	
310.55	.841	
310.45	.837	
310.35	.833	
310.25	.829	
310.25	.825	
310.15	.821	
310.05	.817	
310.05	.813	
309.95	.81	
309.85	.806	
309.75	.803	
309.75	.799	
309.65	.796	
309.55	.792	
309.55	.789	
309.45	.786	
309.35	.783	
309.35	.78	
309.25	.776	
309.25	.773	
309.15	.771	
309.15	.768	
309.05	.765	
309.05	.762	
308.95	.759	
308.85	.756	
308.85	.754	
308.75	.751	
308.75	.748	
308.65	.746	
308.65	.743	
308.55	.741	
308.55	.738	
308.55	.736	
308.45	.734	
308.45	.731	
308.35	.729	
308.35	.727	
308.25	.725	
308.25	.723	
308.15	.72	
308.15	.718	
308.05	.716	
308.05	.714	
308.05	.712	
307.95	.71	
307.95	.708	
307.85	.706	
307.85	.704	
307.85	.703	
307.75	.701	
307.75	.7	
307.75	.698	
307.65	.697	
307.65	.695	
307.65	.694	
307.55	.692	
307.55	.691	
307.55	.689	
307.45	.688	
307.45	.686	
307.45	.685	
307.35	.683	
307.35	.682	
307.35	.681	
307.25	.679	
307.25	.678	
307.25	.677	
307.15	.675	
307.15	.674	
307.15	.673	
307.15	.672	
307.05	.67	
307.05	.669	
307.05	.668	
307.05	.667	
306.95	.666	
306.95	.665	
306.95	.663	
306.85	.662	
306.85	.661	
306.85	.66	
306.85	.659	
306.75	.658	
306.75	.657	
306.75	.656	
306.75	.655	
306.75	.654	
306.65	.653	
306.65	.652	
306.65	.651	
306.65	.65	
306.65	.649	
306.55	.649	
306.55	.648	
306.55	.647	
306.55	.646	
306.55	.645	
306.45	.644	
306.45	.643	
306.45	.642	
306.45	.641	
306.45	.641	
306.45	.64	
306.35	.639	
306.35	.638	
306.35	.637	
306.35	.636	
306.35	.636	
306.35	.635	
306.25	.634	
306.25	.633	
306.25	.633	
306.25	.632	
306.25	.631	
306.25	.63	
306.15	.629	
306.15	.629	
306.15	.628	
306.15	.627	
306.15	.627	
306.15	.626	
306.15	.625	
306.05	.625	
306.05	.624	
306.05	.623	
306.05	.623	
306.05	.622	
306.05	.621	
306.05	.621	
305.95	.62	
305.95	.619	
305.95	.619	
305.95	.618	
305.95	.618	
305.95	.617	
305.95	.616	
305.95	.616	
305.85	.615	
305.85	.615	
305.85	.614	
305.85	.613	
305.85	.613	
305.85	.612	
305.85	.612	
305.85	.611	
305.75	.611	
305.75	.61	
305.75	.61	
305.75	.609	
305.75	.609	
305.75	.608	
305.75	.608	
305.75	.607	
305.75	.607	
305.65	.606	
305.65	.606	
305.65	.605	
305.65	.605	
305.65	.604	
305.65	.604	
305.65	.604	
305.65	.603	
305.65	.603	
305.65	.602	
305.65	.602	
305.55	.602	
305.55	.601	
305.55	.601	
305.55	.6	
305.55	.6	
305.55	.599	
305.55	.599	
305.55	.598	
305.55	.598	
305.55	.597	
305.45	.597	
305.45	.597	
305.45	.596	
305.45	.596	
305.45	.596	
305.45	.595	
305.45	.595	
305.45	.595	
305.45	.594	
305.45	.594	
305.35	.593	
305.35	.593	
305.35	.593	
305.35	.592	
305.35	.592	
305.35	.591	
305.35	.591	
305.35	.591	
305.35	.59	
305.35	.59	
305.35	.59	
305.35	.589	
305.35	.589	
305.25	.589	
305.25	.589	
305.25	.588	
305.25	.588	
305.25	.588	
305.25	.587	
305.25	.587	
305.25	.587	
305.25	.587	
305.25	.587	
305.25	.586	
305.25	.586	
305.25	.586	
305.25	.586	
305.25	.585	
305.25	.585	
305.25	.585	
305.25	.585	
305.25	.585	
305.15	.584	
305.15	.584	
305.15	.584	
305.15	.584	
305.15	.584	
305.15	.583	
305.15	.583	
305.15	.583	
305.15	.583	
305.15	.583	
305.15	.582	
305.15	.582	
305.15	.582	
305.15	.582	
305.15	.582	
305.15	.582	
305.15	.581	
305.15	.581	
305.15	.581	
305.15	.581	
305.15	.581	
305.15	.581	
305.15	.58	
305.15	.58	
305.05	.58	
305.05	.58	
305.05	.58	
305.05	.579	
305.05	.579	
305.05	.579	
305.05	.579	
305.05	.579	
305.05	.579	
305.05	.579	
305.05	.578	
305.05	.578	
305.05	.578	
305.05	.578	
305.05	.578	
305.05	.578	
305.05	.578	
305.05	.578	
305.05	.577	
305.05	.577	
305.05	.577	
305.05	.577	
305.05	.577	
305.05	.577	
305.05	.577	
305.05	.577	
305.05	.576	
305.05	.576	
305.05	.576	
305.05	.576	
305.05	.576	
305.05	.576	
305.05	.576	
305.05	.576	
305.05	.576	
304.95	.576	
304.95	.576	
304.95	.575	
304.95	.575	
304.95	.575	
304.95	.575	
304.95	.575	
304.95	.575	
304.95	.575	
304.95	.575	
304.95	.575	
304.95	.575	
304.95	.575	
304.95	.574	
304.95	.574	
304.95	.574	
304.95	.574	
304.95	.574	
304.95	.574	
304.95	.574	
304.95	.574	
304.95	.574	
304.95	.574	
304.95	.574	
304.95	.574	
304.95	.574	
304.95	.573	
304.95	.574	
304.95	.573	
304.95	.573	
304.95	.573	
304.95	.573	
304.95	.573	
304.95	.573	
304.95	.573	
304.95	.573	
304.95	.573	
304.95	.573	
304.95	.573	
304.95	.573	
304.95	.573	
304.95	.573	
304.95	.573	
304.95	.573	
304.95	.573	
304.95	.572	
304.95	.572	
304.95	.572	
304.85	.572	
304.85	.572	
304.85	.572	
304.85	.571	
304.85	.571	
304.85	.57	
304.75	.57	
304.75	.569	
304.75	.569	
304.75	.568	
304.75	.567	
304.65	.566	
304.65	.566	
304.65	.565	
304.65	.564	
304.55	.563	
304.55	.562	
304.55	.561	
304.55	.56	
304.45	.559	
304.45	.558	
304.45	.558	
304.45	.556	
304.35	.556	
304.35	.555	
304.35	.554	
304.25	.553	
304.25	.552	
304.25	.551	
304.25	.55	
304.15	.548	
304.15	.547	
304.15	.546	
304.15	.545	
304.05	.544	
304.05	.543	
304.05	.542	
303.95	.541	
303.95	.54	
303.95	.539	
303.85	.538	
303.85	.537	
303.85	.536	
303.85	.535	
303.75	.534	
303.75	.533	
303.75	.532	
303.65	.53	
303.65	.529	
303.65	.528	
303.65	.527	
303.55	.526	
303.55	.525	
303.55	.524	
303.55	.523	
303.45	.522	
303.45	.521	
303.45	.52	
303.45	.519	
303.35	.518	
303.35	.517	
303.35	.516	
303.35	.514	
303.25	.513	
303.25	.513	
303.25	.511	
303.25	.51	
303.15	.509	

System: nitric acid ammonium salt + water + calcium nitrate; phases: Liquid
Fixed: Pressure, kPa = 101
Fixed: Mole fraction of calcium nitrate = .1667
Fixed: Mole fraction of water = .6667
Property: Electrical conductivity, S/m (Liquid); method: Direct current cell with electrodes
Temperature, K	Electrical conductivity, S/m	uncertainty
358.95	10.59	
358.85	10.57	
358.85	10.55	
358.75	10.52	
358.65	10.49	
358.55	10.46	
358.45	10.43	
358.35	10.4	
358.15	10.37	
358.05	10.34	
357.95	10.31	
357.85	10.28	
357.65	10.25	
357.55	10.21	
357.45	10.19	
357.25	10.16	
357.15	10.13	
357.05	10.1	
356.95	10.07	
356.75	10.04	
356.65	10.01	
356.55	9.98	
356.45	9.95	
356.25	9.92	
356.15	9.89	
356.05	9.86	
355.95	9.83	
355.75	9.8	
355.65	9.78	
355.45	9.75	
355.35	9.71	
355.25	9.69	
355.15	9.67	
355.05	9.64	
354.85	9.62	
354.75	9.58	
354.65	9.55	
354.55	9.53	
354.35	9.5	
354.25	9.48	
354.15	9.45	
353.95	9.42	
353.85	9.4	
353.75	9.37	
353.65	9.35	
353.55	9.32	
353.35	9.29	
353.25	9.27	
353.15	9.24	
353.05	9.22	
352.95	9.19	
352.85	9.17	
352.75	9.14	
352.55	9.12	
352.45	9.09	
352.35	9.07	
352.25	9.05	
352.15	9.02	
352.05	9	
351.95	8.98	
351.85	8.95	
351.75	8.93	
351.65	8.91	
351.55	8.887	
351.45	8.865	
351.35	8.841	
351.25	8.82	
351.15	8.797	
350.95	8.776	
350.85	8.753	
350.75	8.732	
350.65	8.71	
350.55	8.689	
350.45	8.667	
350.35	8.646	
350.25	8.625	
350.15	8.602	
350.05	8.58	
349.95	8.56	
349.85	8.538	
349.75	8.517	
349.65	8.495	
349.55	8.473	
349.45	8.452	
349.35	8.431	
349.25	8.41	
349.15	8.389	
349.05	8.367	
348.95	8.347	
348.85	8.326	
348.65	8.305	
348.55	8.285	
348.45	8.264	
348.35	8.244	
348.25	8.223	
348.15	8.203	
348.05	8.183	
347.95	8.164	
347.85	8.144	
347.75	8.125	
347.65	8.106	
347.55	8.088	
347.45	8.067	
347.35	8.048	
347.25	8.029	
347.15	8.011	
347.05	7.992	
346.95	7.972	
346.95	7.953	
346.85	7.935	
346.75	7.916	
346.65	7.897	
346.55	7.879	
346.45	7.861	
346.35	7.843	
346.25	7.824	
346.25	7.806	
346.15	7.788	
346.05	7.768	
345.95	7.752	
345.85	7.733	
345.75	7.715	
345.65	7.697	
345.55	7.68	
345.45	7.661	
345.35	7.643	
345.25	7.626	
345.15	7.609	
345.05	7.591	
344.95	7.574	
344.95	7.557	
344.85	7.54	
344.75	7.523	
344.65	7.506	
344.55	7.489	
344.45	7.472	
344.45	7.456	
344.35	7.438	
344.25	7.421	
344.15	7.405	
344.05	7.388	
343.95	7.372	
343.85	7.355	
343.75	7.339	
343.65	7.323	
343.65	7.307	
343.55	7.291	
343.45	7.273	
343.35	7.257	
343.25	7.242	
343.25	7.225	
343.15	7.21	
343.05	7.194	
342.95	7.178	
342.85	7.161	
342.75	7.146	
342.75	7.131	
342.65	7.115	
342.55	7.099	
342.45	7.084	
342.35	7.068	
342.35	7.054	
342.25	7.038	
342.15	7.023	
342.05	7.008	
341.95	6.992	
341.95	6.978	
341.85	6.963	
341.75	6.947	
341.65	6.933	
341.55	6.918	
341.45	6.903	
341.45	6.888	
341.35	6.874	
341.25	6.859	
341.15	6.844	
341.05	6.83	
341.05	6.817	
340.95	6.801	
340.85	6.787	
340.75	6.774	
340.65	6.759	
340.65	6.745	
340.55	6.731	
340.45	6.717	
340.35	6.703	
340.25	6.688	
340.25	6.675	
340.15	6.66	
340.05	6.647	
339.95	6.633	
339.95	6.62	
339.85	6.605	
339.75	6.592	
339.65	6.578	
339.65	6.566	
339.55	6.55	
339.45	6.538	
339.35	6.523	
339.35	6.51	
339.25	6.496	
339.15	6.482	
339.05	6.469	
338.95	6.456	
338.95	6.443	
338.85	6.43	
338.75	6.416	
338.65	6.403	
338.65	6.39	
338.55	6.377	
338.45	6.363	
338.35	6.351	
338.35	6.338	
338.25	6.324	
338.15	6.311	
338.05	6.298	
337.95	6.285	
337.95	6.273	
337.85	6.259	
337.75	6.247	
337.65	6.234	
337.65	6.222	
337.55	6.209	
337.45	6.198	
337.35	6.184	
337.35	6.172	
337.25	6.159	
337.15	6.147	
337.15	6.134	
337.05	6.122	
336.95	6.11	
336.85	6.098	
336.85	6.086	
336.75	6.074	
336.65	6.061	
336.65	6.049	
336.55	6.038	
336.45	6.025	
336.45	6.013	
336.35	6.002	
336.25	5.985	
336.15	5.95	
335.95	5.9	
335.65	5.839	
335.25	5.773	
334.85	5.7	
334.45	5.626	
334.05	5.552	
333.65	5.478	
333.25	5.403	
332.85	5.332	
332.35	5.26	
331.95	5.189	
331.55	5.122	
331.15	5.054	
330.75	4.987	
330.35	4.921	
329.95	4.858	
329.55	4.795	
329.25	4.734	
328.85	4.675	
328.45	4.618	
328.05	4.56	
327.65	4.505	
327.35	4.451	
326.95	4.397	
326.65	4.346	
326.35	4.294	
325.95	4.244	
325.65	4.194	
325.25	4.147	
324.95	4.1	
324.55	4.053	
324.25	4.008	
323.95	3.964	
323.65	3.919	
323.35	3.876	
323.05	3.835	
322.75	3.794	
322.45	3.755	
322.15	3.715	
321.85	3.677	
321.55	3.639	
321.25	3.602	
321.05	3.566	
320.75	3.53	
320.55	3.495	
320.25	3.46	
319.95	3.426	
319.75	3.392	
319.45	3.359	
319.15	3.327	
318.95	3.294	
318.65	3.263	
318.45	3.233	
318.25	3.202	
317.95	3.173	
317.75	3.144	
317.55	3.116	
317.35	3.088	
317.05	3.062	
316.85	3.035	
316.65	3.009	
316.45	2.983	
316.25	2.958	
316.05	2.933	
315.75	2.911	
315.55	2.887	
315.35	2.864	
315.25	2.841	
315.05	2.82	
314.85	2.798	
314.65	2.778	
314.55	2.757	
314.35	2.736	
314.15	2.717	
314.05	2.698	
313.85	2.677	
313.65	2.659	
313.55	2.64	
313.35	2.62	
313.15	2.603	
312.95	2.584	
312.85	2.567	
312.65	2.55	
312.55	2.533	
312.35	2.517	
312.25	2.5	
312.05	2.484	
311.95	2.468	
311.85	2.453	
311.65	2.437	
311.55	2.422	
311.35	2.407	
311.25	2.393	
311.15	2.378	
310.95	2.365	
310.85	2.35	
310.75	2.336	
310.65	2.324	
310.45	2.31	
310.35	2.297	
310.25	2.284	
310.15	2.271	
309.95	2.26	
309.85	2.247	
309.75	2.235	
309.65	2.223	
309.45	2.212	
309.35	2.2	
309.25	2.188	
309.15	2.176	
309.05	2.164	
308.95	2.155	
308.85	2.144	
308.75	2.133	
308.65	2.123	
308.55	2.112	
308.45	2.102	
308.35	2.092	
308.25	2.083	
308.15	2.072	
308.05	2.063	
307.95	2.053	
307.85	2.043	
307.75	2.035	
307.65	2.025	
307.55	2.016	
307.45	2.008	
307.35	1.999	
307.25	1.99	
307.15	1.981	
307.05	1.972	
307.05	1.963	
306.95	1.956	
306.85	1.947	
306.75	1.94	
306.65	1.932	
306.55	1.923	
306.45	1.916	
306.45	1.908	
306.35	1.901	
306.25	1.893	
306.25	1.887	
306.15	1.879	
306.05	1.873	
305.95	1.867	
305.95	1.86	
305.85	1.853	
305.75	1.847	
305.75	1.842	
305.65	1.836	
305.65	1.83	
305.55	1.825	
305.45	1.819	
305.45	1.813	
305.35	1.809	
305.35	1.803	
305.25	1.798	
305.25	1.793	
305.15	1.787	
305.15	1.782	
305.05	1.777	

System: nitric acid ammonium salt + water + calcium nitrate; phases: Liquid
Fixed: Pressure, kPa = 101
Fixed: Mole fraction of calcium nitrate = .1429
Fixed: Mole fraction of water = .7143
Property: Electrical conductivity, S/m (Liquid); method: Direct current cell with electrodes
Temperature, K	Electrical conductivity, S/m	uncertainty
359.25	15.5	
359.15	15.46	
359.05	15.42	
358.95	15.39	
358.85	15.35	
358.65	15.3	
358.55	15.26	
358.45	15.22	
358.35	15.18	
358.15	15.14	
358.05	15.1	
357.85	15.06	
357.75	15.02	
357.55	14.98	
357.45	14.94	
357.25	14.91	
357.15	14.86	
357.05	14.83	
356.85	14.79	
356.75	14.75	
356.65	14.71	
356.45	14.67	
356.35	14.64	
356.25	14.6	
356.05	14.56	
355.95	14.52	
355.85	14.48	
355.65	14.45	
355.55	14.4	
355.35	14.37	
355.25	14.34	
355.15	14.3	
354.95	14.26	
354.85	14.23	
354.75	14.19	
354.55	14.15	
354.45	14.12	
354.25	14.08	
354.15	14.05	
353.95	14.01	
353.85	13.98	
353.75	13.95	
353.55	13.91	
353.45	13.87	
353.35	13.84	
353.25	13.81	
353.05	13.77	
352.95	13.73	
352.85	13.7	
352.75	13.67	
352.55	13.63	
352.45	13.6	
352.35	13.57	
352.25	13.54	
352.05	13.5	
351.95	13.47	
351.85	13.44	
351.65	13.4	
351.55	13.37	
351.45	13.34	
351.25	13.3	
351.15	13.27	
351.05	13.24	
350.95	13.21	
350.75	13.18	
350.65	13.15	
350.55	13.12	
350.45	13.08	
350.35	13.06	
350.25	13.02	
350.15	13	
350.05	12.97	
349.85	12.94	
349.75	12.91	
349.65	12.88	
349.55	12.85	
349.45	12.82	
349.25	12.78	
349.15	12.75	
349.05	12.72	
348.95	12.69	
348.85	12.67	
348.75	12.64	
348.65	12.6	
348.55	12.58	
348.35	12.55	
348.25	12.52	
348.15	12.49	
348.05	12.46	
347.95	12.44	
347.85	12.41	
347.65	12.38	
347.55	12.35	
347.45	12.32	
347.35	12.3	
347.25	12.27	
347.15	12.24	
347.05	12.22	
346.95	12.19	
346.85	12.16	
346.75	12.14	
346.65	12.11	
346.55	12.08	
346.45	12.06	
346.35	12.03	
346.25	12.01	
346.15	11.98	
346.05	11.95	
345.95	11.93	
345.85	11.9	
345.75	11.88	
345.65	11.85	
345.55	11.83	
345.45	11.8	
345.35	11.78	
345.25	11.75	
345.15	11.73	
345.05	11.7	
344.95	11.68	
344.85	11.65	
344.75	11.63	
344.65	11.6	
344.55	11.58	
344.45	11.55	
344.35	11.53	
344.15	11.51	
344.05	11.48	
343.95	11.46	
343.85	11.44	
343.85	11.41	
343.75	11.39	
343.65	11.36	
343.55	11.34	
343.45	11.31	
343.35	11.29	
343.25	11.27	
343.15	11.24	
343.05	11.22	
342.95	11.2	
342.85	11.18	
342.75	11.15	
342.65	11.13	
342.55	11.1	
342.45	11.08	
342.35	11.06	
342.25	11.03	
342.15	11.01	
342.05	10.99	
341.95	10.96	
341.85	10.94	
341.75	10.92	
341.65	10.9	
341.55	10.88	
341.35	10.85	
341.35	10.83	
341.25	10.81	
341.15	10.79	
341.05	10.76	
340.95	10.74	
340.85	10.72	
340.75	10.7	
340.65	10.68	
340.55	10.66	
340.45	10.63	
340.35	10.61	
340.25	10.59	
340.15	10.57	
340.15	10.55	
340.05	10.53	
339.95	10.5	
339.85	10.49	
339.75	10.46	
339.65	10.44	
339.55	10.42	
339.45	10.4	
339.45	10.39	
339.35	10.36	
339.25	10.34	
339.15	10.32	
339.05	10.3	
338.95	10.28	
338.85	10.26	
338.75	10.24	
338.75	10.22	
338.65	10.2	
338.55	10.18	
338.45	10.16	
338.35	10.14	
338.25	10.12	
338.15	10.1	
338.05	10.08	
337.95	10.06	
337.85	10.04	
337.75	10.02	
337.75	10	
337.65	9.978	
337.55	9.96	
337.45	9.943	
337.35	9.921	
337.25	9.907	
337.25	9.886	
337.15	9.861	
337.05	9.847	
336.95	9.826	
336.85	9.804	
336.85	9.787	
336.75	9.772	
336.65	9.755	
336.55	9.73	
336.55	9.716	
336.45	9.698	
336.35	9.68	
336.35	9.662	
336.25	9.645	
336.15	9.627	
336.15	9.613	
336.05	9.592	
335.95	9.574	
335.95	9.563	
335.85	9.545	
335.75	9.524	
335.65	9.506	
335.65	9.492	
335.55	9.475	
335.45	9.457	
335.45	9.443	
335.35	9.421	
335.25	9.407	
335.15	9.389	
335.15	9.372	
335.05	9.358	
334.95	9.34	
334.85	9.322	
334.85	9.308	
334.75	9.29	
334.65	9.276	
334.55	9.258	
334.45	9.241	
334.45	9.226	
334.35	9.209	
334.25	9.191	
334.15	9.177	
334.15	9.019	
334.05	9.003	
333.95	8.988	
333.95	8.973	
333.85	8.956	
333.75	8.943	
333.75	8.926	
333.65	8.912	
333.55	8.895	
333.45	8.882	
333.45	8.865	
333.35	8.849	
333.25	8.834	
333.25	8.821	
333.15	8.805	
333.15	8.791	
333.05	8.776	
332.95	8.761	
332.95	8.748	
332.85	8.734	
332.85	8.72	
332.75	8.709	
332.75	8.695	
332.65	8.682	
332.65	8.671	
332.55	8.657	
332.55	8.646	
332.55	8.631	
332.45	8.617	
332.35	8.589	
332.15	8.542	
331.95	8.481	
331.55	8.412	
331.25	8.338	
330.95	8.262	
330.55	8.184	
330.25	8.106	
329.85	8.027	
329.55	7.949	
329.15	7.874	
328.75	7.798	
328.45	7.721	
328.05	7.646	
327.65	7.571	
327.35	7.497	
326.95	7.425	
326.65	7.354	
326.25	7.283	
325.95	7.215	
325.55	7.148	
325.25	7.081	
324.85	7.015	
324.55	6.951	
324.25	6.888	
323.95	6.828	
323.65	6.768	
323.35	6.709	
323.05	6.65	
322.75	6.593	
322.45	6.536	
322.15	6.481	
321.85	6.428	
321.55	6.373	
321.25	6.32	
321.05	6.269	
320.75	6.218	
320.45	6.168	
320.25	6.119	
319.95	6.07	
319.65	6.023	
319.45	5.977	
319.15	5.932	
318.85	5.887	
318.65	5.843	
318.35	5.8	
318.15	5.757	
317.95	5.715	
317.75	5.674	
317.55	5.633	
317.25	5.593	
317.05	5.554	
316.85	5.516	
316.65	5.478	
316.45	5.443	
316.15	5.405	
315.95	5.369	
315.75	5.333	
315.55	5.299	
315.35	5.264	
315.15	5.23	
314.95	5.198	
314.75	5.165	
314.65	5.132	
314.45	5.101	
314.25	5.071	
314.05	5.04	
313.85	5.01	
313.75	4.981	
313.55	4.952	
313.35	4.924	
313.15	4.896	
313.05	4.869	
312.85	4.842	
312.65	4.815	
312.45	4.79	
312.35	4.764	
312.15	4.739	
312.05	4.715	
311.95	4.69	
311.75	4.666	
311.65	4.643	
311.45	4.62	
311.35	4.598	
311.25	4.575	
311.05	4.552	
310.95	4.53	
310.75	4.508	
310.65	4.487	
310.55	4.465	
310.35	4.443	
310.25	4.424	
310.15	4.404	
309.95	4.385	
309.85	4.364	
309.75	4.345	
309.55	4.327	
309.45	4.308	
309.35	4.29	
309.25	4.272	
309.15	4.255	
309.05	4.237	
308.95	4.22	
308.85	4.204	
308.75	4.188	
308.65	4.17	
308.55	4.155	
308.45	4.138	
308.35	4.123	
308.25	4.108	
308.15	4.093	
308.05	4.078	
307.95	4.063	
307.85	4.049	
307.75	4.035	
307.65	4.021	
307.55	4.008	
307.45	3.995	
307.35	3.981	
307.25	3.967	
307.15	3.954	
307.05	3.941	
306.95	3.928	
306.95	3.916	
306.85	3.904	
306.75	3.893	
306.65	3.879	
306.55	3.869	
306.55	3.857	
306.45	3.846	
306.35	3.835	
306.25	3.824	
306.25	3.813	
306.15	3.802	
306.05	3.792	
306.05	3.781	
305.95	3.771	
305.85	3.761	
305.85	3.751	
305.75	3.741	
305.65	3.732	
305.65	3.723	
305.55	3.713	
305.45	3.704	
305.45	3.695	
305.35	3.686	
305.35	3.677	
305.25	3.669	
305.15	3.66	

System: nitric acid ammonium salt + water + calcium nitrate; phases: Liquid
Fixed: Pressure, kPa = 101
Fixed: Mole fraction of calcium nitrate = .125
Fixed: Mole fraction of water = .75
Property: Electrical conductivity, S/m (Liquid); method: Direct current cell with electrodes
Temperature, K	Electrical conductivity, S/m	uncertainty
359.05	19.55	
358.95	19.5	
358.85	19.45	
358.75	19.41	
358.65	19.37	
358.55	19.32	
358.45	19.28	
358.35	19.23	
358.15	19.18	
358.05	19.14	
357.95	19.1	
357.75	19.06	
357.65	19.01	
357.45	18.97	
357.35	18.92	
357.25	18.88	
357.05	18.84	
356.95	18.8	
356.75	18.76	
356.65	18.72	
356.55	18.67	
356.45	18.63	
356.25	18.59	
356.15	18.56	
356.05	18.52	
355.85	18.48	
355.75	18.44	
355.65	18.4	
355.45	18.36	
355.35	18.33	
355.25	18.29	
355.05	18.25	
354.95	18.21	
354.85	18.17	
354.65	18.12	
354.55	18.09	
354.35	18.05	
354.25	18.01	
354.15	17.98	
353.95	17.94	
353.85	17.9	
353.75	17.86	
353.55	17.82	
353.45	17.79	
353.35	17.75	
353.15	17.71	
353.05	17.67	
352.95	17.64	
352.85	17.6	
352.75	17.57	
352.55	17.53	
352.45	17.49	
352.35	17.46	
352.25	17.43	
352.15	17.39	
351.95	17.35	
351.85	17.32	
351.75	17.28	
351.65	17.25	
351.45	17.22	
351.35	17.18	
351.25	17.15	
351.05	17.11	
350.95	17.08	
350.85	17.05	
350.75	17.01	
350.65	16.99	
350.45	16.95	
350.35	16.92	
350.25	16.88	
350.15	16.85	
350.05	16.82	
349.95	16.79	
349.85	16.75	
349.75	16.72	
349.65	16.69	
349.55	16.66	
349.35	16.63	
349.25	16.6	
349.15	16.57	
349.05	16.53	
348.95	16.5	
348.85	16.48	
348.75	16.45	
348.65	16.41	
348.55	16.38	
348.45	16.35	
348.25	16.32	
348.15	16.29	
348.05	16.26	
347.95	16.23	
347.85	16.2	
347.75	16.17	
347.65	16.14	
347.55	16.12	
347.45	16.08	
347.35	16.06	
347.25	16.03	
347.15	15.99	
347.05	15.97	
346.95	15.94	
346.85	15.91	
346.75	15.89	
346.65	15.86	
346.55	15.83	
346.55	15.8	
346.35	15.77	
346.25	15.75	
346.15	15.72	
346.15	15.69	
346.05	15.66	
345.95	15.64	
345.85	15.61	
345.75	15.58	
345.55	15.56	
345.55	15.53	
345.35	15.5	
345.25	15.48	
345.15	15.46	
345.05	15.42	
344.95	15.4	
344.85	15.37	
344.75	15.35	
344.65	15.32	
344.55	15.29	
344.45	15.27	
344.35	15.24	
344.25	15.21	
344.15	15.19	
344.05	15.16	
343.95	15.13	
343.85	15.11	
343.75	15.08	
343.65	15.06	
343.55	15.03	
343.45	15	
343.35	14.98	
343.25	14.95	
343.15	14.93	
343.05	14.9	
342.95	14.88	
342.85	14.85	
342.75	14.83	
342.65	14.8	
342.55	14.78	
342.55	14.75	
342.45	14.73	
342.35	14.7	
342.25	14.68	
342.15	14.65	
342.05	14.63	
341.95	14.6	
341.85	14.58	
341.75	14.55	
341.65	14.53	
341.55	14.5	
341.45	14.48	
341.35	14.46	
341.35	14.43	
341.25	14.41	
341.15	14.39	
341.05	14.36	
340.95	14.34	
340.85	14.32	
340.75	14.29	
340.65	14.27	
340.55	14.25	
340.45	14.22	
340.35	14.2	
340.35	14.17	
340.25	14.15	
340.15	14.13	
340.05	14.11	
339.95	14.08	
339.95	14.06	
339.85	14.04	
339.75	14.01	
339.65	13.99	
339.55	13.97	
339.45	13.95	
339.45	13.93	
339.35	13.9	
339.25	13.88	
339.15	13.86	
339.05	13.83	
338.95	13.82	
338.95	13.79	
338.85	13.77	
338.75	13.74	
338.65	13.73	
338.55	13.71	
338.45	13.68	
338.45	13.66	
338.35	13.64	
338.25	13.62	
338.15	13.6	
338.05	13.58	
337.95	13.55	
337.95	13.53	
337.85	13.51	
337.75	13.49	
337.65	13.47	
337.55	13.45	
337.45	13.43	
337.45	13.4	
337.35	13.39	
337.25	13.37	
337.15	13.34	
337.15	13.32	
337.05	13.3	
336.95	13.28	
336.85	13.26	
336.85	13.24	
336.75	13.22	
336.65	13.2	
336.65	13.18	
336.55	13.16	
336.45	13.14	
336.35	13.12	
336.35	13.1	
336.25	13.08	
336.15	13.06	
336.05	13.04	
336.05	13.02	
335.95	13	
335.85	12.99	
335.75	12.96	
335.75	12.94	
335.65	12.92	
335.55	12.9	
335.45	12.89	
335.45	12.87	
335.35	12.84	
335.25	12.83	
335.25	12.81	
335.15	12.79	
335.05	12.77	
334.95	12.75	
334.95	12.73	
334.85	12.72	
334.75	12.69	
334.65	12.68	
334.65	12.66	
334.55	12.64	
334.45	12.62	
334.35	12.61	
334.25	12.58	
334.25	12.56	
334.15	12.54	
334.05	12.53	
334.05	12.51	
333.95	12.49	
333.85	12.47	
333.85	12.46	
333.75	12.44	
333.65	12.42	
333.65	12.4	
333.55	12.38	
333.55	12.37	
333.45	12.35	
333.35	12.33	
333.35	12.32	
333.25	12.3	
333.15	12.28	
333.15	12.26	
333.05	12.24	
332.95	12.23	
332.95	12.21	
332.85	12.19	
332.75	12.18	
332.75	12.16	
332.65	12.14	
332.55	12.12	
332.55	12.11	
332.45	12.09	
332.35	12.07	
332.35	12.06	
332.25	12.04	
332.15	12.02	
332.15	12.01	
332.05	11.99	
331.95	11.97	
331.95	11.96	
331.85	11.94	
331.75	11.92	
331.75	11.91	
331.65	11.89	
331.65	11.88	
331.55	11.86	
331.45	11.84	
331.45	11.83	
331.35	11.81	
331.25	11.8	
331.25	11.78	
331.15	11.77	
331.05	11.75	
331.05	11.74	
330.95	11.72	
330.85	11.7	
330.85	11.69	
330.75	11.67	
330.75	11.66	
330.65	11.64	
330.65	11.63	
330.55	11.61	
330.45	11.6	
330.45	11.58	
330.35	11.56	
330.35	11.55	
330.25	11.53	
330.15	11.52	
330.15	11.5	
330.05	11.49	
330.05	11.47	
329.95	11.46	
329.85	11.45	
329.85	11.43	
329.75	11.41	
329.75	11.4	
329.65	11.38	
329.55	11.37	
329.55	11.35	
329.45	11.34	
329.45	11.33	
329.35	11.31	
329.25	11.29	
329.25	11.28	
329.15	11.27	
329.15	11.25	
329.05	11.24	
328.95	11.22	
328.95	11.21	
328.85	11.2	
328.85	11.18	
328.75	11.17	
328.75	11.15	
328.65	11.14	
328.65	11.13	
328.55	11.11	
328.45	11.1	
328.45	11.08	
328.35	11.07	
328.35	11.06	
328.25	11.04	
328.15	11.03	
328.15	11.02	
328.05	11	
328.05	10.98	
327.95	10.97	
327.95	10.96	
327.85	10.95	
327.75	10.93	
327.75	10.92	
327.75	10.91	
327.65	10.89	
327.65	10.88	
327.55	10.87	
327.55	10.86	
327.45	10.84	
327.45	10.83	
327.35	10.81	
327.35	10.8	
327.25	10.79	
327.25	10.77	
327.25	10.76	
327.15	10.75	
327.15	10.74	
327.05	10.72	
327.05	10.71	
326.95	10.7	
326.95	10.68	
326.85	10.67	
326.85	10.66	
326.75	10.65	
326.75	10.63	
326.65	10.62	
326.65	10.61	
326.55	10.59	
326.55	10.58	
326.45	10.57	
326.45	10.56	
326.35	10.55	
326.35	10.54	
326.25	10.52	
326.25	10.51	
326.15	10.5	
326.15	10.49	
326.05	10.47	
326.05	10.46	
325.95	10.45	
325.95	10.44	
325.85	10.43	
325.85	10.42	
325.75	10.4	
325.75	10.39	
325.65	10.38	
325.55	10.36	
325.55	10.35	
325.45	10.34	
325.45	10.33	
325.35	10.32	
325.35	10.31	
325.25	10.29	
325.25	10.28	
325.15	10.27	
325.15	10.25	
325.05	10.25	
325.05	10.24	
324.95	10.22	
324.95	10.21	
324.85	10.2	
324.85	10.19	
324.75	10.18	
324.75	10.17	
324.65	10.16	
324.65	10.14	
324.55	10.13	
324.55	10.12	
324.55	10.11	
324.45	10.1	
324.45	10.09	
324.35	10.08	
324.35	10.07	
324.25	10.06	
324.25	10.04	
324.25	10.03	
324.15	10.02	
324.15	10.01	
324.05	9.999	
324.05	9.992	
323.95	9.978	
323.95	9.967	
323.85	9.957	
323.85	9.946	
323.85	9.932	
323.75	9.921	
323.75	9.911	
323.65	9.904	
323.65	9.889	
323.55	9.882	
323.55	9.868	
323.45	9.857	
323.45	9.85	
323.35	9.84	
323.35	9.826	
323.35	9.818	
323.25	9.801	
323.25	9.794	
323.15	9.787	
323.15	9.772	
323.05	9.762	
323.05	9.751	
322.95	9.744	
322.95	9.733	
322.85	9.723	
322.85	9.712	
322.85	9.705	
322.75	9.691	
322.75	9.684	
322.65	9.673	
322.65	9.662	
322.55	9.648	
322.55	9.638	
322.55	9.631	
322.45	9.62	
322.45	9.609	
322.35	9.599	
322.35	9.588	
322.25	9.581	
322.25	9.57	
322.25	9.56	
322.15	9.549	
322.15	9.538	
322.05	9.528	
322.05	9.521	
322.05	9.514	
321.95	9.503	
321.95	9.496	
321.85	9.482	
321.85	9.471	
321.75	9.46	
321.75	9.453	
321.75	9.443	
321.65	9.432	
321.65	9.425	
321.55	9.414	
321.55	9.404	
321.55	9.397	
321.45	9.386	
321.45	9.379	
321.35	9.365	
321.35	9.358	
321.35	9.347	
321.25	9.34	
321.25	9.329	
321.25	9.322	
321.15	9.311	
321.15	9.301	
321.05	9.294	
321.05	9.287	
321.05	9.272	
320.95	9.262	
320.95	9.251	
320.85	9.244	
320.85	9.237	
320.85	9.226	
320.75	9.216	
320.75	9.212	
320.75	9.198	
320.65	9.191	
320.65	9.18	
320.55	9.032	
320.55	9.024	
320.55	9.016	
320.45	9.007	
320.45	8.998	
320.45	8.991	
320.35	8.98	
320.35	8.973	
320.35	8.963	
320.25	8.956	
320.25	8.947	
320.15	8.937	
320.15	8.929	
320.15	8.921	
320.05	8.913	
320.05	8.904	
319.95	8.897	
319.95	8.888	
319.95	8.88	
319.85	8.871	
319.85	8.862	
319.75	8.853	
319.75	8.845	
319.75	8.837	
319.65	8.826	
319.55	8.805	
319.45	8.773	
319.35	8.732	
319.15	8.689	
318.85	8.641	
318.65	8.593	
318.45	8.542	
318.25	8.493	
318.05	8.443	
317.85	8.392	
317.65	8.343	
317.45	8.295	
317.15	8.244	
316.95	8.198	
316.75	8.151	
316.55	8.104	
316.35	8.058	
316.15	8.013	
315.95	7.969	
315.75	7.924	
315.45	7.881	
315.35	7.837	
315.15	7.793	
314.95	7.752	
314.75	7.711	
314.55	7.669	
314.35	7.627	
314.15	7.59	
313.95	7.551	
313.85	7.51	
313.65	7.474	
313.45	7.436	
313.25	7.399	
313.05	7.363	
312.95	7.328	
312.75	7.292	
312.55	7.258	
312.35	7.224	
312.25	7.188	
312.05	7.154	
311.95	7.121	
311.75	7.087	
311.65	7.054	
311.45	7.022	
311.35	6.989	
311.15	6.958	
310.95	6.927	
310.85	6.897	
310.65	6.868	
310.55	6.838	
310.45	6.809	
310.25	6.781	
310.15	6.753	
309.95	6.725	
309.85	6.699	
309.65	6.673	
309.55	6.646	
309.45	6.62	
309.35	6.593	
309.15	6.568	
309.05	6.542	
308.95	6.519	
308.85	6.495	
308.75	6.469	
308.55	6.447	
308.45	6.423	
308.35	6.4	
308.25	6.378	
308.15	6.356	
308.05	6.334	
307.95	6.312	
307.75	6.291	
307.65	6.271	
307.55	6.249	
307.45	6.229	
307.35	6.208	
307.25	6.19	
307.15	6.17	
307.05	6.15	
306.95	6.132	
306.85	6.113	
306.75	6.096	
306.65	6.077	
306.55	6.059	
306.45	6.043	
306.35	6.025	
306.35	6.008	
306.25	5.992	
306.15	5.975	
306.05	5.958	
305.95	5.943	
305.95	5.926	
305.85	5.91	
305.75	5.895	
305.65	5.88	
305.55	5.864	
305.55	5.85	
305.45	5.835	
305.35	5.821	
305.25	5.807	
305.25	5.795	
305.15	5.779	

System: nitric acid ammonium salt + water + calcium nitrate; phases: Liquid
Fixed: Pressure, kPa = 101
Fixed: Mole fraction of calcium nitrate = .1111
Fixed: Mole fraction of water = .7778
Property: Electrical conductivity, S/m (Liquid); method: Direct current cell with electrodes
Temperature, K	Electrical conductivity, S/m	uncertainty
358.25	22.86	
358.15	22.81	
357.95	22.77	
357.85	22.73	
357.65	22.67	
357.55	22.62	
357.35	22.57	
357.25	22.53	
357.05	22.48	
356.95	22.43	
356.75	22.38	
356.65	22.34	
356.55	22.29	
356.35	22.24	
356.25	22.2	
356.05	22.15	
355.95	22.11	
355.85	22.06	
355.65	22.01	
355.55	21.97	
355.45	21.92	
355.25	21.88	
355.15	21.83	
355.05	21.79	
354.85	21.75	
354.75	21.71	
354.55	21.66	
354.45	21.61	
354.35	21.57	
354.15	21.54	
354.05	21.49	
353.95	21.45	
353.75	21.41	
353.65	21.37	
353.55	21.33	
353.35	21.28	
353.25	21.24	
353.15	21.2	
352.95	21.16	
352.85	21.12	
352.75	21.08	
352.55	21.04	
352.45	20.99	
352.35	20.96	
352.25	20.92	
352.05	20.88	
351.95	20.85	
351.85	20.84	
351.75	20.81	
351.55	20.77	
351.45	20.74	
351.35	20.7	
351.25	20.66	
351.05	20.63	
350.95	20.59	
350.85	20.55	
350.75	20.52	
350.55	20.48	
350.45	20.44	
350.35	20.4	
350.25	20.37	
350.15	20.33	
350.05	20.29	
349.85	20.26	
349.75	20.22	
349.65	20.18	
349.55	20.15	
349.35	20.11	
349.25	20.07	
349.15	20.03	
349.05	19.99	
348.95	19.96	
348.75	19.93	
348.65	19.89	
348.55	19.85	
348.45	19.82	
348.35	19.78	
348.25	19.75	
348.05	19.71	
347.95	19.68	
347.85	19.64	
347.75	19.61	
347.65	19.57	
347.55	19.53	
347.35	19.51	
347.25	19.47	
347.15	19.43	
347.05	19.4	
346.95	19.36	
346.85	19.33	
346.75	19.3	
346.65	19.27	
346.55	19.23	
346.45	19.2	
346.35	19.17	
346.25	19.13	
346.05	19.1	
345.95	19.07	
345.85	19.03	
345.75	19.01	
345.65	18.97	
345.55	18.94	
345.45	18.91	
345.35	18.87	
345.25	18.84	
345.15	18.81	
345.05	18.78	
344.95	18.75	
344.85	18.71	
344.75	18.68	
344.65	18.65	
344.55	18.62	
344.35	18.59	
344.25	18.55	
344.15	18.52	
344.05	18.49	
343.95	18.46	
343.85	18.44	
343.75	18.4	
343.65	18.37	
343.55	18.34	
343.45	18.31	
343.35	18.28	
343.25	18.25	
343.15	18.22	
343.05	18.2	
342.95	18.16	
342.85	18.13	
342.85	18.1	
342.75	18.08	
342.65	18.04	
342.55	18.02	
342.45	17.99	
342.35	17.96	
342.25	17.93	
342.15	17.9	
342.05	17.87	
341.95	17.84	
341.85	17.82	
341.75	17.79	
341.65	17.76	
341.55	17.73	
341.45	17.7	
341.35	17.68	
341.25	17.65	
341.15	17.62	
341.05	17.6	
340.95	17.56	
340.85	17.54	
340.75	17.51	
340.65	17.48	
340.55	17.45	
340.55	17.43	
340.45	17.4	
340.35	17.37	
340.25	17.34	
340.15	17.32	
340.05	17.29	
339.95	17.27	
339.95	17.24	
339.85	17.21	
339.75	17.19	
339.65	17.16	
339.55	17.13	
339.45	17.11	
339.35	17.08	
339.25	17.06	
339.25	17.03	
339.15	17	
339.05	16.98	
338.95	16.96	
338.85	16.93	
338.75	16.91	
338.65	16.88	
338.65	16.85	
338.55	16.83	
338.45	16.8	
338.35	16.78	
338.25	16.75	
338.15	16.73	
338.05	16.7	
337.95	16.68	
337.95	16.65	
337.85	16.63	
337.75	16.61	
337.65	16.58	
337.55	16.56	
337.45	16.53	
337.35	16.51	
337.35	16.49	
337.25	16.46	
337.15	16.44	
337.05	16.41	
336.95	16.39	
336.95	16.36	
336.85	16.34	
336.75	16.32	
336.65	16.3	
336.55	16.27	
336.55	16.25	
336.45	16.23	
336.35	16.2	
336.25	16.18	
336.25	16.16	
336.15	16.14	
336.05	16.11	
335.95	16.09	
335.85	16.07	
335.85	16.04	
335.75	16.02	
335.65	15.99	
335.55	15.97	
335.55	15.96	
335.45	15.93	
335.35	15.91	
335.25	15.89	
335.15	15.87	
335.15	15.85	
335.05	15.82	
334.95	15.8	
334.85	15.78	
334.75	15.76	
334.75	15.73	
334.65	15.71	
334.55	15.69	
334.45	15.66	
334.35	15.65	
334.35	15.62	
334.25	15.6	
334.15	15.58	
334.05	15.56	
334.05	15.54	
333.95	15.52	
333.85	15.5	
333.85	15.48	
333.75	15.46	
333.65	15.43	
333.65	15.42	
333.55	15.39	
333.45	15.37	
333.35	15.35	
333.35	15.33	
333.25	15.31	
333.15	15.29	
333.15	15.27	
333.05	15.25	
332.95	15.23	
332.95	15.21	
332.85	15.19	
332.75	15.17	
332.75	15.15	
332.65	15.13	
332.55	15.11	
332.45	15.09	
332.45	15.08	
332.35	15.05	
332.25	15.03	
332.25	15.02	
332.15	14.99	
332.05	14.97	
331.95	14.95	
331.95	14.94	
331.85	14.92	
331.75	14.9	
331.75	14.88	
331.65	14.86	
331.55	14.84	
331.45	14.82	
331.45	14.81	
331.35	14.78	
331.25	14.76	
331.25	14.75	
331.15	14.73	
331.05	14.71	
331.05	14.69	
330.95	14.67	
330.85	14.65	
330.85	14.64	
330.75	14.61	
330.65	14.6	
330.65	14.58	
330.55	14.56	
330.55	14.54	
330.45	14.53	
330.35	14.51	
330.35	14.49	
330.25	14.47	
330.25	14.45	
330.15	14.44	
330.05	14.41	
330.05	14.4	
329.95	14.38	
329.85	14.37	
329.85	14.34	
329.75	14.33	
329.75	14.31	
329.65	14.29	
329.55	14.27	
329.55	14.26	
329.45	14.24	
329.35	14.22	
329.35	14.21	
329.25	14.19	
329.25	14.17	
329.15	14.15	
329.05	14.14	
329.05	14.12	
328.95	14.1	
328.85	14.09	
328.85	14.07	
328.75	14.05	
328.65	14.03	
328.65	14.02	
328.55	14	
328.55	13.99	
328.45	13.97	
328.35	13.95	
328.35	13.94	
328.25	13.92	
328.15	13.9	
328.15	13.89	
328.05	13.87	
328.05	13.85	
327.95	13.84	
327.85	13.82	
327.85	13.81	
327.75	13.79	
327.75	13.77	
327.65	13.76	
327.55	13.74	
327.55	13.72	
327.45	13.7	
327.45	13.69	
327.35	13.67	
327.35	13.66	
327.25	13.64	
327.25	13.63	
327.15	13.61	
327.05	13.6	
327.05	13.58	
326.95	13.56	
326.95	13.55	
326.85	13.54	
326.85	13.52	
326.75	13.5	
326.75	13.49	
326.65	13.47	
326.55	13.46	
326.55	13.44	
326.45	13.42	
326.45	13.41	
326.35	13.39	
326.35	13.38	
326.25	13.36	
326.25	13.35	
326.15	13.33	
326.05	13.32	
326.05	13.31	
325.95	13.29	
325.95	13.28	
325.85	13.26	
325.85	13.24	
325.75	13.23	
325.75	13.22	
325.65	13.2	
325.65	13.19	
325.55	13.17	
325.45	13.16	
325.45	13.15	
325.35	13.13	
325.35	13.12	
325.25	13.1	
325.25	13.08	
325.15	13.07	
325.15	13.06	
325.05	13.04	
324.95	13.03	
324.95	13.01	
324.85	13	
324.85	12.99	
324.75	12.97	
324.75	12.96	
324.65	12.94	
324.65	12.93	
324.55	12.91	
324.55	12.9	
324.45	12.89	
324.45	12.87	
324.35	12.86	
324.35	12.85	
324.25	12.83	
324.25	12.82	
324.15	12.8	
324.15	12.79	
324.05	12.78	
324.05	12.77	
323.95	12.75	
323.95	12.73	
323.85	12.72	
323.85	12.71	
323.75	12.69	
323.75	12.68	
323.65	12.67	
323.65	12.66	
323.65	12.64	
323.55	12.63	
323.55	12.61	
323.45	12.6	
323.45	12.59	
323.35	12.57	
323.35	12.56	
323.25	12.55	
323.25	12.54	
323.15	12.52	
323.15	12.51	
323.05	12.5	
323.05	12.48	
322.95	12.47	
322.95	12.46	
322.85	12.45	
322.85	12.43	
322.75	12.42	
322.75	12.41	
322.65	12.39	
322.65	12.38	
322.55	12.37	
322.55	12.36	
322.45	12.34	
322.45	12.33	
322.35	12.32	
322.35	12.31	
322.25	12.29	
322.25	12.28	
322.25	12.27	
322.15	12.25	
322.15	12.24	
322.05	12.23	
322.05	12.22	
321.95	12.21	
321.95	12.19	
321.85	12.18	
321.85	12.17	
321.75	12.16	
321.75	12.15	
321.65	12.13	
321.65	12.12	
321.55	12.11	
321.55	12.1	
321.45	12.08	
321.45	12.07	
321.45	12.06	
321.35	12.05	
321.35	12.03	
321.25	12.02	
321.25	12.01	
321.15	12	
321.15	11.99	
321.15	11.98	
321.05	11.97	
321.05	11.96	
320.95	11.94	
320.95	11.93	
320.95	11.92	
320.85	11.91	
320.85	11.9	
320.75	11.89	
320.75	11.87	
320.65	11.86	
320.65	11.85	
320.65	11.84	
320.55	11.83	
320.55	11.81	
320.45	11.81	
320.45	11.79	
320.35	11.78	
320.35	11.77	
320.35	11.76	
320.25	11.75	
320.25	11.74	
320.15	11.72	
320.15	11.72	
320.15	11.71	
320.05	11.69	
320.05	11.68	
319.95	11.67	
319.95	11.66	
319.85	11.65	
319.85	11.64	
319.85	11.63	
319.75	11.61	
319.75	11.6	
319.65	11.6	
319.65	11.58	
319.65	11.57	
319.55	11.56	
319.55	11.55	
319.45	11.54	
319.45	11.53	
319.35	11.52	
319.35	11.51	
319.35	11.5	
319.25	11.49	
319.25	11.48	
319.25	11.47	
319.15	11.46	
319.15	11.45	
319.05	11.44	
319.05	11.43	
318.95	11.41	
318.95	11.4	
318.95	11.39	
318.85	11.39	
318.85	11.38	
318.75	11.36	
318.75	11.35	
318.75	11.35	
318.65	11.33	
318.65	11.32	
318.55	11.31	
318.55	11.3	
318.45	11.29	
318.45	11.28	
318.45	11.27	
318.35	11.26	
318.35	11.25	
318.35	11.24	
318.25	11.23	
318.25	11.23	
318.25	11.21	
318.15	11.2	
318.15	11.19	
318.05	11.18	
318.05	11.17	
318.05	11.17	
317.95	11.16	
317.95	11.14	
317.95	11.13	
317.85	11.12	
317.85	11.12	
317.85	11.11	
317.75	11.09	
317.75	11.08	
317.75	11.07	
317.65	11.07	
317.65	11.06	
317.65	11.04	
317.55	11.04	
317.55	11.03	
317.45	11.02	
317.45	11.01	
317.45	11	
317.35	10.99	
317.35	10.98	
317.35	10.97	
317.25	10.96	
317.25	10.95	
317.25	10.94	
317.15	10.93	
317.15	10.92	
317.05	10.92	
317.05	10.9	
317.05	10.9	
316.95	10.89	
316.95	10.88	
316.95	10.87	
316.85	10.86	
316.85	10.85	
316.85	10.84	
316.75	10.84	
316.75	10.83	
316.75	10.81	
316.65	10.8	
316.65	10.8	
316.65	10.79	
316.55	10.78	
316.55	10.77	
316.55	10.76	
316.45	10.75	
316.45	10.74	
316.45	10.74	
316.45	10.73	
316.45	10.72	
316.35	10.72	
316.35	10.71	
316.35	10.7	
316.25	10.69	
316.25	10.68	
316.25	10.67	
316.15	10.66	
316.15	10.66	
316.15	10.64	
316.05	10.64	
316.05	10.63	
315.95	10.62	
315.95	10.61	
315.95	10.6	
315.85	10.59	
315.85	10.59	
315.75	10.58	
315.75	10.57	
315.75	10.56	
315.65	10.55	
315.65	10.55	
315.65	10.53	
315.55	10.53	
315.55	10.52	
315.55	10.51	
315.45	10.5	
315.45	10.5	
315.45	10.49	
315.35	10.48	
315.35	10.47	
315.35	10.47	
315.35	10.45	
315.25	10.45	
315.25	10.44	
315.25	10.43	
315.15	10.43	
315.15	10.42	
315.15	10.41	
315.15	10.4	
315.15	10.39	
315.05	10.39	
315.05	10.38	
315.05	10.38	
315.05	10.37	
315.05	10.36	
314.95	10.35	
314.95	10.34	
314.95	10.34	
314.85	10.33	
314.85	10.32	
314.85	10.31	
314.75	10.31	
314.75	10.3	
314.75	10.29	
314.65	10.28	
314.65	10.27	
314.65	10.27	
314.55	10.26	
314.55	10.25	
314.55	10.24	
314.45	10.23	
314.45	10.23	
314.45	10.22	
314.35	10.21	
314.35	10.2	
314.35	10.2	
314.25	10.19	
314.25	10.18	
314.25	10.18	
314.25	10.17	
314.15	10.16	
314.15	10.15	
314.15	10.15	
314.15	10.14	
314.05	10.13	
314.05	10.13	
314.05	10.12	
314.05	10.11	
314.05	10.11	
313.95	10.1	
313.95	10.09	
313.95	10.08	
313.95	10.08	
313.85	10.07	
313.85	10.06	
313.85	10.06	
313.75	10.05	
313.75	10.04	
313.75	10.03	
313.65	10.03	
313.65	10.02	
313.65	10.01	
313.55	10.01	
313.55	9.996	
313.55	9.989	
313.45	9.982	
313.45	9.978	
313.45	9.971	
313.35	9.964	
313.35	9.953	
313.35	9.95	
313.35	9.943	
313.25	9.932	
313.25	9.928	
313.25	9.918	
313.15	9.914	
313.15	9.907	
313.15	9.904	
313.15	9.893	
313.15	9.889	
313.15	9.882	
313.05	9.875	
313.05	9.872	
313.05	9.865	
313.05	9.857	
312.95	9.85	
312.95	9.843	
312.95	9.836	
312.85	9.833	
312.85	9.822	
312.85	9.818	
312.85	9.808	
312.75	9.804	
312.75	9.797	
312.75	9.79	
312.65	9.783	
312.65	9.776	
312.65	9.765	
312.55	9.765	
312.55	9.758	
312.55	9.751	
312.45	9.744	
312.45	9.737	
312.45	9.73	
312.45	9.723	
312.35	9.716	
312.35	9.709	
312.35	9.709	
312.35	9.705	
312.35	9.694	
312.35	9.691	
312.25	9.684	
312.25	9.677	
312.25	9.673	
312.25	9.666	
312.25	9.662	
312.15	9.655	
312.15	9.648	
312.15	9.641	
312.15	9.634	
312.05	9.627	
312.05	9.62	
312.05	9.613	
311.95	9.609	
311.95	9.602	
311.95	9.599	
311.95	9.588	
311.85	9.581	
311.85	9.577	
311.85	9.57	
311.85	9.567	
311.75	9.56	
311.75	9.556	
311.75	9.545	
311.75	9.538	
311.65	9.535	
311.65	9.531	
311.65	9.524	
311.65	9.517	
311.65	9.51	
311.65	9.51	
311.65	9.503	
311.55	9.496	
311.55	9.492	
311.55	9.485	
311.55	9.478	
311.45	9.475	
311.45	9.467	
311.45	9.464	
311.35	9.457	
311.35	9.45	
311.35	9.443	
311.35	9.439	
311.25	9.432	
311.25	9.425	
311.25	9.421	
311.25	9.414	
311.15	9.407	
311.15	9.4	
311.15	9.397	
311.15	9.389	
311.05	9.386	
311.05	9.382	
311.05	9.372	
311.05	9.368	
310.95	9.361	
310.95	9.358	
310.95	9.354	
310.95	9.347	
310.95	9.343	
310.95	9.336	
310.95	9.329	
310.85	9.329	
310.85	9.322	
310.85	9.315	
310.85	9.311	
310.75	9.304	
310.75	9.297	
310.75	9.294	
310.75	9.29	
310.65	9.28	
310.65	9.276	
310.65	9.272	
310.65	9.269	
310.55	9.258	
310.55	9.255	
310.55	9.248	
310.55	9.241	
310.45	9.241	
310.45	9.233	
310.45	9.226	
310.45	9.223	
310.35	9.212	
310.35	9.209	
310.35	9.202	
310.35	9.198	
310.35	9.194	
310.25	9.191	
310.25	9.184	
310.25	9.184	
310.25	9.177	
310.25	9.023	
310.25	9.02	
310.25	9.014	
310.15	9.01	
310.15	9.005	
310.15	8.999	
310.15	8.994	
310.05	8.989	
310.05	8.983	
310.05	8.979	
310.05	8.974	
309.95	8.969	
309.95	8.964	
309.95	8.959	
309.95	8.953	
309.85	8.948	
309.85	8.943	
309.85	8.939	
309.85	8.933	
309.75	8.929	
309.75	8.923	
309.75	8.918	
309.75	8.914	
309.65	8.908	
309.65	8.903	
309.65	8.899	
309.65	8.895	
309.65	8.891	
309.65	8.887	
309.65	8.884	
309.55	8.878	
309.55	8.873	
309.55	8.868	
309.55	8.864	
309.55	8.859	
309.45	8.853	
309.45	8.849	
309.45	8.844	
309.45	8.839	
309.45	8.834	
309.35	8.83	
309.35	8.823	
309.35	8.819	
309.35	8.815	
309.25	8.81	
309.25	8.805	
309.25	8.8	
309.25	8.796	
309.25	8.79	
309.15	8.786	
309.15	8.781	
309.15	8.777	
309.15	8.772	
309.15	8.768	
309.15	8.764	
309.05	8.76	
309.05	8.755	
309.05	8.752	
309.05	8.748	
309.05	8.743	
309.05	8.739	
309.05	8.736	
309.05	8.73	
308.95	8.726	
308.95	8.722	
308.95	8.716	
308.95	8.711	
308.85	8.706	
308.85	8.703	
308.85	8.698	
308.85	8.693	
308.85	8.689	
308.75	8.683	
308.75	8.679	
308.75	8.675	
308.75	8.671	
308.75	8.666	
308.65	8.662	
308.65	8.659	
308.65	8.656	
308.65	8.652	
308.65	8.647	
308.65	8.643	
308.65	8.638	
308.65	8.635	
308.65	8.63	
308.55	8.626	
308.55	8.623	
308.55	8.618	
308.55	8.612	
308.45	8.609	
308.45	8.605	
308.45	8.6	
308.45	8.596	
308.45	8.592	
308.35	8.588	
308.35	8.582	
308.35	8.579	
308.35	8.575	
308.35	8.57	
308.25	8.565	
308.25	8.562	
308.25	8.557	
308.25	8.553	
308.25	8.549	
308.15	8.544	
308.15	8.54	
308.15	8.536	
308.15	8.531	
308.15	8.527	
308.05	8.522	
308.05	8.518	
308.05	8.514	
308.05	8.512	
308.05	8.508	
308.05	8.504	
308.05	8.501	
308.05	8.497	
307.95	8.493	
307.95	8.489	
307.95	8.486	

System: nitric acid ammonium salt + water + calcium nitrate; phases: Liquid
Fixed: Pressure, kPa = 101
Fixed: Mole fraction of calcium nitrate = .1
Fixed: Mole fraction of water = .8
Property: Electrical conductivity, S/m (Liquid); method: Direct current cell with electrodes
Temperature, K	Electrical conductivity, S/m	uncertainty
329.45	29.95	
329.35	29.87	
329.35	29.8	
329.25	29.72	
329.15	29.65	
329.05	29.57	
329.05	29.5	
328.95	29.42	
328.85	29.35	
328.75	29.28	
328.75	29.2	
328.65	29.13	
328.55	29.06	
328.45	28.98	
328.45	28.91	
328.35	28.84	
328.25	28.77	
328.15	28.7	
328.05	28.63	
328.05	28.56	
327.95	28.49	
327.85	28.42	
327.75	28.35	
327.75	28.28	
327.65	28.21	
327.55	28.14	
327.55	28.07	
327.45	28	
327.35	27.93	
327.35	27.87	
327.25	27.8	
327.15	27.73	
327.15	27.67	
327.05	27.6	
326.95	27.53	
326.95	27.47	
326.85	27.4	
326.75	27.34	
326.75	27.27	
326.65	27.21	
326.55	27.14	
326.55	27.08	
326.45	27.01	
326.35	26.95	
326.35	26.89	
326.25	26.83	
326.15	26.76	
326.15	26.7	
326.05	26.64	
325.95	26.58	
325.95	26.52	
325.85	26.46	
325.75	26.39	
325.75	26.33	
325.65	26.27	
325.55	26.21	
325.55	26.15	
325.45	26.09	
325.45	26.03	
325.35	25.97	
325.25	25.92	
325.25	25.86	
325.15	25.8	
325.05	25.74	
325.05	25.68	
324.95	25.63	
324.85	25.57	
324.85	25.52	
324.75	25.45	
324.75	25.4	
324.65	25.34	
324.55	25.29	
324.55	25.23	
324.45	25.18	
324.45	25.12	
324.35	25.06	
324.35	25.01	
324.25	24.96	
324.15	24.9	
324.15	24.85	
324.05	24.79	
324.05	24.74	
323.95	24.68	
323.95	24.63	
323.85	24.58	
323.85	24.53	
323.75	24.48	
323.75	24.42	
323.65	24.37	
323.65	24.32	
323.55	24.26	
323.55	24.22	
323.45	24.17	
323.35	24.12	
323.35	24.06	
323.25	24.01	
323.25	23.96	
323.15	23.91	
323.15	23.86	
323.05	23.81	
323.05	23.76	
322.95	23.71	
322.95	23.67	
322.85	23.61	
322.75	23.56	
322.75	23.51	
322.65	23.47	
322.65	23.42	
322.55	23.37	
322.55	23.32	
322.45	23.27	
322.45	23.23	
322.35	23.18	
322.25	23.14	
322.25	23.08	
322.15	23.04	
322.15	22.99	
322.05	22.95	
322.05	22.9	
321.95	22.85	
321.95	22.81	
321.85	22.76	
321.85	22.72	
321.75	22.67	
321.65	22.62	
321.65	22.58	
321.55	22.54	
321.55	22.49	
321.45	22.45	
321.45	22.4	
321.35	22.35	
321.35	22.32	
321.25	22.27	
321.25	22.23	
321.25	22.18	
321.15	22.14	
321.15	22.1	
321.05	22.06	
321.05	22.01	
320.95	21.97	
320.95	21.93	
320.85	21.88	
320.85	21.84	
320.75	21.8	
320.75	21.76	
320.65	21.72	
320.65	21.68	
320.55	21.63	
320.55	21.6	
320.45	21.55	
320.45	21.51	
320.45	21.47	
320.35	21.43	
320.35	21.39	
320.25	21.35	
320.25	21.31	
320.15	21.27	
320.15	21.23	
320.05	21.19	
320.05	21.15	
319.95	21.11	
319.95	21.08	
319.85	21.04	
319.85	21	
319.85	20.96	
319.75	20.93	
319.75	20.89	
319.65	20.85	
319.65	20.81	
319.55	20.77	
319.55	20.74	
319.45	20.7	
319.45	20.66	
319.35	20.62	
319.35	20.59	
319.35	20.54	
319.25	20.51	
319.25	20.48	
319.15	20.43	
319.15	20.4	
319.05	20.36	
319.05	20.33	
318.95	20.29	
318.95	20.26	
318.85	20.22	
318.85	20.19	
318.75	20.15	
318.75	20.11	
318.75	20.08	
318.65	20.04	
318.65	20.01	
318.55	19.98	
318.55	19.94	
318.45	19.91	
318.45	19.87	
318.35	19.84	
318.35	19.8	
318.35	19.77	
318.25	19.73	
318.25	19.7	
318.25	19.66	
318.15	19.63	
318.15	19.6	
318.05	19.57	
318.05	19.53	
318.05	19.5	
317.95	19.47	
317.95	19.44	
317.85	19.4	
317.85	19.37	
317.85	19.33	
317.75	19.31	
317.75	19.27	
317.65	19.24	
317.65	19.21	
317.65	19.18	
317.55	19.15	
317.55	19.11	
317.55	19.08	
317.45	19.05	
317.45	19.02	
317.35	18.99	
317.35	18.95	
317.35	18.92	
317.25	18.89	
317.25	18.86	
317.15	18.83	
317.15	18.8	
317.15	18.77	
317.05	18.74	
317.05	18.71	
317.05	18.68	
316.95	18.64	
316.95	18.62	
316.85	18.58	
316.85	18.56	
316.85	18.53	
316.75	18.5	
316.75	18.47	
316.65	18.44	
316.65	18.41	
316.65	18.38	
316.55	18.35	
316.55	18.32	
316.55	18.3	
316.45	18.27	
316.45	18.23	
316.35	18.2	
316.35	18.18	
316.35	18.15	
316.25	18.13	
316.25	18.1	
316.25	18.06	
316.15	18.04	
316.15	18.02	
316.15	17.99	
316.05	17.96	
316.05	17.93	
315.95	17.91	
315.95	17.87	
315.95	17.85	
315.85	17.82	
315.85	17.8	
315.75	17.77	
315.75	17.74	
315.75	17.71	
315.65	17.69	
315.65	17.66	
315.65	17.63	
315.55	17.6	
315.55	17.58	
315.55	17.55	
315.45	17.52	
315.45	17.5	
315.35	17.47	
315.35	17.45	
315.35	17.42	
315.35	17.39	
315.25	17.37	
315.25	17.34	
315.25	17.32	
315.15	17.29	
315.15	17.27	
315.15	17.24	
315.05	17.22	
315.05	17.19	
315.05	17.17	
314.95	17.14	
314.95	17.12	
314.95	17.09	
314.85	17.07	
314.85	17.05	
314.85	17.02	
314.75	17	
314.75	16.97	
314.65	16.91	
314.65	16.84	
314.55	16.76	
314.45	16.67	
314.25	16.59	
314.15	16.49	
314.05	16.4	
313.95	16.3	
313.75	16.2	
313.65	16.1	
313.55	16	
313.35	15.9	
313.25	15.8	
313.15	15.7	
312.95	15.61	
312.85	15.51	
312.75	15.42	
312.55	15.33	
312.45	15.23	
312.35	15.15	
312.25	15.06	
312.05	14.97	
311.95	14.89	
311.85	14.8	
311.75	14.72	
311.65	14.63	
311.45	14.55	
311.35	14.47	
311.25	14.4	
311.15	14.32	
311.05	14.24	
310.95	14.16	
310.85	14.09	
310.75	14.02	
310.55	13.94	
310.45	13.87	
310.35	13.8	
310.25	13.73	
310.15	13.66	
310.05	13.59	
309.95	13.53	
309.85	13.46	
309.75	13.39	
309.65	13.33	
309.55	13.26	
309.45	13.2	
309.35	13.14	
309.25	13.07	
309.15	13.01	
309.05	12.95	
308.95	12.89	
308.85	12.83	
308.75	12.77	
308.65	12.71	
308.55	12.66	
308.55	12.6	
308.45	12.54	
308.35	12.49	
308.25	12.44	
308.15	12.39	
308.05	12.33	
307.95	12.28	
307.95	12.23	
307.85	12.18	
307.75	12.13	
307.65	12.08	
307.55	12.03	
307.45	11.99	
307.45	11.94	
307.35	11.89	
307.25	11.85	
307.15	11.8	
307.05	11.76	
307.05	11.71	
306.95	11.67	
306.85	11.63	
306.75	11.59	
306.75	11.54	
306.65	11.51	
306.55	11.46	
306.55	11.42	
306.45	11.38	
306.35	11.35	
306.35	11.31	
306.25	11.27	
306.15	11.23	
306.15	11.19	
306.05	11.16	
306.05	11.12	
305.95	11.08	
305.95	11.05	
305.85	11.01	
305.75	10.98	
305.75	10.94	
305.65	10.91	
305.65	10.88	
305.55	10.84	
305.45	10.81	
305.45	10.78	
305.35	10.75	
305.35	10.72	
305.25	10.68	
305.25	10.65	
305.15	10.63	
305.15	10.59	
305.05	10.56	
305.05	10.54	
304.95	10.51	
304.85	10.48	
304.85	10.45	
304.75	10.42	
304.75	10.39	
304.65	10.36	
304.65	10.34	
304.55	10.31	
304.55	10.29	
304.45	10.26	
304.45	10.23	
304.35	10.21	
304.35	10.18	
304.35	10.16	
304.25	10.14	
304.25	10.11	
304.15	10.09	
304.15	10.06	
304.05	10.04	
304.05	10.02	
303.95	9.995	
303.95	9.972	
303.85	9.948	
303.85	9.93	
303.85	9.907	
303.75	9.884	
303.75	9.863	
303.65	9.839	
303.65	9.821	
303.65	9.801	
303.55	9.78	
303.55	9.759	
303.55	9.738	
303.45	9.72	
303.45	9.699	
303.35	9.681	
303.35	9.66	
303.35	9.642	
303.25	9.624	
303.25	9.603	
303.25	9.588	
303.25	9.567	
303.15	9.551	
303.15	9.533	
303.15	9.515	
303.05	9.499	
303.05	9.481	
303.05	9.466	
302.95	9.448	
302.95	9.432	
302.95	9.416	
302.85	9.398	
302.85	9.385	
302.85	9.37	
302.85	9.352	
302.75	9.336	
302.75	9.32	
302.75	9.307	
302.75	9.292	
302.65	9.276	

System: nitric acid ammonium salt + water; phases: Liquid
Property: Electrical conductivity, S/m (Liquid); method: Direct current cell with electrodes
Temperature, K	Pressure, kPa	Mole fraction of water	Electrical conductivity, S/m	uncertainty
358.15	101.325	.8	5.62	
358.15	101.325	.8	5.616	
358.15	101.325	.8	5.609	
358.05	101.325	.8	5.599	
358.05	101.325	.8	5.588	
357.85	101.325	.8	5.579	
357.75	101.325	.8	5.569	
357.65	101.325	.8	5.559	
357.55	101.325	.8	5.548	
357.45	101.325	.8	5.537	
357.25	101.325	.8	5.524	
357.15	101.325	.8	5.511	
357.05	101.325	.8	5.497	
356.85	101.325	.8	5.484	
356.75	101.325	.8	5.47	
356.65	101.325	.8	5.457	
356.55	101.325	.8	5.442	
356.35	101.325	.8	5.429	
356.25	101.325	.8	5.414	
356.15	101.325	.8	5.399	
355.95	101.325	.8	5.385	
355.85	101.325	.8	5.371	
355.75	101.325	.8	5.355	
355.65	101.325	.8	5.34	
355.45	101.325	.8	5.324	
355.35	101.325	.8	5.31	
355.25	101.325	.8	5.295	
355.05	101.325	.8	5.28	
354.95	101.325	.8	5.265	
354.75	101.325	.8	5.249	
354.65	101.325	.8	5.234	
354.55	101.325	.8	5.221	
354.35	101.325	.8	5.206	
354.25	101.325	.8	5.19	
354.15	101.325	.8	5.175	
353.95	101.325	.8	5.162	
353.85	101.325	.8	5.149	
353.75	101.325	.8	5.133	
353.65	101.325	.8	5.119	
353.55	101.325	.8	5.109	
353.45	101.325	.8	5.094	
353.25	101.325	.8	5.08	
353.15	101.325	.8	5.065	
353.05	101.325	.8	5.052	
352.95	101.325	.8	5.039	
352.85	101.325	.8	5.025	
352.75	101.325	.8	5.011	
352.55	101.325	.8	4.997	
352.45	101.325	.8	4.983	
352.35	101.325	.8	4.97	
352.25	101.325	.8	4.956	
352.15	101.325	.8	4.943	
352.05	101.325	.8	4.93	
351.95	101.325	.8	4.916	
351.75	101.325	.8	4.903	
351.65	101.325	.8	4.895	
351.55	101.325	.8	4.885	
351.45	101.325	.8	4.89	
351.35	101.325	.8	4.883	
351.25	101.325	.8	4.862	
351.15	101.325	.8	4.849	
351.05	101.325	.8	4.836	
350.95	101.325	.8	4.824	
350.85	101.325	.8	4.811	
350.75	101.325	.8	4.8	
350.55	101.325	.8	4.786	
350.45	101.325	.8	4.774	
350.35	101.325	.8	4.763	
350.25	101.325	.8	4.759	
350.15	101.325	.8	4.766	
349.95	101.325	.8	4.766	
349.85	101.325	.8	4.755	
349.75	101.325	.8	4.745	
349.65	101.325	.8	4.737	
349.45	101.325	.8	4.729	
349.35	101.325	.8	4.716	
349.25	101.325	.8	4.708	
349.15	101.325	.8	4.697	
348.95	101.325	.8	4.685	
348.85	101.325	.8	4.672	
348.75	101.325	.8	4.658	
348.65	101.325	.8	4.645	
348.55	101.325	.8	4.631	
348.35	101.325	.8	4.626	
348.25	101.325	.8	4.621	
348.15	101.325	.8	4.608	
348.05	101.325	.8	4.595	
347.85	101.325	.8	4.582	
347.75	101.325	.8	4.567	
347.65	101.325	.8	4.554	
347.55	101.325	.8	4.542	
347.45	101.325	.8	4.529	
347.35	101.325	.8	4.516	
347.25	101.325	.8	4.504	
347.15	101.325	.8	4.49	
347.05	101.325	.8	4.478	
346.95	101.325	.8	4.466	
346.85	101.325	.8	4.454	
346.75	101.325	.8	4.442	
346.65	101.325	.8	4.429	
346.55	101.325	.8	4.417	
346.45	101.325	.8	4.404	
346.35	101.325	.8	4.392	
346.25	101.325	.8	4.38	
346.15	101.325	.8	4.367	
346.05	101.325	.8	4.356	
345.95	101.325	.8	4.344	
345.85	101.325	.8	4.331	
345.75	101.325	.8	4.32	
345.65	101.325	.8	4.308	
345.55	101.325	.8	4.296	
345.45	101.325	.8	4.284	
345.35	101.325	.8	4.272	
345.25	101.325	.8	4.26	
345.15	101.325	.8	4.249	
345.05	101.325	.8	4.237	
344.95	101.325	.8	4.225	
344.85	101.325	.8	4.214	
344.75	101.325	.8	4.201	
344.65	101.325	.8	4.191	
344.55	101.325	.8	4.179	
344.45	101.325	.8	4.167	
344.35	101.325	.8	4.156	
344.25	101.325	.8	4.145	
344.15	101.325	.8	4.133	
344.05	101.325	.8	4.122	
343.95	101.325	.8	4.112	
343.85	101.325	.8	4.099	
343.75	101.325	.8	4.089	
343.65	101.325	.8	4.077	
343.55	101.325	.8	4.067	
343.55	101.325	.8	4.057	
343.45	101.325	.8	4.046	
343.35	101.325	.8	4.036	
343.25	101.325	.8	4.026	
343.15	101.325	.8	4.015	
343.15	101.325	.8	4.004	
343.05	101.325	.8	3.994	
342.95	101.325	.8	3.983	
342.85	101.325	.8	3.973	
342.75	101.325	.8	3.963	
342.65	101.325	.8	3.951	
342.55	101.325	.8	3.942	
342.45	101.325	.8	3.93	
342.35	101.325	.8	3.92	
342.25	101.325	.8	3.91	
342.25	101.325	.8	3.9	
342.15	101.325	.8	3.89	
342.05	101.325	.8	3.879	
341.95	101.325	.8	3.869	
341.85	101.325	.8	3.86	
341.75	101.325	.8	3.849	
341.65	101.325	.8	3.839	
341.55	101.325	.8	3.829	
341.45	101.325	.8	3.819	
341.35	101.325	.8	3.809	
341.25	101.325	.8	3.799	
341.15	101.325	.8	3.79	
341.15	101.325	.8	3.78	
340.95	101.325	.8	3.77	
340.95	101.325	.8	3.759	
340.85	101.325	.8	3.75	
340.75	101.325	.8	3.74	
340.65	101.325	.8	3.73	
340.55	101.325	.8	3.721	
340.45	101.325	.8	3.711	
340.35	101.325	.8	3.702	
340.25	101.325	.8	3.692	
340.25	101.325	.8	3.683	
340.15	101.325	.8	3.674	
340.05	101.325	.8	3.665	
339.95	101.325	.8	3.656	
339.95	101.325	.8	3.646	
339.85	101.325	.8	3.638	
339.75	101.325	.8	3.627	
339.65	101.325	.8	3.618	
339.65	101.325	.8	3.61	
339.55	101.325	.8	3.601	
339.45	101.325	.8	3.591	
339.35	101.325	.8	3.582	
339.25	101.325	.8	3.574	
339.15	101.325	.8	3.563	
339.15	101.325	.8	3.555	
339.05	101.325	.8	3.546	
338.95	101.325	.8	3.537	
338.85	101.325	.8	3.529	
338.75	101.325	.8	3.52	
338.75	101.325	.8	3.511	
338.65	101.325	.8	3.504	
338.55	101.325	.8	3.495	
338.55	101.325	.8	3.487	
338.45	101.325	.8	3.479	
338.35	101.325	.8	3.471	
338.35	101.325	.8	3.463	
338.25	101.325	.8	3.455	
338.15	101.325	.8	3.446	
338.05	101.325	.8	3.437	
337.95	101.325	.8	3.428	
337.95	101.325	.8	3.421	
337.85	101.325	.8	3.411	
337.75	101.325	.8	3.404	
337.65	101.325	.8	3.395	
337.55	101.325	.8	3.386	
337.45	101.325	.8	3.378	
337.35	101.325	.8	3.37	
337.35	101.325	.8	3.361	
337.25	101.325	.8	3.354	
337.15	101.325	.8	3.345	
337.05	101.325	.8	3.337	
337.05	101.325	.8	3.33	
336.95	101.325	.8	3.321	
336.85	101.325	.8	3.313	
336.75	101.325	.8	3.305	
336.75	101.325	.8	3.298	
336.65	101.325	.8	3.289	
336.55	101.325	.8	3.282	
336.45	101.325	.8	3.273	
336.45	101.325	.8	3.267	
336.35	101.325	.8	3.259	
336.25	101.325	.8	3.25	
336.25	101.325	.8	3.243	
336.15	101.325	.8	3.236	
336.05	101.325	.8	3.227	
335.95	101.325	.8	3.221	
335.95	101.325	.8	3.212	
335.85	101.325	.8	3.205	
335.75	101.325	.8	3.198	
335.75	101.325	.8	3.19	
335.65	101.325	.8	3.182	
335.55	101.325	.8	3.176	
335.55	101.325	.8	3.169	
335.45	101.325	.8	3.161	
335.35	101.325	.8	3.154	
335.35	101.325	.8	3.146	
335.25	101.325	.8	3.139	
335.15	101.325	.8	3.132	
335.15	101.325	.8	3.125	
335.05	101.325	.8	3.118	
334.95	101.325	.8	3.111	
334.95	101.325	.8	3.104	
334.85	101.325	.8	3.097	
334.75	101.325	.8	3.09	
334.75	101.325	.8	3.084	
334.65	101.325	.8	3.076	
334.55	101.325	.8	3.07	
334.55	101.325	.8	3.062	
334.45	101.325	.8	3.056	
334.35	101.325	.8	3.049	
334.35	101.325	.8	3.043	
334.25	101.325	.8	3.036	
334.25	101.325	.8	3.03	
334.15	101.325	.8	3.023	
334.05	101.325	.8	3.016	
334.05	101.325	.8	3.009	
333.95	101.325	.8	3.003	
333.85	101.325	.8	2.996	
333.85	101.325	.8	2.99	
333.75	101.325	.8	2.983	
333.75	101.325	.8	2.977	
333.65	101.325	.8	2.971	
333.65	101.325	.8	2.964	
333.55	101.325	.8	2.958	
333.45	101.325	.8	2.951	
333.45	101.325	.8	2.945	
333.35	101.325	.8	2.938	
333.25	101.325	.8	2.932	
333.25	101.325	.8	2.925	
333.15	101.325	.8	2.919	
333.05	101.325	.8	2.913	
333.05	101.325	.8	2.906	
332.95	101.325	.8	2.9	
332.85	101.325	.8	2.893	
332.85	101.325	.8	2.887	
332.75	101.325	.8	2.88	
332.65	101.325	.8	2.874	
332.65	101.325	.8	2.868	
332.55	101.325	.8	2.862	
332.45	101.325	.8	2.856	
332.45	101.325	.8	2.849	
332.35	101.325	.8	2.843	
332.25	101.325	.8	2.837	
332.15	101.325	.8	2.829	
332.15	101.325	.8	2.821	
332.05	101.325	.8	2.815	
331.95	101.325	.8	2.808	
331.95	101.325	.8	2.802	
331.85	101.325	.8	2.795	
331.75	101.325	.8	2.789	
331.75	101.325	.8	2.784	
331.65	101.325	.8	2.776	
331.55	101.325	.8	2.771	
331.45	101.325	.8	2.765	
331.45	101.325	.8	2.758	
331.35	101.325	.8	2.753	
331.35	101.325	.8	2.747	
331.25	101.325	.8	2.741	
331.15	101.325	.8	2.735	
331.05	101.325	.8	2.725	
330.95	101.325	.8	2.708	
330.75	101.325	.8	2.683	
330.55	101.325	.8	2.655	
330.25	101.325	.8	2.624	
329.95	101.325	.8	2.588	
329.55	101.325	.8	2.552	
329.15	101.325	.8	2.517	
328.85	101.325	.8	2.481	
328.45	101.325	.8	2.444	
328.05	101.325	.8	2.409	
327.65	101.325	.8	2.375	
327.35	101.325	.8	2.342	
327.05	101.325	.8	2.309	
326.65	101.325	.8	2.278	
326.35	101.325	.8	2.246	
325.95	101.325	.8	2.216	
325.65	101.325	.8	2.186	
325.25	101.325	.8	2.157	
324.95	101.325	.8	2.128	
324.55	101.325	.8	2.1	
324.25	101.325	.8	2.07	
323.95	101.325	.8	2.044	
323.65	101.325	.8	2.018	
323.35	101.325	.8	1.992	
323.05	101.325	.8	1.967	
322.75	101.325	.8	1.942	
322.45	101.325	.8	1.918	
322.15	101.325	.8	1.895	
321.75	101.325	.8	1.871	
321.55	101.325	.8	1.848	
321.25	101.325	.8	1.827	
320.95	101.325	.8	1.807	
320.75	101.325	.8	1.785	
320.55	101.325	.8	1.765	
320.25	101.325	.8	1.744	
319.95	101.325	.8	1.724	
319.65	101.325	.8	1.704	
319.45	101.325	.8	1.685	
319.15	101.325	.8	1.665	
318.85	101.325	.8	1.646	
318.55	101.325	.8	1.627	
318.35	101.325	.8	1.608	
318.05	101.325	.8	1.59	
317.85	101.325	.8	1.572	
317.55	101.325	.8	1.554	
317.35	101.325	.8	1.537	
317.05	101.325	.8	1.519	
316.85	101.325	.8	1.503	
316.55	101.325	.8	1.485	
316.35	101.325	.8	1.469	
316.05	101.325	.8	1.454	
315.85	101.325	.8	1.438	
315.55	101.325	.8	1.423	
315.35	101.325	.8	1.408	
315.15	101.325	.8	1.393	
314.95	101.325	.8	1.378	
314.75	101.325	.8	1.363	
314.55	101.325	.8	1.35	
314.25	101.325	.8	1.337	
314.05	101.325	.8	1.323	
313.85	101.325	.8	1.309	
313.65	101.325	.8	1.296	
313.45	101.325	.8	1.283	
313.25	101.325	.8	1.271	
313.05	101.325	.8	1.259	
312.85	101.325	.8	1.247	
312.65	101.325	.8	1.235	
312.45	101.325	.8	1.224	
312.35	101.325	.8	1.213	
312.15	101.325	.8	1.204	
311.95	101.325	.8	1.193	
311.85	101.325	.8	1.184	
311.75	101.325	.8	1.175	
311.55	101.325	.8	1.165	
311.45	101.325	.8	1.156	
311.25	101.325	.8	1.147	
311.15	101.325	.8	1.137	
310.95	101.325	.8	1.129	
310.85	101.325	.8	1.119	
310.65	101.325	.8	1.11	
310.45	101.325	.8	1.103	
310.35	101.325	.8	1.093	
310.15	101.325	.8	1.085	
310.05	101.325	.8	1.076	
309.85	101.325	.8	1.068	
309.75	101.325	.8	1.06	
309.55	101.325	.8	1.052	
309.45	101.325	.8	1.044	
309.25	101.325	.8	1.036	
309.15	101.325	.8	1.028	
308.95	101.325	.8	1.021	
308.85	101.325	.8	1.013	
308.75	101.325	.8	1.006	
308.65	101.325	.8	.999	
308.45	101.325	.8	.992	
308.35	101.325	.8	.985	
308.25	101.325	.8	.978	
308.15	101.325	.8	.972	
307.95	101.325	.8	.965	
307.85	101.325	.8	.959	
307.75	101.325	.8	.954	
307.65	101.325	.8	.948	
307.55	101.325	.8	.942	
307.45	101.325	.8	.938	
307.35	101.325	.8	.932	
307.25	101.325	.8	.923	
307.15	101.325	.8	.918	
307.05	101.325	.8	.895	
306.95	101.325	.8	.89	
306.75	101.325	.8	.886	
306.65	101.325	.8	.881	
306.55	101.325	.8	.876	
306.55	101.325	.8	.871	
306.45	101.325	.8	.867	
306.35	101.325	.8	.862	
306.25	101.325	.8	.858	
306.15	101.325	.8	.853	
306.05	101.325	.8	.849	
305.95	101.325	.8	.844	
305.85	101.325	.8	.84	
305.75	101.325	.8	.836	
305.75	101.325	.8	.831	
305.65	101.325	.8	.827	
305.55	101.325	.8	.823	
305.45	101.325	.8	.819	
305.35	101.325	.8	.815	
305.25	101.325	.8	.811	
305.15	101.325	.8	.807	
305.05	101.325	.8	.803	
305.05	101.325	.8	.799	
304.95	101.325	.8	.795	
304.85	101.325	.8	.792	
304.75	101.325	.8	.788	
304.65	101.325	.8	.785	
304.65	101.325	.8	.782	
304.55	101.325	.8	.778	
304.55	101.325	.8	.775	
304.45	101.325	.8	.773	
304.35	101.325	.8	.77	
304.35	101.325	.8	.767	
304.25	101.325	.8	.764	
304.15	101.325	.8	.762	
304.15	101.325	.8	.759	
304.05	101.325	.8	.756	
303.95	101.325	.8	.753	
303.95	101.325	.8	.75	
303.85	101.325	.8	.748	
303.75	101.325	.8	.745	
303.75	101.325	.8	.742	
303.65	101.325	.8	.739	
303.65	101.325	.8	.737	
303.55	101.325	.8	.734	
303.45	101.325	.8	.732	
303.45	101.325	.8	.729	
303.35	101.325	.8	.726	
303.35	101.325	.8	.724	
303.25	101.325	.8	.721	
303.25	101.325	.8	.719	
303.15	101.325	.8	.717	
