Measured thermophysical data. Solubility of p-Aminobenzenesulfonamide in Different Solvents from  (283.15 to 323.15) K
Source: J. Chem. Eng. Data, 2009, 10.1021/je900038m
Compound 1: sulfanilamide, C6H8N2O2S, purity 99%
Compound 2: propanone, C3H6O
Compound 3: 1-propanol, C3H8O
Compound 4: 2-propanol, C3H8O
Compound 5: 1-butanol, C4H10O
Compound 6: 2-methyl-1-propanol, C4H10O

System: sulfanilamide + propanone; phases: Liquid, Crystal
Fixed: Pressure, kPa = 101
Property: Mole fraction of sulfanilamide (Liquid); method: laser monitoring observation technique
Temperature, K	Mole fraction of sulfanilamide	uncertainty
283.45	.08972	.004486
288.45	.09178	.004589
293.35	.09452	.004726
298.15	.09692	.004846
303.15	.09941	.0049705
308.15	.09834	.004917
313.15	.1037	.005185
318.15	.1099	.005495
323.15	.1156	.00578

System: sulfanilamide + 1-propanol; phases: Liquid, Crystal
Fixed: Pressure, kPa = 101
Property: Mole fraction of sulfanilamide (Liquid); method: laser monitoring observation technique
Temperature, K	Mole fraction of sulfanilamide	uncertainty
283.35	.001514	.0000757
288.55	.001973	.00009865
293.15	.002286	.0001143
298.35	.002715	.00013575
303.15	.003326	.0001663
308.15	.003862	.0001931
313.15	.004521	.00022605
318.15	.005455	.00027275
323.15	.006221	.00031105

System: sulfanilamide + 2-propanol; phases: Liquid, Crystal
Fixed: Pressure, kPa = 101
Property: Mole fraction of sulfanilamide (Liquid); method: laser monitoring observation technique
Temperature, K	Mole fraction of sulfanilamide	uncertainty
283.25	.0005335	.000026675
288.95	.0008142	.00004071
293.65	.001053	.00005265
298.15	.001638	.0000819
303.15	.002124	.0001062
308.15	.003095	.00015475
313.15	.003835	.00019175
318.15	.004985	.00024925
323.15	.006738	.0003369

System: sulfanilamide + 1-butanol; phases: Liquid, Crystal
Fixed: Pressure, kPa = 101
Property: Mole fraction of sulfanilamide (Liquid); method: laser monitoring observation technique
Temperature, K	Mole fraction of sulfanilamide	uncertainty
283.15	.0007705	.000038525
288.75	.001016	.0000508
293.25	.001275	.00006375
298.25	.001662	.0000831
303.15	.002027	.00010135
308.15	.002553	.00012765
313.15	.003094	.0001547
318.15	.003781	.00018905
323.15	.004502	.0002251

System: sulfanilamide + 2-methyl-1-propanol; phases: Liquid, Crystal
Fixed: Pressure, kPa = 101
Property: Mole fraction of sulfanilamide (Liquid); method: laser monitoring observation technique
Temperature, K	Mole fraction of sulfanilamide	uncertainty
283.25	.0003543	.000017715
288.15	.0004586	.00002293
293.25	.0005973	.000029865
298.15	.0007618	.00003809
303.15	.0009815	.000049075
308.15	.001393	.00006965
313.15	.001748	.0000874
318.15	.002347	.00011735
323.15	.002823	.00014115
