Measured thermophysical data. Solubility of Vitamin C in Water, Ethanol, Propan-1-ol, Water + Ethanol, and Water + Propan-1-ol at (298.15 and 308.15) K
Source: J. Chem. Eng. Data, 2010, 10.1021/je900687y
Compound 1: L-ascorbic acid, C6H8O6, purity 99%
Compound 2: water, H2O, purity 99.9%
Compound 3: ethanol, C2H6O, purity 99.5%
Compound 4: 1-propanol, C3H8O, purity 99.5%

System: L-ascorbic acid + ethanol + water; phases: Liquid, Crystal
Fixed: Pressure, kPa = 101
Property: Molality, mol/kg of L-ascorbic acid (Liquid); method: Gravimetrically
Temperature, K	Solvent: Mass fraction of water	Molality, mol/kg of L-ascorbic acid	uncertainty
298.15	0	.0817	
298.15	.2024	.3606	
298.15	.4002	.4283	
298.15	.6007	.8286	
298.15	.8002	1.4558	
298.15	1	1.523	
308.15	0	.1761	
308.15	.1999	.9373	
308.15	.3993	1.4264	
308.15	.6005	1.9207	
308.15	.7995	2.3618	
308.15	1	2.5472	

System: L-ascorbic acid + 1-propanol + water; phases: Liquid, Crystal
Fixed: Pressure, kPa = 101
Property: Molality, mol/kg of L-ascorbic acid (Liquid); method: Gravimetrically
Temperature, K	Solvent: Mass fraction of water	Molality, mol/kg of L-ascorbic acid	uncertainty
298.15	0	.0364	
298.15	.2014	.3948	
298.15	.3995	.7781	
298.15	.5996	1.1789	
298.15	.7998	1.48	
298.15	1	1.523	
308.15	0	.0616	
308.15	.1996	.574	
308.15	.3996	1.2226	
308.15	.5976	1.8722	
308.15	.798	2.1919	
308.15	1	2.577	
