Measured thermophysical data. Vapor Pressure of Trimethylantimony and tert-Butyldimethylantimony
Source: J. Chem. Eng. Data, 2010, 10.1021/je900372v
Compound 1: stibine, trimethyl-, C3H9Sb
Compound 2: tert-butyldimethylantimony, C6H15Sb

System: stibine, trimethyl-; phases: Liquid, Gas
Property: Vapor or sublimation pressure, kPa (Liquid); method: Diaphragm manometer
Temperature, K	Vapor or sublimation pressure, kPa	uncertainty
249.24	.97421	.002435525
249.24	.97437	.002435925
250.24	1.0421	.00260525
250.24	1.0418	.0026045
250.24	1.0419	.00260475
251.23	1.1126	.0027815
251.23	1.1124	.002781
251.23	1.1122	.0027805
252.21	1.1864	.002966
252.21	1.1863	.00296575
252.21	1.186	.002965
253.21	1.2646	.0031615
253.21	1.2645	.00316125
253.21	1.2645	.00316125
258.19	1.7302	.0043255
258.19	1.7301	.00432525
258.19	1.7296	.004324
263.24	2.3455	.00586375
263.24	2.3448	.005862
263.24	2.3433	.00585825
268.3	3.1344	.007836
268.3	3.1361	.00784025
268.3	3.136	.00784
273.35	4.1434	.0103585
273.35	4.1427	.01035675
273.35	4.1434	.0103585
278.36	5.3984	.013496
278.36	5.3989	.01349725
278.36	5.3954	.0134885
283.33	6.9409	.01735225
283.33	6.9404	.017351
283.33	6.9381	.01734525
283.33	6.9402	.0173505
288.27	8.8219	.02205475
288.27	8.8209	.02205225
288.27	8.8209	.02205225
290.71	9.9	.02475
290.71	9.8998	.0247495
290.71	9.8993	.02474825
293.24	11.1285	.02782125
293.24	11.1274	.0278185
293.24	11.1289	.02782225
296.22	12.7378	.0318445
296.22	12.7379	.03184475
296.22	12.7335	.03183375

System: tert-butyldimethylantimony; phases: Liquid, Gas
Property: Vapor or sublimation pressure, kPa (Liquid); method: Diaphragm manometer
Temperature, K	Vapor or sublimation pressure, kPa	uncertainty
288.32	.70232	.0017558
288.32	.70222	.00175555
288.32	.70229	.001755725
293.29	.94218	.00235545
293.29	.94208	.0023552
293.29	.94197	.002354925
298.29	1.2508	.003127
298.29	1.2513	.00312825
298.29	1.2512	.003128
303.28	1.642	.004105
303.28	1.6418	.0041045
303.28	1.6418	.0041045
308.27	2.1313	.00532825
308.27	2.1314	.0053285
308.27	2.1316	.005329

System: tert-butyldimethylantimony; phases: Crystal, Gas
Property: Vapor or sublimation pressure, kPa (Crystal); method: Diaphragm manometer
Temperature, K	Vapor or sublimation pressure, kPa	uncertainty
248.34	.03829	.000095725
248.34	.03817	.000095425
248.34	.03826	.00009565
253.33	.05845	.000146125
253.33	.05851	.000146275
253.33	.05854	.00014635
258.35	.08805	.000220125
258.35	.08784	.0002196
258.35	.08807	.000220175
263.35	.12987	.000324675
263.35	.12984	.0003246
268.55	.18975	.000474375
268.55	.18976	.0004744
268.55	.18999	.000474975
273.4	.26868	.0006717
273.4	.26848	.0006712
278.29	.37404	.0009351
278.29	.37412	.0009353
278.29	.37397	.000934925
283.32	.51667	.001291675
283.32	.51682	.00129205
283.32	.51643	.001291075
