Measured thermophysical data. Solid-Liquid Equilibrium of Saturated Fatty Acids + Triacylglycerols
Source: J. Chem. Eng. Data, 2010, 10.1021/je900410j
Compound 1: tetradecanoic acid, C14H28O2
Compound 2: hexadecanoic acid, C16H32O2
Compound 3: octadecanoic acid, C18H36O2
Compound 4: trioctanoin, C27H50O6
Compound 5: glycerol trioleate, C57H104O6
Compound 6: trilinolenin, C57H92O6

System: tetradecanoic acid; phases: Crystal, Liquid, Air at 1 atmosphere
Property: Normal melting temperature, K (Crystal); method: DSC/DTA
Normal melting temperature, K	uncertainty
328.56	.2

System: hexadecanoic acid; phases: Crystal, Liquid, Air at 1 atmosphere
Property: Normal melting temperature, K (Crystal); method: DSC/DTA
Normal melting temperature, K	uncertainty
336.47	.2

System: octadecanoic acid; phases: Crystal, Liquid, Air at 1 atmosphere
Property: Normal melting temperature, K (Crystal); method: DSC/DTA
Normal melting temperature, K	uncertainty
343.38	.2

System: trioctanoin; phases: Crystal, Liquid, Air at 1 atmosphere
Property: Normal melting temperature, K (Crystal); method: DSC/DTA
Normal melting temperature, K	uncertainty
282.75	.2

System: glycerol trioleate; phases: Crystal, Liquid, Air at 1 atmosphere
Property: Normal melting temperature, K (Crystal); method: DSC/DTA
Normal melting temperature, K	uncertainty
278.42	.2

System: trilinolenin; phases: Crystal, Liquid, Air at 1 atmosphere
Property: Normal melting temperature, K (Crystal); method: DSC/DTA
Normal melting temperature, K	uncertainty
251.1	.2

System: trioctanoin + tetradecanoic acid; phases: Liquid, Crystal
Fixed: Pressure, kPa = 101
Property: Solid-liquid equilibrium temperature, K (Liquid); method: DSC/DTA
Mole fraction of trioctanoin	Solid-liquid equilibrium temperature, K	uncertainty
0	327.07	.2
.1019	325.34	.2
.1549	324.43	.2
.2031	322.82	.2
.2459	322.46	.2
.2993	321.17	.2
.3989	318.98	.2
.5241	315.49	.2
.6063	312.28	.2
.701	306.72	.2
.7997	302.37	.2
.85	301.13	.2
.9015	295.64	.2
.9488	289.03	.2

System: trioctanoin + tetradecanoic acid; phases: Liquid, Crystal
Fixed: Pressure, kPa = 101
Property: Eutectic temperature, K (Liquid); method: DSC/DTA
Mole fraction of trioctanoin	Eutectic temperature, K	uncertainty
.974	282.38	.2

System: octadecanoic acid + trilinolenin; phases: Liquid, Crystal 1
Fixed: Pressure, kPa = 101
Property: Solid-liquid equilibrium temperature, K (Liquid); method: DSC/DTA
Mole fraction of trilinolenin	Solid-liquid equilibrium temperature, K	uncertainty
.1012	341.31	.2
.2992	337.78	.2
.5023	334.03	.2
.7007	328.37	.2
.8002	323.93	.2
.8494	319.91	.2
.883	317.57	.2
.9102	314.25	.2
.9402	311.57	.2
.97	305.72	.2

System: octadecanoic acid + trilinolenin; phases: Liquid, Crystal
Fixed: Pressure, kPa = 101
Property: Eutectic temperature, K (Liquid); method: DSC/DTA
Mole fraction of trilinolenin	Eutectic temperature, K	uncertainty
.955	250.93	.2
