Measured thermophysical data. Solid-Liquid Equilibrium and Phase Diagram for the Ternary p-Nitrobenzoic Acid + m-Nitrobenzoic Acid + Ethanol System
Source: J. Chem. Eng. Data, 2010, 10.1021/je900364y
Compound 1: 4-nitrobenzoic acid, C7H5NO4, purity 99.2%
Compound 2: 3-nitrobenzoic acid, C7H5NO4, purity 99.1%
Compound 3: ethanol, C2H6O, purity 99.9%

System: 4-nitrobenzoic acid + ethanol + 3-nitrobenzoic acid; phases: Liquid, Crystal
Fixed: Pressure, kPa = 101
Property: Mass fraction of ethanol (Liquid); method: Chromatography
Temperature, K	Mass fraction of 3-nitrobenzoic acid	Mass fraction of ethanol	uncertainty
273.1	0	.9607	
273.1	.0418	.9215	
273.1	.0677	.8954	
273.1	.1056	.8593	
273.1	.1392	.8254	
273.1	.171	.7944	
273.1	.2072	.7587	
273.1	.2362	.7302	
273.1	.2673	.7005	
273.1	.2912	.6781	
283.1	0	.9669	
283.1	.0225	.9479	
283.1	.0367	.9349	
283.1	.049	.9272	
283.1	.0649	.9082	
283.1	.1019	.8754	
283.1	.1124	.8668	
283.1	.1289	.8538	
283.1	.1678	.8097	
283.1	.2214	.7566	
283.1	.2371	.7415	
283.1	.2843	.6955	
283.1	.2991	.6822	
313.1	0	.9496	
313.1	.0505	.9006	
313.1	.0779	.8737	
313.1	.1123	.8412	
313.1	.1434	.8107	
313.1	.1742	.7796	
313.1	.2018	.7546	
313.1	.2449	.7123	
313.1	.2864	.6715	
313.1	.3273	.6324	
313.1	.3725	.5881	
313.1	.4101	.5513	

System: 4-nitrobenzoic acid + ethanol + 3-nitrobenzoic acid; phases: Liquid, Crystal
Fixed: Pressure, kPa = 101
Property: Mass fraction of ethanol (Liquid); method: Chromatography
Temperature, K	Mass fraction of 3-nitrobenzoic acid	Mass fraction of ethanol	uncertainty
273.1	.3101	.6644	
273.1	.3127	.6657	
273.1	.3145	.6708	
273.1	.3365	.6635	
283.1	.3052	.6763	
283.1	.3096	.6788	
283.1	.3158	.6788	
283.1	.3166	.6834	
313.1	.4453	.5206	
313.1	.4544	.5185	
313.1	.4625	.5191	
313.1	.4753	.5165	
313.1	.4874	.5126	
