Measured thermophysical data. Solution Thermodynamics of Ketoprofen in Ethanol + Water Cosolvent Mixtures
Source: J. Chem. Eng. Data, 2010, 10.1021/je9002866
Compound 1: ketoprofen, C16H14O3
Compound 2: ethanol, C2H6O
Compound 3: water, H2O

System: ethanol + water + ketoprofen; phases: Crystal, Liquid
Fixed: Pressure, kPa = 101
Property: Mole fraction of ketoprofen (Crystal); method: UV spectrophotometry
Solvent: Mass fraction of ethanol	Temperature, K	Mole fraction of ketoprofen	uncertainty
0	293.15	.00000577	.00000004
0	298.15	.00000773	.00000007
0	303.15	.00000985	.00000014
0	308.15	.0000117	.00000017
0	313.15	.0000137	.00000013
.1	293.15	.00000948	.00000016
.1	298.15	.0000128	.00000023
.1	303.15	.0000157	.00000019
.1	308.15	.0000185	.00000009
.1	313.15	.0000238	.00000011
.2	293.15	.0000209	.00000028
.2	298.15	.0000281	.00000025
.2	303.15	.0000355	.0000003
.2	308.15	.0000427	.0000005
.2	313.15	.0000569	.0000004
.3	293.15	.0000775	.0000031
.3	298.15	.000101	.000003
.3	303.15	.000163	.000006
.3	308.15	.000242	.000006
.3	313.15	.0004	.000006
.4	293.15	.000223	.000017
.4	298.15	.000359	.000012
.4	303.15	.000641	.000007
.4	308.15	.00131	.000009
.4	313.15	.00182	.000012
.5	293.15	.000721	.000045
.5	298.15	.00132	.00004
.5	303.15	.00293	.00007
.5	308.15	.00589	.00007
.5	313.15	.00872	.00003
.6	293.15	.00218	.00015
.6	298.15	.00418	.00016
.6	303.15	.00785	.00052
.6	308.15	.0184	.0006
.6	313.15	.0319	.0007
.7	293.15	.00464	.00036
.7	298.15	.00958	.00067
.7	303.15	.0171	.0007
.7	308.15	.0341	.0008
.7	313.15	.0582	.0008
.8	293.15	.0106	.0006
.8	298.15	.0206	.0007
.8	303.15	.0315	.0006
.8	308.15	.0489	.0004
.8	313.15	.0816	.0008
.9	293.15	.0213	.0004
.9	298.15	.0333	.001
.9	303.15	.0477	.0008
.9	308.15	.0674	.0007
.9	313.15	.1072	.0018
1	293.15	.0306	.0006
1	298.15	.0441	.0012
1	303.15	.0627	.0003
1	308.15	.0888	.0014
1	313.15	.1365	.0016

System: water + ketoprofen; phases: Crystal, Liquid
Property: Mole fraction of ketoprofen (Crystal); method: UV spectrophotometry
Temperature, K	Pressure, kPa	Mole fraction of ketoprofen	uncertainty
293.15	101	.00000577	.00000004
298.15	101	.00000773	.00000007
303.15	101	.00000985	.00000014
308.15	101	.0000117	.00000017
313.15	101	.0000137	.00000013

System: ethanol + ketoprofen; phases: Crystal, Liquid
Property: Mole fraction of ketoprofen (Crystal); method: UV spectrophotometry
Temperature, K	Pressure, kPa	Mole fraction of ketoprofen	uncertainty
293.15	101	.0306	.0006
298.15	101	.0441	.0012
303.15	101	.0627	.0003
308.15	101	.0888	.0014
313.15	101	.1365	.0016
