Measured thermophysical data. Solubility of Butanedioic Acid in Different Solvents at Temperatures between 283 K and 333 K
Source: J. Chem. Eng. Data, 2009, 10.1021/je900021g
Compound 1: butanedioic acid, C4H6O4
Compound 2: water, H2O
Compound 3: propanone, C3H6O
Compound 4: ethanol, C2H6O
Compound 5: 1-propanol, C3H8O
Compound 6: 2-propanol, C3H8O
Compound 7: acetic acid, C2H4O2

System: butanedioic acid; phases: Crystal, Liquid, Air at 1 atmosphere
Property: Normal melting temperature, K (Crystal); method: DSC/DTA
Normal melting temperature, K	uncertainty
461	

System: butanedioic acid + water; phases: Liquid, Crystal
Fixed: Pressure, kPa = 101
Property: Mole fraction of butanedioic acid (Liquid); method: Laser Monitoring Observation
Temperature, K	Mole fraction of butanedioic acid	uncertainty
283.15	.00654	.0000327
288.25	.00879	.00004395
292.65	.00983	.00004915
298.05	.01305	.00006525
311.95	.02235	.00011175
319.15	.02942	.0001471
322.75	.03602	.0001801
328.15	.0409	.0002045
302.05	.01468	.0000734
308.45	.01961	.00009805
302.05	.01468	.0000734
308.45	.01961	.00009805

System: propanone + butanedioic acid; phases: Liquid, Crystal
Fixed: Pressure, kPa = 101
Property: Mole fraction of butanedioic acid (Liquid); method: Laser Monitoring Observation
Temperature, K	Mole fraction of butanedioic acid	uncertainty
282.85	.01226	.0000613
289.15	.0143	.0000715
294.15	.0162	.000081
298.05	.01801	.00009005
302.95	.02095	.00010475
313.15	.0263	.0001315
317.75	.02965	.00014825

System: ethanol + butanedioic acid; phases: Liquid, Crystal
Fixed: Pressure, kPa = 101
Property: Mole fraction of butanedioic acid (Liquid); method: Laser Monitoring Observation
Temperature, K	Mole fraction of butanedioic acid	uncertainty
284.25	.02962	.0001481
288.25	.02967	.00014835
294.45	.03264	.0001632
298.05	.04048	.0002024
304.55	.04819	.00024095
308.45	.05616	.0002808
311.25	.06103	.00030515
319.15	.07825	.00039125
321.65	.08816	.0004408
328.15	.10278	.0005139
331.95	.11353	.00056765

System: 1-propanol + butanedioic acid; phases: Liquid, Crystal
Fixed: Pressure, kPa = 101
Property: Mole fraction of butanedioic acid (Liquid); method: Laser Monitoring Observation
Temperature, K	Mole fraction of butanedioic acid	uncertainty
283.55	.01553	.00007765
288.15	.01794	.0000897
293.45	.02209	.00011045
298.15	.02616	.0001308
302.75	.03011	.00015055
307.35	.03671	.00018355
312.85	.04565	.00022825
317.35	.05214	.0002607
322.55	.07332	.0003666
328.35	.1022	.000511
333.75	.12944	.0006472

System: 2-propanol + butanedioic acid; phases: Liquid, Crystal
Fixed: Pressure, kPa = 101
Property: Mole fraction of butanedioic acid (Liquid); method: Laser Monitoring Observation
Temperature, K	Mole fraction of butanedioic acid	uncertainty
282.75	.0177	.0000885
287.35	.02118	.0001059
295.15	.02778	.0001389
297.65	.03103	.00015515
305.95	.04144	.0002072
310.55	.04858	.0002429
315.35	.0531	.0002655
320.95	.06233	.00031165
328.95	.07621	.00038105
334.25	.08701	.00043505

System: acetic acid + butanedioic acid; phases: Liquid, Crystal
Fixed: Pressure, kPa = 101
Property: Mole fraction of butanedioic acid (Liquid); method: Laser Monitoring Observation
Temperature, K	Mole fraction of butanedioic acid	uncertainty
290.75	.01039	.00005195
296.95	.01278	.0000639
303.55	.0156	.000078
310.25	.01953	.00009765
316.55	.02374	.0001187
322.65	.0287	.0001435
329.25	.03478	.0001739
334.55	.04037	.00020185
