Measured thermophysical data. Excess Molar Enthalpies of Binary Systems of n-Valeric Anhydride or n-Hexanoic Anhydride with n-Dodecane, n-Tetradecane, or n-Hexadecane at 298.15 K
Source: J. Chem. Eng. Data, 2011, 10.1021/je900598y
Compound 1: pentanoic anhydride, C10H18O3, purity 99%
Compound 2: hexanoic anhydride, C12H22O3, purity 99%
Compound 3: dodecane, C12H26, purity 99%
Compound 4: tetradecane, C14H30, purity 99%
Compound 5: cetane, C16H34, purity 99%

System: pentanoic anhydride; phases: Liquid
Fixed: Pressure, kPa = 101.325
Property: Mass density, kg/m3 (Liquid); method: Vibrating tube method
Temperature, K	Mass density, kg/m3	uncertainty
298.15	939.15	.05

System: hexanoic anhydride; phases: Liquid
Fixed: Pressure, kPa = 101.325
Property: Mass density, kg/m3 (Liquid); method: Vibrating tube method
Temperature, K	Mass density, kg/m3	uncertainty
298.15	923.96	.05

System: dodecane; phases: Liquid
Fixed: Pressure, kPa = 101.325
Property: Mass density, kg/m3 (Liquid); method: Vibrating tube method
Temperature, K	Mass density, kg/m3	uncertainty
298.15	745.28	.05

System: tetradecane; phases: Liquid
Fixed: Pressure, kPa = 101.325
Property: Mass density, kg/m3 (Liquid); method: Vibrating tube method
Temperature, K	Mass density, kg/m3	uncertainty
298.15	760.2	.05

System: cetane; phases: Liquid
Fixed: Pressure, kPa = 101.325
Property: Mass density, kg/m3 (Liquid); method: Vibrating tube method
Temperature, K	Mass density, kg/m3	uncertainty
298.15	770.31	.05

System: dodecane + pentanoic anhydride; phases: Liquid, Gas
Fixed: Temperature, K = 298.15
Property: Excess molar enthalpy (molar enthalpy of mixing), kJ/mol (Liquid); method: Calvet calorimetry
Mole fraction of pentanoic anhydride	Excess molar enthalpy (molar enthalpy of mixing), kJ/mol	uncertainty
.0248	.1962	.000981
.0484	.362	.00181
.0709	.4948	.002474
.0923	.6106	.003053
.1128	.7091	.0035455
.1324	.7914	.003957
.1511	.8656	.004328
.1691	.9273	.0046365
.1914	.998	.00499
.2126	1.0588	.005294
.2327	1.1104	.005552
.2518	1.154	.00577
.2699	1.1916	.005958
.2827	1.2236	.006118
.3038	1.251	.006255
.3195	1.2743	.0063715
.3411	1.3166	.006583
.3488	1.3261	.0066305
.3569	1.3348	.006674
.3654	1.3438	.006719
.3743	1.3518	.006759
.3837	1.3601	.0068005
.3935	1.3667	.0068335
.4025	1.373	.006865
.4118	1.3778	.006889
.4217	1.3828	.006914
.432	1.386	.00693
.4428	1.3891	.0069455
.4542	1.3915	.0069575
.4644	1.3918	.006959
.475	1.392	.00696
.4861	1.3899	.0069495
.4978	1.3876	.006938
.51	1.3837	.0069185
.5229	1.3772	.006886
.5342	1.3701	.0068505
.5461	1.3626	.006813
.5585	1.3531	.0067655
.5715	1.3402	.006701
.5851	1.3268	.006634
.5993	1.311	.006555
.6122	1.2943	.0064715
.6257	1.2746	.006373
.6398	1.2535	.0062675
.6545	1.229	.006145
.6699	1.2016	.006008
.6861	1.1702	.005851
.7003	1.1395	.0056975
.7151	1.1073	.0055365
.7305	1.0692	.005346
.7467	1.0283	.0051415
.7635	.9823	.0049115
.7811	.9312	.004656
.7967	.884	.00442
.8129	.8312	.004156
.8298	.7737	.0038685
.8474	.7092	.003546
.8657	.6403	.0032015
.8849	.5628	.002814
.9022	.4906	.002453
.9202	.4082	.002041
.9389	.3213	.0016065
.9584	.2211	.0011055
.9788	.117	.000585

System: tetradecane + pentanoic anhydride; phases: Liquid, Gas
Fixed: Temperature, K = 298.15
Property: Excess molar enthalpy (molar enthalpy of mixing), kJ/mol (Liquid); method: Calvet calorimetry
Mole fraction of pentanoic anhydride	Excess molar enthalpy (molar enthalpy of mixing), kJ/mol	uncertainty
.0319	.2533	.0012665
.0618	.4605	.0023025
.0899	.622	.00311
.1164	.7609	.0038045
.1414	.8718	.004359
.165	.9694	.004847
.1873	1.051	.005255
.2126	1.1326	.005663
.2363	1.2005	.0060025
.2587	1.2539	.0062695
.2798	1.3009	.0065045
.2997	1.3403	.0067015
.3186	1.3728	.006864
.3364	1.3998	.006999
.3569	1.4321	.0071605
.3714	1.4658	.007329
.381	1.4748	.007374
.3911	1.4845	.0074225
.402	1.4935	.0074675
.413	1.5012	.007506
.4294	1.5079	.0075395
.4312	1.5131	.0075655
.4416	1.5165	.0075825
.4524	1.5198	.007599
.4638	1.5211	.0076055
.4757	1.5224	.007612
.4883	1.5218	.007609
.5015	1.5192	.007596
.5127	1.5166	.007583
.5245	1.5112	.007556
.5369	1.5042	.007521
.5498	1.4953	.0074765
.5633	1.4838	.007419
.5776	1.4699	.0073495
.5926	1.4543	.0072715
.6049	1.4399	.0071995
.6178	1.4232	.007116
.6313	1.4022	.007011
.6454	1.3798	.006899
.6601	1.3544	.006772
.6754	1.3255	.0066275
.6916	1.2901	.0064505
.7052	1.2588	.006294
.7194	1.2258	.006129
.7341	1.1878	.005939
.7495	1.1467	.0057335
.7655	1.0985	.0054925
.7822	1.0474	.005237
.7997	.9884	.004942
.8145	.936	.00468
.8299	.8784	.004392
.8459	.8151	.0040755
.8625	.7459	.0037295
.8798	.669	.003345
.8978	.5846	.002923
.9133	.5068	.002534
.9294	.4222	.002111
.9461	.3302	.001651
.9634	.2297	.0011485
.9814	.12	.0006

System: cetane + pentanoic anhydride; phases: Liquid, Gas
Fixed: Temperature, K = 298.15
Property: Excess molar enthalpy (molar enthalpy of mixing), kJ/mol (Liquid); method: Calvet calorimetry
Mole fraction of pentanoic anhydride	Excess molar enthalpy (molar enthalpy of mixing), kJ/mol	uncertainty
.0353	.2904	.001452
.0683	.5248	.002624
.099	.7057	.0035285
.1278	.8588	.004294
.1567	.9891	.0049455
.1837	1.1003	.0055015
.209	1.188	.00594
.2329	1.2648	.006324
.2553	1.3256	.006628
.277	1.3828	.006914
.2993	1.4325	.0071625
.3202	1.4736	.007368
.3399	1.5047	.0075235
.3619	1.5367	.0076835
.3825	1.5582	.007791
.4019	1.5764	.007882
.42	1.5902	.007951
.4371	1.5998	.007999
.4532	1.6045	.0080225
.4705	1.606	.00803
.4866	1.6064	.008032
.5018	1.6044	.008022
.5161	1.5993	.0079965
.5296	1.5941	.0079705
.5424	1.5875	.0079375
.5564	1.5769	.0078845
.5695	1.566	.00783
.5819	1.5539	.0077695
.5935	1.5404	.007702
.6046	1.5269	.0076345
.6168	1.5176	.007588
.6292	1.4995	.0074975
.6421	1.4786	.007393
.6556	1.4578	.007289
.6696	1.4301	.0071505
.6842	1.4014	.007007
.697	1.3731	.0068655
.7103	1.3418	.006709
.7242	1.3091	.0065455
.7386	1.2696	.006348
.7536	1.2258	.006129
.7692	1.1796	.005898
.7832	1.1342	.005671
.7977	1.0837	.0054185
.8128	1.0282	.005141
.8285	.9664	.004832
.8448	.8981	.0044905
.8591	.8329	.0041645
.8739	.7648	.003824
.8892	.6867	.0034335
.905	.6049	.0030245
.9214	.5147	.0025735
.9361	.4293	.0021465
.9513	.3336	.001668
.967	.2309	.0011545
.9832	.118	.00059

System: dodecane + hexanoic anhydride; phases: Liquid, Gas
Fixed: Temperature, K = 298.15
Property: Excess molar enthalpy (molar enthalpy of mixing), kJ/mol (Liquid); method: Calvet calorimetry
Mole fraction of hexanoic anhydride	Excess molar enthalpy (molar enthalpy of mixing), kJ/mol	uncertainty
.0213	.153	.000765
.0417	.2794	.001397
.0612	.3858	.001929
.08	.4763	.0023815
.098	.5583	.0027915
.1154	.627	.003135
.1349	.6965	.0034825
.1536	.7562	.003781
.1714	.8102	.004051
.1886	.8551	.0042755
.205	.8947	.0044735
.2208	.9291	.0046455
.2374	.9613	.0048065
.2533	.9895	.0049475
.2625	1.0214	.005107
.2688	1.0318	.005159
.2754	1.0426	.005213
.2824	1.0537	.0052685
.2897	1.0643	.0053215
.2974	1.0752	.005376
.3056	1.0858	.005429
.3134	1.095	.005475
.3215	1.1045	.0055225
.3301	1.1137	.0055685
.3392	1.1223	.0056115
.3471	1.1293	.0056465
.3555	1.1362	.005681
.3642	1.1433	.0057165
.3733	1.1502	.005751
.383	1.1563	.0057815
.3931	1.1615	.0058075
.4023	1.166	.00583
.412	1.1692	.005846
.4222	1.1718	.005859
.4329	1.1735	.0058675
.4442	1.175	.005875
.456	1.1749	.0058745
.4672	1.1741	.0058705
.4789	1.1722	.005861
.4913	1.1675	.0058375
.5043	1.1622	.005811
.5162	1.1556	.005778
.5286	1.149	.005745
.5417	1.1395	.0056975
.5554	1.1298	.005649
.5698	1.1161	.0055805
.585	1.1014	.005507
.5987	1.0856	.005428
.613	1.0678	.005339
.628	1.0489	.0052445
.6438	1.0253	.0051265
.6604	1.0006	.005003
.6778	.9699	.0048495
.6941	.9393	.0046965
.7112	.9075	.0045375
.7291	.8694	.004347
.748	.829	.004145
.7678	.7815	.0039075
.7854	.736	.00368
.8039	.696	.00348
.8233	.6337	.0031685
.8436	.5729	.0028645
.8649	.5074	.002537
.8874	.4321	.0021605
.9079	.3597	.0017985
.9293	.2827	.0014135
.9517	.1973	.0009865
.9753	.1032	.000516

System: tetradecane + hexanoic anhydride; phases: Liquid, Gas
Fixed: Temperature, K = 298.15
Property: Excess molar enthalpy (molar enthalpy of mixing), kJ/mol (Liquid); method: Calvet calorimetry
Mole fraction of hexanoic anhydride	Excess molar enthalpy (molar enthalpy of mixing), kJ/mol	uncertainty
.0274	.2006	.001003
.0533	.3611	.0018055
.0779	.4921	.0024605
.1012	.6018	.003009
.1234	.6945	.0034725
.1445	.7733	.0038665
.1681	.8511	.0042555
.1904	.9164	.004582
.2115	.972	.00486
.2316	1.0317	.0051585
.2372	1.0456	.005228
.2431	1.0584	.005292
.2493	1.0718	.005359
.2559	1.0857	.0054285
.2628	1.0993	.0054965
.2691	1.1112	.005556
.2757	1.124	.00562
.2826	1.1369	.0056845
.2899	1.1498	.005749
.2975	1.1629	.0058145
.3056	1.1757	.0058785
.3129	1.1863	.0059315
.3204	1.1966	.005983
.3284	1.2076	.006038
.3368	1.2172	.006086
.3456	1.2283	.0061415
.3548	1.2378	.006189
.363	1.2458	.006229
.3715	1.2537	.0062685
.3805	1.2613	.0063065
.3899	1.2684	.006342
.3998	1.2748	.006374
.4012	1.2804	.006402
.4103	1.2852	.006426
.4199	1.2892	.006446
.4299	1.2925	.0064625
.4404	1.2951	.0064755
.4514	1.2966	.006483
.463	1.2983	.0064915
.4734	1.2968	.006484
.4843	1.2957	.0064785
.4958	1.2921	.0064605
.5077	1.2883	.0064415
.5203	1.2832	.006416
.5335	1.2752	.006376
.5453	1.266	.00633
.5575	1.2566	.006283
.5703	1.2443	.0062215
.5838	1.2311	.0061555
.5979	1.2145	.0060725
.6126	1.1966	.005983
.6261	1.1771	.0058855
.6401	1.157	.005785
.6548	1.1325	.0056625
.6702	1.107	.005535
.6863	1.0782	.005391
.7032	1.0433	.0052165
.7185	1.0109	.0050545
.7345	.9727	.0048635
.7512	.9328	.004664
.7686	.8889	.0044445
.7869	.8368	.004184
.8038	.786	.00393
.8214	.7325	.0036625
.8397	.671	.003355
.8589	.6061	.0030305
.879	.5312	.002656
.9001	.4513	.0022565
.9185	.374	.00187
.9376	.2928	.001464
.9575	.2041	.0010205
.9783	.1068	.000534

System: cetane + hexanoic anhydride; phases: Liquid, Gas
Fixed: Temperature, K = 298.15
Property: Excess molar enthalpy (molar enthalpy of mixing), kJ/mol (Liquid); method: Calvet calorimetry
Mole fraction of hexanoic anhydride	Excess molar enthalpy (molar enthalpy of mixing), kJ/mol	uncertainty
.0307	.2323	.0011615
.0596	.4155	.0020775
.0868	.5629	.0028145
.1125	.6839	.0034195
.1368	.7899	.0039495
.1597	.8764	.004382
.1815	.9496	.004748
.2022	1.0126	.005063
.2219	1.0667	.0053335
.2406	1.1127	.0055635
.2627	1.1612	.005806
.282	1.2112	.006056
.2889	1.2255	.0061275
.2962	1.2398	.006199
.3038	1.2544	.006272
.3118	1.2688	.006344
.3202	1.2833	.0064165
.3291	1.2967	.0064835
.3373	1.309	.006545
.346	1.3206	.006603
.355	1.3325	.0066625
.3646	1.3435	.0067175
.3747	1.3546	.006773
.3853	1.3653	.0068265
.3954	1.3748	.006874
.4059	1.3833	.0069165
.417	1.3916	.006958
.4262	1.3952	.006976
.4357	1.3988	.006994
.4457	1.402	.00701
.4562	1.4046	.007023
.4671	1.4061	.0070305
.4787	1.406	.00703
.4907	1.405	.007025
.5034	1.402	.00701
.5144	1.3979	.0069895
.5258	1.3925	.0069625
.5377	1.386	.00693
.5502	1.3795	.0068975
.5633	1.3703	.0068515
.5771	1.3591	.0067955
.5893	1.347	.006735
.602	1.331	.006655
.6153	1.3145	.0065725
.6292	1.2964	.006482
.6437	1.2738	.006369
.6589	1.2497	.0062485
.6721	1.2244	.006122
.6857	1.1966	.005983
.6999	1.1664	.005832
.7147	1.132	.00566
.7287	1.0981	.0054905
.7433	1.0611	.0053055
.7584	1.0204	.005102
.7742	.9753	.0048765
.7907	.925	.004625
.8078	.8706	.004353
.8233	.818	.00409
.8393	.7582	.003791
.856	.6956	.003478
.8733	.627	.003135
.8914	.5515	.0027575
.9102	.4682	.002341
.9269	.3895	.0019475
.9411	.3035	.0015175
.962	.2062	.001031
.9807	.1108	.000554
