Measured thermophysical data. Solubilities of Sulfadiazine in Methanol, Ethanol, 1-Propanol, 2-Propanol, Acetone, and Chloroform from (294.15 to 318.15) K
Source: J. Chem. Eng. Data, 2010, 10.1021/je900742p
Compound 1: 4-amino-N-2-pyrimidinylbenzenesulfonamide, C10H10N4O2S
Compound 2: ethanol, C2H6O
Compound 3: 1-propanol, C3H8O
Compound 4: propanone, C3H6O
Compound 5: chloroform, CHCl3
Compound 6: methanol, CH4O
Compound 7: 2-propanol, C3H8O
Compound 8: water, H2O

System: ethanol + 4-amino-N-2-pyrimidinylbenzenesulfonamide; phases: Liquid, Crystal
Fixed: Pressure, kPa = 101
Property: Mole fraction of 4-amino-N-2-pyrimidinylbenzenesulfonamide (Liquid); method: UV absorbances
Temperature, K	Mole fraction of 4-amino-N-2-pyrimidinylbenzenesulfonamide	uncertainty
294.15	.00003802	
298.15	.00004796	
303.15	.00006012	
308.15	.00007005	
313.15	.00007562	
318.15	.00007683	

System: ethanol + 4-amino-N-2-pyrimidinylbenzenesulfonamide; phases: Liquid, Crystal
Fixed: Pressure, kPa = 101
Property: Mass density, kg/m3 (Liquid); method: Vibrating tube method
Temperature, K	Mass density, kg/m3	uncertainty
294.15	789.1	
298.15	785.6	
303.15	781.2	
308.15	776.8	
313.15	772.3	
318.15	767.9	

System: 4-amino-N-2-pyrimidinylbenzenesulfonamide + 1-propanol; phases: Liquid, Crystal
Fixed: Pressure, kPa = 101
Property: Mole fraction of 4-amino-N-2-pyrimidinylbenzenesulfonamide (Liquid); method: UV absorbances
Temperature, K	Mole fraction of 4-amino-N-2-pyrimidinylbenzenesulfonamide	uncertainty
294.15	.00009662	
298.15	.0001243	
303.15	.0001642	
308.15	.0002085	
313.15	.0002446	
318.15	.0002792	

System: 4-amino-N-2-pyrimidinylbenzenesulfonamide + 1-propanol; phases: Liquid, Crystal
Fixed: Pressure, kPa = 101
Property: Mass density, kg/m3 (Liquid); method: Vibrating tube method
Temperature, K	Mass density, kg/m3	uncertainty
294.15	803.5	
298.15	800.2	
303.15	796.1	
308.15	792	
313.15	787.9	
318.15	783.7	

System: propanone + 4-amino-N-2-pyrimidinylbenzenesulfonamide; phases: Liquid, Crystal
Fixed: Pressure, kPa = 101
Property: Mole fraction of 4-amino-N-2-pyrimidinylbenzenesulfonamide (Liquid); method: UV absorbances
Temperature, K	Mole fraction of 4-amino-N-2-pyrimidinylbenzenesulfonamide	uncertainty
294.15	.00005963	
298.15	.00007345	
303.15	.00009173	
308.15	.0001058	
313.15	.0001145	
318.15	.0001202	

System: propanone + 4-amino-N-2-pyrimidinylbenzenesulfonamide; phases: Liquid, Crystal
Fixed: Pressure, kPa = 101
Property: Mass density, kg/m3 (Liquid); method: Vibrating tube method
Temperature, K	Mass density, kg/m3	uncertainty
294.15	785	
298.15	781.5	
303.15	777.2	
308.15	772.8	
313.15	768.4	
318.15	764	

System: chloroform + 4-amino-N-2-pyrimidinylbenzenesulfonamide; phases: Liquid, Crystal
Fixed: Pressure, kPa = 101
Property: Mole fraction of 4-amino-N-2-pyrimidinylbenzenesulfonamide (Liquid); method: UV absorbances
Temperature, K	Mole fraction of 4-amino-N-2-pyrimidinylbenzenesulfonamide	uncertainty
294.15	.000005473	
298.15	.000009256	
303.15	.00001539	
308.15	.0000215	
313.15	.00002572	
318.15	.00002706	

System: chloroform + 4-amino-N-2-pyrimidinylbenzenesulfonamide; phases: Liquid, Crystal
Fixed: Pressure, kPa = 101
Property: Mass density, kg/m3 (Liquid); method: Vibrating tube method
Temperature, K	Mass density, kg/m3	uncertainty
294.15	1488.1	
298.15	1484.6	
303.15	1480.2	
308.15	1475.7	
313.15	1471.2	
318.15	1466.8	

System: methanol + 4-amino-N-2-pyrimidinylbenzenesulfonamide; phases: Liquid, Crystal
Fixed: Pressure, kPa = 101
Property: Mole fraction of 4-amino-N-2-pyrimidinylbenzenesulfonamide (Liquid); method: UV spectra
Temperature, K	Mole fraction of 4-amino-N-2-pyrimidinylbenzenesulfonamide	uncertainty
294.15	.000265	
298.15	.0002828	
303.15	.0003112	
308.15	.0003431	
313.15	.000377	
318.15	.0004087	

System: methanol + 4-amino-N-2-pyrimidinylbenzenesulfonamide; phases: Liquid, Crystal
Fixed: Pressure, kPa = 101
Property: Mass density, kg/m3 (Liquid); method: Vibrating tube method
Temperature, K	Mass density, kg/m3	uncertainty
294.15	793.3	
298.15	789.5	
303.15	784.8	
308.15	780.1	
313.15	775.4	
318.15	770.7	

System: 2-propanol + 4-amino-N-2-pyrimidinylbenzenesulfonamide; phases: Liquid, Crystal
Fixed: Pressure, kPa = 101
Property: Mole fraction of 4-amino-N-2-pyrimidinylbenzenesulfonamide (Liquid); method: UV spectra
Temperature, K	Mole fraction of 4-amino-N-2-pyrimidinylbenzenesulfonamide	uncertainty
294.15	.00006525	
298.15	.00008177	
303.15	.0001035	
308.15	.0001227	
313.15	.0001345	
318.15	.0001433	

System: 2-propanol + 4-amino-N-2-pyrimidinylbenzenesulfonamide; phases: Liquid, Crystal
Fixed: Pressure, kPa = 101
Property: Mass density, kg/m3 (Liquid); method: Vibrating tube method
Temperature, K	Mass density, kg/m3	uncertainty
294.15	785.2	
298.15	781.8	
303.15	777.5	
308.15	773.2	
313.15	768.8	
318.15	764.4	
