Measured thermophysical data. Volumetric Studies of Sodium Chloride in Aqueous and Aqueous Maltose Systems at Different Temperatures
Source: J. Chem. Eng. Data, 2009, 10.1021/je900195z
Compound 1: maltose, C12H22O11
Compound 2: sodium chloride, ClNa
Compound 3: water, H2O

System: maltose + sodium chloride + water; phases: Liquid
Fixed: Pressure, kPa = 101
Property: Mass density, kg/m3 (Liquid); method: Pycnometric method
Temperature, K	Amount concentration (molarity), mol/dm3 of sodium chloride	Solvent: Amount concentration (molarity), mol/dm3 of maltose	Mass density, kg/m3	uncertainty
298	.03	.0292	1010.1	1
298	.05	.0292	1010.4	1
298	.07	.0292	1011.5	1
298	.09	.0292	1011.6	1
303	.01	.0292	1009.4	1
303	.03	.0292	1009.8	1
303	.05	.0292	1010	1
303	.07	.0292	1010.2	1
303	.09	.0292	1010.3	1
308	.01	.0292	1008.5	1
308	.03	.0292	1008.6	1
308	.05	.0292	1009.2	1
308	.07	.0292	1010.2	1
308	.09	.0292	1011.3	1
313	.01	.0292	1005.6	1
313	.03	.0292	1005.8	1
313	.05	.0292	1006	1
313	.07	.0292	1007	1
313	.09	.0292	1008	1
318	.01	.0292	1004.4	1
318	.03	.0292	1004.6	1
318	.05	.0292	1004.8	1
318	.07	.0292	1006	1
318	.09	.0292	1008.8	1
323	.01	.0292	1002.5	1
323	.03	.0292	1002.7	1
323	.05	.0292	1003.7	1
323	.07	.0292	1004.1	1
323	.09	.0292	1005.3	1
298	.01	.0876	1017.4	1
298	.03	.0876	1017.6	1
298	.05	.0876	1017.9	1
298	.07	.0876	1018.2	1
298	.09	.0876	1018.3	1
303	.01	.0876	1014.9	1
303	.03	.0876	1015.2	1
303	.05	.0876	1015.5	1
303	.07	.0876	1015.7	1
303	.09	.0876	1015.8	1
308	.01	.0876	1014	1
308	.03	.0876	1014.2	1
308	.05	.0876	1014.6	1
308	.07	.0876	1015	1
308	.09	.0876	1015.5	1
313	.01	.0876	1012.5	1
313	.03	.0876	1012.7	1
313	.05	.0876	1012.9	1
313	.07	.0876	1013.1	1
313	.09	.0876	1013.5	1
318	.01	.0876	1011	1
318	.03	.0876	1011.2	1
318	.05	.0876	1011.4	1
318	.07	.0876	1011.6	1
318	.09	.0876	1011.8	1
323	.01	.0876	1010	1
323	.03	.0876	1010.2	1
323	.05	.0876	1010.4	1
323	.07	.0876	1010.6	1
323	.09	.0876	1010.8	1
298	.01	.1461	1025	1
298	.03	.1461	1025.2	1
298	.05	.1461	1025.4	1
298	.07	.1461	1025.6	1
298	.09	.1461	1026	1
303	.01	.1461	1024	1
303	.03	.1461	1024.2	1
303	.05	.1461	1024.5	1
303	.07	.1461	1024.8	1
303	.09	.1461	1025	1
308	.01	.1461	1022.4	1
308	.03	.1461	1022.6	1
308	.05	.1461	1023	1
308	.07	.1461	1023.2	1
308	.09	.1461	1023.4	1
313	.01	.1461	1019.8	1
313	.03	.1461	1020	1
313	.05	.1461	1020.2	1
313	.07	.1461	1020.4	1
313	.09	.1461	1020.6	1
318	.01	.1461	1017	1
318	.03	.1461	1017.2	1
318	.05	.1461	1017.4	1
318	.07	.1461	1017.6	1
318	.09	.1461	1017.8	1
323	.01	.1461	1014.8	1
323	.03	.1461	1015	1
323	.05	.1461	1015.2	1
323	.07	.1461	1015.4	1
323	.09	.1461	1015.6	1
298	.01	.2045	1031.5	1
298	.03	.2045	1031.7	1
298	.05	.2045	1032	1
298	.07	.2045	1032.2	1
298	.09	.2045	1032.4	1
303	.01	.2045	1030.5	1
303	.03	.2045	1030.7	1
303	.05	.2045	1030.9	1
303	.07	.2045	1031.1	1
303	.09	.2045	1031.5	1
308	.01	.2045	1029.4	1
308	.03	.2045	1029.6	1
308	.05	.2045	1029.8	1
308	.07	.2045	1030	1
308	.09	.2045	1030.2	1
313	.01	.2045	1027	1
313	.03	.2045	1027.2	1
313	.05	.2045	1027.4	1
313	.07	.2045	1027.6	1
313	.09	.2045	1027.8	1
318	.01	.2045	1025	1
318	.03	.2045	1025.2	1
318	.05	.2045	1025.4	1
318	.07	.2045	1025.6	1
318	.09	.2045	1026	1
323	.01	.2045	1023.5	1
323	.03	.2045	1023.7	1
323	.05	.2045	1023.9	1
323	.07	.2045	1024.1	1
323	.09	.2045	1024.3	1

System: sodium chloride + water; phases: Liquid
Property: Mass density, kg/m3 (Liquid); method: Pycnometric method
Temperature, K	Amount concentration (molarity), mol/dm3 of sodium chloride	Pressure, kPa	Mass density, kg/m3	uncertainty
298	.01	101.3	1005.2	1
298	.03	101.3	1005.3	1
298	.05	101.3	1005.6	1
298	.07	101.3	1006.5	1
298	.09	101.3	1007.6	1
303	.01	101.3	1004.2	1
303	.03	101.3	1004.6	1
303	.05	101.3	1004.9	1
303	.07	101.3	1005.8	1
303	.09	101.3	1006.4	1
308	.01	101.3	1003.2	1
308	.03	101.3	1003.4	1
308	.05	101.3	1004	1
308	.07	101.3	1004.8	1
308	.09	101.3	1006.1	1
313	.01	101.3	1001.5	1
313	.03	101.3	1001.8	1
313	.05	101.3	1002.1	1
313	.07	101.3	1002.9	1
313	.09	101.3	1004	1
318	.01	101.3	999.4	1
318	.03	101.3	999.6	1
318	.05	101.3	1000.3	1
318	.07	101.3	1001.1	1
318	.09	101.3	1002.2	1
323	.01	101.3	998.2	1
323	.03	101.3	998.4	1
323	.05	101.3	998.8	1
323	.07	101.3	999.6	1
323	.09	101.3	1001	1
