Measured thermophysical data. Isobaric Vapor-Liquid Equilibria of the Ternary System Methylbutyl Ketone + 1-Pentanol + Anisole
Source: J. Chem. Eng. Data, 2009, 10.1021/je900058p
Compound 1: 2-hexanone, C6H12O
Compound 2: 1-pentanol, C5H12O
Compound 3: methoxybenzene, C7H8O

System: 2-hexanone; phases: Liquid
Fixed: Pressure, kPa = 101.325
Property: Mass density, kg/m3 (Liquid); method: Vibrating tube method
Temperature, K	Mass density, kg/m3	uncertainty
293.13	811.2	

System: 2-hexanone; phases: Liquid
Fixed: Pressure, kPa = 101.325
Property: Refractive index (Na D-line) (Liquid); method: Standard Abbe refractometry
Temperature, K	Refractive index (Na D-line)	uncertainty
293.13	1.4008	

System: 2-hexanone; phases: Liquid, Gas
Property: Vapor or sublimation pressure, kPa (Liquid); method: Ebulliometric method (Recirculating still)
Temperature, K	Vapor or sublimation pressure, kPa	uncertainty
359.51	26.66	
379.52	53.33	
392.57	79.99	
400.69	101.32	

System: 1-pentanol; phases: Liquid
Fixed: Pressure, kPa = 101.325
Property: Mass density, kg/m3 (Liquid); method: Vibrating tube method
Temperature, K	Mass density, kg/m3	uncertainty
293.13	814.5	

System: 1-pentanol; phases: Liquid
Fixed: Pressure, kPa = 101.325
Property: Refractive index (Na D-line) (Liquid); method: Standard Abbe refractometry
Temperature, K	Refractive index (Na D-line)	uncertainty
293.13	1.4098	

System: 1-pentanol; phases: Liquid, Gas
Property: Vapor or sublimation pressure, kPa (Liquid); method: Ebulliometric method (Recirculating still)
Temperature, K	Vapor or sublimation pressure, kPa	uncertainty
410.86	101.32	

System: methoxybenzene; phases: Liquid
Fixed: Pressure, kPa = 101.325
Property: Mass density, kg/m3 (Liquid); method: Vibrating tube method
Temperature, K	Mass density, kg/m3	uncertainty
293.13	994.1	

System: methoxybenzene; phases: Liquid
Fixed: Pressure, kPa = 101.325
Property: Refractive index (Na D-line) (Liquid); method: Standard Abbe refractometry
Temperature, K	Refractive index (Na D-line)	uncertainty
293.13	1.5171	

System: methoxybenzene; phases: Liquid, Gas
Property: Vapor or sublimation pressure, kPa (Liquid); method: Ebulliometric method (Recirculating still)
Temperature, K	Vapor or sublimation pressure, kPa	uncertainty
383.1	26.66	
404.24	53.33	
417.99	79.99	
426.54	101.32	

System: methoxybenzene + 2-hexanone; phases: Liquid, Gas
Property: Boiling temperature at pressure P, K (Liquid); method: Ebulliometric method (Recirculating still)
Mole fraction of 2-hexanone	Pressure, kPa	Boiling temperature at pressure P, K	uncertainty
0	26.66	383.1	.05
.218	26.66	376.15	.05
.294	26.66	373.89	.05
.418	26.66	370.65	.05
.488	26.66	368.96	.05
.598	26.66	366.56	.05
.701	26.66	364.73	.05
.799	26.66	362.83	.05
.9	26.66	361.02	.05
1	26.66	359.51	.05
0	53.33	404.24	.05
.218	53.33	397.22	.05
.294	53.33	394.81	.05
.418	53.33	391.45	.05
.488	53.33	389.72	.05
.598	53.33	387.17	.05
.701	53.33	385.12	.05
.799	53.33	383.12	.05
.9	53.33	381.16	.05
1	53.33	379.52	.05
0	79.99	417.99	.05
.218	79.99	410.82	.05
.294	79.99	408.27	.05
.418	79.99	404.9	.05
.488	79.99	403.17	.05
.598	79.99	400.5	.05
.701	79.99	398.43	.05
.799	79.99	396.27	.05
.9	79.99	394.27	.05
1	79.99	392.57	.05
0	101.32	426.54	.05
.218	101.32	419.3	.05
.294	101.32	416.72	.05
.418	101.32	413.29	.05
.488	101.32	411.48	.05
.598	101.32	408.82	.05
.701	101.32	406.63	.05
.799	101.32	404.51	.05
.9	101.32	402.46	.05
1	101.32	400.69	.05

System: 1-pentanol + 2-hexanone; phases: Liquid, Gas
Property: Boiling temperature at pressure P, K (Liquid); method: Ebulliometric method (Recirculating still)
Mole fraction of 2-hexanone	Pressure, kPa	Boiling temperature at pressure P, K	uncertainty
0	101.32	410.86	.05
.151	101.32	408.31	.05
.271	101.32	406.72	.05
.358	101.32	405.65	.05
.511	101.32	404.1	.05
.686	101.32	402.45	.05
.896	101.32	401.07	.05
1	101.32	400.69	.05

System: 1-pentanol + methoxybenzene + 2-hexanone; phases: Liquid, Gas
Property: Boiling temperature at pressure P, K (Liquid); method: Ebulliometric method (Recirculating still)
Mole fraction of 2-hexanone	Mole fraction of 1-pentanol	Pressure, kPa	Boiling temperature at pressure P, K	uncertainty
.728	.136	26.66	362.7	.05
.162	.419	26.66	370.8	.05
.439	.28	26.66	367	.05
.105	.21	26.66	373.6	.05
.274	.549	26.66	368.5	.05
.346	.173	26.66	369.3	.05
.575	.287	26.66	364.2	.05
.11	.11	26.66	375.5	.05
.312	.312	26.66	368.9	.05
.436	.436	26.66	366	.05
.165	.278	26.66	371.7	.05
.436	.188	26.66	367.5	.05
.63	.123	26.66	364.7	.05
.153	.54	26.66	370.5	.05
.082	.754	26.66	371.8	.05
.289	.132	26.66	371.2	.05
.263	.474	26.66	368.9	.05
.158	.684	26.66	370.4	.05
.444	.111	26.66	368.2	.05
.728	.136	53.33	382.7	.05
.162	.419	53.33	390.1	.05
.439	.28	53.33	386.7	.05
.105	.21	53.33	393.7	.05
.274	.549	53.33	387.5	.05
.346	.173	53.33	389.4	.05
.575	.287	53.33	383.8	.05
.11	.11	53.33	396.1	.05
.312	.312	53.33	388.5	.05
.436	.436	53.33	385.5	.05
.165	.278	53.33	391.4	.05
.436	.188	53.33	387.5	.05
.63	.123	53.33	384.8	.05
.153	.54	53.33	389.5	.05
.082	.754	53.33	390.2	.05
.289	.132	53.33	391.6	.05
.263	.474	53.33	388.2	.05
.158	.684	53.33	389.1	.05
.444	.111	53.33	388.5	.05
.728	.136	79.99	395.7	.05
.162	.419	79.99	402.6	.05
.439	.28	79.99	399.5	.05
.105	.21	79.99	406.7	.05
.274	.549	79.99	399.9	.05
.346	.173	79.99	402.5	.05
.11	.11	79.99	409.5	.05
.312	.312	79.99	401.2	.05
.436	.436	79.99	397.9	.05
.165	.278	79.99	404.2	.05
.436	.188	79.99	400.5	.05
.63	.123	79.99	397.8	.05
.153	.54	79.99	401.7	.05
.082	.754	79.99	402.1	.05
.289	.132	79.99	404.7	.05
.263	.474	79.99	400.6	.05
.158	.684	79.99	401.1	.05
.444	.111	79.99	401.7	.05
.728	.136	101.32	403.7	.05
.162	.419	101.32	410.4	.05
.439	.28	101.32	407.4	.05
.105	.21	101.32	415	.05
.274	.549	101.32	408.5	.05
.346	.173	101.32	410.6	.05
.11	.11	101.32	417.9	.05
.312	.312	101.32	409.2	.05
.436	.436	101.32	405.7	.05
.165	.278	101.32	412.2	.05
.436	.188	101.32	408.5	.05
.63	.123	101.32	405.9	.05
.153	.54	101.32	409.3	.05
.082	.754	101.32	409.4	.05
.289	.132	101.32	413	.05
.263	.474	101.32	408.3	.05
.158	.684	101.32	408.5	.05
.444	.111	101.32	409.9	.05
