Measured thermophysical data. Thermal Conductivity of Liquid Diethyl Ether, Diisopropyl Ether, and Di-n-butyl Ether from (233 to 373) K at Pressures up to 30 MPa
Source: J. Chem. Eng. Data, 2010, 10.1021/je900615b
Compound 1: diethyl ether, C4H10O, purity 99.5%
Compound 2: isopropyl ether, C6H14O
Compound 3: dibutyl ether, C8H18O

System: diethyl ether; phases: Liquid
Property: Thermal conductivity, W/m/K (Liquid); method: Hot wire method
Temperature, K	Pressure, kPa	Thermal conductivity, W/m/K	uncertainty
234.64	100	.1453	.002906
235.03	100	.1461	.002922
235.94	100	.1456	.002912
235.17	5100	.1478	.002956
235.53	5100	.1479	.002958
235.93	5100	.1477	.002954
235.1	10100	.1496	.002992
235.48	10100	.1499	.002998
235.89	10100	.15	.003
234.92	20100	.1542	.003084
235.09	20200	.1538	.003076
234.88	20100	.1543	.003086
234.9	30300	.1565	.00313
235.22	30200	.1563	.003126
235.4	30400	.1559	.003118
254.95	100	.1386	.002772
255.26	100	.1386	.002772
255.7	100	.1386	.002772
254.75	5200	.1408	.002816
254.99	4900	.1411	.002822
255.37	5100	.1407	.002814
254.98	10100	.1427	.002854
255.38	10200	.1432	.002864
255.69	10000	.1427	.002854
254.64	20200	.1484	.002968
254.91	19700	.1477	.002954
255.34	20200	.1475	.00295
254.74	30000	.1514	.003028
254.86	30000	.1512	.003024
255.28	29900	.1512	.003024
274.69	100	.1315	.00263
274.96	100	.1319	.002638
275.37	100	.1317	.002634
274.71	5000	.1338	.002676
275.38	5000	.1339	.002678
275.79	5000	.134	.00268
274.71	10000	.1363	.002726
274.97	10000	.1362	.002724
275.56	10100	.1364	.002728
274.7	20100	.1409	.002818
274.93	20000	.1409	.002818
275.7	20000	.1407	.002814
274.92	30000	.1447	.002894
275.21	30000	.145	.0029
275.64	30000	.145	.0029
295.31	100	.1248	.002496
295.6	100	.1252	.002504
296.02	100	.125	.0025
294.81	5100	.128	.00256
295.04	5000	.128	.00256
295.43	5100	.1277	.002554
294.79	10100	.1311	.002622
295.06	10100	.1309	.002618
295.26	10000	.1308	.002616
294.61	20200	.1366	.002732
294.93	20000	.1366	.002732
295.25	20000	.1365	.00273
294.83	29900	.1419	.002838
295.08	29700	.1416	.002832
295.53	29900	.1419	.002838
315.01	200	.1187	.002374
315.13	200	.1182	.002364
315.5	200	.1182	.002364
314.33	5100	.1201	.002402
314.44	5300	.1205	.00241
315.21	5200	.1202	.002404
314.6	10000	.1231	.002462
314.95	10100	.1236	.002472
315.52	10100	.1232	.002464
314.95	20100	.1291	.002582
315.56	20200	.1289	.002578
315.91	20100	.1287	.002574
314.55	30100	.1357	.002714
314.95	30100	.1361	.002722
315.39	30100	.1356	.002712
335.28	200	.1093	.002186
335.78	200	.1091	.002182
336.08	200	.1092	.002184
335.02	5100	.1127	.002254
335.21	5100	.1127	.002254
335.63	5200	.1126	.002252
335.33	10200	.1159	.002318
335.72	10100	.1162	.002324
336.17	10100	.1159	.002318
335.13	20300	.1222	.002444
335.33	19900	.1217	.002434
335.71	20400	.1224	.002448
335.3	30200	.1275	.00255
335.72	30000	.1271	.002542
336.13	30200	.1269	.002538
355.08	500	.1001	.002002
355.52	500	.1001	.002002
355.82	500	.1002	.002004
354.75	5000	.1044	.002088
355.37	5000	.1048	.002096
355.74	5000	.1045	.00209
355.05	10000	.1084	.002168
355.32	10100	.1082	.002164
355.8	10000	.1079	.002158
355.18	20000	.115	.0023
355.52	20000	.1148	.002296
356.03	20000	.1147	.002294
354.59	30000	.1208	.002416
355.05	30000	.1206	.002412
355.39	30000	.1204	.002408
375.72	700	.0926	.001852
376.18	700	.0925	.00185
376.8	700	.0923	.001846
374.7	5200	.0974	.001948
375.25	5100	.0973	.001946
375.4	5000	.0973	.001946
374.62	10000	.1004	.002008
375.06	10000	.1011	.002022
375.46	10000	.1008	.002016
375.22	20000	.1081	.002162
375.62	20000	.1082	.002164
376.28	20000	.1076	.002152
374.92	30000	.1132	.002264
375.01	29700	.1131	.002262
375.51	29800	.1135	.00227

System: isopropyl ether; phases: Liquid
Property: Thermal conductivity, W/m/K (Liquid); method: Hot wire method
Temperature, K	Pressure, kPa	Thermal conductivity, W/m/K	uncertainty
235.54	100	.1258	.002516
235.46	100	.1259	.002518
236.06	100	.1259	.002518
236.25	5000	.128	.00256
236.33	5000	.1275	.00255
236.67	5000	.1277	.002554
236.29	10100	.13	.0026
237.15	10200	.1302	.002604
236.7	10200	.1305	.00261
236.45	20300	.1337	.002674
236.44	20200	.1331	.002662
236.8	20300	.1337	.002674
236.15	30600	.1369	.002738
236.53	29900	.1364	.002728
236.92	30000	.1363	.002726
254.73	100	.1201	.002402
255.08	100	.1205	.00241
255.26	100	.1199	.002398
254.66	5100	.122	.00244
254.89	5300	.1223	.002446
255.14	5100	.1221	.002442
254.74	10000	.1238	.002476
254.86	10200	.1241	.002482
255.13	10100	.1236	.002472
254.4	20400	.1276	.002552
254.9	20100	.128	.00256
255.61	19900	.1285	.00257
254.47	30400	.1314	.002628
254.76	29500	.1312	.002624
255.58	30100	.1315	.00263
275	100	.1129	.002258
275.3	100	.1135	.00227
275.91	100	.1131	.002262
274.95	5100	.1154	.002308
275.19	5000	.115	.0023
275.6	5000	.1152	.002304
274.72	10100	.1177	.002354
275.02	10000	.1178	.002356
275.25	10000	.1175	.00235
274.89	20000	.122	.00244
275.51	20100	.1218	.002436
276.04	20100	.1219	.002438
274.6	30000	.1274	.002548
274.86	29900	.1269	.002538
275.17	30100	.1271	.002542
294.58	100	.1073	.002146
295.03	100	.1071	.002142
295.7	100	.1066	.002132
294.95	5000	.1089	.002178
295.35	5000	.1085	.00217
295.82	5000	.1087	.002174
294.65	10000	.1118	.002236
294.98	10000	.1115	.00223
295.32	10100	.1111	.002222
295.13	20100	.1161	.002322
295.6	20100	.116	.00232
296.18	20100	.1159	.002318
294.64	30100	.1197	.002394
295.14	30100	.1199	.002398
295.27	30000	.1198	.002396
315.13	100	.0993	.001986
315.48	100	.0996	.001992
315.88	100	.0994	.001988
315.03	5000	.1027	.002054
315.39	5000	.1023	.002046
315.73	5100	.1027	.002054
315.35	10000	.105	.0021
315.71	10000	.1054	.002108
316.26	10000	.105	.0021
315.07	20000	.1105	.00221
315.26	20000	.1099	.002198
315.76	20000	.1104	.002208
314.96	30000	.1145	.00229
315.24	30000	.1144	.002288
315.98	30000	.1144	.002288
335.23	100	.0935	.00187
335.46	100	.0932	.001864
335.94	100	.0931	.001862
335.01	5400	.0959	.001918
335.84	5000	.096	.00192
336.37	5200	.0959	.001918
334.99	10100	.0998	.001996
335.32	10100	.0995	.00199
335.84	10100	.0995	.00199
335.11	20000	.1038	.002076
335.68	19700	.1043	.002086
336.31	20100	.1042	.002084
335.29	29900	.1093	.002186
335.51	30200	.1094	.002188
335.72	30000	.1096	.002192
355.29	300	.0865	.00173
355.66	300	.0869	.001738
356.04	300	.0866	.001732
355.45	5000	.0916	.001832
355.56	5000	.091	.00182
354.97	5000	.0913	.001826
355.23	10100	.0944	.001888
355.33	10100	.0944	.001888
355.87	10000	.094	.00188
354.85	19700	.1006	.002012
354.97	19800	.1	.002
355.47	20100	.1001	.002002
354.72	29900	.106	.00212
354.72	29900	.1051	.002102
356.04	29900	.1056	.002112
375.24	400	.0813	.001626
375.47	400	.0812	.001624
375.87	400	.0816	.001632
375.4	5100	.0858	.001716
375.75	5100	.0853	.001706
376.26	5100	.0854	.001708
375.25	10000	.0893	.001786
375.61	10000	.0889	.001778
376.23	10000	.089	.00178
375.12	20000	.0959	.001918
375.57	20000	.0957	.001914
376.05	20000	.0955	.00191
374.95	29800	.1021	.002042
375.55	30300	.1026	.002052
374.75	30000	.1021	.002042

System: dibutyl ether; phases: Liquid
Property: Thermal conductivity, W/m/K (Liquid); method: Hot wire method
Temperature, K	Pressure, kPa	Thermal conductivity, W/m/K	uncertainty
236.22	200	.1403	.002806
236.62	200	.1406	.002812
236.95	200	.1402	.002804
236.56	5100	.1418	.002836
236.96	5000	.1414	.002828
237.1	5000	.1419	.002838
236.17	10100	.1432	.002864
236.58	10000	.1432	.002864
236.87	10100	.1432	.002864
236.06	20000	.1463	.002926
236.4	20100	.1462	.002924
236.55	20100	.1464	.002928
235.96	30000	.1494	.002988
236.88	30100	.1491	.002982
237.29	30000	.1488	.002976
255.11	200	.1368	.002736
255.06	200	.1367	.002734
255.45	200	.1364	.002728
254.73	5100	.1379	.002758
255.01	5100	.1384	.002768
255.36	5100	.1379	.002758
254.65	10000	.1394	.002788
254.85	10000	.14	.0028
255.03	10000	.1402	.002804
254.96	20000	.1429	.002858
255.11	20000	.1431	.002862
255.78	20000	.143	.00286
254.45	30100	.1455	.00291
254.84	30000	.146	.00292
255.35	30000	.1456	.002912
274.66	200	.1316	.002632
274.84	200	.131	.00262
275.44	200	.1312	.002624
274.92	5000	.1323	.002646
275.08	5200	.133	.00266
275.56	5100	.1324	.002648
274.78	10100	.1352	.002704
275.06	10200	.1352	.002704
275.5	10000	.1346	.002692
275.27	20300	.1384	.002768
275.31	20000	.1384	.002768
275.87	20100	.138	.00276
274.96	30400	.1413	.002826
275.12	30100	.1413	.002826
275.38	30200	.1414	.002828
295.17	200	.126	.00252
295.56	200	.1266	.002532
295.95	200	.1262	.002524
295.17	5000	.1276	.002552
295.03	5100	.1281	.002562
295.13	5200	.1284	.002568
294.81	10200	.1306	.002612
295.07	10000	.1299	.002598
295.37	10000	.1302	.002604
294.81	20000	.1344	.002688
295.29	20000	.1351	.002702
295.78	20000	.1347	.002694
294.96	30000	.1383	.002766
295.02	30100	.1378	.002756
295.55	30000	.1384	.002768
314.87	200	.1201	.002402
315.21	200	.1203	.002406
315.55	200	.12	.0024
315.1	5000	.1219	.002438
315.63	5100	.1223	.002446
315.97	5000	.1218	.002436
315.16	10100	.1246	.002492
315.55	10000	.1245	.00249
315.95	10000	.125	.0025
314.68	20000	.1286	.002572
315	20000	.1285	.00257
315.32	20000	.1289	.002578
315.16	30100	.1326	.002652
314.97	30100	.1326	.002652
315.45	30000	.1327	.002654
334.91	200	.1145	.00229
335.18	200	.1142	.002284
335.59	200	.1147	.002294
335.29	5000	.1168	.002336
335.69	5000	.1173	.002346
336.14	5100	.1174	.002348
335	9900	.1191	.002382
335.31	10100	.1197	.002394
335.74	10100	.1191	.002382
334.94	20000	.124	.00248
335.28	20000	.1241	.002482
335.74	20000	.1245	.00249
335.41	30000	.128	.00256
335.64	30100	.1286	.002572
335.74	30000	.1288	.002576
355.04	200	.1083	.002166
355.63	200	.1081	.002162
356.48	200	.1087	.002174
355.09	5200	.1114	.002228
355.34	5300	.1118	.002236
355.69	5200	.1113	.002226
355.19	10300	.1145	.00229
355.28	10200	.1142	.002284
355.73	10100	.1147	.002294
354.9	20100	.1196	.002392
355.04	20000	.1195	.00239
355.56	20000	.119	.00238
355.24	30000	.1229	.002458
354.98	30000	.1232	.002464
355.47	30000	.1231	.002462
374.72	200	.1025	.00205
375	200	.1024	.002048
375.25	200	.1024	.002048
374.98	5000	.1054	.002108
375.25	5000	.1049	.002098
375.7	5000	.1055	.00211
375.26	10000	.1088	.002176
375.58	10000	.1082	.002164
376.07	10000	.1085	.00217
375.15	20000	.1134	.002268
375.52	20000	.1128	.002256
375.97	20000	.1141	.002282
374.99	30000	.1183	.002366
374.9	30000	.1186	.002372
375.95	30000	.1198	.002396
