Measured thermophysical data. Density of Carbon Dioxide Expanded Ethanol at (313.2, 328.2, and 343.2) K
Source: J. Chem. Eng. Data, 2010, 10.1021/je900830s
Compound 1: ethanol, C2H6O
Compound 2: carbon dioxide, CO2

System: ethanol; phases: Liquid
Fixed: Pressure, kPa = 101.325
Property: Mass density, kg/m3 (Liquid); method: Buoyancy - hydrostatic balance with magnetic suspension - one sinker
Temperature, K	Mass density, kg/m3	uncertainty
313.2	768.9	
338.2	752.7	
343.2	732.4	

System: ethanol + carbon dioxide; phases: Liquid, Gas
Property: Mass density, kg/m3 (Liquid); method: Buoyancy - hydrostatic balance with magnetic suspension - one sinker
Temperature, K	Pressure, kPa	Mass density, kg/m3	uncertainty
313.2	100	768.9	
313.2	2050	785.8	
313.2	4400	802.6	
313.2	5860	813	
313.2	6560	817.2	
313.2	7270	813.7	
313.2	7840	793.5	
313.2	8170	762.5	
313.2	8510	734.3	
328.2	110	752.7	
328.2	2200	766.2	
328.2	4380	777.2	
328.2	5860	784.2	
328.2	6440	786.5	
328.2	7130	788.3	
328.2	7810	789.2	
328.2	8170	788.7	
328.2	8520	786.6	
328.2	8860	782.4	
328.2	9210	774.6	
328.2	9560	755.2	
328.2	9900	730.1	
343.2	160	732.4	
343.2	2270	742	
343.2	4360	750.5	
343.2	5820	756.6	
343.2	7170	758.7	
343.2	7850	760	
343.2	8540	759.1	
343.2	9240	757.3	
343.2	9930	752.8	
343.2	10610	742.3	
343.2	11220	726.3	
