Measured thermophysical data. Density and Viscosity of (2,2-Dichloro-N,N-di-2-propenylacetamide + Acetone) and (2,2-Dichloro-N,N-di-2-propenylacetamide + Ethanol) at T = (278.15 to 313.15) K
Source: J. Chem. Eng. Data, 2010, 10.1021/je900535d
Compound 1: ethanol, C2H6O
Compound 2: propanone, C3H6O
Compound 3: acetamide, 2,2-dichloro-N,N-di-2-propenyl-, C8H11Cl2NO
Compound 4: water, H2O

System: ethanol; phases: Liquid
Property: Mass density, kg/m3 (Liquid); method: Pycnometric method
Temperature, K	Pressure, kPa	Mass density, kg/m3	uncertainty
278.15	101	801.1	.2
283.15	101	799.1	.2
288.15	101	795.1	.2
293.15	101	791.3	.2
298.15	101	787.2	.2
303.15	101	783.4	.2
308.15	101	780.2	.2
313.15	101	777.2	.2

System: ethanol; phases: Liquid
Property: Viscosity, Pa*s (Liquid); method: Capillary tube (Ostwald; Ubbelohde) method
Temperature, K	Pressure, kPa	Viscosity, Pa*s	uncertainty
278.15	101	.0016123	.000003
283.15	101	.0014483	.000003
288.15	101	.0013185	.000003
293.15	101	.0011946	.000003
298.15	101	.0010859	.000003
303.15	101	.0009835	.000003
308.15	101	.000895	.000003
313.15	101	.0008184	.000003

System: propanone; phases: Liquid
Property: Mass density, kg/m3 (Liquid); method: Pycnometric method
Temperature, K	Pressure, kPa	Mass density, kg/m3	uncertainty
278.15	101	807.4	.2
283.15	101	802.6	.2
288.15	101	797.3	.2
293.15	101	791.8	.2
298.15	101	787	.2
303.15	101	781.2	.2
308.15	101	775.6	.2
313.15	101	770.8	.2

System: propanone; phases: Liquid
Property: Viscosity, Pa*s (Liquid); method: Capillary tube (Ostwald; Ubbelohde) method
Temperature, K	Pressure, kPa	Viscosity, Pa*s	uncertainty
278.15	101	.0003849	.000003
283.15	101	.0003657	.000003
288.15	101	.0003511	.000003
293.15	101	.0003339	.000003
298.15	101	.0003212	.000003
303.15	101	.0003086	.000003
308.15	101	.0002939	.000003
313.15	101	.0002839	.000003

System: propanone + acetamide, 2,2-dichloro-N,N-di-2-propenyl-; phases: Liquid
Fixed: Pressure, kPa = 101
Property: Mass density, kg/m3 (Liquid); method: Pycnometric method
Temperature, K	Molality, mol/kg of acetamide, 2,2-dichloro-N,N-di-2-propenyl-	Mass density, kg/m3	uncertainty
278.15	0	807.4	.2
278.15	.1094	814.4	.2
278.15	.2071	820.2	.2
278.15	.2997	823.2	.2
278.15	.5018	833.7	.2
278.15	.6524	841.9	.2
278.15	.8046	848.8	.2
278.15	.9073	853.5	.2
278.15	1.0011	858.1	.2
283.15	0	802.6	.2
283.15	.1094	809.4	.2
283.15	.2071	814.2	.2
283.15	.2997	819.2	.2
283.15	.5018	829.7	.2
283.15	.6524	838.4	.2
283.15	.8046	845.3	.2
283.15	.9073	850.3	.2
283.15	1.0011	854.2	.2
288.15	0	797.3	.2
288.15	.6524	833.3	.2
288.15	.1094	804.9	.2
288.15	.2071	809.2	.2
288.15	.2997	813.9	.2
288.15	.5018	824.8	.2
288.15	.8046	840.5	.2
288.15	.9073	844.9	.2
288.15	1.0011	849.2	.2
293.15	0	791.8	.2
293.15	.1094	799.5	.2
293.15	.2071	804.1	.2
293.15	.2997	808.6	.2
293.15	.5018	819.3	.2
293.15	.6524	827.6	.2
293.15	.8046	835.2	.2
293.15	.9073	839.6	.2
293.15	1.0011	843.6	.2
298.15	0	787	.2
298.15	.1094	793.8	.2
298.15	.2071	796.7	.2
298.15	.2997	803.4	.2
298.15	.5018	814.1	.2
298.15	.6524	823	.2
298.15	.8046	829.1	.2
298.15	.9073	834.3	.2
298.15	1.0011	839	.2
303.15	0	781.2	.2
303.15	.1094	789	.2
303.15	.2071	792.7	.2
303.15	.2997	798.1	.2
303.15	.5018	809.3	.2
303.15	.6524	818.1	.2
303.15	.8046	824.4	.2
303.15	.9073	829.3	.2
303.15	1.0011	833.9	.2
308.15	0	775.6	.2
308.15	.1094	784.6	.2
308.15	.2071	787.8	.2
308.15	.2997	792.8	.2
308.15	.5018	804.6	.2
308.15	.6524	813.6	.2
308.15	.8046	819.6	.2
308.15	.9073	824.4	.2
308.15	1.0011	829.5	.2
313.15	0	770.8	.2
313.15	.1094	779.7	.2
313.15	.2071	783.7	.2
313.15	.2997	789.4	.2
313.15	.5018	799.8	.2
313.15	.6524	808.9	.2
313.15	.8046	814.7	.2
313.15	.9073	820.9	.2
313.15	1.0011	824.5	.2

System: propanone + acetamide, 2,2-dichloro-N,N-di-2-propenyl-; phases: Liquid
Fixed: Pressure, kPa = 101
Property: Viscosity, Pa*s (Liquid); method: Capillary tube (Ostwald; Ubbelohde) method
Temperature, K	Molality, mol/kg of acetamide, 2,2-dichloro-N,N-di-2-propenyl-	Viscosity, Pa*s	uncertainty
278.15	0	.0003849	.000003
278.15	.1094	.0003964	.000003
278.15	.2071	.0004077	.000003
278.15	.2997	.0004211	.000003
278.15	.5018	.0004359	.000003
278.15	.6524	.0004533	.000003
278.15	.8046	.0004695	.000003
278.15	.9073	.0004819	.000003
278.15	1.0011	.0004919	.000003
283.15	0	.0003657	.000003
283.15	.1094	.0003804	.000003
283.15	.2071	.000385	.000003
283.15	.2997	.0003999	.000003
283.15	.5018	.0004119	.000003
283.15	.6524	.0004299	.000003
283.15	.8046	.0004437	.000003
283.15	.9073	.0004549	.000003
283.15	1.0011	.0004712	.000003
288.15	0	.0003511	.000003
288.15	.1094	.0003633	.000003
288.15	.2071	.0003683	.000003
288.15	.2997	.0003798	.000003
288.15	.5018	.0003935	.000003
288.15	.6524	.0004094	.000003
288.15	.8046	.0004231	.000003
288.15	.9073	.0004322	.000003
288.15	1.0011	.0004492	.000003
293.15	0	.0003339	.000003
293.15	.1094	.0003429	.000003
293.15	.2071	.0003501	.000003
293.15	.2997	.0003617	.000003
293.15	.5018	.0003719	.000003
293.15	.6524	.0003878	.000003
293.15	.8046	.0003997	.000003
293.15	.9073	.0004079	.000003
293.15	1.0011	.0004157	.000003
298.15	0	.0003212	.000003
298.15	.1094	.0003335	.000003
298.15	.2071	.0003358	.000003
298.15	.2997	.0003476	.000003
298.15	.5018	.0003589	.000003
298.15	.6524	.0003712	.000003
298.15	.8046	.0003822	.000003
298.15	.9073	.0003905	.000003
298.15	1.0011	.0003989	.000003
303.15	0	.0003086	.000003
303.15	.1094	.0003189	.000003
303.15	.2071	.0003227	.000003
303.15	.2997	.0003309	.000003
303.15	.5018	.0003424	.000003
303.15	.6524	.0003542	.000003
303.15	.8046	.0003646	.000003
303.15	.9073	.0003722	.000003
303.15	1.0011	.0003793	.000003
308.15	0	.0002939	.000003
308.15	.1094	.0003041	.000003
308.15	.2071	.0003086	.000003
308.15	.2997	.0003185	.000003
308.15	.5018	.0003268	.000003
308.15	.6524	.0003372	.000003
308.15	.8046	.0003478	.000003
308.15	.9073	.0003553	.000003
308.15	1.0011	.0003628	.000003
313.15	0	.0002839	.000003
313.15	.1094	.0002944	.000003
313.15	.2071	.000296	.000003
313.15	.2997	.0003075	.000003
313.15	.5018	.0003129	.000003
313.15	.6524	.0003247	.000003
313.15	.8046	.0003335	.000003
313.15	.9073	.0003423	.000003
313.15	1.0011	.0003443	.000003

System: ethanol + acetamide, 2,2-dichloro-N,N-di-2-propenyl-; phases: Liquid
Fixed: Pressure, kPa = 101
Property: Mass density, kg/m3 (Liquid); method: Pycnometric method
Temperature, K	Molality, mol/kg of acetamide, 2,2-dichloro-N,N-di-2-propenyl-	Mass density, kg/m3	uncertainty
278.15	0	801.1	.2
278.15	.1039	808	.2
278.15	.2471	816.7	.2
278.15	.3945	823.3	.2
278.15	.5463	830.9	.2
278.15	.7007	839	.2
278.15	.8398	845.5	.2
278.15	1.0008	852.2	.2
283.15	0	799.1	.2
283.15	.1039	804.9	.2
283.15	.2471	813.2	.2
283.15	.3945	821.1	.2
283.15	.5463	827.9	.2
283.15	.7007	835.9	.2
283.15	.8398	842.7	.2
283.15	1.0008	849.3	.2
288.15	0	795.1	.2
288.15	.1039	800.9	.2
288.15	.2471	808.9	.2
288.15	.3945	817.2	.2
288.15	.5463	824.1	.2
288.15	.7007	831.7	.2
288.15	.8398	838.1	.2
288.15	1.0008	845.4	.2
293.15	0	791.3	.2
293.15	.1039	796.4	.2
293.15	.2471	804.8	.2
293.15	.3945	812.6	.2
293.15	.5463	819.5	.2
293.15	.7007	827.4	.2
293.15	.8398	833.5	.2
293.15	1.0008	840.9	.2
298.15	0	787.2	.2
298.15	.1039	793	.2
298.15	.2471	801	.2
298.15	.3945	809.3	.2
298.15	.5463	816.3	.2
298.15	.7007	823.8	.2
298.15	.8398	830.1	.2
298.15	1.0008	837.6	.2
303.15	0	783.4	.2
303.15	.1039	789.2	.2
303.15	.2471	797.1	.2
303.15	.3945	805.1	.2
303.15	.5463	812	.2
303.15	.7007	820	.2
303.15	.8398	826.1	.2
303.15	1.0008	833.1	.2
308.15	0	780.2	.2
308.15	.1039	785.4	.2
308.15	.2471	793.5	.2
308.15	.3945	801.5	.2
308.15	.5463	808.6	.2
308.15	.7007	816.5	.2
308.15	.8398	822.6	.2
308.15	1.0008	829.7	.2
313.15	0	777.2	.2
313.15	.1039	782	.2
313.15	.2471	790.6	.2
313.15	.3945	798.2	.2
313.15	.5463	805.1	.2
313.15	.7007	813	.2
313.15	.8398	819.4	.2
313.15	1.0008	825.9	.2

System: ethanol + acetamide, 2,2-dichloro-N,N-di-2-propenyl-; phases: Liquid
Fixed: Pressure, kPa = 101
Property: Viscosity, Pa*s (Liquid); method: Capillary tube (Ostwald; Ubbelohde) method
Temperature, K	Molality, mol/kg of acetamide, 2,2-dichloro-N,N-di-2-propenyl-	Viscosity, Pa*s	uncertainty
278.15	0	.0016123	.000003
278.15	.1039	.0016501	.000003
278.15	.2471	.0016989	.000003
278.15	.3945	.001727	.000003
278.15	.5463	.0017633	.000003
278.15	.7007	.0018115	.000003
278.15	.8398	.0018517	.000003
278.15	1.0008	.0018955	.000003
283.15	0	.0014483	.000003
283.15	.1039	.0014848	.000003
283.15	.2471	.0015214	.000003
283.15	.3945	.0015555	.000003
283.15	.5463	.0015813	.000003
283.15	.7007	.0016223	.000003
283.15	.8398	.0016523	.000003
283.15	1.0008	.0016835	.000003
288.15	0	.0013185	.000003
288.15	.1039	.0013496	.000003
288.15	.2471	.0013736	.000003
288.15	.3945	.0014002	.000003
288.15	.5463	.0014297	.000003
288.15	.7007	.0014599	.000003
288.15	.8398	.0014909	.000003
288.15	1.0008	.001525	.000003
293.15	0	.0011946	.000003
293.15	.1039	.0012075	.000003
293.15	.2471	.001238	.000003
293.15	.3945	.0012577	.000003
293.15	.5463	.0012842	.000003
293.15	.7007	.001314	.000003
293.15	.8398	.0013343	.000003
293.15	1.0008	.001372	.000003
298.15	0	.0010859	.000003
298.15	.1039	.0011084	.000003
298.15	.2471	.0011336	.000003
298.15	.3945	.0011623	.000003
298.15	.5463	.0011778	.000003
298.15	.7007	.001201	.000003
298.15	.8398	.0012154	.000003
298.15	1.0008	.0012447	.000003
303.15	0	.0009835	.000003
303.15	.1039	.0010082	.000003
303.15	.2471	.0010246	.000003
303.15	.3945	.0010432	.000003
303.15	.5463	.0010624	.000003
303.15	.7007	.0010797	.000003
303.15	.8398	.0011001	.000003
303.15	1.0008	.0011163	.000003
308.15	0	.000895	.000003
308.15	.1039	.0009132	.000003
308.15	.2471	.0009322	.000003
308.15	.3945	.0009453	.000003
308.15	.5463	.0009641	.000003
308.15	.7007	.0009854	.000003
308.15	.8398	.0009997	.000003
308.15	1.0008	.0010195	.000003
313.15	0	.0008184	.000003
313.15	.1039	.000832	.000003
313.15	.2471	.0008475	.000003
313.15	.3945	.0008596	.000003
313.15	.5463	.0008743	.000003
313.15	.7007	.0008941	.000003
313.15	.8398	.0009139	.000003
313.15	1.0008	.0009264	.000003
