Measured thermophysical data. Solubility of Valsartan in Ethyl Acetate + Hexane Binary Mixtures from (278.15  to 313.15) K
Source: J. Chem. Eng. Data, 2009, 10.1021/je900159a
Compound 1: valsartan, C24H29N5O3, purity 95%
Compound 2: ethyl ethanoate, C4H8O2, purity 99.5%
Compound 3: hexane, C6H14, purity 99.5%

System: hexane + ethyl ethanoate + valsartan; phases: Liquid, Crystal
Fixed: Pressure, kPa = 101
Property: Mole fraction of valsartan (Liquid); method: Synthetic Method
Temperature, K	Solvent: Mole fraction of ethyl ethanoate	Mole fraction of valsartan	uncertainty
278.15	1	.00247	.00001235
283.15	1	.00334	.0000167
288.15	1	.00443	.00002215
293.15	1	.00596	.0000298
298.15	1	.00804	.0000402
303.15	1	.0108	.000054
308.15	1	.01414	.0000707
313.15	1	.01847	.00009235
278.15	.9081	.00165	.00000825
283.15	.9081	.00236	.0000118
288.15	.9081	.00307	.00001535
293.15	.9081	.00406	.0000203
298.15	.9081	.00557	.00002785
303.15	.9081	.00774	.0000387
308.15	.9081	.0103	.0000515
313.15	.9081	.01373	.00006865
278.15	.8726	.00132	.0000066
283.15	.8726	.00185	.00000925
288.15	.8726	.00267	.00001335
293.15	.8726	.00352	.0000176
298.15	.8726	.00477	.00002385
303.15	.8726	.00663	.00003315
308.15	.8726	.00905	.00004525
313.15	.8726	.01211	.00006055
278.15	.8547	.00117	.00000585
283.15	.8547	.00166	.0000083
288.15	.8547	.00236	.0000118
293.15	.8547	.00331	.00001655
298.15	.8547	.00441	.00002205
303.15	.8547	.00616	.0000308
308.15	.8547	.00836	.0000418
313.15	.8547	.01129	.00005645
278.15	.7953	.00096	.0000048
283.15	.7953	.00134	.0000067
288.15	.7953	.00187	.00000935
293.15	.7953	.00254	.0000127
298.15	.7953	.00324	.0000162
303.15	.7953	.00439	.00002195
308.15	.7953	.00609	.00003045
313.15	.7953	.00796	.0000398
278.15	.7455	.00084	.0000042
283.15	.7455	.00115	.00000575
288.15	.7455	.00144	.0000072
293.15	.7455	.00199	.00000995
298.15	.7455	.00252	.0000126
303.15	.7455	.00334	.0000167
308.15	.7455	.00436	.0000218
313.15	.7455	.00566	.0000283
278.15	.6969	.00076	.0000038
283.15	.6969	.00098	.0000049
288.15	.6969	.00123	.00000615
293.15	.6969	.0016	.000008
298.15	.6969	.00205	.00001025
303.15	.6969	.00258	.0000129
308.15	.6969	.00322	.0000161
313.15	.6969	.00406	.0000203
278.15	.6624	.00064	.0000032
283.15	.6624	.00083	.00000415
288.15	.6624	.00107	.00000535
293.15	.6624	.00131	.00000655
298.15	.6624	.00172	.0000086
303.15	.6624	.00213	.00001065
308.15	.6624	.0027	.0000135
313.15	.6624	.00338	.0000169
278.15	.5967	.0005	.0000025
283.15	.5967	.00064	.0000032
288.15	.5967	.0008	.000004
293.15	.5967	.00103	.00000515
298.15	.5967	.00129	.00000645
303.15	.5967	.00161	.00000805
308.15	.5967	.00203	.00001015
313.15	.5967	.00255	.00001275
278.15	.4944	.00032	.0000016
283.15	.4944	.0004	.000002
288.15	.4944	.00052	.0000026
293.15	.4944	.00066	.0000033
298.15	.4944	.00082	.0000041
303.15	.4944	.00108	.0000054
308.15	.4944	.00139	.00000695
313.15	.4944	.00174	.0000087

System: ethyl ethanoate + valsartan; phases: Liquid, Crystal
Property: Mole fraction of valsartan (Liquid); method: Synthetic Method
Temperature, K	Pressure, kPa	Mole fraction of valsartan	uncertainty
278.15	101	.00247	.00001235
283.15	101	.00334	.0000167
288.15	101	.00443	.00002215
293.15	101	.00596	.0000298
298.15	101	.00804	.0000402
303.15	101	.0108	.000054
308.15	101	.01414	.0000707
313.15	101	.01847	.00009235
