Measured thermophysical data. Vapor Pressures and Liquid Densities of Ammonium Bromide + Ammonia Mixtures
Source: J. Chem. Eng. Data, 2010, 10.1021/je900359y
Compound 1: ammonium bromide, BrH4N
Compound 2: ammonia, H3N

System: ammonia + ammonium bromide; phases: Liquid, Gas
Property: Vapor or sublimation pressure, kPa (Liquid); method: Closed cell (Static) method
Temperature, K	Molality, mol/kg of ammonium bromide	Vapor or sublimation pressure, kPa	uncertainty
303.12	1.17	1162	5.81
303.12	2.643	1150	5.75
313.14	1.175	1543	7.715
323.16	1.181	2009	10.045
333.13	1.188	2578	12.89
343.13	1.195	3267	16.335
353.13	1.203	4079	20.395
363.12	1.211	5040	25.2
373.16	1.22	6176	30.88
313.14	2.656	1521	7.605
323.16	2.668	1980	9.9
333.13	2.683	2542	12.71
343.13	2.701	3222	16.11
353.13	2.719	4027	20.135
363.12	2.737	4979	24.895
373.16	2.757	6111	30.555
303.12	4.607	1089	5.445
313.14	4.63	1414	7.07
323.16	4.658	1940	9.7
333.13	4.687	2438	12.19
343.13	4.721	3105	15.525
353.13	4.759	3896	19.48
363.12	4.8	4840	24.2
373.16	4.849	5957	29.785
303.12	11.381	789	3.945
313.14	11.454	1063	5.315
323.16	11.532	1400	7
333.13	11.621	1807	9.035
343.13	11.714	2305	11.525
353.13	11.814	2891	14.455
363.12	11.919	3571	17.855
373.16	11.986	4340	21.7
303.12	7.348	999	4.995
313.14	7.391	1329	6.645
323.16	7.439	1745	8.725
333.13	7.494	2254	11.27
343.13	7.559	2872	14.36
353.13	7.624	3604	18.02
363.12	7.693	4464	22.32
373.16	7.769	5460	27.3
303.12	17.193	477	2.385
313.14	17.281	664	3.32
323.16	17.385	898	4.49
333.13	17.505	1175	5.875
343.13	17.626	1520	7.6
353.13	17.756	1916	9.58
363.12	17.886	2395	11.975
373.16	18.034	2945	14.725

System: ammonia + ammonium bromide; phases: Liquid
Property: Mass density, kg/m3 (Liquid); method: Constant-volume piezometry
Temperature, K	Molality, mol/kg of ammonium bromide	Pressure, kPa	Mass density, kg/m3	uncertainty
303.15	1.143	10000	675.9	1.3518
313.15	1.143	10000	661.3	1.3226
303.15	1.143	15000	679.5	1.359
303.15	1.143	20000	682.7	1.3654
303.15	1.143	25000	686.3	1.3726
303.15	1.143	30000	689.5	1.379
303.15	2.601	10000	750.8	1.5016
303.15	2.601	15000	754.5	1.509
303.15	2.601	20000	758	1.516
303.15	2.601	25000	761.3	1.5226
303.15	2.601	30000	764.4	1.5288
303.15	4.381	10000	829	1.658
303.15	4.381	15000	832.7	1.6654
303.15	4.381	20000	836.1	1.6722
303.15	4.381	25000	839.1	1.6782
303.15	4.381	30000	842.1	1.6842
303.15	7.359	10000	939.1	1.8782
303.15	7.359	15000	942.7	1.8854
303.15	7.359	20000	945.8	1.8916
303.15	7.359	25000	948.9	1.8978
303.15	7.359	30000	951.2	1.9024
303.15	10.349	10000	1028.9	2.0578
303.15	10.349	15000	1032.2	2.0644
303.15	10.349	20000	1034.9	2.0698
303.15	10.349	25000	1037.4	2.0748
303.15	10.349	30000	1039.8	2.0796
303.15	15.171	10000	1126.2	2.2524
303.15	15.171	15000	1128.1	2.2562
303.15	15.171	20000	1130.1	2.2602
303.15	15.171	25000	1132	2.264
303.15	15.171	30000	1134	2.268
313.15	1.143	10000	661.3	1.3226
313.15	1.143	15000	665.1	1.3302
313.15	1.143	20000	668.9	1.3378
313.15	1.143	25000	672.6	1.3452
313.15	1.143	30000	676.3	1.3526
313.15	2.601	10000	737.8	1.4756
313.15	2.601	15000	741.4	1.4828
313.15	2.601	20000	745	1.49
313.15	2.601	25000	748.6	1.4972
313.15	2.601	30000	752.1	1.5042
313.15	4.381	10000	817.3	1.6346
313.15	4.381	15000	820.9	1.6418
313.15	4.381	20000	824.2	1.6484
313.15	4.381	25000	827.6	1.6552
313.15	4.381	30000	830.7	1.6614
313.15	7.359	10000	926.8	1.8536
313.15	7.359	15000	929.8	1.8596
313.15	7.359	20000	932.8	1.8656
313.15	7.359	25000	935.5	1.871
313.15	7.359	30000	938	1.876
313.15	10.349	10000	1017	2.034
313.15	10.349	15000	1020.3	2.0406
313.15	10.349	20000	1023.2	2.0464
313.15	10.349	25000	1025.9	2.0518
313.15	10.349	30000	1028.6	2.0572
313.15	15.171	10000	1116.9	2.2338
313.15	15.171	15000	1118.8	2.2376
313.15	15.171	20000	1120.4	2.2408
313.15	15.171	25000	1122	2.244
313.15	15.171	30000	1123.6	2.2472
323.15	1.143	10000	646.8	1.2936
323.15	1.143	15000	651.2	1.3024
323.15	1.143	20000	655.4	1.3108
323.15	1.143	25000	659.7	1.3194
323.15	1.143	30000	663.8	1.3276
323.15	2.601	10000	724.3	1.4486
323.15	2.601	15000	727.7	1.4554
323.15	2.601	20000	731.4	1.4628
323.15	2.601	25000	734.9	1.4698
323.15	2.601	30000	738.7	1.4774
323.15	4.381	10000	805	1.61
323.15	4.381	15000	808.9	1.6178
323.15	4.381	20000	812.6	1.6252
323.15	4.381	25000	816.1	1.6322
323.15	4.381	30000	819.4	1.6388
323.15	7.359	10000	914.3	1.8286
323.15	7.359	15000	917.4	1.8348
323.15	7.359	20000	920.3	1.8406
323.15	7.359	25000	923	1.846
323.15	7.359	30000	926	1.852
323.15	10.349	10000	1005.2	2.0104
323.15	10.349	15000	1008.3	2.0166
323.15	10.349	20000	1011.2	2.0224
323.15	10.349	25000	1014.1	2.0282
323.15	10.349	30000	1016.7	2.0334
323.15	15.171	10000	1105.9	2.2118
323.15	15.171	15000	1107.8	2.2156
323.15	15.171	20000	1109.7	2.2194
323.15	15.171	25000	1111.5	2.223
323.15	15.171	30000	1113.4	2.2268
333.15	1.143	10000	630.2	1.2604
333.15	1.143	15000	635.4	1.2708
333.15	1.143	20000	640.3	1.2806
333.15	1.143	25000	645.1	1.2902
333.15	1.143	30000	649.5	1.299
333.15	2.601	10000	709.5	1.419
333.15	2.601	15000	714	1.428
333.15	2.601	20000	718.3	1.4366
333.15	2.601	25000	722.5	1.445
333.15	2.601	30000	726.3	1.4526
333.15	4.381	10000	791.1	1.5822
333.15	4.381	15000	795.1	1.5902
333.15	4.381	20000	799.1	1.5982
333.15	4.381	25000	803	1.606
333.15	4.381	30000	807.1	1.6142
333.15	7.359	10000	903.1	1.8062
333.15	7.359	15000	906.7	1.8134
333.15	7.359	20000	909.8	1.8196
333.15	7.359	25000	912.7	1.8254
333.15	7.359	30000	915.6	1.8312
333.15	10.349	10000	994.4	1.9888
333.15	10.349	15000	997.8	1.9956
333.15	10.349	20000	1001.2	2.0024
333.15	10.349	25000	1004	2.008
333.15	10.349	30000	1006.9	2.0138
333.15	15.171	10000	1096	2.192
333.15	15.171	15000	1098.2	2.1964
333.15	15.171	20000	1100.3	2.2006
333.15	15.171	25000	1102.2	2.2044
333.15	15.171	30000	1104	2.208
343.15	1.143	10000	612.8	1.2256
343.15	1.143	15000	618.5	1.237
343.15	1.143	20000	624.1	1.2482
343.15	1.143	25000	629.9	1.2598
343.15	1.143	30000	635.4	1.2708
343.15	2.601	10000	693.7	1.3874
343.15	2.601	15000	698.1	1.3962
343.15	2.601	20000	702.6	1.4052
343.15	2.601	25000	707.2	1.4144
343.15	2.601	30000	711.7	1.4234
343.15	4.381	10000	778.3	1.5566
343.15	4.381	15000	782.6	1.5652
343.15	4.381	20000	786.7	1.5734
343.15	4.381	25000	790.7	1.5814
343.15	4.381	30000	794.2	1.5884
343.15	7.359	10000	891.2	1.7824
343.15	7.359	15000	894.7	1.7894
343.15	7.359	20000	898.2	1.7964
343.15	7.359	25000	901.6	1.8032
343.15	7.359	30000	904.9	1.8098
343.15	10.349	10000	983.9	1.9678
343.15	10.349	15000	987.4	1.9748
343.15	10.349	20000	991.3	1.9826
343.15	10.349	25000	993.6	1.9872
343.15	10.349	30000	995.8	1.9916
343.15	15.171	10000	1086.6	2.1732
343.15	15.171	15000	1089.1	2.1782
343.15	15.171	20000	1091.2	2.1824
343.15	15.171	25000	1093.3	2.1866
343.15	15.171	30000	1095.4	2.1908
353.15	1.143	10000	594.5	1.189
353.15	1.143	15000	601.3	1.2026
353.15	1.143	20000	607.9	1.2158
353.15	1.143	25000	614.6	1.2292
353.15	1.143	30000	621.2	1.2424
353.15	2.601	10000	676.6	1.3532
353.15	2.601	15000	681.9	1.3638
353.15	2.601	20000	687.1	1.3742
353.15	2.601	25000	692	1.384
353.15	2.601	30000	697	1.394
353.15	4.381	10000	765.5	1.531
353.15	4.381	15000	769.6	1.5392
353.15	4.381	20000	773.8	1.5476
353.15	4.381	25000	778.1	1.5562
353.15	4.381	30000	782.2	1.5644
353.15	7.359	10000	878.6	1.7572
353.15	7.359	15000	882.5	1.765
353.15	7.359	20000	886.2	1.7724
353.15	7.359	25000	889.7	1.7794
353.15	7.359	30000	893.2	1.7864
353.15	10.349	10000	973	1.946
353.15	10.349	15000	976.5	1.953
353.15	10.349	20000	979.8	1.9596
353.15	10.349	25000	983	1.966
353.15	10.349	30000	986.6	1.9732
363.15	1.143	10000	576	1.152
363.15	1.143	15000	583.7	1.1674
363.15	1.143	20000	590.9	1.1818
363.15	1.143	25000	598.2	1.1964
363.15	1.143	30000	605.2	1.2104
363.15	2.601	10000	659.3	1.3186
363.15	2.601	15000	665.4	1.3308
363.15	2.601	20000	671.2	1.3424
363.15	2.601	25000	677.1	1.3542
363.15	2.601	30000	682.6	1.3652
363.15	4.381	10000	748.7	1.4974
363.15	4.381	15000	754.3	1.5086
363.15	4.381	20000	759.5	1.519
363.15	4.381	25000	764.4	1.5288
363.15	4.381	30000	769	1.538
363.15	7.359	10000	866.4	1.7328
363.15	7.359	15000	870.2	1.7404
363.15	7.359	20000	873.8	1.7476
363.15	7.359	25000	877.4	1.7548
363.15	7.359	30000	881.3	1.7626
363.15	10.349	10000	961.1	1.9222
363.15	10.349	15000	965.6	1.9312
363.15	10.349	20000	969	1.938
363.15	10.349	25000	972.5	1.945
363.15	10.349	30000	975.7	1.9514
363.15	15.171	10000	1067.8	2.1356
363.15	15.171	15000	1070.1	2.1402
363.15	15.171	20000	1072.4	2.1448
363.15	15.171	25000	1074.8	2.1496
363.15	15.171	30000	1076.8	2.1536
373.15	1.143	10000	561.5	1.123
373.15	1.143	15000	569.5	1.139
373.15	1.143	20000	577.4	1.1548
373.15	1.143	25000	585.2	1.1704
373.15	1.143	30000	592.7	1.1854
373.15	2.601	10000	646.4	1.2928
373.15	2.601	15000	652.4	1.3048
373.15	2.601	20000	658.4	1.3168
373.15	2.601	25000	664.3	1.3286
373.15	2.601	30000	670	1.34
373.15	4.381	10000	737.7	1.4754
373.15	4.381	15000	742.9	1.4858
373.15	4.381	20000	748	1.496
373.15	4.381	25000	752.9	1.5058
373.15	4.381	30000	757.6	1.5152
373.15	7.359	10000	854.6	1.7092
373.15	7.359	15000	858.5	1.717
373.15	7.359	20000	862.2	1.7244
373.15	7.359	25000	865.9	1.7318
373.15	7.359	30000	870	1.74
373.15	10.349	10000	950.1	1.9002
373.15	10.349	15000	954.3	1.9086
373.15	10.349	20000	958	1.916
373.15	10.349	25000	961.3	1.9226
373.15	10.349	30000	964.7	1.9294
373.15	15.171	10000	1057.7	2.1154
373.15	15.171	15000	1060.3	2.1206
373.15	15.171	20000	1062.6	2.1252
373.15	15.171	25000	1065.1	2.1302
373.15	15.171	30000	1067.1	2.1342
