Measured thermophysical data. Solubilities of Terephthalic Acid, Phthalic Acid, and Isophthalic Acid in Tetrahydrofuran, Cyclohexanone, 1,2-Diethoxyethane, and Acetophenone
Source: J. Chem. Eng. Data, 2009, 10.1021/je9001976
Compound 1: terephthalic acid, C8H6O4, purity 99%
Compound 2: m-phthalic acid, C8H6O4, purity 99%
Compound 3: phthalic acid, C8H6O4, purity 99.8%
Compound 4: tetrahydrofuran, C4H8O, purity 99%
Compound 5: cyclohexanone, C6H10O, purity 99.5%
Compound 6: 3,6-dioxaoctane, C6H14O2, purity 99%
Compound 7: acetophenone, C8H8O, purity 99%

System: terephthalic acid + tetrahydrofuran; phases: Liquid, Crystal
Fixed: Pressure, kPa = 101
Property: Mole fraction of terephthalic acid (Liquid); method: laser monitoring observation technique
Temperature, K	Mole fraction of terephthalic acid	uncertainty
293.15	.0008816	.000004408
303.15	.0009952	.000004976
313.45	.001154	.00000577
323.35	.001398	.00000699
329.35	.00164	.0000082

System: terephthalic acid + cyclohexanone; phases: Liquid, Crystal
Fixed: Pressure, kPa = 101
Property: Mole fraction of terephthalic acid (Liquid); method: laser monitoring observation technique
Temperature, K	Mole fraction of terephthalic acid	uncertainty
293.15	.0001671	.0000008355
303.15	.0001834	.000000917
313.15	.0002311	.0000011555
323.3	.0003019	.0000015095
333.4	.0003855	.0000019275
343.85	.0005302	.000002651

System: terephthalic acid + 3,6-dioxaoctane; phases: Liquid, Crystal
Fixed: Pressure, kPa = 101
Property: Mole fraction of terephthalic acid (Liquid); method: laser monitoring observation technique
Temperature, K	Mole fraction of terephthalic acid	uncertainty
293.15	.0002137	.0000010685
303.3	.0002513	.0000012565
313.25	.0002936	.000001468
323.35	.0003439	.0000017195
333.65	.0004034	.000002017
343.55	.000477	.000002385

System: acetophenone + terephthalic acid; phases: Liquid, Crystal
Fixed: Pressure, kPa = 101
Property: Mole fraction of terephthalic acid (Liquid); method: laser monitoring observation technique
Temperature, K	Mole fraction of terephthalic acid	uncertainty
303.15	.0000107	.0000000535
313.15	.0000187	.0000000935
323.15	.0000347	.0000001735
332.85	.0000617	.0000003085
343.3	.0001158	.000000579

System: phthalic acid + tetrahydrofuran; phases: Liquid, Crystal
Fixed: Pressure, kPa = 101
Property: Mole fraction of phthalic acid (Liquid); method: laser monitoring observation technique
Temperature, K	Mole fraction of phthalic acid	uncertainty
293.25	.6973	.0034865
303.15	.7543	.0037715
313.45	.8263	.0041315
323.15	.8991	.0044955
329.05	.9493	.0047465

System: phthalic acid + cyclohexanone; phases: Liquid, Crystal
Fixed: Pressure, kPa = 101
Property: Mole fraction of phthalic acid (Liquid); method: laser monitoring observation technique
Temperature, K	Mole fraction of phthalic acid	uncertainty
293.15	.1763	.0008815
303.15	.2117	.0010585
313.15	.2568	.001284
323.15	.3096	.001548
333.15	.3697	.0018485
343.4	.4591	.0022955

System: phthalic acid + 3,6-dioxaoctane; phases: Liquid, Crystal
Fixed: Pressure, kPa = 101
Property: Mole fraction of phthalic acid (Liquid); method: laser monitoring observation technique
Temperature, K	Mole fraction of phthalic acid	uncertainty
293.15	.1544	.000772
303.25	.1767	.0008835
313.2	.2003	.0010015
323.05	.2283	.0011415
333.15	.2613	.0013065
343.05	.3017	.0015085

System: phthalic acid + acetophenone; phases: Liquid, Crystal
Fixed: Pressure, kPa = 101
Property: Mole fraction of phthalic acid (Liquid); method: laser monitoring observation technique
Temperature, K	Mole fraction of phthalic acid	uncertainty
303.35	.05601	.00028005
313.35	.07236	.0003618
323.35	.09333	.00046665
332.95	.1186	.000593
343.55	.1525	.0007625

System: tetrahydrofuran + m-phthalic acid; phases: Liquid, Crystal
Fixed: Pressure, kPa = 101
Property: Mole fraction of m-phthalic acid (Liquid); method: laser monitoring observation technique
Temperature, K	Mole fraction of m-phthalic acid	uncertainty
293.35	.1414	.000707
303.15	.1541	.0007705
313.45	.1693	.0008465
322.85	.1849	.0009245
328.75	.1956	.000978

System: cyclohexanone + m-phthalic acid; phases: Liquid, Crystal
Fixed: Pressure, kPa = 101
Property: Mole fraction of m-phthalic acid (Liquid); method: laser monitoring observation technique
Temperature, K	Mole fraction of m-phthalic acid	uncertainty
293.35	.02392	.0001196
303.15	.03017	.00015085
313.15	.03847	.00019235
322.75	.04693	.00023465
332.75	.0571	.0002855
342.85	.06969	.00034845

System: m-phthalic acid + 3,6-dioxaoctane; phases: Liquid, Crystal
Fixed: Pressure, kPa = 101
Property: Mole fraction of m-phthalic acid (Liquid); method: laser monitoring observation technique
Temperature, K	Mole fraction of m-phthalic acid	uncertainty
293.3	.02651	.00013255
303.15	.02929	.00014645
313.15	.03297	.00016485
322.75	.03759	.00018795
332.65	.04331	.00021655
342.45	.05017	.00025085

System: acetophenone + m-phthalic acid; phases: Liquid, Crystal
Fixed: Pressure, kPa = 101
Property: Mole fraction of m-phthalic acid (Liquid); method: laser monitoring observation technique
Temperature, K	Mole fraction of m-phthalic acid	uncertainty
303.15	.007249	.000036245
313.15	.008585	.000042925
323.05	.01054	.0000527
332.95	.0135	.0000675
342.95	.01748	.0000874
