Measured thermophysical data. Vapor Pressures of Aluminum Tribromide and Aluminum Triiodide and Their Standard Sublimation Enthalpies
Source: J. Chem. Eng. Data, 2010, 10.1021/je9007553
Compound 1: aluminum bromide (AlBr3), AlBr3
Compound 2: Aluminum iodide, AlI3

System: aluminum bromide (AlBr3); phases: Crystal, Gas
Property: Vapor or sublimation pressure, kPa (Crystal); method: Knudsen effusion method
Temperature, K	Vapor or sublimation pressure, kPa	uncertainty
309	.00043	
315.5	.00085	
318.5	.00107	
323	.00148	
324	.0017	
327.5	.00234	
330.5	.00309	
333.5	.00437	
338	.00741	
343	.01259	
345	.01479	
348	.0195	
351	.02512	
303	.00018	
307	.00035	
310	.00045	
312.5	.00054	
314.5	.00071	
317.5	.00089	
318.5	.00102	
320.5	.00123	
321.5	.00141	
324	.00178	
327	.0024	
333	.00457	
336	.00575	
314	.00062	
316	.00071	
318	.00089	
320	.00107	
323	.0017	
324	.00178	
326	.00204	
328	.00269	
331	.00389	
335	.00575	
336	.00617	
338	.00794	
340	.00933	
344	.01288	
307	.00034	
312	.00056	
315	.00072	
316.5	.00089	
318.5	.00112	
321	.00135	
324.5	.00191	
327	.00282	
330	.00363	
332.5	.00468	
337	.00724	
301	.00013	
306	.00024	
312	.00046	
317	.00095	
323	.00166	
325	.00209	
328	.00251	
330	.00324	
333	.00398	
336	.00562	
340	.00813	
309	.00035	
312	.00049	
315	.00068	
317	.00083	
318.5	.00102	
320	.00123	
323	.00158	
326	.00214	

System: Aluminum iodide; phases: Crystal, Gas
Property: Vapor or sublimation pressure, kPa (Crystal); method: Knudsen effusion method
Temperature, K	Vapor or sublimation pressure, kPa	uncertainty
365	.00019	
368	.00025	
374.5	.00049	
377	.00059	
380.5	.00083	
385	.00126	
389	.00186	
393	.00245	
397.5	.00363	
402	.00537	
406	.00759	
409	.00933	
413	.01288	
417.5	.0182	
361	.0001	
368.5	.00025	
372	.0003	
374.5	.00039	
377	.00059	
381	.00078	
385.5	.00112	
390	.0017	
394	.00257	
397	.00324	
400	.00417	
404.5	.00562	
409.5	.00832	
413	.01148	
417	.0166	
361	.0001	
366.5	.00017	
371.5	.00027	
376	.00042	
378.5	.00059	
382	.00083	
388	.00135	
393.5	.00214	
398	.00347	
401	.00437	
405	.00603	
408	.00776	
412	.01175	
416	.01549	
368	.00019	
372	.0003	
374.5	.00036	
378	.00054	
377	.00049	
380	.00068	
383	.00093	
387	.00135	
391	.0017	
396.5	.00295	
399.5	.00407	
403.5	.00562	
408	.00776	
411	.01047	
414.5	.01413	
359.5	.00007	
365	.00014	
369.5	.00025	
372.5	.00034	
376	.00049	
380.5	.00078	
385	.00102	
390	.00182	
395	.00251	
399	.0038	
403	.00525	
407	.00759	
411	.01023	
415	.01479	
419.5	.02188	
367.5	.00019	
372	.0003	
375.5	.00044	
377	.00059	
380	.00071	
383.5	.00087	
388	.00135	
391	.00209	
395	.00282	
399.5	.00417	
403.5	.0055	
408	.00794	
412	.01175	
416	.01585	
364	.00014	
368	.00019	
372	.00034	
376	.00049	
378.5	.00063	
381	.00078	
385.5	.00112	
390	.00174	
393.5	.00234	
398	.00339	
402	.00501	
405	.00661	
408.5	.00871	
412	.01096	
415	.01445	
