Measured thermophysical data. Isobaric Thermal Expansivity for Nonpolar Compounds
Source: J. Chem. Eng. Data, 2010, 10.1021/je900757k
Compound 1: benzene, C6H6, purity 99.8%
Compound 2: carbon tetrachloride, CCl4
Compound 3: nonane, C9H20
Compound 4: decane, C10H22
Compound 5: undecane, C11H24
Compound 6: dodecane, C12H26
Compound 7: tridecane, C13H28
Compound 8: tetradecane, C14H30
Compound 9: pentadecane, C15H32

System: benzene; phases: Liquid
Property: Isobaric coefficient of expansion, 1/K (Liquid); method: DSC
Pressure, kPa	Temperature, K	Isobaric coefficient of expansion, 1/K	uncertainty
5000	298.15	.00120193	.0000240386
10000	298.15	.00116394	.0000232788
15000	298.15	.00113956	.0000227912
20000	298.15	.00110665	.000022133
25000	298.15	.00107863	.0000215726
30000	298.15	.0010539	.000021078
35000	298.15	.00103148	.0000206296
40000	298.15	.0010085	.00002017
45000	298.15	.00098809	.0000197618
50000	298.15	.00097115	.000019423
55000	298.15	.00095402	.0000190804
5000	308.15	.00121401	.0000242802
10000	308.15	.00117535	.000023507
15000	308.15	.00114557	.0000229114
20000	308.15	.00111515	.000022303
25000	308.15	.00108229	.0000216458
30000	308.15	.00105786	.0000211572
35000	308.15	.00103281	.0000206562
40000	308.15	.00101106	.0000202212
45000	308.15	.00098965	.000019793
50000	308.15	.00097178	.0000194356
55000	308.15	.0009548	.000019096
5000	318.15	.00123197	.0000246394
10000	318.15	.00119064	.0000238128
15000	318.15	.00115123	.0000230246
20000	318.15	.00112746	.0000225492
25000	318.15	.00109233	.0000218466
30000	318.15	.00106264	.0000212528
35000	318.15	.00103655	.000020731
40000	318.15	.00101237	.0000202474
45000	318.15	.00098865	.000019773
50000	318.15	.00097028	.0000194056
55000	318.15	.00095136	.0000190272
5000	328.15	.00125892	.0000251784
10000	328.15	.00121415	.000024283
15000	328.15	.0011714	.000023428
20000	328.15	.00112865	.000022573
25000	328.15	.00109646	.0000219292
30000	328.15	.00106455	.000021291
35000	328.15	.00103801	.0000207602
40000	328.15	.00101074	.0000202148
45000	328.15	.00098917	.0000197834
50000	328.15	.00096613	.0000193226
55000	328.15	.00094758	.0000189516
5000	338.15	.00128679	.0000257358
10000	338.15	.00122582	.0000245164
15000	338.15	.00117762	.0000235524
20000	338.15	.00113506	.0000227012
25000	338.15	.00110207	.0000220414
30000	338.15	.00106961	.0000213922
35000	338.15	.00104148	.0000208296
40000	338.15	.00101126	.0000202252
45000	338.15	.00098493	.0000196986
50000	338.15	.00096553	.0000193106
55000	338.15	.00094508	.0000189016
5000	348.15	.00131699	.0000263398
10000	348.15	.00125284	.0000250568
15000	348.15	.00120184	.0000240368
20000	348.15	.00115351	.0000230702
25000	348.15	.00111355	.000022271
30000	348.15	.00107929	.0000215858
35000	348.15	.00104376	.0000208752
40000	348.15	.00101545	.000020309
45000	348.15	.00098637	.0000197274
50000	348.15	.00096257	.0000192514
55000	348.15	.00094143	.0000188286

System: carbon tetrachloride; phases: Liquid
Property: Isobaric coefficient of expansion, 1/K (Liquid); method: DSC
Pressure, kPa	Temperature, K	Isobaric coefficient of expansion, 1/K	uncertainty
5000	278.15	.00114014	.0000228028
10000	278.15	.00111512	.0000223024
15000	278.15	.00108244	.0000216488
20000	278.15	.0010588	.000021176
25000	278.15	.00104188	.0000208376
30000	278.15	.00101852	.0000203704
35000	278.15	.00100138	.0000200276
40000	278.15	.00097856	.0000195712
45000	278.15	.000959	.00001918
50000	278.15	.00094276	.0000188552
55000	278.15	.0009357	.000018714
5000	288.15	.00116232	.0000232464
10000	288.15	.00113214	.0000226428
15000	288.15	.0011045	.00002209
20000	288.15	.00107556	.0000215112
25000	288.15	.00105349	.0000210698
30000	288.15	.00102903	.0000205806
35000	288.15	.0010085	.00002017
40000	288.15	.00098538	.0000197076
45000	288.15	.0009667	.000019334
50000	288.15	.00094867	.0000189734
55000	288.15	.00092954	.0000185908
5000	298.15	.00118972	.0000237944
10000	298.15	.00115791	.0000231582
15000	298.15	.00112829	.0000225658
20000	298.15	.0010949	.000021898
25000	298.15	.00106735	.000021347
30000	298.15	.00104224	.0000208448
35000	298.15	.001017	.00002034
40000	298.15	.00099622	.0000199244
45000	298.15	.00097812	.0000195624
50000	298.15	.00095475	.000019095
55000	298.15	.00093512	.0000187024
5000	308.15	.00121371	.0000242742
10000	308.15	.00117232	.0000234464
15000	308.15	.00114306	.0000228612
20000	308.15	.00111213	.0000222426
25000	308.15	.00108075	.000021615
30000	308.15	.00105332	.0000210664
35000	308.15	.0010276	.000020552
40000	308.15	.0010053	.000020106
45000	308.15	.0009777	.000019554
50000	308.15	.00095906	.0000191812
55000	308.15	.00094009	.0000188018
5000	318.15	.00123731	.0000247462
10000	318.15	.00119978	.0000239956
15000	318.15	.00116388	.0000232776
20000	318.15	.00112511	.0000225022
25000	318.15	.00109093	.0000218186
30000	318.15	.00106305	.000021261
35000	318.15	.00103727	.0000207454
40000	318.15	.00100997	.0000201994
45000	318.15	.00098596	.0000197192
50000	318.15	.00096955	.000019391
55000	318.15	.00094954	.0000189908
5000	328.15	.00126308	.0000252616
10000	328.15	.00121553	.0000243106
15000	328.15	.00117897	.0000235794
20000	328.15	.00113665	.000022733
25000	328.15	.00110334	.0000220668
30000	328.15	.00107006	.0000214012
35000	328.15	.00104152	.0000208304
40000	328.15	.00101034	.0000202068
45000	328.15	.00098611	.0000197222
50000	328.15	.00096482	.0000192964
55000	328.15	.00094638	.0000189276
5000	338.15	.00129574	.0000259148
10000	338.15	.00124504	.0000249008
15000	338.15	.00119092	.0000238184
20000	338.15	.00114948	.0000229896
25000	338.15	.00111367	.0000222734
30000	338.15	.00107787	.0000215574
35000	338.15	.00104948	.0000209896
40000	338.15	.00101754	.0000203508
45000	338.15	.00098825	.000019765
50000	338.15	.00096724	.0000193448
55000	338.15	.00094455	.000018891
5000	348.15	.00132217	.0000264434
10000	348.15	.00126412	.0000252824
15000	348.15	.00121444	.0000242888
20000	348.15	.00116435	.000023287
25000	348.15	.00112365	.000022473
30000	348.15	.00108794	.0000217588
35000	348.15	.00105409	.0000210818
40000	348.15	.00102081	.0000204162
45000	348.15	.00099282	.0000198564
50000	348.15	.00096862	.0000193724
55000	348.15	.00094677	.0000189354

System: nonane; phases: Liquid
Property: Isobaric coefficient of expansion, 1/K (Liquid); method: DSC
Temperature, K	Pressure, kPa	Isobaric coefficient of expansion, 1/K	uncertainty
278.15	5000	.00100493	.0000200986
278.15	10000	.00097654	.0000195308
278.15	15000	.00095418	.0000190836
278.15	20000	.00092768	.0000185536
278.15	25000	.00090698	.0000181396
278.15	30000	.00088577	.0000177154
278.15	35000	.00086763	.0000173526
278.15	40000	.00084132	.0000168264
278.15	45000	.00082676	.0000165352
278.15	50000	.00081073	.0000162146
278.15	55000	.00080339	.0000160678
288.15	5000	.00102583	.0000205166
288.15	10000	.00099662	.0000199324
288.15	15000	.00096728	.0000193456
288.15	20000	.00094033	.0000188066
288.15	25000	.00091702	.0000183404
288.15	30000	.00089814	.0000179628
288.15	35000	.00087496	.0000174992
288.15	40000	.00085253	.0000170506
288.15	45000	.00083554	.0000167108
288.15	50000	.00081892	.0000163784
288.15	55000	.00079896	.0000159792
298.15	5000	.00104728	.0000209456
298.15	10000	.00101193	.0000202386
298.15	15000	.00098445	.000019689
298.15	20000	.00095482	.0000190964
298.15	25000	.00092676	.0000185352
298.15	30000	.00090345	.000018069
298.15	35000	.00087774	.0000175548
298.15	40000	.00085608	.0000171216
298.15	45000	.00083872	.0000167744
298.15	50000	.00081918	.0000163836
298.15	55000	.00080252	.0000160504
308.15	5000	.00106432	.0000212864
308.15	10000	.0010267	.000020534
308.15	15000	.00099512	.0000199024
308.15	20000	.00096213	.0000192426
308.15	25000	.00093464	.0000186928
308.15	30000	.00091184	.0000182368
308.15	35000	.0008835	.00001767
308.15	40000	.00085953	.0000171906
308.15	45000	.00083771	.0000167542
308.15	50000	.00081987	.0000163974
308.15	55000	.00080352	.0000160704
318.15	5000	.00108365	.000021673
318.15	10000	.00104413	.0000208826
318.15	15000	.0010102	.000020204
318.15	20000	.00096976	.0000193952
318.15	25000	.00094136	.0000188272
318.15	30000	.0009147	.000018294
318.15	35000	.00088896	.0000177792
318.15	40000	.00086366	.0000172732
318.15	45000	.00084105	.000016821
318.15	50000	.00082451	.0000164902
318.15	55000	.00080576	.0000161152
328.15	5000	.00110306	.0000220612
328.15	10000	.00106231	.0000212462
328.15	15000	.0010214	.000020428
328.15	20000	.00098424	.0000196848
328.15	25000	.00094905	.000018981
328.15	30000	.00092078	.0000184156
328.15	35000	.00089208	.0000178416
328.15	40000	.00086502	.0000173004
328.15	45000	.00084251	.0000168502
328.15	50000	.00082153	.0000164306
328.15	55000	.00080319	.0000160638
338.15	5000	.00112604	.0000225208
338.15	10000	.00107943	.0000215886
338.15	15000	.00103264	.0000206528
338.15	20000	.00099196	.0000198392
338.15	25000	.0009598	.000019196
338.15	30000	.00093056	.0000186112
338.15	35000	.0008989	.000017978
338.15	40000	.00086576	.0000173152
338.15	45000	.00084628	.0000169256
338.15	50000	.000825	.0000165
338.15	55000	.0008065	.00001613
348.15	5000	.00114489	.0000228978
348.15	10000	.00108942	.0000217884
348.15	15000	.00104012	.0000208024
348.15	20000	.00099845	.000019969
348.15	25000	.00096393	.0000192786
348.15	30000	.00093059	.0000186118
348.15	35000	.00090033	.0000180066
348.15	40000	.00086894	.0000173788
348.15	45000	.00084422	.0000168844
348.15	50000	.00082298	.0000164596
348.15	55000	.00080613	.0000161226

System: decane; phases: Liquid
Property: Isobaric coefficient of expansion, 1/K (Liquid); method: DSC
Temperature, K	Pressure, kPa	Isobaric coefficient of expansion, 1/K	uncertainty
278.15	5000	.00096872	.0000193744
278.15	10000	.00094503	.0000189006
278.15	15000	.00092171	.0000184342
278.15	20000	.00089937	.0000179874
278.15	25000	.00087794	.0000175588
278.15	30000	.00085886	.0000171772
278.15	35000	.00084347	.0000168694
278.15	40000	.00081693	.0000163386
278.15	45000	.00080656	.0000161312
278.15	50000	.00079286	.0000158572
278.15	55000	.0007839	.000015678
288.15	5000	.00098538	.0000197076
288.15	10000	.00095769	.0000191538
288.15	15000	.00093323	.0000186646
288.15	20000	.00090682	.0000181364
288.15	25000	.00088609	.0000177218
288.15	30000	.00086798	.0000173596
288.15	35000	.00084626	.0000169252
288.15	40000	.00082275	.000016455
288.15	45000	.00081224	.0000162448
288.15	50000	.00079674	.0000159348
288.15	55000	.00077954	.0000155908
298.15	5000	.00100394	.0000200788
298.15	10000	.00097512	.0000195024
298.15	15000	.00094899	.0000189798
298.15	20000	.00091824	.0000183648
298.15	25000	.00089608	.0000179216
298.15	30000	.00087069	.0000174138
298.15	35000	.00084938	.0000169876
298.15	40000	.00082941	.0000165882
298.15	45000	.00081163	.0000162326
298.15	50000	.00079412	.0000158824
298.15	55000	.00077982	.0000155964
308.15	5000	.00101765	.000020353
308.15	10000	.00098779	.0000197558
308.15	15000	.00095606	.0000191212
308.15	20000	.00092777	.0000185554
308.15	25000	.00090157	.0000180314
308.15	30000	.00087827	.0000175654
308.15	35000	.00085633	.0000171266
308.15	40000	.0008335	.00001667
308.15	45000	.00081204	.0000162408
308.15	50000	.00079558	.0000159116
308.15	55000	.00078167	.0000156334
318.15	5000	.00103471	.0000206942
318.15	10000	.00100038	.0000200076
318.15	15000	.00096967	.0000193934
318.15	20000	.00093462	.0000186924
318.15	25000	.00090663	.0000181326
318.15	30000	.00088257	.0000176514
318.15	35000	.00085812	.0000171624
318.15	40000	.00083304	.0000166608
318.15	45000	.00081456	.0000162912
318.15	50000	.00080204	.0000160408
318.15	55000	.00078078	.0000156156
328.15	5000	.00105204	.0000210408
328.15	10000	.00101131	.0000202262
328.15	15000	.00097689	.0000195378
328.15	20000	.00094212	.0000188424
328.15	25000	.0009154	.000018308
328.15	30000	.00088515	.000017703
328.15	35000	.00086194	.0000172388
328.15	40000	.00083333	.0000166666
328.15	45000	.00081526	.0000163052
328.15	50000	.00079717	.0000159434
328.15	55000	.00078138	.0000156276
338.15	5000	.0010691	.000021382
338.15	10000	.00102546	.0000205092
338.15	15000	.00098703	.0000197406
338.15	20000	.00095043	.0000190086
338.15	25000	.00091939	.0000183878
338.15	30000	.00089117	.0000178234
338.15	35000	.00086191	.0000172382
338.15	40000	.00083584	.0000167168
338.15	45000	.00081559	.0000163118
338.15	50000	.00079583	.0000159166
338.15	55000	.00077867	.0000155734
348.15	5000	.00108485	.000021697
348.15	10000	.00103255	.000020651
348.15	15000	.00099185	.000019837
348.15	20000	.00095625	.000019125
348.15	25000	.00092182	.0000184364
348.15	30000	.00089349	.0000178698
348.15	35000	.00086465	.000017293
348.15	40000	.00083523	.0000167046
348.15	45000	.00081577	.0000163154
348.15	50000	.00079456	.0000158912
348.15	55000	.00077806	.0000155612

System: undecane; phases: Liquid
Property: Isobaric coefficient of expansion, 1/K (Liquid); method: DSC
Temperature, K	Pressure, kPa	Isobaric coefficient of expansion, 1/K	uncertainty
278.15	5000	.00093584	.0000187168
278.15	10000	.00091294	.0000182588
278.15	15000	.00089292	.0000178584
278.15	20000	.00087289	.0000174578
278.15	25000	.00085372	.0000170744
278.15	30000	.00083616	.0000167232
278.15	35000	.00081938	.0000163876
278.15	40000	.00079688	.0000159376
278.15	45000	.00078513	.0000157026
278.15	50000	.00077277	.0000154554
278.15	55000	.00076501	.0000153002
288.15	5000	.00094822	.0000189644
288.15	10000	.00092402	.0000184804
288.15	15000	.00090014	.0000180028
288.15	20000	.00087884	.0000175768
288.15	25000	.00085645	.000017129
288.15	30000	.0008426	.000016852
288.15	35000	.00082022	.0000164044
288.15	40000	.0008014	.000016028
288.15	45000	.0007872	.000015744
288.15	50000	.00077329	.0000154658
288.15	55000	.00075622	.0000151244
298.15	5000	.00096508	.0000193016
298.15	10000	.00093652	.0000187304
298.15	15000	.00091237	.0000182474
298.15	20000	.00089018	.0000178036
298.15	25000	.00086481	.0000172962
298.15	30000	.00084515	.000016903
298.15	35000	.00082532	.0000165064
298.15	40000	.00080489	.0000160978
298.15	45000	.00078996	.0000157992
298.15	50000	.00077341	.0000154682
298.15	55000	.00075937	.0000151874
308.15	5000	.00097888	.0000195776
308.15	10000	.0009499	.000018998
308.15	15000	.00092131	.0000184262
308.15	20000	.00089713	.0000179426
308.15	25000	.00087043	.0000174086
308.15	30000	.00084811	.0000169622
308.15	35000	.00082763	.0000165526
308.15	40000	.00080634	.0000161268
308.15	45000	.00078867	.0000157734
308.15	50000	.00077391	.0000154782
308.15	55000	.00075859	.0000151718
318.15	5000	.00099274	.0000198548
318.15	10000	.00095973	.0000191946
318.15	15000	.00093257	.0000186514
318.15	20000	.00090107	.0000180214
318.15	25000	.00087406	.0000174812
318.15	30000	.00085129	.0000170258
318.15	35000	.00082898	.0000165796
318.15	40000	.00080815	.000016163
318.15	45000	.00078692	.0000157384
318.15	50000	.00077456	.0000154912
318.15	55000	.00075766	.0000151532
328.15	5000	.00100765	.000020153
328.15	10000	.0009712	.000019424
328.15	15000	.00094012	.0000188024
328.15	20000	.00090885	.000018177
328.15	25000	.00088369	.0000176738
328.15	30000	.00085682	.0000171364
328.15	35000	.00083338	.0000166676
328.15	40000	.00080618	.0000161236
328.15	45000	.00079036	.0000158072
328.15	50000	.00077495	.000015499
328.15	55000	.00075912	.0000151824
338.15	5000	.00102184	.0000204368
338.15	10000	.00098291	.0000196582
338.15	15000	.00094639	.0000189278
338.15	20000	.00091469	.0000182938
338.15	25000	.00088759	.0000177518
338.15	30000	.00086049	.0000172098
338.15	35000	.000834	.00001668
338.15	40000	.00080999	.0000161998
338.15	45000	.00078945	.000015789
338.15	50000	.00077084	.0000154168
338.15	55000	.00075442	.0000150884
348.15	5000	.00103389	.0000206778
348.15	10000	.00099112	.0000198224
348.15	15000	.00094814	.0000189628
348.15	20000	.00091709	.0000183418
348.15	25000	.00088989	.0000177978
348.15	30000	.00085869	.0000171738
348.15	35000	.0008334	.000016668
348.15	40000	.00080962	.0000161924
348.15	45000	.00078705	.000015741
348.15	50000	.00076895	.000015379
348.15	55000	.00075203	.0000150406

System: dodecane; phases: Liquid
Property: Isobaric coefficient of expansion, 1/K (Liquid); method: DSC
Temperature, K	Pressure, kPa	Isobaric coefficient of expansion, 1/K	uncertainty
278.15	5000	.00091314	.0000182628
278.15	10000	.00089556	.0000179112
278.15	15000	.0008744	.000017488
278.15	20000	.00085377	.0000170754
278.15	25000	.0008378	.000016756
278.15	30000	.00082051	.0000164102
278.15	35000	.00080472	.0000160944
278.15	40000	.00078584	.0000157168
278.15	45000	.00077225	.000015445
278.15	50000	.00075988	.0000151976
278.15	55000	.00075106	.0000150212
288.15	5000	.00092537	.0000185074
288.15	10000	.00090245	.000018049
288.15	15000	.00088062	.0000176124
288.15	20000	.00085955	.000017191
288.15	25000	.00084246	.0000168492
288.15	30000	.00082576	.0000165152
288.15	35000	.00080641	.0000161282
288.15	40000	.00078973	.0000157946
288.15	45000	.00077769	.0000155538
288.15	50000	.00076073	.0000152146
288.15	55000	.00074529	.0000149058
298.15	5000	.00094036	.0000188072
298.15	10000	.00091639	.0000183278
298.15	15000	.00089315	.000017863
298.15	20000	.00086939	.0000173878
298.15	25000	.00084821	.0000169642
298.15	30000	.00082662	.0000165324
298.15	35000	.00080693	.0000161386
298.15	40000	.00078829	.0000157658
298.15	45000	.00077547	.0000155094
298.15	50000	.00076043	.0000152086
298.15	55000	.00074408	.0000148816
308.15	5000	.0009529	.000019058
308.15	10000	.00092432	.0000184864
308.15	15000	.00089883	.0000179766
308.15	20000	.00087406	.0000174812
308.15	25000	.00085045	.000017009
308.15	30000	.00083098	.0000166196
308.15	35000	.00081015	.000016203
308.15	40000	.00079234	.0000158468
308.15	45000	.00077258	.0000154516
308.15	50000	.00075525	.000015105
308.15	55000	.00074504	.0000149008
318.15	5000	.00096441	.0000192882
318.15	10000	.00093222	.0000186444
318.15	15000	.00090773	.0000181546
318.15	20000	.0008756	.000017512
318.15	25000	.00085145	.000017029
318.15	30000	.00083131	.0000166262
318.15	35000	.0008093	.000016186
318.15	40000	.00078711	.0000157422
318.15	45000	.00076772	.0000153544
318.15	50000	.00075405	.000015081
318.15	55000	.00073865	.000014773
328.15	5000	.00097473	.0000194946
328.15	10000	.0009408	.000018816
328.15	15000	.00091326	.0000182652
328.15	20000	.00088395	.000017679
328.15	25000	.00085926	.0000171852
328.15	30000	.00083493	.0000166986
328.15	35000	.000813	.00001626
328.15	40000	.00079103	.0000158206
328.15	45000	.00077412	.0000154824
328.15	50000	.00075659	.0000151318
328.15	55000	.00074211	.0000148422
338.15	5000	.00098945	.000019789
338.15	10000	.00095016	.0000190032
338.15	15000	.00091751	.0000183502
338.15	20000	.00088795	.000017759
338.15	25000	.00086274	.0000172548
338.15	30000	.00083754	.0000167508
338.15	35000	.00081494	.0000162988
338.15	40000	.00078801	.0000157602
338.15	45000	.00077332	.0000154664
338.15	50000	.00075392	.0000150784
338.15	55000	.00074006	.0000148012
348.15	5000	.00099875	.000019975
348.15	10000	.00095829	.0000191658
348.15	15000	.00092101	.0000184202
348.15	20000	.00089088	.0000178176
348.15	25000	.00086319	.0000172638
348.15	30000	.00083691	.0000167382
348.15	35000	.00081337	.0000162674
348.15	40000	.00078994	.0000157988
348.15	45000	.00076983	.0000153966
348.15	50000	.00075265	.000015053
348.15	55000	.00073748	.0000147496

System: tridecane; phases: Liquid
Property: Isobaric coefficient of expansion, 1/K (Liquid); method: DSC
Temperature, K	Pressure, kPa	Isobaric coefficient of expansion, 1/K	uncertainty
288.15	5000	.00087984	.0000175968
288.15	10000	.00086047	.0000172094
288.15	15000	.00083959	.0000167918
288.15	20000	.00082651	.0000165302
288.15	25000	.00081132	.0000162264
288.15	30000	.00079575	.000015915
288.15	35000	.00077729	.0000155458
288.15	40000	.00077163	.0000154326
288.15	45000	.0007538	.000015076
288.15	50000	.0007436	.000014872
288.15	55000	.00072234	.0000144468
298.15	5000	.00089061	.0000178122
298.15	10000	.00086817	.0000173634
298.15	15000	.00084967	.0000169934
298.15	20000	.000828	.00001656
298.15	25000	.00081214	.0000162428
298.15	30000	.00079853	.0000159706
298.15	35000	.00078206	.0000156412
298.15	40000	.00077061	.0000154122
298.15	45000	.00075529	.0000151058
298.15	50000	.00074394	.0000148788
298.15	55000	.00072475	.000014495
308.15	5000	.0009045	.00001809
308.15	10000	.00087954	.0000175908
308.15	15000	.00085829	.0000171658
308.15	20000	.00083482	.0000166964
308.15	25000	.00081367	.0000162734
308.15	30000	.00079605	.000015921
308.15	35000	.0007812	.000015624
308.15	40000	.00076458	.0000152916
308.15	45000	.00075011	.0000150022
308.15	50000	.00073476	.0000146952
308.15	55000	.00071757	.0000143514
318.15	5000	.00091867	.0000183734
318.15	10000	.00089175	.000017835
318.15	15000	.00086469	.0000172938
318.15	20000	.00083823	.0000167646
318.15	25000	.00081791	.0000163582
318.15	30000	.00079879	.0000159758
318.15	35000	.00078114	.0000156228
318.15	40000	.00076261	.0000152522
318.15	45000	.00074763	.0000149526
318.15	50000	.00073434	.0000146868
318.15	55000	.00071847	.0000143694
328.15	5000	.0009357	.000018714
328.15	10000	.00090293	.0000180586
328.15	15000	.00087043	.0000174086
328.15	20000	.00084376	.0000168752
328.15	25000	.00081967	.0000163934
328.15	30000	.00079958	.0000159916
328.15	35000	.00078192	.0000156384
328.15	40000	.00076098	.0000152196
328.15	45000	.00074467	.0000148934
328.15	50000	.00072823	.0000145646
328.15	55000	.00071415	.000014283
338.15	5000	.00095784	.0000191568
338.15	10000	.00091683	.0000183366
338.15	15000	.00088229	.0000176458
338.15	20000	.00085342	.0000170684
338.15	25000	.00082673	.0000165346
338.15	30000	.0008007	.000016014
338.15	35000	.00078279	.0000156558
338.15	40000	.00076114	.0000152228
338.15	45000	.00074058	.0000148116
338.15	50000	.00072772	.0000145544
338.15	55000	.00071434	.0000142868
348.15	5000	.00097968	.0000195936
348.15	10000	.00093469	.0000186938
348.15	15000	.00089568	.0000179136
348.15	20000	.00086287	.0000172574
348.15	25000	.0008326	.000016652
348.15	30000	.00080685	.000016137
348.15	35000	.0007837	.000015674
348.15	40000	.00075593	.0000151186
348.15	45000	.00074077	.0000148154
348.15	50000	.00072261	.0000144522
348.15	55000	.00070892	.0000141784

System: tetradecane; phases: Liquid
Property: Isobaric coefficient of expansion, 1/K (Liquid); method: DSC
Temperature, K	Pressure, kPa	Isobaric coefficient of expansion, 1/K	uncertainty
298.15	5000	.00090871	.0000181742
298.15	10000	.00088083	.0000176166
298.15	15000	.00086032	.0000172064
298.15	20000	.00083651	.0000167302
298.15	25000	.00081459	.0000162918
298.15	30000	.00079767	.0000159534
298.15	35000	.0007802	.000015604
298.15	40000	.00076445	.000015289
298.15	45000	.00075006	.0000150012
298.15	50000	.00073655	.000014731
298.15	55000	.00072495	.000014499
308.15	5000	.00091273	.0000182546
308.15	10000	.00088443	.0000176886
308.15	15000	.00086097	.0000172194
308.15	20000	.00083594	.0000167188
308.15	25000	.00081397	.0000162794
308.15	30000	.00079257	.0000158514
308.15	35000	.00077714	.0000155428
308.15	40000	.00076103	.0000152206
308.15	45000	.00074239	.0000148478
308.15	50000	.00072999	.0000145998
308.15	55000	.0007192	.000014384
318.15	5000	.00091798	.0000183596
318.15	10000	.00088974	.0000177948
318.15	15000	.00086302	.0000172604
318.15	20000	.00083666	.0000167332
318.15	25000	.00081494	.0000162988
318.15	30000	.00079099	.0000158198
318.15	35000	.00077403	.0000154806
318.15	40000	.0007559	.000015118
318.15	45000	.00073793	.0000147586
318.15	50000	.00072172	.0000144344
318.15	55000	.00071395	.000014279
328.15	5000	.00092232	.0000184464
328.15	10000	.00089016	.0000178032
328.15	15000	.00085872	.0000171744
328.15	20000	.00083264	.0000166528
328.15	25000	.00081002	.0000162004
328.15	30000	.00078875	.000015775
328.15	35000	.0007702	.000015404
328.15	40000	.0007529	.000015058
328.15	45000	.00073474	.0000146948
328.15	50000	.0007199	.000014398
328.15	55000	.00070893	.0000141786
338.15	5000	.00093061	.0000186122
338.15	10000	.00089748	.0000179496
338.15	15000	.00086275	.000017255
338.15	20000	.00083531	.0000167062
338.15	25000	.00081009	.0000162018
338.15	30000	.00078909	.0000157818
338.15	35000	.00076829	.0000153658
338.15	40000	.00074871	.0000149742
338.15	45000	.00073232	.0000146464
338.15	50000	.00071761	.0000143522
338.15	55000	.00070487	.0000140974
348.15	5000	.00094108	.0000188216
348.15	10000	.00089958	.0000179916
348.15	15000	.00086682	.0000173364
348.15	20000	.00083856	.0000167712
348.15	25000	.00081227	.0000162454
348.15	30000	.00078879	.0000157758
348.15	35000	.00076797	.0000153594
348.15	40000	.00074692	.0000149384
348.15	45000	.00072567	.0000145134
348.15	50000	.00071145	.000014229
348.15	55000	.0006985	.00001397

System: pentadecane; phases: Liquid
Property: Isobaric coefficient of expansion, 1/K (Liquid); method: DSC
Temperature, K	Pressure, kPa	Isobaric coefficient of expansion, 1/K	uncertainty
298.15	5000	.00089614	.0000179228
298.15	10000	.00087062	.0000174124
298.15	15000	.00084818	.0000169636
298.15	20000	.00082543	.0000165086
298.15	25000	.00080489	.0000160978
298.15	30000	.00079258	.0000158516
298.15	35000	.00077199	.0000154398
298.15	40000	.00075602	.0000151204
298.15	45000	.0007419	.000014838
298.15	50000	.00072972	.0000145944
298.15	55000	.00071719	.0000143438
308.15	5000	.00089836	.0000179672
308.15	10000	.00087296	.0000174592
308.15	15000	.00084818	.0000169636
308.15	20000	.0008241	.000016482
308.15	25000	.00080283	.0000160566
308.15	30000	.00078558	.0000157116
308.15	35000	.00076658	.0000153316
308.15	40000	.00075064	.0000150128
308.15	45000	.00073396	.0000146792
308.15	50000	.00072074	.0000144148
308.15	55000	.00070941	.0000141882
318.15	5000	.00090149	.0000180298
318.15	10000	.00087306	.0000174612
318.15	15000	.00084972	.0000169944
318.15	20000	.00082449	.0000164898
318.15	25000	.00080322	.0000160644
318.15	30000	.000786	.00001572
318.15	35000	.0007638	.000015276
318.15	40000	.00074575	.000014915
318.15	45000	.00073092	.0000146184
318.15	50000	.00071754	.0000143508
318.15	55000	.00070522	.0000141044
328.15	5000	.00090439	.0000180878
328.15	10000	.00087346	.0000174692
328.15	15000	.00084555	.000016911
328.15	20000	.00082288	.0000164576
328.15	25000	.00079807	.0000159614
328.15	30000	.00078101	.0000156202
328.15	35000	.00076223	.0000152446
328.15	40000	.0007439	.000014878
328.15	45000	.00072624	.0000145248
328.15	50000	.00071037	.0000142074
328.15	55000	.00069865	.000013973
338.15	5000	.00091381	.0000182762
338.15	10000	.00088259	.0000176518
338.15	15000	.00084559	.0000169118
338.15	20000	.00082073	.0000164146
338.15	25000	.00079848	.0000159696
338.15	30000	.00078171	.0000156342
338.15	35000	.00075961	.0000151922
338.15	40000	.00073789	.0000147578
338.15	45000	.0007236	.000014472
338.15	50000	.00071011	.0000142022
338.15	55000	.00069727	.0000139454
348.15	5000	.00092542	.0000185084
348.15	10000	.00088585	.000017717
348.15	15000	.00085398	.0000170796
348.15	20000	.00082578	.0000165156
348.15	25000	.00080146	.0000160292
348.15	30000	.00078306	.0000156612
348.15	35000	.00075827	.0000151654
348.15	40000	.00073713	.0000147426
348.15	45000	.00071983	.0000143966
348.15	50000	.00070468	.0000140936
348.15	55000	.0006939	.000013878
