Measured thermophysical data. Thermodynamic Properties of Propane. II. Molar Heat Capacity at Constant Volume from (85 to 345) K with Pressures to 35 MPa
Source: J. Chem. Eng. Data, 2009, 10.1021/je900137r
Compound 1: propane, C3H8, purity 99.999%

System: propane; phases: Liquid
Property: Molar heat capacity at constant volume, J/K/mol (Liquid); method: Vacuum adiabatic calorimetry
Temperature, K	Pressure, kPa	Molar heat capacity at constant volume, J/K/mol	uncertainty
102.314	9415	59.63	.7
105.245	15961	59.93	.7
108.151	22430	60.17	.7
111.017	28556	60.44	.7
101.14	5078	59.59	.7
104.092	13618	59.63	.7
107.01	19580	59.8	.7
109.893	26296	60.2	.7
126.589	8062	59.47	.7
129.392	13480	59.66	.7
132.167	18723	60.02	.7
134.918	23869	60.12	.7
137.642	28865	60.52	.7
124.992	4945	59.16	.7
127.809	10414	59.44	.7
130.597	15739	59.6	.7
133.36	20943	60	.7
136.097	26024	60.14	.7
138.812	30978	60.43	.7
150.881	6488	59.62	.7
153.586	10968	60.1	.7
156.271	15303	60.05	.7
158.933	19535	60.5	.7
161.582	23733	60.93	.7
164.206	27828	61.2	.7
166.812	31798	61.54	.7
149.778	4666	59.78	.7
152.481	9113	59.99	.7
155.17	13482	60.14	.7
157.84	17768	60.44	.7
160.488	21973	60.63	.7
163.118	26095	60.76	.7
165.731	30131	61.05	.7
175.512	5348	60.54	.7
178.15	9061	60.86	.7
180.774	12700	61.22	.7
183.379	16221	61.34	.7
185.968	19691	61.79	.7
188.543	23141	62.12	.7
191.1	26538	62.39	.7
193.642	29843	62.88	.7
196.165	33063	63.39	.7
174.725	4244	60.48	.7
177.359	7916	60.58	.7
179.972	11523	61.04	.7
182.573	15077	61.29	.7
185.156	18570	61.57	.7
187.722	22005	62.06	.7
190.273	25385	62.49	.7
192.807	28708	62.66	.7
195.331	31980	62.87	.7
200.293	4569	62.02	.7
202.878	7627	62.29	.7
205.454	10675	62.72	.7
208.017	13633	63.07	.7
210.568	16525	63.38	.7
213.107	19392	63.48	.7
215.631	22244	63.92	.7
218.145	25069	64.71	.7
220.656	27850	64.89	.7
223.143	30548	65.25	.7
225.628	33221	66	.7
199.291	3434	62.08	.7
201.885	6487	62.05	.7
204.464	9498	62.44	.7
207.029	12468	63.03	.7
209.59	15407	63.29	.7
212.128	18295	63.46	.7
214.66	21152	63.9	.7
217.181	23972	64.21	.7
219.686	26749	64.74	.7
222.182	29491	65.36	.7
224.672	32203	65.68	.7
225.69	3945	64.4	.7
228.261	6458	64.54	.7
230.819	8990	65.2	.7
233.375	11478	65.49	.7
235.918	13904	65.71	.7
238.456	16299	66.07	.7
240.986	18681	66.68	.7
243.503	21054	66.99	.7
246.014	23413	67.65	.7
248.525	25750	67.69	.7
251.02	28035	68.22	.7
253.516	30287	68.63	.7
256.003	32529	69.58	.7
224.72	3002	64.29	.7
227.279	5514	64.59	.7
229.837	8010	64.8	.7
232.385	10480	64.79	.7
234.924	12923	65.31	.7
237.464	15350	65.71	.7
239.99	17746	65.96	.7
242.515	20123	66.43	.7
245.026	22471	67.42	.7
247.539	24804	67.75	.7
250.037	27105	67.7	.7
252.529	29385	68.06	.7
255.019	31645	68.71	.7
250.677	3498	66.65	.7
253.263	5557	67.47	.7
255.851	7667	67.82	.7
258.438	9764	67.88	.7
261.016	11824	68.53	.7
263.601	13861	69.03	.7
266.184	15878	69.32	.7
268.759	17881	69.68	.7
271.334	19881	70.43	.7
273.905	21877	70.9	.7
276.476	23865	71.62	.7
279.043	25835	72.09	.7
281.614	27786	72.29	.7
284.186	29713	72.65	.7
286.768	31632	72.64	.7
289.342	33552	73.33	.7
249.66	2670	66.76	.7
252.252	4769	67.25	.7
254.848	6861	67.69	.7
257.44	8938	67.87	.7
260.025	10999	68.4	.7
262.613	13051	68.83	.7
265.199	15091	69.38	.7
267.786	17120	69.94	.7
270.37	19134	70.51	.7
272.953	21136	70.81	.7
275.538	23127	70.92	.7
278.118	25101	71.49	.7
280.7	27065	72.08	.7
283.286	29020	72.18	.7
285.87	30962	72.47	.7
288.454	32894	72.96	.7
276.184	3327	70.24	.7
278.848	5025	70.73	.7
281.506	6761	71.44	.7
284.175	8508	71.57	.7
286.85	10247	71.76	.7
289.52	11964	71.92	.7
292.199	13671	72.85	.7
294.875	15364	73.57	.7
297.559	17055	74.47	.7
300.256	18750	74.37	.7
302.951	20442	74.16	.7
305.646	22131	75.52	.7
308.366	23829	76.01	.7
311.085	25517	76.58	.7
313.822	27203	77.38	.7
316.578	28887	76.95	.7
319.328	30553	77.02	.7
322.103	32227	78.59	.7
324.906	33925	78.84	.7
276.561	3559	70.86	.7
279.23	5297	71.29	.7
281.903	7032	70.95	.7
284.576	8760	71.75	.7
287.263	10490	72.25	.7
289.949	12212	72.29	.7
292.636	13928	73.17	.7
295.336	15644	73.82	.7
298.045	17358	74.2	.7
300.759	19068	74.45	.7
303.478	20773	74.78	.7
306.203	22473	75.56	.7
308.939	24172	76.12	.7
311.684	25869	76.11	.7
314.428	27556	77.06	.7
317.183	29242	77.79	.7
319.955	30930	77.48	.7
322.733	32614	78	.7
301.578	3377	74.41	.7
304.371	4801	74.97	.7
307.189	6235	74.97	.7
310.014	7669	75.56	.7
312.848	9104	76.02	.7
315.695	10543	77.05	.7
318.555	11984	77.31	.7
321.426	13428	77.25	.7
324.312	14874	77.39	.7
327.218	16325	78.34	.7
330.147	17784	78.59	.7
333.09	19244	78.85	.7
336.053	20709	79.2	.7
339.048	22184	80.79	.7
342.07	23667	81.31	.7
300.727	2939	74.37	.7
303.535	4354	74.77	.7
306.356	5801	74.54	.7
309.185	7252	75.53	.7
312.044	8706	75.83	.7
314.907	10151	75.71	.7
317.79	11598	77.05	.7
320.706	13058	77.4	.7
323.623	14518	78.11	.7
326.571	15995	78.02	.7
329.524	17472	78.67	.7
332.503	18957	79.25	.7
335.497	20439	79.93	.7
338.525	21926	80.26	.7
341.56	23408	80.54	.7
344.623	24907	81.87	.7
301.673	3419	74.62	.7
304.509	4850	74.76	.7
307.353	6310	75.3	.7
310.22	7778	75.78	.7
313.104	9241	76.23	.7
315.995	10697	76.49	.7
318.91	12158	77.07	.7
321.834	13623	76.95	.7
324.769	15094	77.5	.7
327.727	16576	78.56	.7
330.698	18059	79.38	.7
333.684	19542	80.2	.7
336.698	21027	80.28	.7
339.73	22511	80.76	.7
342.794	24013	81.23	.7
321.301	2771	77.58	.7
324.353	3977	78.06	.7
327.42	5191	78.96	.7
330.514	6416	78.78	.7
333.625	7647	78.71	.7
336.76	8887	79.06	.7
339.915	10135	80.44	.7
343.098	11393	80.84	.7
319.667	2142	76.76	.7
322.713	3326	77.29	.7
325.781	4543	78.25	.7
328.878	5770	78.35	.7
331.988	6999	78.63	.7
335.123	8240	79.2	.7
338.277	9489	80.76	.7
341.461	10747	81.71	.7
344.67	12011	81.35	.7

System: propane; phases: Liquid, Gas
Property: Molar heat capacity at saturation pressure, J/K/mol (Liquid); method: Vacuum adiabatic calorimetry
Temperature, K	Molar heat capacity at saturation pressure, J/K/mol	uncertainty
88.919	84.87	.59409
92.731	84.92	.59444
96.466	84.96	.59472
100.13	85.19	.59633
103.73	85.36	.59752
107.273	85.47	.59829
110.757	85.79	.60053
114.194	85.97	.60179
117.582	86.14	.60298
120.931	86.45	.60515
124.234	86.53	.60571
127.503	86.9	.6083
130.733	87.09	.60963
133.929	87.31	.61117
137.096	87.67	.61369
140.231	87.61	.61327
143.335	87.91	.61537
146.41	88.35	.61845
149.46	88.44	.61908
152.476	88.71	.62097
155.471	89	.623
158.447	89.26	.62482
161.404	89.43	.62601
164.34	89.53	.62671
167.249	90.06	.63042
170.141	90.37	.63259
173.013	90.28	.63196
175.862	90.91	.63637
178.697	91.17	.63819
181.513	91.3	.6391
184.309	91.75	.64225
187.093	92.23	.64561
189.855	92.57	.64799
192.606	92.88	.65016
195.337	93.67	.65569
198.058	93.95	.65765
200.763	94.12	.65884
203.454	94.68	.66276
206.138	94.22	.65954
208.802	94.54	.66178
211.454	95.58	.66906
214.102	96.24	.67368
216.732	96.69	.67683
219.354	97.4	.6818
221.971	97.43	.68201
224.571	97.58	.68306
227.162	98.39	.68873
229.748	98.99	.69293
232.326	99.49	.69643
234.899	99.41	.69587
237.459	100.12	.70084
240.02	100.5	.7035
242.568	101.2	.7084
245.118	101.78	.71246
247.66	102.27	.71589
250.201	102.98	.72086
252.738	103.41	.72387
255.269	103.99	.72793
257.801	104.55	.73185
260.325	105.39	.73773
262.854	106.36	.74452
265.381	106.45	.74515
267.899	107.71	.75397
267.923	107.58	.75306
270.423	108.4	.7588
272.919	109.16	.76412
275.416	110.08	.77056
277.917	110.44	.77308
280.408	111.44	.78008
282.911	112.06	.78442
285.409	112.26	.78582
287.91	113.12	.79184
290.414	114.75	.80325
292.929	115.51	.80857
295.44	116.88	.81816
297.962	117.85	.82495
300.484	117.96	.82572
303.012	118.38	.82866
305.539	119.64	.83748
308.075	121.52	.85064
310.617	122.47	.85729
313.154	124.63	.87241
315.709	125.89	.88123
318.273	126.41	.88487
323.352	129.31	.90517
325.931	131.3	.9191
328.509	133.4	.9338
331.101	135.99	.95193
333.701	137.68	.96376
336.31	139.1	.9737
338.929	140.95	.98665
341.563	144.64	1.01248
344.209	149.14	1.04398
91.121	84.92	.59444
94.89	85.02	.59514
98.583	85.12	.59584
102.209	85.32	.59724
105.775	85.44	.59808
109.282	85.76	.60032
112.742	85.84	.60088
116.151	86.05	.60235
119.513	86.16	.60312
122.833	86.51	.60557
126.117	86.66	.60662
129.363	86.88	.60816
132.57	87.07	.60949
135.749	87.22	.61054
138.895	87.5	.6125
142.01	87.94	.61558
145.104	88.06	.61642
148.164	88.33	.61831
151.202	88.72	.62104
154.211	88.83	.62181
157.196	89.06	.62342
160.151	89.66	.62762
163.085	90.05	.63035
166.004	90.04	.63028
168.904	90.24	.63168
171.786	90.38	.63266
174.647	90.89	.63623
177.489	91.25	.63875
180.314	91.67	.64169
183.121	91.84	.64288
185.912	92.02	.64414
188.683	92.09	.64463
191.44	92.72	.64904
194.184	93.05	.65135
196.908	93.56	.65492
199.622	94.02	.65814
202.325	94.07	.65849
205.01	94.36	.66052
207.688	94.92	.66444
210.35	95.41	.66787
213.004	96.05	.67235
215.646	96.38	.67466
218.276	97.14	.67998
220.904	96.94	.67858
223.515	97.28	.68096
226.119	98.17	.68719
228.724	98.66	.69062
231.309	99.11	.69377
233.897	99.63	.69741
236.472	99.64	.69748
239.041	100.21	.70147
241.607	100.94	.70658
244.167	101.8	.7126
246.725	102.66	.71862
249.279	103.18	.72226
251.826	103.62	.72534
254.373	104.07	.72849
256.92	104.47	.73129
259.461	104.97	.73479
262	106	.742
264.542	106.11	.74277
267.076	107.17	.75019
269.623	107.64	.75348
272.154	109.03	.76321
274.698	109.64	.76748
277.238	110.22	.77154
279.779	110.83	.77581
282.322	111.64	.78148
284.864	112.93	.79051
287.407	113.95	.79765
289.953	114.64	.80248
292.497	115.46	.80822
295.043	116.36	.81452
297.591	117.55	.82285
300.145	118.94	.83258
302.694	119.67	.83769
305.254	120.48	.84336
307.817	121.03	.84721
310.381	122.63	.85841
312.955	123.93	.86751
315.533	124.76	.87332
318.115	125.37	.87759
323.238	129.01	.90307
325.837	130.18	.91126
328.442	132.33	.92631
331.06	135.04	.94528
333.691	136.44	.95508
336.317	139.03	.97321
338.958	142.73	.99911
341.609	145.97	1.02179
344.273	148.36	1.03852
270.709	108.16	.75712
273.039	108.7	.7609
275.379	109.29	.76503
277.72	110.44	.77308
280.068	110.92	.77644
282.414	112.19	.78533
284.774	113.05	.79135
287.131	113.09	.79163
289.496	114.17	.79919
291.863	114.95	.80465
294.237	115.29	.80703
296.613	116.56	.81592
298.993	117.8	.8246
301.377	118.85	.83195
303.77	119.3	.8351
306.161	120.81	.84567
308.571	122.04	.85428
310.98	123.64	.86548
313.405	124.69	.87283
315.831	124.99	.87493
271.488	109.25	.76475
273.846	109.09	.76363
276.202	109.72	.76804
278.568	110.68	.77476
280.932	111.66	.78162
283.301	112.78	.78946
285.681	112.86	.79002
288.051	113.08	.79156
290.431	114.57	.80199
292.813	115.77	.81039
295.206	116	.812
297.595	116.98	.81886
299.996	118.27	.82789
302.399	119.55	.83685
304.811	120.27	.84189
307.226	121.32	.84924
309.646	121.95	.85365
312.069	123.46	.86422
314.507	124.14	.86898
