Measured thermophysical data. Thermodynamic Study of the Solubility of Procaine HCl in Some Ethanol + Water Cosolvent Mixtures
Source: J. Chem. Eng. Data, 2010, 10.1021/je900958z
Compound 1: p-aminobenzoic acid 2-diethylaminoethyl ester, C13H20N2O2, purity 99%
Compound 2: ethanol, C2H6O, purity 99%
Compound 3: water, H2O, purity 99.9%

System: p-aminobenzoic acid 2-diethylaminoethyl ester + ethanol + water; phases: Liquid, Crystal
Fixed: Pressure, kPa = 101
Property: Mole fraction of p-aminobenzoic acid 2-diethylaminoethyl ester (Liquid); method: UV-spectra
Temperature, K	Solvent: Mass fraction of ethanol	Mole fraction of p-aminobenzoic acid 2-diethylaminoethyl ester	uncertainty
278.15	0	.06322	.00016
283.15	0	.07072	.00028
288.15	0	.07779	.00024
293.15	0	.0854	.0004
298.15	0	.0939	.0006
303.15	0	.102	.0007
308.15	0	.1124	.0006
278.15	.1	.0625	.0003
283.15	.1	.0696	.0004
288.15	.1	.0771	.0004
293.15	.1	.0843	.0005
298.15	.1	.0923	.0006
303.15	.1	.1003	.0009
308.15	.1	.1103	.0006
278.15	.2	.0611	.0003
283.15	.2	.0687	.0003
288.15	.2	.0756	.0005
293.15	.2	.0828	.0005
298.15	.2	.0913	.0006
303.15	.2	.0986	.0004
308.15	.2	.1081	.0007
278.15	.3	.05922	.00019
283.15	.3	.06664	.00021
288.15	.3	.0738	.0005
293.15	.3	.0806	.0004
298.15	.3	.0886	.0007
303.15	.3	.0961	.0004
308.15	.3	.1046	.0007
278.15	.4	.05679	.00012
283.15	.4	.06368	.0002
288.15	.4	.071	.0004
293.15	.4	.0781	.0005
298.15	.4	.0856	.0004
303.15	.4	.0939	.0005
308.15	.4	.1018	.0006
278.15	.5	.05353	.00018
283.15	.5	.05975	.0002
288.15	.5	.06624	.00027
293.15	.5	.07278	.00029
298.15	.5	.0795	.0003
303.15	.5	.0874	.0004
308.15	.5	.0959	.0004
278.15	.6	.04987	.00018
283.15	.6	.05442	.00014
288.15	.6	.06	.0003
293.15	.6	.0664	.0004
298.15	.6	.0733	.00022
303.15	.6	.081	.0003
308.15	.6	.0889	.0004
278.15	.7	.03933	.00011
283.15	.7	.04398	.00017
288.15	.7	.0477	.00018
293.15	.7	.05326	.00019
298.15	.7	.05923	.00021
303.15	.7	.06615	.00022
308.15	.7	.0731	.0005
278.15	.8	.02904	.00008
283.15	.8	.03148	.00009
288.15	.8	.03469	.00016
293.15	.8	.03816	.00021
298.15	.8	.04262	.00018
303.15	.8	.04726	.00014
308.15	.8	.0525	.0002
278.15	.9	.01673	.00006
283.15	.9	.01844	.0001
288.15	.9	.02044	.00004
293.15	.9	.02258	.0001
298.15	.9	.02486	.00008
303.15	.9	.02698	.00011
308.15	.9	.02985	.00008
278.15	1	.004652	.000007
283.15	1	.005488	.00001
288.15	1	.006409	.000019
293.15	1	.00739	.00003
298.15	1	.00831	.00003
303.15	1	.009389	.000019
308.15	1	.01055	.00003

System: p-aminobenzoic acid 2-diethylaminoethyl ester + water; phases: Liquid, Crystal
Property: Mole fraction of p-aminobenzoic acid 2-diethylaminoethyl ester (Liquid); method: UV-spectra
Temperature, K	Pressure, kPa	Mole fraction of p-aminobenzoic acid 2-diethylaminoethyl ester	uncertainty
278.15	101	.06322	.00016
283.15	101	.07072	.00028
288.15	101	.07779	.00024
293.15	101	.0854	.0004
298.15	101	.0939	.0006
303.15	101	.102	.0007
308.15	101	.1124	.0006

System: p-aminobenzoic acid 2-diethylaminoethyl ester + ethanol; phases: Liquid, Crystal
Property: Mole fraction of p-aminobenzoic acid 2-diethylaminoethyl ester (Liquid); method: UV-spectra
Temperature, K	Pressure, kPa	Mole fraction of p-aminobenzoic acid 2-diethylaminoethyl ester	uncertainty
278.15	101	.004652	.000007
283.15	101	.005488	.00001
288.15	101	.006409	.000019
293.15	101	.00739	.00003
298.15	101	.00831	.00003
303.15	101	.009389	.000019
308.15	101	.01055	.00003
