Measured thermophysical data. Density and Viscosity of Aqueous Solutions of 1,3-Dimethylurea from (288.15 to 333.15) K
Source: J. Chem. Eng. Data, 2010, 10.1021/je900444h
Compound 1: 1,3-dimethylurea, C3H8N2O, purity 99%
Compound 2: water, H2O, purity 99.95%

System: 1,3-dimethylurea + water; phases: Liquid
Fixed: Pressure, kPa = 101
Property: Mass density, kg/m3 (Liquid); method: Vibrating tube method
Molality, mol/kg of 1,3-dimethylurea	Temperature, K	Mass density, kg/m3	uncertainty
.0033	283.15	999.7	
.0331	283.15	1000	
.0995	283.15	1000.6	
.1669	283.15	1001.2	
.2354	283.15	1001.8	
.3039	283.15	1002.4	
.3387	283.15	1002.7	
.4997	283.15	1004.2	
.7491	283.15	1006.5	
1.0007	283.15	1008.7	
1.08	283.15	1009.4	
1.4997	283.15	1013.2	
1.923	283.15	1016.8	
2.8849	283.15	1024.6	
4.005	283.15	1032.6	
5.3039	283.15	1040.7	
6.8616	283.15	1048.7	
8.7263	283.15	1056.3	
11.0233	283.15	1063.4	
15.6456	283.15	1072.5	
23.154	283.15	1079.6	
.0033	288.15	999.1	
.0331	288.15	999.4	
.0995	288.15	1000	
.1669	288.15	1000.5	
.2354	288.15	1001.1	
.3039	288.15	1001.7	
.3387	288.15	1002	
.4997	288.15	1003.4	
.7491	288.15	1005.6	
1.0007	288.15	1007.8	
1.08	288.15	1008.5	
1.4997	288.15	1012.1	
1.923	288.15	1015.5	
2.8849	288.15	1023	
4.005	288.15	1030.7	
5.3039	288.15	1038.4	
6.8616	288.15	1046	
8.7263	288.15	1053.3	
11.0233	288.15	1060.1	
15.6456	288.15	1068.9	
23.154	288.15	1075.7	
.0033	293.15	998.2	
.0331	293.15	998.5	
.0995	293.15	999	
.1669	293.15	999.6	
.2354	293.15	1000.2	
.3039	293.15	1000.8	
.3387	293.15	1001	
.4997	293.15	1002.4	
.7491	293.15	1004.5	
1.0007	293.15	1006.6	
1.08	293.15	1007.3	
1.4997	293.15	1010.7	
1.923	293.15	1014	
2.8849	293.15	1021.2	
4.005	293.15	1028.5	
5.3039	293.15	1035.9	
6.8616	293.15	1043.3	
8.7263	293.15	1050.2	
11.0233	293.15	1056.8	
15.6456	293.15	1065.3	
23.154	293.15	1071.9	
.0033	298.15	997.1	
.0331	298.15	997.3	
.0995	298.15	997.9	
.1669	298.15	998.4	
.2354	298.15	999	
.3039	298.15	999.5	
.3387	298.15	999.8	
.4997	298.15	1001.1	
.7491	298.15	1003.2	
1.0007	298.15	1005.2	
1.08	298.15	1005.8	
1.4997	298.15	1009.2	
1.923	298.15	1012.3	
2.8849	298.15	1019.2	
4.005	298.15	1026.3	
5.3039	298.15	1033.3	
6.8616	298.15	1040.4	
8.7263	298.15	1047	
11.0233	298.15	1053.4	
15.6456	298.15	1061.6	
23.154	298.15	1068	
.0033	303.15	995.7	
.0331	303.15	995.9	
.0995	303.15	996.4	
.1669	303.15	997	
.2354	303.15	997.5	
.3039	303.15	998.1	
.3387	303.15	998.3	
.4997	303.15	999.6	
.7491	303.15	1001.6	
1.0007	303.15	1003.6	
1.08	303.15	1004.2	
1.4997	303.15	1007.4	
1.923	303.15	1010.5	
2.8849	303.15	1017.1	
4.005	303.15	1023.8	
5.3039	303.15	1030.6	
6.8616	303.15	1037.4	
8.7263	303.15	1043.8	
11.0233	303.15	1049.8	
15.6456	303.15	1057.8	
23.154	303.15	1064	
.4997	308.15	997.9	
.7491	308.15	999.8	
1.0007	308.15	1001.7	
1.08	308.15	1002.3	
1.4997	308.15	1005.4	
1.923	308.15	1008.4	
2.8849	308.15	1014.8	
4.005	308.15	1021.3	
5.3039	308.15	1027.8	
6.8616	308.15	1034.3	
8.7263	308.15	1040.5	
11.0233	308.15	1046.3	
15.6456	308.15	1054	
23.154	308.15	1060.1	
.4997	313.15	996	
.7491	313.15	997.9	
1.0007	313.15	999.7	
1.08	313.15	1000.3	
1.4997	313.15	1003.3	
1.923	313.15	1006.1	
2.8849	313.15	1012.3	
4.005	313.15	1018.6	
5.3039	313.15	1024.9	
6.8616	313.15	1031.1	
8.7263	313.15	1037.1	
11.0233	313.15	1042.8	
15.6456	313.15	1050.2	
23.154	313.15	1056.1	
5.3039	318.15	1021.8	
6.8616	318.15	1027.8	
8.7263	318.15	1033.6	
11.0233	318.15	1039.1	
15.6456	318.15	1046.3	
23.154	318.15	1052.1	
5.3039	323.15	1018.6	
6.8616	323.15	1024.5	
8.7263	323.15	1030.1	
11.0233	323.15	1035.4	
15.6456	323.15	1042.4	
23.154	323.15	1048	
5.3039	328.15	1015.9	
6.8616	328.15	1021	
8.7263	328.15	1026.5	
11.0233	328.15	1031.6	
15.6456	328.15	1038.4	
23.154	328.15	1043.9	
5.3039	333.15	1012.3	
6.8616	333.15	1017.5	
8.7263	333.15	1022.7	
11.0233	333.15	1027.8	
15.6456	333.15	1034.4	
23.154	333.15	1039.8	

System: 1,3-dimethylurea + water; phases: Liquid
Fixed: Pressure, kPa = 101
Property: Viscosity, Pa*s (Liquid); method: Capillary tube (Ostwald; Ubbelohde) method
Temperature, K	Molality, mol/kg of 1,3-dimethylurea	Viscosity, Pa*s	uncertainty
288.15	.0033	.001173	.000004
288.15	.0331	.0011874	.000004
288.15	.0995	.0012116	.000004
288.15	.1669	.0012324	.000004
288.15	.2354	.0012427	.000004
288.15	.3039	.001255	.000004
288.15	.3387	.0012701	.000004
288.15	.7491	.0014017	.000004
288.15	1.923	.0018307	.000004
288.15	2.8849	.0022251	.000004
288.15	4.005	.0027461	.000004
288.15	5.3039	.0033425	.000004
288.15	6.8616	.0041789	.000004
288.15	8.7263	.0052421	.000004
288.15	11.0233	.0065334	.000004
288.15	15.6456	.0093002	.000004
288.15	23.154	.0144876	.000004
293.15	.0033	.0010348	.000004
293.15	.0331	.0010451	.000004
293.15	.0995	.0010656	.000004
293.15	.1669	.0010811	.000004
293.15	.2354	.0010937	.000004
293.15	.3039	.0011042	.000004
293.15	.3387	.0011174	.000004
293.15	.7491	.0012279	.000004
293.15	1.923	.0015811	.000004
293.15	2.8849	.0019022	.000004
293.15	4.005	.0023254	.000004
293.15	5.3039	.0028047	.000004
293.15	6.8616	.0034639	.000004
293.15	8.7263	.0042697	.000004
293.15	11.0233	.0052621	.000004
293.15	15.6456	.0073769	.000004
293.15	23.154	.0112221	.000004
298.15	.0033	.0009187	.000004
298.15	.0331	.000929	.000004
298.15	.0995	.0009456	.000004
298.15	.1669	.0009603	.000004
298.15	.2354	.0009716	.000004
298.15	.3039	.0009789	.000004
298.15	.3387	.0009944	.000004
298.15	.7491	.0010835	.000004
298.15	1.923	.0013787	.000004
298.15	2.8849	.0016485	.000004
298.15	4.005	.0019977	.000004
298.15	5.3039	.0023817	.000004
298.15	6.8616	.0029208	.000004
298.15	8.7263	.0035351	.000004
298.15	11.0233	.0043418	.000004
298.15	15.6456	.0059546	.000004
298.15	23.154	.0087998	.000004
303.15	.0033	.0008242	.000004
303.15	.0331	.0008316	.000004
303.15	.0995	.0008464	.000004
303.15	.1669	.0008592	.000004
303.15	.2354	.0008702	.000004
303.15	.3039	.0008753	.000004
303.15	.3387	.000887	.000004
303.15	.7491	.0009652	.000004
303.15	1.923	.0012162	.000004
303.15	2.8849	.00144	.000004
303.15	4.005	.0017294	.000004
303.15	5.3039	.0020551	.000004
303.15	6.8616	.0024905	.000004
303.15	8.7263	.0030025	.000004
303.15	11.0233	.0036034	.000004
303.15	15.6456	.0049275	.000004
303.15	23.154	.0071224	.000004
308.15	.7491	.0008666	.000004
308.15	1.923	.0010788	.000004
308.15	2.8849	.0012708	.000004
308.15	4.005	.0015113	.000004
308.15	5.3039	.0017783	.000004
308.15	6.8616	.0021347	.000004
308.15	8.7263	.0025451	.000004
308.15	11.0233	.0030564	.000004
308.15	15.6456	.0041157	.000004
308.15	23.154	.0058651	.000004
313.15	.7491	.0007797	.000004
313.15	1.923	.0009649	.000004
313.15	2.8849	.0011267	.000004
313.15	4.005	.0013357	.000004
313.15	5.3039	.0015599	.000004
313.15	6.8616	.0018591	.000004
313.15	8.7263	.0021951	.000004
313.15	11.0233	.0026264	.000004
313.15	15.6456	.0035134	.000004
313.15	23.154	.0049178	.000004
318.15	5.3039	.0013796	.000004
318.15	6.8616	.001632	.000004
318.15	8.7263	.0019062	.000004
318.15	11.0233	.0022676	.000004
318.15	15.6456	.0030244	.000004
318.15	23.154	.0041955	.000004
323.15	5.3039	.0012221	.000004
323.15	6.8616	.0014401	.000004
323.15	8.7263	.0016811	.000004
323.15	11.0233	.0019833	.000004
323.15	15.6456	.002646	.000004
323.15	23.154	.0036575	.000004
328.15	5.3039	.0010953	.000004
328.15	6.8616	.0012931	.000004
328.15	8.7263	.0014923	.000004
328.15	11.0233	.0017599	.000004
328.15	15.6456	.0023334	.000004
328.15	23.154	.0032115	.000004
333.15	5.3039	.0010245	.000004
333.15	6.8616	.0011641	.000004
333.15	8.7263	.0013432	.000004
333.15	11.0233	.0015644	.000004
333.15	15.6456	.0020606	.000004
333.15	23.154	.0028178	.000004
