Measured thermophysical data. Solubility of Flurbiprofen in CO2 and CO2 + Methanol
Source: J. Chem. Eng. Data, 2010, 10.1021/je900674t
Compound 1: [1,1'-biphenyl]-4-acetic acid, 2-fluoro-.alpha.-methyl-, C15H13FO2
Compound 2: methanol, CH4O
Compound 3: carbon dioxide, CO2

System: carbon dioxide + [1,1'-biphenyl]-4-acetic acid, 2-fluoro-.alpha.-methyl-; phases: Fluid (supercritical or subcritical phases), Crystal
Property: Mole fraction of [1,1'-biphenyl]-4-acetic acid, 2-fluoro-.alpha.-methyl- (Fluid (supercritical or subcritical phases)); method: Direct visualization technique
Temperature, K	Pressure, kPa	Mole fraction of [1,1'-biphenyl]-4-acetic acid, 2-fluoro-.alpha.-methyl-	uncertainty
303.15	11800	.0000342	
303.15	16330	.0000439	
303.15	17140	.0000602	
303.15	22120	.0000624	
313.15	10760	.0000242	
313.15	12070	.0000395	
313.15	14060	.0000608	
313.15	15750	.0000801	
313.15	18110	.0001024	
313.15	21140	.0001418	
323.15	11840	.0000335	
323.15	13310	.0000526	
323.15	15540	.0000764	
323.15	16260	.0001027	
323.15	16590	.0001067	
323.15	17530	.0001255	
323.15	19960	.0001584	

System: methanol + carbon dioxide + [1,1'-biphenyl]-4-acetic acid, 2-fluoro-.alpha.-methyl-; phases: Fluid (supercritical or subcritical phases), Crystal
Property: Mole fraction of [1,1'-biphenyl]-4-acetic acid, 2-fluoro-.alpha.-methyl- (Fluid (supercritical or subcritical phases)); method: Direct visualization technique
Temperature, K	Pressure, kPa	Mole fraction of methanol	Mole fraction of [1,1'-biphenyl]-4-acetic acid, 2-fluoro-.alpha.-methyl-	uncertainty
303.15	10030	.0656	.000223	
303.15	12550	.0637	.000263	
303.15	16810	.0669	.000387	
303.15	22550	.0656	.000436	
303.15	24070	.0707	.000503	
303.15	11870	.1208	.000669	
303.15	13650	.1198	.000792	
303.15	17130	.1243	.000931	
303.15	18700	.1224	.000985	
303.15	19860	.1238	.001079	
303.15	11070	.1689	.008512	
303.15	13180	.1697	.009087	
303.15	14020	.1646	.00945	
303.15	15340	.1684	.010318	
303.15	20330	.1627	.010646	
313.15	9190	.0656	.000223	
313.15	11660	.0637	.000263	
313.15	15160	.0669	.000387	
313.15	16830	.0656	.000436	
313.15	18970	.0707	.000503	
313.15	10820	.1208	.000669	
313.15	11570	.1198	.000792	
313.15	13430	.1243	.000931	
313.15	14910	.1224	.000985	
313.15	16290	.1238	.001079	
313.15	10620	.1689	.008512	
313.15	12050	.1697	.009087	
313.15	12870	.1646	.00945	
313.15	14240	.1684	.010318	
313.15	17330	.1627	.010646	
