Measured thermophysical data. Excess Molar Volumes and Sound Speed in (Phenylacetonitrile + 1,2-Dichloroethane), (Phenylacetonitrile + 1,1,2-Trichloroethane), (Phenylacetonitrile + 1,1,2,2-Tetrachloroethane), (Phenylacetonitrile + Trichloroethene), and (Phenylacetonitrile + Tetrachloroethene) at Temperatures of (303.15, 308.15, and 313.15) K
Source: J. Chem. Eng. Data, 2010, 10.1021/je900570e
Compound 1: 1,2-dichloroethane, C2H4Cl2
Compound 2: 1,1,2-trichloroethane, C2H3Cl3
Compound 3: tetrachloroethane, C2H2Cl4
Compound 4: tetrachloroethene, C2Cl4
Compound 5: phenylacetonitrile, C8H7N
Compound 6: trichloroethylene, C2HCl3

System: 1,2-dichloroethane; phases: Liquid
Fixed: Pressure, kPa = 101.325
Property: Mass density, kg/m3 (Liquid); method: Vibrating tube method
Temperature, K	Mass density, kg/m3	uncertainty
298.15	1246.7	.04

System: 1,2-dichloroethane; phases: Liquid, Air at 1 atmosphere
Property: Viscosity, Pa*s (Liquid); method: Capillary tube (Ostwald; Ubbelohde) method
Temperature, K	Viscosity, Pa*s	uncertainty
298.15	.000776	.000005

System: 1,2-dichloroethane; phases: Liquid, Air at 1 atmosphere
Property: Speed of sound, m/s (Liquid); method: Pulse-echo method
Temperature, K	Speed of sound, m/s	uncertainty
303.15	1174	3.522

System: 1,1,2-trichloroethane; phases: Liquid
Fixed: Pressure, kPa = 101.325
Property: Mass density, kg/m3 (Liquid); method: Vibrating tube method
Temperature, K	Mass density, kg/m3	uncertainty
308.15	1416.1	.04

System: 1,1,2-trichloroethane; phases: Liquid, Air at 1 atmosphere
Property: Viscosity, Pa*s (Liquid); method: Capillary tube (Ostwald; Ubbelohde) method
Temperature, K	Viscosity, Pa*s	uncertainty
298.15	.001105	.000005

System: 1,1,2-trichloroethane; phases: Liquid, Air at 1 atmosphere
Property: Speed of sound, m/s (Liquid); method: Pulse-echo method
Temperature, K	Speed of sound, m/s	uncertainty
303.15	1129.2	3.3876

System: tetrachloroethane; phases: Liquid
Fixed: Pressure, kPa = 101.325
Property: Mass density, kg/m3 (Liquid); method: Vibrating tube method
Temperature, K	Mass density, kg/m3	uncertainty
298.15	1586.8	.04

System: tetrachloroethane; phases: Liquid, Air at 1 atmosphere
Property: Viscosity, Pa*s (Liquid); method: Capillary tube (Ostwald; Ubbelohde) method
Temperature, K	Viscosity, Pa*s	uncertainty
303.15	.001456	.000005

System: tetrachloroethane; phases: Liquid, Air at 1 atmosphere
Property: Speed of sound, m/s (Liquid); method: Pulse-echo method
Temperature, K	Speed of sound, m/s	uncertainty
303.15	1134.7	3.4041

System: tetrachloroethene; phases: Liquid
Fixed: Pressure, kPa = 101.325
Property: Mass density, kg/m3 (Liquid); method: Vibrating tube method
Temperature, K	Mass density, kg/m3	uncertainty
298.15	1614.8	.04

System: tetrachloroethene; phases: Liquid, Air at 1 atmosphere
Property: Viscosity, Pa*s (Liquid); method: Capillary tube (Ostwald; Ubbelohde) method
Temperature, K	Viscosity, Pa*s	uncertainty
298.15	.000847	.000005

System: tetrachloroethene; phases: Liquid, Air at 1 atmosphere
Property: Speed of sound, m/s (Liquid); method: Pulse-echo method
Temperature, K	Speed of sound, m/s	uncertainty
303.15	1028	3.084

System: phenylacetonitrile; phases: Liquid
Fixed: Pressure, kPa = 101.325
Property: Mass density, kg/m3 (Liquid); method: Vibrating tube method
Temperature, K	Mass density, kg/m3	uncertainty
303.15	1008.83	.04

System: phenylacetonitrile; phases: Liquid, Air at 1 atmosphere
Property: Viscosity, Pa*s (Liquid); method: Capillary tube (Ostwald; Ubbelohde) method
Temperature, K	Viscosity, Pa*s	uncertainty
303.15	.001761	.000005

System: phenylacetonitrile; phases: Liquid, Air at 1 atmosphere
Property: Speed of sound, m/s (Liquid); method: Pulse-echo method
Temperature, K	Speed of sound, m/s	uncertainty
303.15	1519.2	4.5576

System: trichloroethylene; phases: Liquid
Fixed: Pressure, kPa = 101.325
Property: Mass density, kg/m3 (Liquid); method: Vibrating tube method
Temperature, K	Mass density, kg/m3	uncertainty
298.15	1455.9	.04

System: trichloroethylene; phases: Liquid, Air at 1 atmosphere
Property: Viscosity, Pa*s (Liquid); method: Capillary tube (Ostwald; Ubbelohde) method
Temperature, K	Viscosity, Pa*s	uncertainty
298.15	.000527	.000005

System: trichloroethylene; phases: Liquid, Air at 1 atmosphere
Property: Speed of sound, m/s (Liquid); method: Pulse-echo method
Temperature, K	Speed of sound, m/s	uncertainty
303.15	1014.7	3.0441

System: 1,2-dichloroethane + phenylacetonitrile; phases: Liquid
Fixed: Pressure, kPa = 101.325
Property: Mass density, kg/m3 (Liquid); method: Vibrating tube method
Temperature, K	Mole fraction of phenylacetonitrile	Mass density, kg/m3	uncertainty
303.15	0	1238.7	.04
303.15	.0165	1233.5	.04
303.15	.1059	1205.5	.04
303.15	.2041	1177.1	.04
303.15	.3088	1149.2	.04
303.15	.4073	1124.8	.04
303.15	.5122	1100.7	.04
303.15	.648	1072	.04
303.15	.8003	1042.8	.04
303.15	.9705	1013.6	.04
303.15	1	1008.8	.04
308.15	0	1230.5	.04
308.15	.0165	1225.3	.04
308.15	.1059	1198.9	.04
308.15	.2041	1171	.04
308.15	.3088	1143.5	.04
308.15	.4073	1119.4	.04
308.15	.5122	1095.6	.04
308.15	.648	1067.2	.04
308.15	.8003	1038.2	.04
308.15	.9705	1008.8	.04
308.15	1	1004.1	.04
313.15	0	1223.7	.04
313.15	.0165	1218.7	.04
313.15	.1059	1191.5	.04
313.15	.2041	1163.5	.04
313.15	.3088	1136.1	.04
313.15	.4073	1111.8	.04
313.15	.5122	1087.6	.04
313.15	.648	1058.8	.04
313.15	.8003	1029.5	.04
313.15	.9705	999.9	.04
313.15	1	999.5	.04

System: 1,2-dichloroethane + phenylacetonitrile; phases: Liquid
Fixed: Pressure, kPa = 101
Property: Viscosity, Pa*s (Liquid); method: Capillary tube (Ostwald; Ubbelohde) method
Temperature, K	Mole fraction of phenylacetonitrile	Viscosity, Pa*s	uncertainty
303.15	0	.0007237	.000005
303.15	.0165	.0007352	.000005
303.15	.1059	.0008165	.000005
303.15	.2041	.0009029	.000005
303.15	.3088	.0010032	.000005
303.15	.4073	.0011034	.000005
303.15	.5122	.001213	.000005
303.15	.648	.0013645	.000005
303.15	.8003	.0015359	.000005
303.15	.9705	.0017253	.000005
303.15	1	.0017613	.000005
308.15	0	.0006737	.000005
308.15	.0165	.0006821	.000005
308.15	.1059	.0007512	.000005
308.15	.2041	.0008313	.000005
308.15	.3088	.0009258	.000005
308.15	.4073	.0010169	.000005
308.15	.5122	.0011167	.000005
308.15	.648	.0012481	.000005
308.15	.8003	.0013981	.000005
308.15	.9705	.0015678	.000005
308.15	1	.0016021	.000005
313.15	0	.0006419	.000005
313.15	.0165	.0006456	.000005
313.15	.1059	.000708	.000005
313.15	.2041	.0007877	.000005
313.15	.3088	.0008746	.000005
313.15	.4073	.0009576	.000005
313.15	.5122	.0010479	.000005
313.15	.648	.0011649	.000005
313.15	.8003	.0012986	.000005
313.15	.9705	.0014556	.000005
313.15	1	.0014893	.000005

System: 1,2-dichloroethane + phenylacetonitrile; phases: Liquid
Fixed: Pressure, kPa = 101
Property: Speed of sound, m/s (Liquid); method: Pulse-echo method
Temperature, K	Mole fraction of phenylacetonitrile	Speed of sound, m/s	uncertainty
303.15	0	1174	3.522
303.15	.0165	1182.2	3.5466
303.15	.1059	1221.2	3.6636
303.15	.2041	1262.4	3.7872
303.15	.3088	1304.2	3.9126
303.15	.4073	1339.5	4.0185
303.15	.5122	1374.8	4.1244
303.15	.648	1418.6	4.2558
303.15	.8003	1465.2	4.3956
303.15	.9705	1512.6	4.5378
303.15	1	1519.2	4.5576
308.15	0	1164.8	3.4944
308.15	.0165	1171.9	3.5157
308.15	.1059	1211.5	3.6345
308.15	.2041	1252.3	3.7569
308.15	.3088	1293.6	3.8808
308.15	.4073	1330.8	3.9924
308.15	.5122	1367.5	4.1025
308.15	.648	1411.8	4.2354
308.15	.8003	1458.9	4.3767
308.15	.9705	1505.4	4.5162
308.15	1	1512.9	4.5387
313.15	0	1153.5	3.4605
313.15	.0165	1161	3.483
313.15	.1059	1200.5	3.6015
313.15	.2041	1243.7	3.7311
313.15	.3088	1285.3	3.8559
313.15	.4073	1320.8	3.9624
313.15	.5122	1355.9	4.0677
313.15	.648	1399.9	4.1997
313.15	.8003	1447.6	4.3428
313.15	.9705	1499.1	4.4973
313.15	1	1503.4	4.5102

System: 1,1,2-trichloroethane + phenylacetonitrile; phases: Liquid
Fixed: Pressure, kPa = 101.325
Property: Mass density, kg/m3 (Liquid); method: Vibrating tube method
Temperature, K	Mole fraction of phenylacetonitrile	Mass density, kg/m3	uncertainty
303.15	0	1425	.04
303.15	.0185	1415.6	.04
303.15	.1212	1364.9	.04
303.15	.2319	1312.6	.04
303.15	.3463	1261.1	.04
303.15	.445	1218.6	.04
303.15	.5545	1173.4	.04
303.15	.6861	1121.7	.04
303.15	.8245	1070.3	.04
303.15	.972	1018.4	.04
303.15	1	1008.8	.04
308.15	0	1416.1	.04
308.15	.0185	1407.2	.04
308.15	.1212	1358.6	.04
308.15	.2319	1307.3	.04
308.15	.3463	1256.2	.04
308.15	.445	1214	.04
308.15	.5545	1168.9	.04
308.15	.6861	1117.3	.04
308.15	.8245	1065.7	.04
308.15	.972	1013.7	.04
308.15	1	1004.1	.04
313.15	0	1409.6	.04
313.15	.0185	1400.5	.04
313.15	.1212	1351.2	.04
313.15	.2319	1300.6	.04
313.15	.3463	1250.2	.04
313.15	.445	1208.4	.04
313.15	.5545	1163.6	.04
313.15	.6861	1112.1	.04
313.15	.8245	1060.7	.04
313.15	.972	1009	.04
313.15	1	999.5	.04

System: 1,1,2-trichloroethane + phenylacetonitrile; phases: Liquid
Fixed: Pressure, kPa = 101
Property: Viscosity, Pa*s (Liquid); method: Capillary tube (Ostwald; Ubbelohde) method
Temperature, K	Mole fraction of phenylacetonitrile	Viscosity, Pa*s	uncertainty
303.15	0	.0010192	.000005
303.15	.0185	.0010463	.000005
303.15	.1212	.001158	.000005
303.15	.2319	.0012635	.000005
303.15	.3463	.0013652	.000005
303.15	.445	.0014537	.000005
303.15	.5545	.0015447	.000005
303.15	.6861	.001631	.000005
303.15	.8245	.0017063	.000005
303.15	.972	.0017576	.000005
303.15	1	.0017613	.000005
308.15	0	.0009483	.000005
308.15	.0185	.0009728	.000005
308.15	.1212	.0010637	.000005
308.15	.2319	.0011628	.000005
308.15	.3463	.0012587	.000005
308.15	.445	.0013358	.000005
308.15	.5545	.0014114	.000005
308.15	.6861	.0014907	.000005
308.15	.8245	.0015615	.000005
308.15	.972	.0015945	.000005
308.15	1	.0016021	.000005
313.15	0	.0008888	.000005
313.15	.0185	.0009045	.000005
313.15	.1212	.0009825	.000005
313.15	.2319	.0010735	.000005
313.15	.3463	.0011688	.000005
313.15	.445	.0012416	.000005
313.15	.5545	.0013069	.000005
313.15	.6861	.0013811	.000005
313.15	.8245	.0014357	.000005
313.15	.972	.0014772	.000005
313.15	1	.0014893	.000005

System: 1,1,2-trichloroethane + phenylacetonitrile; phases: Liquid
Fixed: Pressure, kPa = 101
Property: Speed of sound, m/s (Liquid); method: Pulse-echo method
Temperature, K	Mole fraction of phenylacetonitrile	Speed of sound, m/s	uncertainty
303.15	0	1129.2	3.3876
303.15	.0185	1137	3.411
303.15	.1212	1176.7	3.5301
303.15	.2319	1219.7	3.6591
303.15	.3463	1263.4	3.7902
303.15	.445	1301	3.903
303.15	.5545	1342.8	4.0284
303.15	.6861	1393.4	4.1802
303.15	.8245	1446.6	4.3398
303.15	.972	1505.3	4.5159
303.15	1	1519.2	4.5576
308.15	0	1115.9	3.3477
308.15	.0185	1125	3.375
308.15	.1212	1168.2	3.5046
308.15	.2319	1214.2	3.6426
308.15	.3463	1261.9	3.7857
308.15	.445	1301.5	3.9045
308.15	.5545	1343.3	4.0299
308.15	.6861	1392.9	4.1787
308.15	.8245	1445.1	4.3353
308.15	.972	1498.7	4.4961
308.15	1	1512.9	4.5387
313.15	0	1096.1	3.2883
313.15	.0185	1105.9	3.3177
313.15	.1212	1150.9	3.4527
313.15	.2319	1199.9	3.5997
313.15	.3463	1248.1	3.7443
313.15	.445	1288.9	3.8667
313.15	.5545	1332.8	3.9984
313.15	.6861	1383.2	4.1496
313.15	.8245	1431.8	4.2954
313.15	.972	1488.9	4.4667
313.15	1	1503.4	4.5102

System: phenylacetonitrile + tetrachloroethane; phases: Liquid
Fixed: Pressure, kPa = 101.325
Property: Mass density, kg/m3 (Liquid); method: Vibrating tube method
Temperature, K	Mole fraction of phenylacetonitrile	Mass density, kg/m3	uncertainty
303.15	0	1579.6	.04
303.15	.0221	1566.5	.04
303.15	.1374	1497.2	.04
303.15	.2564	1426.9	.04
303.15	.3743	1358.8	.04
303.15	.4799	1297.2	.04
303.15	.5852	1236.4	.04
303.15	.7131	1164.2	.04
303.15	.8414	1093.9	.04
303.15	.9748	1022.5	.04
303.15	1	1008.8	.04
308.15	0	1570.6	.04
308.15	.0221	1558.5	.04
308.15	.1374	1490.1	.04
308.15	.2564	1420	.04
308.15	.3743	1351.7	.04
308.15	.4799	1291.5	.04
308.15	.5852	1231.7	.04
308.15	.7131	1160.2	.04
308.15	.8414	1089.9	.04
308.15	.9748	1018.2	.04
308.15	1	1004.1	.04
313.15	0	1563.7	.04
313.15	.0221	1551.7	.04
313.15	.1374	1483.5	.04
313.15	.2564	1413.8	.04
313.15	.3743	1345.9	.04
313.15	.4799	1285.9	.04
313.15	.5852	1226.2	.04
313.15	.7131	1154.9	.04
313.15	.8414	1085	.04
313.15	.9748	1013.5	.04
313.15	1	999.5	.04

System: phenylacetonitrile + tetrachloroethane; phases: Liquid
Fixed: Pressure, kPa = 101
Property: Viscosity, Pa*s (Liquid); method: Capillary tube (Ostwald; Ubbelohde) method
Temperature, K	Mole fraction of phenylacetonitrile	Viscosity, Pa*s	uncertainty
303.15	0	.0014562	.000005
303.15	.0221	.0014892	.000005
303.15	.1374	.0016612	.000005
303.15	.2564	.0018384	.000005
303.15	.3743	.001954	.000005
303.15	.4799	.0020114	.000005
303.15	.5852	.0020169	.000005
303.15	.7131	.001966	.000005
303.15	.8414	.0018939	.000005
303.15	.9748	.0017719	.000005
303.15	1	.0017613	.000005
308.15	0	.0013544	.000005
308.15	.0221	.0013757	.000005
308.15	.1374	.0015285	.000005
308.15	.2564	.0016778	.000005
308.15	.3743	.001775	.000005
308.15	.4799	.0018374	.000005
308.15	.5852	.0018316	.000005
308.15	.7131	.0017956	.000005
308.15	.8414	.0017246	.000005
308.15	.9748	.0016171	.000005
308.15	1	.0016021	.000005
313.15	0	.0012613	.000005
313.15	.0221	.0012768	.000005
313.15	.1374	.0014127	.000005
313.15	.2564	.0015439	.000005
313.15	.3743	.0016299	.000005
313.15	.4799	.0016744	.000005
313.15	.5852	.0016818	.000005
313.15	.7131	.0016451	.000005
313.15	.8414	.0015974	.000005
313.15	.9748	.0015031	.000005
313.15	1	.0014893	.000005

System: phenylacetonitrile + tetrachloroethane; phases: Liquid
Fixed: Pressure, kPa = 101
Property: Speed of sound, m/s (Liquid); method: Pulse-echo method
Temperature, K	Mole fraction of phenylacetonitrile	Speed of sound, m/s	uncertainty
303.15	0	1134.7	3.4041
303.15	.0221	1142	3.426
303.15	.1374	1179.7	3.5391
303.15	.2564	1220.9	3.6627
303.15	.3743	1263.5	3.7905
303.15	.4799	1303.1	3.9093
303.15	.5852	1343.4	4.0302
303.15	.7131	1393.9	4.1817
303.15	.8414	1446.4	4.3392
303.15	.9748	1504.3	4.5129
303.15	1	1519.2	4.5576
308.15	0	1115.5	3.3465
308.15	.0221	1125	3.375
308.15	.1374	1166.3	3.4989
308.15	.2564	1209.3	3.6279
308.15	.3743	1251.5	3.7545
308.15	.4799	1289.9	3.8697
308.15	.5852	1329.5	3.9885
308.15	.7131	1381	4.143
308.15	.8414	1436.5	4.3095
308.15	.9748	1497.2	4.4916
308.15	1	1512.9	4.5387
313.15	0	1095.5	3.2865
313.15	.0221	1107.4	3.3222
313.15	.1374	1154.6	3.4638
313.15	.2564	1201.6	3.6048
313.15	.3743	1245.6	3.7368
313.15	.4799	1283.9	3.8517
313.15	.5852	1323.9	3.9717
313.15	.7131	1373.2	4.1196
313.15	.8414	1426.2	4.2786
313.15	.9748	1487.4	4.4622
313.15	1	1503.4	4.5102

System: trichloroethylene + phenylacetonitrile; phases: Liquid
Fixed: Pressure, kPa = 101.325
Property: Mass density, kg/m3 (Liquid); method: Vibrating tube method
Temperature, K	Mole fraction of phenylacetonitrile	Mass density, kg/m3	uncertainty
303.15	0	1447.5	.04
303.15	.0195	1437	.04
303.15	.119	1383.8	.04
303.15	.2263	1329.5	.04
303.15	.3478	1271.9	.04
303.15	.4396	1230.2	.04
303.15	.5443	1184.5	.04
303.15	.6782	1128.8	.04
303.15	.819	1074.1	.04
303.15	.9692	1019.7	.04
303.15	1	1008.8	.04
308.15	0	1437.8	.04
308.15	.0195	1428.5	.04
308.15	.119	1377.2	.04
308.15	.2263	1323.9	.04
308.15	.3478	1266.3	.04
308.15	.4396	1225	.04
308.15	.5443	1179.6	.04
308.15	.6782	1124.7	.04
308.15	.819	1070.3	.04
308.15	.9692	1015.3	.04
308.15	1	1004.1	.04
313.15	0	1430.4	.04
313.15	.0195	1420	.04
313.15	.119	1369.5	.04
313.15	.2263	1316.9	.04
313.15	.3478	1260.1	.04
313.15	.4396	1219.2	.04
313.15	.5443	1174.2	.04
313.15	.6782	1119.5	.04
313.15	.819	1064.9	.04
313.15	.9692	1010.2	.04
313.15	1	999.5	.04

System: trichloroethylene + phenylacetonitrile; phases: Liquid
Fixed: Pressure, kPa = 101
Property: Viscosity, Pa*s (Liquid); method: Capillary tube (Ostwald; Ubbelohde) method
Temperature, K	Mole fraction of phenylacetonitrile	Viscosity, Pa*s	uncertainty
303.15	0	.0005172	.000005
303.15	.0195	.0005201	.000005
303.15	.119	.0005905	.000005
303.15	.2263	.0006901	.000005
303.15	.3478	.00082	.000005
303.15	.4396	.0009316	.000005
303.15	.5443	.0010655	.000005
303.15	.6782	.0012478	.000005
303.15	.819	.0014555	.000005
303.15	.9692	.0016982	.000005
303.15	1	.0017613	.000005
308.15	0	.0004992	.000005
308.15	.0195	.000486	.000005
308.15	.119	.000553	.000005
308.15	.2263	.0006417	.000005
308.15	.3478	.0007558	.000005
308.15	.4396	.0008529	.000005
308.15	.5443	.0009721	.000005
308.15	.6782	.0011471	.000005
308.15	.819	.0013395	.000005
308.15	.9692	.001546	.000005
308.15	1	.0016021	.000005
313.15	0	.0004833	.000005
313.15	.0195	.0004908	.000005
313.15	.119	.0005292	.000005
313.15	.2263	.0006092	.000005
313.15	.3478	.000715	.000005
313.15	.4396	.0007976	.000005
313.15	.5443	.0009137	.000005
313.15	.6782	.001075	.000005
313.15	.819	.0012478	.000005
313.15	.9692	.0014388	.000005
313.15	1	.0014893	.000005

System: trichloroethylene + phenylacetonitrile; phases: Liquid
Fixed: Pressure, kPa = 101
Property: Speed of sound, m/s (Liquid); method: Pulse-echo method
Temperature, K	Mole fraction of phenylacetonitrile	Speed of sound, m/s	uncertainty
303.15	0	1014.7	3.0441
303.15	.0195	1024.6	3.0738
303.15	.119	1073.5	3.2205
303.15	.2263	1128.2	3.3846
303.15	.3478	1191	3.573
303.15	.4396	1238.9	3.7167
303.15	.5443	1293.3	3.8799
303.15	.6782	1364.1	4.0923
303.15	.819	1435.8	4.3074
303.15	.9692	1504.1	4.5123
303.15	1	1519.2	4.5576
308.15	0	993.7	2.9811
308.15	.0195	1004.9	3.0147
308.15	.119	1057.5	3.1725
308.15	.2263	1114.1	3.3423
308.15	.3478	1179.2	3.5376
308.15	.4396	1228.9	3.6867
308.15	.5443	1284.6	3.8538
308.15	.6782	1356.5	4.0695
308.15	.819	1428.4	4.2852
308.15	.9692	1502.7	4.5081
308.15	1	1512.9	4.5387
313.15	0	982	2.946
313.15	.0195	992.5	2.9775
313.15	.119	1045.8	3.1374
313.15	.2263	1102.9	3.3087
313.15	.3478	1169.9	3.5097
313.15	.4396	1221.9	3.6657
313.15	.5443	1279.3	3.8379
313.15	.6782	1351	4.053
313.15	.819	1425	4.275
313.15	.9692	1499.2	4.4976
313.15	1	1503.4	4.5102

System: tetrachloroethene + phenylacetonitrile; phases: Liquid
Fixed: Pressure, kPa = 101.325
Property: Mass density, kg/m3 (Liquid); method: Vibrating tube method
Temperature, K	Mole fraction of phenylacetonitrile	Mass density, kg/m3	uncertainty
303.15	0	1607.2	.04
303.15	.0231	1591.9	.04
303.15	.1322	1520.1	.04
303.15	.249	1445.2	.04
303.15	.37	1369.8	.04
303.15	.4713	1308.3	.04
303.15	.5767	1245.7	.04
303.15	.7051	1171.4	.04
303.15	.8386	1096.5	.04
303.15	.972	1023.9	.04
303.15	1	1008.8	.04
308.15	0	1597.9	.04
308.15	.0231	1583	.04
308.15	.1322	1512.1	.04
308.15	.249	1438	.04
308.15	.37	1363.1	.04
308.15	.4713	1302	.04
308.15	.5767	1239.8	.04
308.15	.7051	1166.1	.04
308.15	.8386	1091.6	.04
308.15	.972	1019.2	.04
308.15	1	1004.1	.04
313.15	0	1590.6	.04
313.15	.0231	1575.7	.04
313.15	.1322	1505.3	.04
313.15	.249	1431.6	.04
313.15	.37	1357.1	.04
313.15	.4713	1296.2	.04
313.15	.5767	1234.3	.04
313.15	.7051	1160.8	.04
313.15	.8386	1086.6	.04
313.15	.972	1014.5	.04
313.15	1	999.5	.04

System: tetrachloroethene + phenylacetonitrile; phases: Liquid
Fixed: Pressure, kPa = 101
Property: Viscosity, Pa*s (Liquid); method: Capillary tube (Ostwald; Ubbelohde) method
Temperature, K	Mole fraction of phenylacetonitrile	Viscosity, Pa*s	uncertainty
303.15	0	.0007971	.000005
303.15	.0231	.0008124	.000005
303.15	.1322	.000884	.000005
303.15	.249	.0009577	.000005
303.15	.37	.0010605	.000005
303.15	.4713	.0011593	.000005
303.15	.5767	.0012686	.000005
303.15	.7051	.0014134	.000005
303.15	.8386	.0015715	.000005
303.15	.972	.0017262	.000005
303.15	1	.0017613	.000005
308.15	0	.0007657	.000005
308.15	.0231	.0007752	.000005
308.15	.1322	.0008382	.000005
308.15	.249	.0009171	.000005
308.15	.37	.0009982	.000005
308.15	.4713	.0010769	.000005
308.15	.5767	.0011718	.000005
308.15	.7051	.0012945	.000005
308.15	.8386	.0014299	.000005
308.15	.972	.0015697	.000005
308.15	1	.0016021	.000005
313.15	0	.0007395	.000005
313.15	.0231	.000746	.000005
313.15	.1322	.0008001	.000005
313.15	.249	.000868	.000005
313.15	.37	.0009342	.000005
313.15	.4713	.001003	.000005
313.15	.5767	.0010957	.000005
313.15	.7051	.0012069	.000005
313.15	.8386	.0013295	.000005
313.15	.972	.0014583	.000005
313.15	1	.0014893	.000005

System: tetrachloroethene + phenylacetonitrile; phases: Liquid
Fixed: Pressure, kPa = 101
Property: Speed of sound, m/s (Liquid); method: Pulse-echo method
Temperature, K	Mole fraction of phenylacetonitrile	Speed of sound, m/s	uncertainty
303.15	0	1028	3.084
303.15	.0231	1037.5	3.1125
303.15	.1322	1082.9	3.2487
303.15	.249	1133.9	3.4017
303.15	.37	1188.9	3.5667
303.15	.4713	1236.8	3.7104
303.15	.5767	1288.5	3.8655
303.15	.7051	1355	4.065
303.15	.8386	1428	4.284
303.15	.972	1504.1	4.5123
303.15	1	1519.2	4.5576
308.15	0	1014	3.042
308.15	.0231	1024.4	3.0732
308.15	.1322	1070.9	3.2127
308.15	.249	1123.3	3.3699
308.15	.37	1178.8	3.5364
308.15	.4713	1226.7	3.6801
308.15	.5767	1278.5	3.8355
308.15	.7051	1345	4.035
308.15	.8386	1419.2	4.2576
308.15	.972	1497.9	4.4937
308.15	1	1512.9	4.5387
313.15	0	996.6	2.9898
313.15	.0231	1010.5	3.0315
313.15	.1322	1060.1	3.1803
313.15	.249	1113.4	3.3402
313.15	.37	1168.9	3.5067
313.15	.4713	1216.8	3.6504
313.15	.5767	1268.9	3.8067
313.15	.7051	1335.7	4.0071
313.15	.8386	1409.3	4.2279
313.15	.972	1486.1	4.4583
313.15	1	1503.4	4.5102
