Measured thermophysical data. Surface Tension and Surface Properties of Binary Mixtures of 1,4-Dioxane or N,N-Dimethyl Formamide with n-Alkyl Acetates
Source: J. Chem. Eng. Data, 2009, 10.1021/je9002114
Compound 1: 1,4-dioxane, C4H8O2
Compound 2: N,N-dimethylformamide, C3H7NO
Compound 3: butyl ethanoate, C6H12O2
Compound 4: pentyl ethanoate, C7H14O2
Compound 5: hexyl ethanoate, C8H16O2

System: 1,4-dioxane; phases: Liquid
Fixed: Pressure, kPa = 101.325
Property: Mass density, kg/m3 (Liquid); method: Vibrating tube method
Temperature, K	Mass density, kg/m3	uncertainty
298.15	1027.82	

System: 1,4-dioxane; phases: Liquid, Gas
Property: Surface tension liquid-gas, N/m (Liquid); method: Ring tensiometer
Temperature, K	Surface tension liquid-gas, N/m	uncertainty
298.15	.03271	.0001

System: N,N-dimethylformamide; phases: Liquid
Fixed: Pressure, kPa = 101.325
Property: Mass density, kg/m3 (Liquid); method: Vibrating tube method
Temperature, K	Mass density, kg/m3	uncertainty
298.15	943.81	

System: N,N-dimethylformamide; phases: Liquid, Gas
Property: Surface tension liquid-gas, N/m (Liquid); method: Ring tensiometer
Temperature, K	Surface tension liquid-gas, N/m	uncertainty
298.15	.03698	.0001

System: butyl ethanoate; phases: Liquid
Fixed: Pressure, kPa = 101.325
Property: Mass density, kg/m3 (Liquid); method: Vibrating tube method
Temperature, K	Mass density, kg/m3	uncertainty
298.15	876.38	

System: butyl ethanoate; phases: Liquid, Gas
Property: Surface tension liquid-gas, N/m (Liquid); method: Ring tensiometer
Temperature, K	Surface tension liquid-gas, N/m	uncertainty
298.15	.02485	.0001

System: pentyl ethanoate; phases: Liquid
Fixed: Pressure, kPa = 101.325
Property: Mass density, kg/m3 (Liquid); method: Vibrating tube method
Temperature, K	Mass density, kg/m3	uncertainty
298.15	870.17	

System: pentyl ethanoate; phases: Liquid, Gas
Property: Surface tension liquid-gas, N/m (Liquid); method: Ring tensiometer
Temperature, K	Surface tension liquid-gas, N/m	uncertainty
298.15	.02521	.0001

System: hexyl ethanoate; phases: Liquid
Fixed: Pressure, kPa = 101.325
Property: Mass density, kg/m3 (Liquid); method: Vibrating tube method
Temperature, K	Mass density, kg/m3	uncertainty
298.15	868.52	

System: hexyl ethanoate; phases: Liquid, Gas
Property: Surface tension liquid-gas, N/m (Liquid); method: Ring tensiometer
Temperature, K	Surface tension liquid-gas, N/m	uncertainty
298.15	.02639	.0001

System: butyl ethanoate + 1,4-dioxane; phases: Liquid, Gas
Fixed: Temperature, K = 298.15
Property: Surface tension liquid-gas, N/m (Liquid); method: Ring tensiometer
Mole fraction of butyl ethanoate	Surface tension liquid-gas, N/m	uncertainty
.05	.03119	.0001
.0975	.03051	.0001
.1457	.02987	.0001
.1995	.02932	.0001
.2485	.02888	.0001
.2883	.02855	.0001
.3445	.02813	.0001
.3932	.02779	.0001
.4475	.02747	.0001
.4929	.02721	.0001
.5486	.02693	.0001
.592	.02669	.0001
.6429	.02645	.0001
.6933	.0262	.0001
.7466	.02597	.0001
.7954	.0258	.0001
.8438	.02556	.0001
.8901	.02536	.0001
.9419	.02516	.0001

System: 1,4-dioxane + pentyl ethanoate; phases: Liquid, Gas
Fixed: Temperature, K = 298.15
Property: Surface tension liquid-gas, N/m (Liquid); method: Ring tensiometer
Mole fraction of pentyl ethanoate	Surface tension liquid-gas, N/m	uncertainty
.05	.03235	.0001
.1026	.03165	.0001
.1516	.03105	.0001
.2062	.03052	.0001
.2562	.03005	.0001
.311	.02948	.0001
.3637	.02901	.0001
.4209	.02858	.0001
.4616	.02827	.0001
.5112	.02792	.0001
.5614	.02755	.0001
.6136	.0273	.0001
.6558	.02707	.0001
.7043	.02689	.0001
.7538	.02671	.0001
.8033	.02656	.0001
.8511	.02639	.0001
.8956	.02626	.0001
.9449	.02612	.0001

System: 1,4-dioxane + hexyl ethanoate; phases: Liquid, Gas
Fixed: Temperature, K = 298.15
Property: Surface tension liquid-gas, N/m (Liquid); method: Ring tensiometer
Mole fraction of hexyl ethanoate	Surface tension liquid-gas, N/m	uncertainty
.0467	.03256	.0001
.0925	.03206	.0001
.1414	.03156	.0001
.1905	.0311	.0001
.2422	.03062	.0001
.2921	.03017	.0001
.3417	.02979	.0001
.3934	.02943	.0001
.4434	.02911	.0001
.495	.02881	.0001
.5433	.02856	.0001
.5962	.02829	.0001
.6408	.02809	.0001
.6859	.02791	.0001
.7406	.02771	.0001
.7981	.02752	.0001
.8426	.02738	.0001
.8954	.02722	.0001
.9448	.02712	.0001

System: N,N-dimethylformamide + butyl ethanoate; phases: Liquid, Gas
Fixed: Temperature, K = 298.15
Property: Surface tension liquid-gas, N/m (Liquid); method: Ring tensiometer
Mole fraction of butyl ethanoate	Surface tension liquid-gas, N/m	uncertainty
.0508	.03502	.0001
.0995	.03345	.0001
.1441	.03235	.0001
.1809	.0317	.0001
.25	.0305	.0001
.2962	.02975	.0001
.3447	.02919	.0001
.3904	.02866	.0001
.4455	.02819	.0001
.4954	.02769	.0001
.5443	.02735	.0001
.5956	.02707	.0001
.648	.02666	.0001
.6993	.02636	.0001
.7466	.02616	.0001
.7935	.02581	.0001
.8467	.02565	.0001
.8983	.02547	.0001
.9464	.02526	.0001

System: N,N-dimethylformamide + pentyl ethanoate; phases: Liquid, Gas
Fixed: Temperature, K = 298.15
Property: Surface tension liquid-gas, N/m (Liquid); method: Ring tensiometer
Mole fraction of pentyl ethanoate	Surface tension liquid-gas, N/m	uncertainty
.05	.0349	.0001
.0941	.03408	.0001
.1466	.03324	.0001
.198	.03224	.0001
.2452	.03167	.0001
.2909	.03099	.0001
.3496	.03037	.0001
.3978	.02995	.0001
.4481	.0293	.0001
.4998	.02887	.0001
.5453	.02859	.0001
.5998	.02805	.0001
.6445	.02778	.0001
.6901	.02739	.0001
.7499	.02709	.0001
.7958	.02683	.0001
.8477	.02651	.0001
.8965	.02623	.0001
.9397	.02609	.0001

System: N,N-dimethylformamide + hexyl ethanoate; phases: Liquid, Gas
Fixed: Temperature, K = 298.15
Property: Surface tension liquid-gas, N/m (Liquid); method: Ring tensiometer
Mole fraction of hexyl ethanoate	Surface tension liquid-gas, N/m	uncertainty
.0495	.03578	.0001
.0964	.03506	.0001
.1435	.03443	.0001
.198	.03372	.0001
.2432	.03316	.0001
.299	.03251	.0001
.349	.03196	.0001
.397	.03146	.0001
.444	.03102	.0001
.4969	.03057	.0001
.5461	.03012	.0001
.5945	.02972	.0001
.6434	.02935	.0001
.6908	.02901	.0001
.7457	.02861	.0001
.7896	.02831	.0001
.8466	.02799	.0001
.8951	.02767	.0001
.9494	.02741	.0001
