Measured thermophysical data. Solubility of N-(Phosphonomethyl)iminodiacetic Acid in Different Binary Mixtures
Source: J. Chem. Eng. Data, 2010, 10.1021/je900764f
Compound 1: N-(carboxymethyl)-N-(phosphonomethyl)glycine, C5H10NO7P, purity 99.8%
Compound 2: ethanol, C2H6O
Compound 3: propan-1-ol, C3H8O
Compound 4: 2-propanol, C3H8O
Compound 5: water, H2O

System: ethanol + N-(carboxymethyl)-N-(phosphonomethyl)glycine + water; phases: Liquid, Crystal
Fixed: Pressure, kPa = 101
Property: Mole fraction of N-(carboxymethyl)-N-(phosphonomethyl)glycine (Liquid); method: laser monitoring observation technique
Solvent: Mole fraction of ethanol	Temperature, K	Mole fraction of N-(carboxymethyl)-N-(phosphonomethyl)glycine	uncertainty
0	292.96	.0005004	
0	298.6	.0005785	
0	305.06	.0006796	
0	308.25	.0007424	
0	313.15	.0008421	
0	318.07	.0009559	
0	322.65	.001062	
0	328.55	.001218	
0	334	.001399	
.0417	293.35	.0003283	
.0417	298.47	.0003849	
.0417	305.07	.0004691	
.0417	308.35	.000518	
.0417	313.53	.0005995	
.0417	318.8	.0006964	
.0417	323.67	.0007983	
.0417	328.85	.0009209	
.0417	334.15	.001079	
.0888	294.05	.000232	
.0888	298.95	.0002772	
.0888	303.66	.0003236	
.0888	308.85	.0003852	
.0888	313.6	.0004448	
.0888	318.77	.0005244	
.0888	322.85	.0005977	
.0888	328.53	.0007093	
.0888	333.43	.0008332	
.1443	293.67	.0001731	
.1443	299.05	.0002115	
.1443	303.85	.0002476	
.1443	308.8	.0002973	
.1443	313.45	.0003466	
.1443	318.35	.0004083	
.1443	322.8	.000467	
.1443	328.67	.0005577	
.1443	333.6	.0006543	
.2074	292.7	.0001308	
.2074	299.15	.0001648	
.2074	305.15	.0002018	
.2074	309.1	.000234	
.2074	312.65	.0002659	
.2074	317.65	.0003109	
.2074	322.68	.0003689	
.2074	328.6	.0004364	
.2074	332.8	.0005163	
.2801	293.43	.0001067	
.2801	299.04	.0001287	
.2801	304.07	.0001519	
.2801	309.13	.0001792	
.2801	313.2	.0002033	
.2801	317.52	.0002395	
.2801	323.13	.0002846	
.2801	329.13	.0003411	
.2801	333.87	.000408	
.3684	292.75	.0000796	
.3684	298.97	.0000984	
.3684	305.14	.0001177	
.3684	309.15	.0001341	
.3684	314.65	.0001583	
.3684	318.4	.0001777	
.3684	323.14	.0002107	
.3684	328.97	.000242	
.3684	333.4	.0002937	
.4774	292.97	.0000594	
.4774	298.38	.0000683	
.4774	303.65	.00008	
.4774	309.05	.0000905	
.4774	315.15	.0001081	
.4774	318.13	.000115	
.4774	323.35	.0001353	
.4774	328.65	.0001576	
.4774	333.95	.0002002	
.6095	292.85	.0000479	
.6095	300.2	.0000552	
.6095	303.37	.000058	
.6095	308.9	.0000644	
.6095	315.65	.0000737	
.6095	318.77	.0000766	
.6095	323.77	.0000897	
.6095	328.83	.0001026	
.6095	334.15	.0001263	

System: propan-1-ol + N-(carboxymethyl)-N-(phosphonomethyl)glycine + water; phases: Liquid, Crystal
Fixed: Pressure, kPa = 101
Property: Mole fraction of N-(carboxymethyl)-N-(phosphonomethyl)glycine (Liquid); method: laser monitoring observation technique
Solvent: Mole fraction of propan-1-ol	Temperature, K	Mole fraction of N-(carboxymethyl)-N-(phosphonomethyl)glycine	uncertainty
.0334	293.13	.0003227	
.0334	297.85	.0003855	
.0334	303.05	.0004534	
.0334	307.9	.0005272	
.0334	312.35	.0006099	
.0334	317.25	.0006962	
.0334	322.35	.0008011	
.0334	328.15	.0009257	
.0334	333.25	.001072	
.0693	293.35	.0002417	
.0693	297.95	.0003022	
.0693	303.15	.0003616	
.0693	308	.0004197	
.0693	312.35	.0004967	
.0693	317.3	.0005649	
.0693	322.25	.0006558	
.0693	327.6	.0007586	
.0693	332.7	.0008876	
.1144	293.35	.0002012	
.1144	298.2	.0002498	
.1144	302.85	.0002921	
.1144	307.39	.0003388	
.1144	312.8	.000399	
.1144	318.16	.000472	
.1144	322.15	.0005294	
.1144	327.8	.0006224	
.1144	332.8	.000727	
.1675	293.28	.0001671	
.1675	298.35	.0002079	
.1675	302.97	.0002383	
.1675	307.27	.0002727	
.1675	312.5	.0003178	
.1675	317.7	.0003802	
.1675	322	.0004278	
.1675	328.05	.0005039	
.1675	333.14	.0005867	
.2308	293.25	.0001424	
.2308	298.55	.0001662	
.2308	303.15	.0001912	
.2308	307.8	.000223	
.2308	312.75	.0002542	
.2308	317.9	.0002947	
.2308	323.05	.0003505	
.2308	327.85	.0003975	
.2308	332.65	.0004594	
.3105	293.45	.0001164	
.3105	298.56	.0001273	
.3105	303.15	.0001391	
.3105	308.15	.0001589	
.3105	312.2	.0001805	
.3105	316.95	.000206	
.3105	322.25	.0002504	
.3105	327.45	.0002818	
.3105	332.15	.0003258	

System: 2-propanol + N-(carboxymethyl)-N-(phosphonomethyl)glycine + water; phases: Liquid, Crystal
Fixed: Pressure, kPa = 101
Property: Mole fraction of N-(carboxymethyl)-N-(phosphonomethyl)glycine (Liquid); method: laser monitoring observation technique
Solvent: Mole fraction of 2-propanol	Temperature, K	Mole fraction of N-(carboxymethyl)-N-(phosphonomethyl)glycine	uncertainty
.0337	293.53	.0003087	
.0337	298.45	.0003541	
.0337	303.15	.0004149	
.0337	308.3	.0004914	
.0337	312.85	.0005602	
.0337	317.9	.0006472	
.0337	322.54	.0007445	
.0337	328.25	.0008722	
.0337	332.85	.001005	
.0722	293.7	.0002107	
.0722	298.35	.0002478	
.0722	302.73	.0002968	
.0722	307.85	.0003576	
.0722	312.2	.0004149	
.0722	317.07	.0004844	
.0722	321.77	.0005604	
.0722	327.66	.0006688	
.0722	332.5	.0007738	
.116	293.26	.0001627	
.116	298.95	.0001952	
.116	303.45	.0002343	
.116	307.97	.0002846	
.116	313.15	.0003275	
.116	317.75	.0003766	
.116	322.42	.0004463	
.116	327.8	.0005289	
.116	332.8	.0006142	
.1703	293.36	.0001293	
.1703	298.96	.0001598	
.1703	303.55	.0001832	
.1703	307.85	.0002112	
.1703	312.7	.000255	
.1703	317.27	.00028836	
.1703	322.2	.00034407	
.1703	328.66	.00040547	
.1703	333.25	.00047964	
.2323	293.21	.0000997	
.2323	298.4	.0001186	
.2323	302.85	.0001361	
.2323	307.85	.0001683	
.2323	313.03	.0001918	
.2323	317.75	.0002205	
.2323	322.15	.0002563	
.2323	327.75	.0002982	
.2323	333.15	.0003572	
.3099	293.35	.0000765	
.3099	299.45	.0000906	
.3099	303.05	.0001018	
.3099	307.7	.000119	
.3099	312.65	.0001372	
.3099	316.93	.0001524	
.3099	321.8	.0001746	
.3099	327.55	.0002069	
.3099	332.75	.0002454	

System: N-(carboxymethyl)-N-(phosphonomethyl)glycine + water; phases: Liquid, Crystal
Property: Mole fraction of N-(carboxymethyl)-N-(phosphonomethyl)glycine (Liquid); method: laser monitoring observation technique
Temperature, K	Pressure, kPa	Mole fraction of N-(carboxymethyl)-N-(phosphonomethyl)glycine	uncertainty
292.96	101	.0005004	
298.6	101	.0005785	
305.06	101	.0006796	
308.25	101	.0007424	
313.15	101	.0008421	
318.07	101	.0009559	
322.65	101	.001062	
328.55	101	.001218	
334	101	.001399	
