Measured thermophysical data. Solubility of Hydrogen Sulfide in Aqueous Solutions of Piperazine in the Low Gas-Loading Region
Source: J. Chem. Eng. Data, 2011, 10.1021/je900721q
Compound 1: hydrogen sulfide, H2S, purity 99%
Compound 2: hexahydro-1,4-diazine, C4H10N2, purity 99%
Compound 3: water, H2O

System: hexahydro-1,4-diazine + water + hydrogen sulfide; phases: Liquid, Gas
Property: Molality, mol/kg of hydrogen sulfide (Liquid); method: headspace gas chromatographic technique
Temperature, K	Molality, mol/kg of hexahydro-1,4-diazine	Partial pressure, kPa of hydrogen sulfide	Molality, mol/kg of hydrogen sulfide	uncertainty
313.5	1.99	1.26	1.035	.002
313.5	1.951	3.61	1.361	.001
313.5	1.99	3.84	1.492	.001
313.5	1.951	5.27	1.547	.002
313.5	1.99	10.9	1.761	.002
313.5	1.99	13.2	1.813	.002
313.5	2.039	21.1	1.92	.002
313.5	2.039	51.4	2.041	.003
313.5	2.039	73.7	2.081	.005
313.5	1.99	86	2.063	.005
392.2	2.026	2	.292	.001
392.2	1.991	3.99	.412	.001
392.2	2.026	5.43	.461	.001
392.2	1.951	6.97	.524	.002
392.2	1.951	10.3	.608	.002
392.2	1.991	14	.745	.001
392.2	2.026	16.8	.814	.002
392.2	1.951	24.7	.914	.002
392.2	1.991	28.1	1.032	.002
392.2	2.026	38.4	1.159	.002
392.2	2.026	50.1	1.278	.004
392.2	2.026	55.3	1.319	.002
392.2	1.951	61.8	1.328	.002
392.2	1.991	82.7	1.485	.003
392.2	1.951	98.7	1.538	.003
