Measured thermophysical data. Isothermal Vapor-Liquid Equilibria in the Two Binary and the Ternary Systems Composed of tert-Amyl Methyl Ether, tert-Butanol, and Isooctane
Source: J. Chem. Eng. Data, 2011, 10.1021/je901026b
Compound 1: tert-amyl methyl ether, C6H14O
Compound 2: tert-butanol, C4H10O
Compound 3: pentane, 2,2,4-trimethyl-, C8H18

System: tert-amyl methyl ether; phases: Liquid
Fixed: Pressure, kPa = 101.325
Property: Mass density, kg/m3 (Liquid); method: Vibrating tube method
Temperature, K	Mass density, kg/m3	uncertainty
298.15	765.85	

System: tert-amyl methyl ether; phases: Liquid
Fixed: Pressure, kPa = 101.325
Property: Refractive index (Na D-line) (Liquid); method: Standard Abbe refractometry
Temperature, K	Refractive index (Na D-line)	uncertainty
293.15	1.38614	

System: tert-amyl methyl ether; phases: Liquid, Gas
Property: Vapor or sublimation pressure, kPa (Liquid); method: Ebulliometric method (Recirculating still)
Temperature, K	Vapor or sublimation pressure, kPa	uncertainty
318.13	23.96	.02396
328.2	35.45	.03545
338.28	51.05	.05105
328.15	35.45	.03545
338.15	51.05	.05105

System: tert-butanol; phases: Liquid
Fixed: Pressure, kPa = 101.325
Property: Mass density, kg/m3 (Liquid); method: Vibrating tube method
Temperature, K	Mass density, kg/m3	uncertainty
298.15	780.44	

System: tert-butanol; phases: Liquid, Gas
Property: Vapor or sublimation pressure, kPa (Liquid); method: Ebulliometric method (Recirculating still)
Temperature, K	Vapor or sublimation pressure, kPa	uncertainty
318.13	17.95	.01795
328.2	30.35	.03035
338.28	48.93	.04893

System: pentane, 2,2,4-trimethyl-; phases: Liquid
Fixed: Pressure, kPa = 101.325
Property: Mass density, kg/m3 (Liquid); method: Vibrating tube method
Temperature, K	Mass density, kg/m3	uncertainty
298.15	687.8	

System: pentane, 2,2,4-trimethyl-; phases: Liquid
Fixed: Pressure, kPa = 101.325
Property: Refractive index (Na D-line) (Liquid); method: Standard Abbe refractometry
Temperature, K	Refractive index (Na D-line)	uncertainty
293.15	1.38894	

System: pentane, 2,2,4-trimethyl-; phases: Liquid, Gas
Property: Vapor or sublimation pressure, kPa (Liquid); method: Ebulliometric method (Recirculating still)
Temperature, K	Vapor or sublimation pressure, kPa	uncertainty
318.13	15.85	.01585
328.15	23.68	.02368
338.15	34.4	.0344

System: tert-butanol + tert-amyl methyl ether; phases: Gas, Liquid
Property: Mole fraction of tert-amyl methyl ether (Gas); method: Chromatography
Mole fraction of tert-amyl methyl ether	Temperature, K	Mole fraction of tert-amyl methyl ether	uncertainty
0	318.13	0	.001
.1459	318.13	.2653	.001
.1977	318.13	.3304	.001
.2475	318.13	.3871	.001
.3132	318.13	.4495	.001
.3817	318.13	.506	.001
.4566	318.13	.5595	.001
.4966	318.13	.5855	.001
.5665	318.13	.6288	.001
.6213	318.13	.6629	.001
.6893	318.13	.7044	.001
.7664	318.13	.7527	.001
.8562	318.13	.8214	.001
.9458	318.13	.9161	.001
.9816	318.13	.9685	.001
1	318.13	1	.001
0	328.2	0	.001
.1524	328.2	.2461	.001
.1998	328.2	.3058	.001
.2559	328.2	.361	.001
.3223	328.2	.4222	.001
.3893	328.2	.4761	.001
.4655	328.2	.5312	.001
.505	328.2	.5577	.001
.5727	328.2	.6022	.001
.6285	328.2	.6387	.001
.6961	328.2	.6829	.001
.771	328.2	.7354	.001
.8548	328.2	.8042	.001
.9481	328.2	.9142	.001
.9812	328.2	.967	.001
1	328.2	1	.001
0	338.28	0	.001
.1586	338.28	.2269	.001
.2089	338.28	.2833	.001
.2642	338.28	.3397	.001
.33	338.28	.3984	.001
.397	338.28	.4501	.001
.4735	338.28	.5062	.001
.5126	338.28	.533	.001
.5788	338.28	.5781	.001
.635	338.28	.6168	.001
.7018	338.28	.6639	.001
.8574	338.28	.7957	.001
.9481	338.28	.9105	.001
.9821	338.28	.9648	.001
1	338.28	1	.001

System: tert-butanol + tert-amyl methyl ether; phases: Gas, Liquid
Property: Vapor or sublimation pressure, kPa (Gas); method: Ebulliometric method (Recirculating still)
Mole fraction of tert-amyl methyl ether	Temperature, K	Vapor or sublimation pressure, kPa	uncertainty
0	318.13	17.95	.01795
.1459	318.13	21.34	.02134
.1977	318.13	22.23	.02223
.2475	318.13	23.02	.02302
.3132	318.13	23.86	.02386
.3817	318.13	24.56	.02456
.4566	318.13	25.22	.02522
.4966	318.13	25.52	.02552
.5665	318.13	25.87	.02587
.6213	318.13	26.09	.02609
.6893	318.13	26.16	.02616
.7664	318.13	26.19	.02619
.8562	318.13	25.9	.0259
.9458	318.13	25.07	.02507
.9816	318.13	24.48	.02448
1	318.13	23.96	.02396
0	328.2	30.35	.03035
.1524	328.2	34.66	.03466
.1998	328.2	35.68	.03568
.2559	328.2	36.74	.03674
.3223	328.2	37.74	.03774
.3893	328.2	38.52	.03852
.4655	328.2	39.28	.03928
.505	328.2	39.52	.03952
.5727	328.2	39.78	.03978
.6285	328.2	39.95	.03995
.6961	328.2	39.94	.03994
.771	328.2	39.6	.0396
.8548	328.2	38.95	.03895
.9481	328.2	37.3	.0373
.9812	328.2	36.22	.03622
1	328.2	35.45	.03545
0	338.28	48.93	.04893
.1586	338.28	54.33	.05433
.2089	338.28	55.53	.05553
.2642	338.28	56.7	.0567
.33	338.28	57.78	.05778
.397	338.28	58.61	.05861
.4735	338.28	59.29	.05929
.5126	338.28	59.43	.05943
.5788	338.28	59.52	.05952
.635	338.28	59.47	.05947
.7018	338.28	59.1	.0591
.8574	338.28	56.82	.05682
.9481	338.28	53.85	.05385
.9821	338.28	52.11	.05211
1	338.28	51.05	.05105

System: tert-butanol + tert-amyl methyl ether; phases: Liquid, Gas
Property: Azeotropic composition: mole fraction of tert-amyl methyl ether (Liquid); method: By X=Y
Temperature, K	Azeotropic composition: mole fraction of tert-amyl methyl ether	uncertainty
318.13	.7386	.001
328.2	.6549	.001
338.28	.577	.001

System: tert-butanol + tert-amyl methyl ether; phases: Liquid, Gas
Property: Azeotropic composition: mole fraction of tert-amyl methyl ether (Liquid); method: By X=Y
Pressure, kPa	Azeotropic composition: mole fraction of tert-amyl methyl ether	uncertainty
26.2	.7386	.001
39.98	.6549	.001
59.52	.577	.001

System: pentane, 2,2,4-trimethyl- + tert-amyl methyl ether; phases: Gas, Liquid
Property: Mole fraction of tert-amyl methyl ether (Gas); method: Chromatography
Mole fraction of tert-amyl methyl ether	Temperature, K	Mole fraction of tert-amyl methyl ether	uncertainty
0	318.13	0	.001
.0213	318.13	.0354	.001
.057	318.13	.0905	.001
.1314	318.13	.1983	.001
.2018	318.13	.2897	.001
.2918	318.13	.3942	.001
.4823	318.13	.584	.001
.5622	318.13	.6542	.001
.6328	318.13	.7121	.001
.6934	318.13	.7603	.001
.7633	318.13	.8178	.001
.8162	318.13	.859	.001
.8864	318.13	.9124	.001
.9129	318.13	.9329	.001
1	318.13	1	.001
0	328.15	0	.001
.0214	328.15	.0352	.001
.0573	328.15	.0906	.001
.1337	328.15	.1971	.001
.2032	328.15	.2896	.001
.2937	328.15	.3938	.001
.4922	328.15	.5911	.001
.5635	328.15	.6539	.001
.6356	328.15	.7151	.001
.6946	328.15	.761	.001
.7639	328.15	.8179	.001
.8168	328.15	.8577	.001
.8561	328.15	.8889	.001
.8862	328.15	.9122	.001
.9126	328.15	.9327	.001
.9345	328.15	.9495	.001
1	328.15	1	.001
0	338.15	0	.001
.0215	338.15	.0344	.001
.0577	338.15	.0908	.001
.1335	338.15	.1976	.001
.2049	338.15	.2868	.001
.2956	338.15	.3922	.001
.4977	338.15	.5936	.001
.5675	338.15	.6545	.001
.6376	338.15	.7152	.001
.6964	338.15	.7627	.001
.7646	338.15	.8177	.001
.8165	338.15	.858	.001
.856	338.15	.8886	.001
.887	338.15	.9128	.001
.8871	338.15	.913	.001
.9127	338.15	.9327	.001
.9341	338.15	.9492	.001
1	338.15	1	.001

System: pentane, 2,2,4-trimethyl- + tert-amyl methyl ether; phases: Liquid, Gas
Property: Vapor or sublimation pressure, kPa (Liquid); method: Ebulliometric method (Recirculating still)
Mole fraction of tert-amyl methyl ether	Temperature, K	Vapor or sublimation pressure, kPa	uncertainty
0	318.13	15.85	.01585
.0213	318.13	16.13	.01613
.057	318.13	16.48	.01648
.1314	318.13	17.31	.01731
.2018	318.13	18.02	.01802
.2918	318.13	18.87	.01887
.4823	318.13	20.43	.02043
.5622	318.13	21.02	.02102
.6328	318.13	21.64	.02164
.6934	318.13	22.11	.02211
.7633	318.13	22.69	.02269
.8162	318.13	23	.023
.8864	318.13	23.49	.02349
.9129	318.13	23.66	.02366
1	318.13	23.96	.02396
0	328.15	23.68	.02368
.0214	328.15	24.05	.02405
.0573	328.15	24.58	.02458
.1337	328.15	25.76	.02576
.2032	328.15	26.79	.02679
.2937	328.15	28.05	.02805
.4922	328.15	30.49	.03049
.5635	328.15	31.27	.03127
.6356	328.15	32.22	.03222
.6946	328.15	32.81	.03281
.7639	328.15	33.58	.03358
.8168	328.15	34.13	.03413
.8561	328.15	34.51	.03451
.8862	328.15	34.78	.03478
.9126	328.15	35.11	.03511
.9345	328.15	35.27	.03527
1	328.15	35.45	.03545
0	338.15	34.4	.0344
.0215	338.15	34.9	.0349
.0577	338.15	35.7	.0357
.1335	338.15	37.31	.03731
.2049	338.15	38.73	.03873
.2956	338.15	40.46	.04046
.4977	338.15	44.11	.04411
.5675	338.15	45.22	.04522
.6376	338.15	46.45	.04645
.6964	338.15	47.39	.04739
.7646	338.15	48.51	.04851
.8165	338.15	49.39	.04939
.856	338.15	49.78	.04978
.887	338.15	50.24	.05024
.8871	338.15	50.35	.05035
.9127	338.15	50.63	.05063
.9341	338.15	50.78	.05078
1	338.15	51.05	.05105

System: pentane, 2,2,4-trimethyl- + tert-amyl methyl ether; phases: Liquid, Gas
Property: Azeotropic composition: mole fraction of tert-amyl methyl ether (Liquid); method: By X=Y
Pressure, kPa	Azeotropic composition: mole fraction of tert-amyl methyl ether	uncertainty
24.84	.5062	.001
39	.5517	.001
59.49	.5963	.001

System: pentane, 2,2,4-trimethyl- + tert-amyl methyl ether; phases: Liquid, Gas
Property: Azeotropic composition: mole fraction of tert-amyl methyl ether (Liquid); method: By X=Y
Temperature, K	Azeotropic composition: mole fraction of tert-amyl methyl ether	uncertainty
318.13	.5062	.001
328.2	.5517	.001
338.28	.5963	.001

System: tert-butanol + pentane, 2,2,4-trimethyl- + tert-amyl methyl ether; phases: Liquid, Gas
Property: Mole fraction of tert-butanol (Liquid); method: Chromatography
Property: Mole fraction of tert-amyl methyl ether (Gas); method: Chromatography
Property: Mole fraction of tert-butanol (Gas); method: Chromatography
Temperature, K	Pressure, kPa	Mole fraction of tert-amyl methyl ether	Mole fraction of tert-butanol	uncertainty	Mole fraction of tert-amyl methyl ether	uncertainty	Mole fraction of tert-butanol	uncertainty
318.13	24.78	.0381	.6486	.001	.0461	.001	.555	.001
318.13	25.42	.219	.5243	.001	.2475	.001	.4609	.001
318.13	25.61	.2921	.4725	.001	.3197	.001	.426	.001
318.13	25.72	.3848	.4063	.001	.4045	.001	.3854	.001
318.13	25.88	.4643	.3523	.001	.4752	.001	.3488	.001
318.13	25.07	.3323	.5477	.001	.3929	.001	.4543	.001
318.13	25.67	.3058	.4945	.001	.3413	.001	.4324	.001
318.13	25.74	.2804	.4424	.001	.2997	.001	.4173	.001
318.13	25.46	.2482	.3755	.001	.2565	.001	.3953	.001
318.13	25.1	.2134	.3153	.001	.2164	.001	.38	.001
318.13	24.23	.1821	.2091	.001	.1847	.001	.3486	.001
318.13	23.3	.1376	.1253	.001	.146	.001	.3002	.001
318.13	21.2	.0912	.0514	.001	.1087	.001	.2331	.001
318.13	21.97	.1287	.8413	.001	.223	.001	.7049	.001
318.13	23.3	.1266	.7778	.001	.1882	.001	.6325	.001
318.13	24.4	.1187	.6964	.001	.1553	.001	.5682	.001
318.13	24.97	.108	.6113	.001	.1288	.001	.5222	.001
318.13	24.85	.0971	.5221	.001	.1079	.001	.4876	.001
318.13	25.29	.0856	.4468	.001	.0917	.001	.4587	.001
318.13	25.13	.0723	.3523	.001	.0751	.001	.4316	.001
318.13	24.75	.0605	.2878	.001	.0626	.001	.4038	.001
318.13	23.43	.0388	.1561	.001	.0412	.001	.3511	.001
318.13	22.63	.0299	.1152	.001	.0327	.001	.3229	.001
318.13	25.71	.493	.4188	.001	.5337	.001	.3694	.001
318.13	25.78	.4497	.3728	.001	.4652	.001	.3603	.001
318.13	25.57	.4028	.3235	.001	.4072	.001	.3432	.001
318.13	24.98	.3599	.2793	.001	.3576	.001	.3368	.001
318.13	24.52	.3181	.2299	.001	.315	.001	.3227	.001
318.13	23.89	.2767	.1634	.001	.2786	.001	.2974	.001
318.13	22.92	.2281	.1092	.001	.2385	.001	.2665	.001
318.13	24.98	.8455	.0975	.001	.8135	.001	.1409	.001
318.13	24.7	.7814	.0875	.001	.7586	.001	.1389	.001
318.13	24.04	.6963	.0751	.001	.6887	.001	.1363	.001
318.13	23.37	.5982	.0627	.001	.609	.001	.1337	.001
318.13	22.65	.512	.0499	.001	.5412	.001	.1274	.001
318.13	21.7	.4171	.0396	.001	.4615	.001	.1226	.001
318.13	20.64	.3118	.0279	.001	.3688	.001	.1115	.001
318.13	19.87	.2254	.019	.001	.2898	.001	.1032	.001
318.13	25.67	.6385	.3174	.001	.6498	.001	.3069	.001
318.13	25.84	.5956	.2901	.001	.5938	.001	.3006	.001
318.13	25.42	.5334	.2518	.001	.5232	.001	.292	.001
318.13	25.33	.4681	.2123	.001	.457	.001	.2839	.001
328.2	39.03	.0388	.642	.001	.0432	.001	.5839	.001
328.2	39.56	.2244	.5126	.001	.236	.001	.4877	.001
328.2	39.7	.2961	.4645	.001	.3034	.001	.4565	.001
328.2	39.7	.3913	.3962	.001	.3893	.001	.4097	.001
328.2	39.66	.4724	.3405	.001	.4591	.001	.3718	.001
328.2	39.56	.3394	.5381	.001	.3735	.001	.4828	.001
328.2	39.85	.3124	.4834	.001	.3258	.001	.4606	.001
328.2	39.8	.2847	.4327	.001	.2853	.001	.4458	.001
328.2	39.4	.2523	.3686	.001	.2458	.001	.425	.001
328.2	38.52	.2161	.2991	.001	.2094	.001	.392	.001
328.2	37.49	.1861	.2108	.001	.1819	.001	.3513	.001
328.2	35.55	.1386	.1129	.001	.1429	.001	.3266	.001
328.2	31.96	.0941	.0563	.001	.1079	.001	.2376	.001
328.2	35.59	.1335	.8348	.001	.2057	.001	.7282	.001
328.2	37.3	.1304	.7699	.001	.1751	.001	.6588	.001
328.2	38.66	.1214	.6887	.001	.1452	.001	.5976	.001
328.2	39.31	.1107	.5996	.001	.1212	.001	.5518	.001
328.2	39.22	.0987	.5143	.001	.1019	.001	.5155	.001
328.2	39.39	.087	.4413	.001	.087	.001	.4873	.001
328.2	38.86	.0735	.34	.001	.0716	.001	.4578	.001
328.2	38.21	.0615	.28	.001	.0599	.001	.4283	.001
328.2	35.96	.0391	.1459	.001	.0399	.001	.3655	.001
328.2	34.52	.0295	.0974	.001	.032	.001	.3413	.001
328.2	39.5	.4995	.4108	.001	.5097	.001	.3987	.001
328.2	39.31	.4593	.3566	.001	.4479	.001	.3849	.001
328.2	39.22	.4068	.3178	.001	.3926	.001	.3683	.001
328.2	38.4	.3654	.2588	.001	.3458	.001	.3593	.001
328.2	37.7	.3212	.221	.001	.3059	.001	.3411	.001
328.2	36.66	.2803	.1657	.001	.2721	.001	.3151	.001
328.2	34.73	.2295	.1075	.001	.2343	.001	.2796	.001
328.2	37.47	.8476	.0954	.001	.8067	.001	.1485	.001
328.2	36.96	.7829	.0853	.001	.7529	.001	.1457	.001
328.2	35.78	.6976	.0739	.001	.684	.001	.1427	.001
328.2	34.91	.5986	.0601	.001	.6063	.001	.1366	.001
328.2	33.88	.5131	.0496	.001	.5385	.001	.1317	.001
328.2	32.6	.4101	.036	.001	.4594	.001	.1253	.001
328.2	30.89	.3133	.0285	.001	.3672	.001	.1142	.001
328.2	29.46	.2143	.0147	.001	.2883	.001	.101	.001
328.2	39.36	.6486	.3066	.001	.6294	.001	.3289	.001
328.2	39.46	.6008	.2837	.001	.5762	.001	.3216	.001
328.2	38.89	.5375	.2464	.001	.509	.001	.312	.001
328.2	38.42	.4714	.2072	.001	.446	.001	.3014	.001
338.28	59.8	.0396	.6347	.001	.0407	.001	.6103	.001
338.28	59.75	.2283	.5042	.001	.2237	.001	.5175	.001
338.28	59.78	.3	.4566	.001	.2896	.001	.4823	.001
338.28	59.33	.3963	.3883	.001	.374	.001	.4347	.001
338.28	59.03	.4754	.337	.001	.444	.001	.394	.001
338.28	59.77	.3471	.5266	.001	.3555	.001	.5092	.001
338.28	60.02	.3168	.4759	.001	.3099	.001	.4869	.001
338.28	59.87	.2874	.427	.001	.2728	.001	.4711	.001
338.28	58.96	.2556	.3596	.001	.2365	.001	.4478	.001
338.28	57.81	.2183	.2935	.001	.2006	.001	.4235	.001
338.28	55.58	.1884	.2179	.001	.1758	.001	.3824	.001
338.28	52.03	.1407	.117	.001	.141	.001	.333	.001
338.28	46.87	.0919	.0523	.001	.1072	.001	.2511	.001
338.28	55.6	.1378	.829	.001	.1922	.001	.746	.001
338.28	57.66	.1327	.7654	.001	.1632	.001	.6834	.001
338.28	59.24	.1241	.6803	.001	.1363	.001	.624	.001
338.28	59.88	.1125	.5931	.001	.1145	.001	.5779	.001
338.28	59.82	.1003	.5057	.001	.0967	.001	.5405	.001
338.28	59.39	.0882	.4342	.001	.0827	.001	.5131	.001
338.28	58.44	.0743	.3484	.001	.0686	.001	.4796	.001
338.28	57.16	.0623	.2778	.001	.0576	.001	.4522	.001
338.28	54.83	.0459	.1783	.001	.0441	.001	.407	.001
338.28	52.85	.0395	.1422	.001	.039	.001	.3774	.001
338.28	50.99	.0305	.1103	.001	.0314	.001	.3523	.001
338.28	58.93	.5044	.4039	.001	.4889	.001	.4243	.001
338.28	58.42	.4647	.3481	.001	.4331	.001	.4057	.001
338.28	58.35	.4101	.3127	.001	.3786	.001	.3933	.001
338.28	57.24	.3675	.2584	.001	.3366	.001	.3767	.001
338.28	55.83	.3235	.2134	.001	.2986	.001	.3582	.001
338.28	53.92	.2819	.1603	.001	.2668	.001	.3285	.001
338.28	50.97	.2271	.0941	.001	.2317	.001	.283	.001
338.28	54.52	.8489	.0939	.001	.8005	.001	.1553	.001
338.28	53.7	.7842	.0844	.001	.7483	.001	.1515	.001
338.28	52.42	.6985	.0729	.001	.6802	.001	.1479	.001
338.28	50.79	.5992	.0593	.001	.6038	.001	.1403	.001
338.28	49.24	.5143	.0496	.001	.5364	.001	.1347	.001
338.28	47.32	.4181	.0389	.001	.4578	.001	.1267	.001
338.28	45.43	.3114	.0283	.001	.366	.001	.1161	.001
338.28	42.89	.2285	.0201	.001	.2869	.001	.1012	.001
338.28	58.69	.6503	.3046	.001	.6116	.001	.3484	.001
338.28	58.68	.6052	.2783	.001	.5613	.001	.3403	.001
338.28	57.59	.5412	.2413	.001	.4969	.001	.3297	.001
338.28	56.61	.4742	.2042	.001	.4366	.001	.3179	.001
