Measured thermophysical data. Improvements in the Experimentation and the Representation of Thermodynamic Properties (iso-p VLE and yE) of Alkyl Propanoate + Alkane Binaries
Source: J. Chem. Eng. Data, 2014, 10.1021/je4009415
Compound 1: pentane, C5H12, purity 99%
Compound 2: heptane, C7H16, purity 99%
Compound 3: nonane, C9H20, purity 99%
Compound 4: methyl propanoate, C4H8O2, purity 97.8%
Compound 5: ethyl propanoate, C5H10O2, purity 98%
Compound 6: water, H2O, purity 99.9%

System: pentane; phases: Liquid
Fixed: Pressure, kPa = 101.325
Property: Refractive index (Na D-line) (Liquid); method: Standard Abbe refractometry
Temperature, K	Refractive index (Na D-line)	uncertainty
298.15	1.3547	.0002

System: pentane; phases: Liquid, Gas
Property: Vapor or sublimation pressure, kPa (Liquid); method: Ebulliometric method (Recirculating still)
Temperature, K	Vapor or sublimation pressure, kPa	uncertainty
298.91	70	.02
299.82	72.5	.02
300.77	75	.02
301.65	77.5	.02
302.52	80	.02
303.38	82.5	.02
304.22	85	.02
305.02	87.5	.02
305.81	90	.02
306.62	92.5	.02
307.37	95	.02
308.12	97.5	.02
308.87	100	.02
309.23	101.32	.02
310.28	105	.02
311.64	110	.02
312.97	115	.02
314.26	120	.02
315.5	125	.02
316.7	130	.02
317.87	135	.02
319.01	140	.02
320.11	145	.02
321.17	150	.02
322.24	155	.02
323.25	160	.02
324.26	165	.02
325.24	170	.02
326.18	175	.02
327.12	180	.02
328.03	185	.02
328.93	190	.02
329.8	195	.02
330.66	200	.02
331.51	205	.02
332.34	210	.02
333.15	215	.02
333.95	220	.02
334.73	225	.02
335.5	230	.02
336.28	235	.02
337.02	240	.02
337.75	245	.02
338.47	250	.02
339.19	255	.02
339.89	260	.02
340.59	265	.02
341.27	270	.02
341.94	275	.02
342.6	280	.02

System: pentane; phases: Liquid, Gas
Property: Mass density, kg/m3 (Liquid); method: Vibrating tube method
Temperature, K	Mass density, kg/m3	uncertainty
288.15	630.78	.02
298.15	620.9	.02

System: pentane; phases: Liquid
Property: Mass density, kg/m3 (Liquid); method: Vibrating tube method
Temperature, K	Pressure, kPa	Mass density, kg/m3	uncertainty
298.15	101	620.91	.02

System: heptane; phases: Liquid
Fixed: Pressure, kPa = 101.325
Property: Refractive index (Na D-line) (Liquid); method: Standard Abbe refractometry
Temperature, K	Refractive index (Na D-line)	uncertainty
298.15	1.3853	.0002

System: heptane; phases: Liquid, Gas
Property: Mass density, kg/m3 (Liquid); method: Vibrating tube method
Temperature, K	Mass density, kg/m3	uncertainty
288.15	688.16	.02
298.15	679.62	.02
308.15	670.96	.02
318.15	662.33	.02
328.15	653.61	.02

System: heptane; phases: Liquid, Gas
Property: Vapor or sublimation pressure, kPa (Liquid); method: Ebulliometric method (Recirculating still)
Temperature, K	Vapor or sublimation pressure, kPa	uncertainty
371.38	101.32	.02

System: nonane; phases: Liquid
Fixed: Pressure, kPa = 101.325
Property: Refractive index (Na D-line) (Liquid); method: Standard Abbe refractometry
Temperature, K	Refractive index (Na D-line)	uncertainty
298.15	1.4032	.0002

System: nonane; phases: Liquid, Gas
Property: Mass density, kg/m3 (Liquid); method: Vibrating tube method
Temperature, K	Mass density, kg/m3	uncertainty
288.15	721.65	.02
298.15	713.85	.02
308.15	705.96	.02
318.15	698.06	.02
328.15	690.17	.02

System: nonane; phases: Liquid, Gas
Property: Vapor or sublimation pressure, kPa (Liquid); method: Ebulliometric method (Recirculating still)
Temperature, K	Vapor or sublimation pressure, kPa	uncertainty
423.9	101.32	.02

System: methyl propanoate; phases: Liquid
Fixed: Pressure, kPa = 101.325
Property: Refractive index (Na D-line) (Liquid); method: Standard Abbe refractometry
Temperature, K	Refractive index (Na D-line)	uncertainty
298.15	1.3743	.0002

System: methyl propanoate; phases: Liquid, Gas
Property: Vapor or sublimation pressure, kPa (Liquid); method: Ebulliometric method (Recirculating still)
Temperature, K	Vapor or sublimation pressure, kPa	uncertainty
335.15	55	.02
336.38	57.5	.02
337.53	60	.02
338.61	62.5	.02
339.76	65	.02
340.79	67.5	.02
341.81	70	.02
342.79	72.5	.02
343.75	75	.02
344.68	77.5	.02
345.59	80	.02
346.49	82.5	.02
347.35	85	.02
348.2	87.5	.02
349.03	90	.02
349.83	92.5	.02
350.62	95	.02
352.34	100	.02
352.72	101.32	.02
353.81	105	.02
355.23	110	.02
356.53	115	.02
357.87	120	.02
359.16	125	.02
360.42	130	.02
361.65	135	.02
362.8	140	.02
363.97	145	.02
365.05	150	.02
366.15	155	.02
367.22	160	.02
368.27	165	.02
369.26	170	.02
370.25	175	.02
371.22	180	.02
372.2	185	.02
373.12	190	.02
374.01	195	.02
374.9	200	.02
375.77	205	.02
376.63	210	.02
377.52	215	.02
378.3	220	.02
379.14	225	.02
379.96	230	.02
380.72	235	.02
381.51	240	.02
382.25	245	.02
383.03	250	.02
383.74	255	.02
384.47	260	.02
385.21	265	.02
385.87	270	.02
386.61	275	.02
387.28	280	.02
352.75	101.32	.02

System: methyl propanoate; phases: Liquid, Gas
Property: Mass density, kg/m3 (Liquid); method: Vibrating tube method
Temperature, K	Mass density, kg/m3	uncertainty
288.15	921.21	.02
298.15	909.1	.02
308.15	896.91	.02
318.15	884.71	.02
328.15	872.22	.02

System: ethyl propanoate; phases: Liquid
Fixed: Pressure, kPa = 101.325
Property: Refractive index (Na D-line) (Liquid); method: Standard Abbe refractometry
Temperature, K	Refractive index (Na D-line)	uncertainty
298.15	1.3811	.0002

System: ethyl propanoate; phases: Liquid, Gas
Property: Vapor or sublimation pressure, kPa (Liquid); method: Ebulliometric method (Recirculating still)
Temperature, K	Vapor or sublimation pressure, kPa	uncertainty
348.07	45	.02
349.55	47.5	.02
350.96	50	.02
352.34	52.5	.02
353.66	55	.02
354.91	57.5	.02
356.15	60	.02
357.32	62.5	.02
358.48	65	.02
359.57	67.5	.02
360.66	70	.02
361.72	72.5	.02
362.74	75	.02
363.71	77.5	.02
364.69	80	.02
365.63	82.5	.02
366.55	85	.02
367.47	87.5	.02
368.35	90	.02
369.21	92.5	.02
370.06	95	.02
370.87	97.5	.02
371.73	100	.02
372.18	101.32	.02
373.31	105	.02
374.84	110	.02
376.29	115	.02
377.7	120	.02
379.08	125	.02
380.4	130	.02
381.67	135	.02
382.91	140	.02
384.15	145	.02
385.32	150	.02
386.47	155	.02
387.6	160	.02
388.69	165	.02
389.77	170	.02
390.81	175	.02
391.83	180	.02
392.85	185	.02
393.81	190	.02
394.77	195	.02
395.72	200	.02
396.64	205	.02
397.55	210	.02
398.43	215	.02
399.31	220	.02
400.17	225	.02
401	230	.02
401.83	235	.02
402.65	240	.02
403.46	245	.02
404.25	250	.02
405.04	255	.02
405.79	260	.02
406.56	265	.02
407.3	270	.02
408.03	275	.02
408.75	280	.02
372.09	101.32	.02

System: ethyl propanoate; phases: Liquid, Gas
Property: Mass density, kg/m3 (Liquid); method: Vibrating tube method
Temperature, K	Mass density, kg/m3	uncertainty
288.15	895.58	.02
298.15	884.15	.02
308.15	872.62	.02
318.15	861.08	.02
328.15	849.41	.02

System: pentane + methyl propanoate; phases: Liquid
Fixed: Pressure, kPa = 101
Property: Mass density, kg/m3 (Liquid); method: Vibrating tube method
Temperature, K	Mole fraction of methyl propanoate	Mass density, kg/m3	uncertainty
288.15	0	630.78	.02
288.15	.0597	644.23	.02
288.15	.0925	651.9	.02
288.15	.1507	665.97	.02
288.15	.204	679.21	.02
288.15	.2614	693.95	.02
288.15	.3127	707.38	.02
288.15	.3382	714.27	.02
288.15	.3927	729.16	.02
288.15	.442	743.09	.02
288.15	.4985	759.2	.02
288.15	.5461	773.25	.02
288.15	.5926	787.12	.02
288.15	.6407	801.96	.02
288.15	.69	817.19	.02
288.15	.7581	839.01	.02
288.15	.8072	855.11	.02
288.15	.8487	868.74	.02
288.15	.8891	882.39	.02
288.15	.9538	904.73	.02
288.15	1	921.21	.02
298.15	0	620.91	.02
298.15	.0641	635.16	.02
298.15	.0938	642.1	.02
298.15	.1482	654.98	.02
298.15	.2099	670.19	.02
298.15	.2574	682.36	.02
298.15	.3135	696.99	.02
298.15	.3389	703.72	.02
298.15	.3942	718.75	.02
298.15	.4459	733.12	.02
298.15	.4999	748.56	.02
298.15	.5478	762.56	.02
298.15	.5921	775.9	.02
298.15	.6434	791.33	.02
298.15	.6898	805.83	.02
298.15	.7559	826.88	.02
298.15	.8051	842.74	.02
298.15	.8499	857.54	.02
298.15	.8915	871.51	.02
298.15	.9601	894.98	.02
298.15	1	909.1	.02

System: pentane + methyl propanoate; phases: Liquid, Gas
Property: Boiling temperature at pressure P, K (Liquid); method: Ebulliometric method (Recirculating still)
Mole fraction of methyl propanoate	Pressure, kPa	Boiling temperature at pressure P, K	uncertainty
0	101.32	309.23	.01
.023	101.32	309.45	.01
.03	101.32	309.56	.01
.048	101.32	309.78	.01
.074	101.32	310.11	.01
.109	101.32	310.6	.01
.153	101.32	311.09	.01
.187	101.32	311.65	.01
.23	101.32	312.3	.01
.268	101.32	312.83	.01
.308	101.32	313.48	.01
.33	101.32	313.88	.01
.373	101.32	314.47	.01
.404	101.32	315	.01
.436	101.32	315.58	.01
.469	101.32	316.27	.01
.504	101.32	317.04	.01
.546	101.32	317.95	.01
.607	101.32	319.91	.01
.633	101.32	320.46	.01
.69	101.32	322.85	.01
.731	101.32	324.81	.01
.792	101.32	328.54	.01
.823	101.32	330.73	.01
.897	101.32	336.98	.01
.921	101.32	339.82	.01
.936	101.32	341.77	.01
.948	101.32	343.64	.01
.968	101.32	346.76	.01
.979	101.32	348.47	.01
.986	101.32	349.75	.01
.99	101.32	350.56	.01
.994	101.32	351.35	.01
.997	101.32	352.01	.01
1	101.32	352.75	.01

System: pentane + methyl propanoate; phases: Gas, Liquid
Property: Mole fraction of methyl propanoate (Gas); method: Density calibration data
Mole fraction of methyl propanoate	Pressure, kPa	Mole fraction of methyl propanoate	uncertainty
0	101.32	0	.002
.023	101.32	.012	.002
.03	101.32	.016	.002
.048	101.32	.026	.002
.074	101.32	.037	.002
.109	101.32	.052	.002
.153	101.32	.065	.002
.187	101.32	.079	.002
.23	101.32	.093	.002
.268	101.32	.105	.002
.308	101.32	.117	.002
.33	101.32	.124	.002
.373	101.32	.134	.002
.404	101.32	.144	.002
.436	101.32	.153	.002
.469	101.32	.164	.002
.504	101.32	.176	.002
.546	101.32	.191	.002
.607	101.32	.218	.002
.633	101.32	.228	.002
.69	101.32	.263	.002
.731	101.32	.297	.002
.792	101.32	.362	.002
.823	101.32	.401	.002
.897	101.32	.539	.002
.921	101.32	.609	.002
.936	101.32	.662	.002
.948	101.32	.71	.002
.968	101.32	.805	.002
.979	101.32	.862	.002
.986	101.32	.903	.002
.99	101.32	.93	.002
.994	101.32	.959	.002
.997	101.32	.979	.002
1	101.32	1	.002

System: heptane + methyl propanoate; phases: Liquid, Gas
Property: Mass density, kg/m3 (Liquid); method: Vibrating tube method
Temperature, K	Mole fraction of methyl propanoate	Mass density, kg/m3	uncertainty
288.15	0	688.16	.02
288.15	.0584	696.1	.02
288.15	.1524	710.11	.02
288.15	.2121	719.49	.02
288.15	.2626	728.22	.02
288.15	.2841	731.88	.02
288.15	.3577	745.5	.02
288.15	.4021	754.13	.02
288.15	.4565	765.31	.02
288.15	.5036	775.51	.02
288.15	.5554	787.28	.02
288.15	.6032	798.81	.02
288.15	.651	810.73	.02
288.15	.7008	824.05	.02
288.15	.742	835.61	.02
288.15	.7927	850.46	.02
288.15	.8457	866.96	.02
288.15	.953	903.48	.02
288.15	1	921.21	.02
298.15	0	679.62	.02
298.15	.0606	687.94	.02
298.15	.1046	694.01	.02
298.15	.1706	703.97	.02
298.15	.2332	713.99	.02
298.15	.2863	722.89	.02
298.15	.332	730.95	.02
298.15	.3827	740.59	.02
298.15	.4242	748.73	.02
298.15	.4831	760.98	.02
298.15	.5328	771.82	.02
298.15	.5887	784.89	.02
298.15	.6395	797.24	.02
298.15	.6831	808.46	.02
298.15	.733	821.94	.02
298.15	.7758	834.28	.02
298.15	.8196	847.29	.02
298.15	.8646	861.68	.02
298.15	.9035	874.46	.02
298.15	.9591	893.83	.02
298.15	1	909.1	.02
308.15	0	670.96	.02
308.15	.046	676.88	.02
308.15	.0974	683.97	.02
308.15	.1499	691.6	.02
308.15	.2093	700.71	.02
308.15	.2472	706.83	.02
308.15	.2655	709.84	.02
308.15	.3021	716.16	.02
308.15	.3462	723.99	.02
308.15	.3973	733.51	.02
308.15	.4379	741.49	.02
308.15	.5001	754.33	.02
308.15	.5482	764.86	.02
308.15	.6013	777.11	.02
308.15	.6438	787.52	.02
308.15	.7002	801.92	.02
308.15	.7516	815.93	.02
308.15	.7947	828.3	.02
308.15	.8541	846.5	.02
308.15	.8904	858.19	.02
308.15	.9494	878.31	.02
308.15	1	896.91	.02
318.15	0	662.33	.02
318.15	.054	669.26	.02
318.15	.1006	675.53	.02
318.15	.1635	684.64	.02
318.15	.1984	689.88	.02
318.15	.2627	699.98	.02
318.15	.2892	704.22	.02
318.15	.3492	714.64	.02
318.15	.3962	723.32	.02
318.15	.4482	733.48	.02
318.15	.5006	744.15	.02
318.15	.554	755.69	.02
318.15	.5928	764.54	.02
318.15	.6531	779.07	.02
318.15	.7022	791.53	.02
318.15	.7463	803.36	.02
318.15	.796	817.45	.02
318.15	.8421	831.26	.02
318.15	.8911	846.73	.02
318.15	.9487	866.17	.02
318.15	1	884.71	.02
328.15	0	653.61	.02
328.15	.0434	659.02	.02
328.15	.1	666.42	.02
328.15	.1539	673.86	.02
328.15	.2137	682.78	.02
328.15	.263	690.45	.02
328.15	.361	707.07	.02
328.15	.3858	711.54	.02
328.15	.4619	725.95	.02
328.15	.5057	734.85	.02
328.15	.5548	745.3	.02
328.15	.6006	755.62	.02
328.15	.6513	767.59	.02
328.15	.7013	780.04	.02
328.15	.7484	792.52	.02
328.15	.7954	805.67	.02
328.15	.8441	820.03	.02
328.15	.8954	836.18	.02
328.15	.9351	849.33	.02
328.15	1	872.22	.02

System: heptane + methyl propanoate; phases: Liquid, Gas
Property: Boiling temperature at pressure P, K (Liquid); method: Ebulliometric method (Recirculating still)
Mole fraction of methyl propanoate	Pressure, kPa	Boiling temperature at pressure P, K	uncertainty
0	101.32	371.38	.01
.018	101.32	369.65	.01
.032	101.32	368.32	.01
.057	101.32	366.14	.01
.119	101.32	362.51	.01
.163	101.32	360.13	.01
.189	101.32	359.19	.01
.208	101.32	358.6	.01
.27	101.32	356.95	.01
.32	101.32	355.9	.01
.338	101.32	355.53	.01
.363	101.32	355	.01
.382	101.32	354.75	.01
.401	101.32	354.45	.01
.416	101.32	354.28	.01
.439	101.32	354.02	.01
.454	101.32	353.83	.01
.485	101.32	353.5	.01
.515	101.32	353.2	.01
.541	101.32	352.94	.01
.593	101.32	352.55	.01
.612	101.32	352.43	.01
.635	101.32	352.32	.01
.688	101.32	352.29	.01
.711	101.32	352.22	.01
.738	101.32	352.08	.01
.766	101.32	351.98	.01
.795	101.32	351.92	.01
.824	101.32	351.88	.01
.851	101.32	351.86	.01
.88	101.32	351.91	.01
.902	101.32	351.95	.01
.924	101.32	352.05	.01
.94	101.32	352.14	.01
.956	101.32	352.26	.01
.97	101.32	352.38	.01
.981	101.32	352.53	.01
.987	101.32	352.6	.01
.992	101.32	352.65	.01
1	101.32	352.75	.01
.568	101.32	352.74	.01

System: heptane + methyl propanoate; phases: Gas, Liquid
Property: Mole fraction of methyl propanoate (Gas); method: Density calibration data
Mole fraction of methyl propanoate	Pressure, kPa	Mole fraction of methyl propanoate	uncertainty
0	101.32	0	.002
.018	101.32	.053	.002
.032	101.32	.094	.002
.057	101.32	.162	.002
.119	101.32	.291	.002
.163	101.32	.365	.002
.189	101.32	.401	.002
.208	101.32	.424	.002
.27	101.32	.483	.002
.32	101.32	.525	.002
.338	101.32	.542	.002
.363	101.32	.561	.002
.382	101.32	.573	.002
.401	101.32	.585	.002
.416	101.32	.595	.002
.439	101.32	.609	.002
.454	101.32	.618	.002
.485	101.32	.635	.002
.515	101.32	.651	.002
.541	101.32	.667	.002
.593	101.32	.695	.002
.612	101.32	.705	.002
.635	101.32	.717	.002
.688	101.32	.745	.002
.711	101.32	.758	.002
.738	101.32	.775	.002
.766	101.32	.791	.002
.795	101.32	.81	.002
.824	101.32	.83	.002
.851	101.32	.851	.002
.88	101.32	.873	.002
.902	101.32	.891	.002
.924	101.32	.91	.002
.94	101.32	.929	.002
.956	101.32	.944	.002
.97	101.32	.961	.002
.981	101.32	.975	.002
.987	101.32	.983	.002
.992	101.32	.989	.002
1	101.32	1	.002
.568	101.32	.68	.002

System: heptane + methyl propanoate; phases: Liquid, Gas
Property: Azeotropic temperature, K (Liquid); method: By X=Y
Pressure, kPa	Azeotropic temperature, K	uncertainty
101.32	351.86	.01

System: heptane + methyl propanoate; phases: Liquid, Gas
Property: Azeotropic composition: mole fraction of methyl propanoate (Liquid); method: By X=Y
Pressure, kPa	Azeotropic composition: mole fraction of methyl propanoate	uncertainty
101.32	.844	.003

System: nonane + methyl propanoate; phases: Liquid, Gas
Property: Mass density, kg/m3 (Liquid); method: Vibrating tube method
Temperature, K	Mole fraction of methyl propanoate	Mass density, kg/m3	uncertainty
288.15	0	721.65	.02
288.15	.0638	727.45	.02
288.15	.0962	730.67	.02
288.15	.1483	736.11	.02
288.15	.2104	743.23	.02
288.15	.2364	746.3	.02
288.15	.2979	754.2	.02
288.15	.3526	761.75	.02
288.15	.4001	768.71	.02
288.15	.4322	773.78	.02
288.15	.4985	784.9	.02
288.15	.5504	794.42	.02
288.15	.5954	803.25	.02
288.15	.6449	813.66	.02
288.15	.693	824.65	.02
288.15	.7454	837.57	.02
288.15	.7911	849.84	.02
288.15	.8391	863.79	.02
288.15	.8911	880.25	.02
288.15	.9477	900.31	.02
288.15	1	921.21	.02
298.15	0	713.85	.02
298.15	.0519	718.48	.02
298.15	.1041	723.58	.02
298.15	.1448	727.66	.02
298.15	.1889	732.52	.02
298.15	.2498	739.65	.02
298.15	.2949	745.26	.02
298.15	.3489	752.48	.02
298.15	.409	761.11	.02
298.15	.4474	767.1	.02
298.15	.5033	776.37	.02
298.15	.6015	794.61	.02
298.15	.6609	807.17	.02
298.15	.7048	817.21	.02
298.15	.751	828.64	.02
298.15	.7937	839.79	.02
298.15	.8444	854.36	.02
298.15	.9002	871.96	.02
298.15	.9516	890.02	.02
298.15	1	909.1	.02
308.15	0	705.96	.02
308.15	.0618	711.31	.02
308.15	.1007	715.02	.02
308.15	.165	721.49	.02
308.15	.1941	724.61	.02
308.15	.2601	732.22	.02
308.15	.2902	735.94	.02
308.15	.3585	744.82	.02
308.15	.4102	752.25	.02
308.15	.4567	759.29	.02
308.15	.4962	765.69	.02
308.15	.5559	776.15	.02
308.15	.5986	784.17	.02
308.15	.6514	794.91	.02
308.15	.699	805.43	.02
308.15	.7476	817.03	.02
308.15	.796	829.48	.02
308.15	.8477	844.14	.02
308.15	.8947	858.8	.02
308.15	.9504	877.94	.02
308.15	1	896.91	.02
318.15	0	698.06	.02
318.15	.0587	703.05	.02
318.15	.1139	708.17	.02
318.15	.141	710.78	.02
318.15	.2148	718.51	.02
318.15	.2624	723.9	.02
318.15	.3145	730.23	.02
318.15	.3621	736.39	.02
318.15	.394	740.75	.02
318.15	.4491	748.79	.02
318.15	.4889	755.06	.02
318.15	.5458	764.61	.02
318.15	.6011	774.72	.02
318.15	.6538	785.15	.02
318.15	.6972	794.52	.02
318.15	.7464	805.96	.02
318.15	.7904	816.99	.02
318.15	.8414	831.04	.02
318.15	.8899	845.62	.02
318.15	.9498	865.72	.02
318.15	1	884.71	.02
328.15	0	690.17	.02
328.15	.0562	694.8	.02
328.15	.0989	698.61	.02
328.15	.1503	703.45	.02
328.15	.1813	706.43	.02
328.15	.194	707.71	.02
328.15	.2651	715.48	.02
328.15	.3128	721.06	.02
328.15	.3582	726.72	.02
328.15	.4509	739.58	.02
328.15	.5045	747.9	.02
328.15	.5545	756.22	.02
328.15	.6005	764.42	.02
328.15	.6523	774.55	.02
328.15	.7484	795.44	.02
328.15	.7963	807.38	.02
328.15	.8469	821.01	.02
328.15	.9004	836.96	.02
328.15	.9501	853.63	.02
328.15	1	872.22	.02

System: nonane + methyl propanoate; phases: Liquid, Gas
Property: Boiling temperature at pressure P, K (Liquid); method: Ebulliometric method (Recirculating still)
Mole fraction of methyl propanoate	Pressure, kPa	Boiling temperature at pressure P, K	uncertainty
0	101.32	423.9	.01
.01	101.32	420.88	.01
.02	101.32	418	.01
.04	101.32	412.86	.01
.059	101.32	408.4	.01
.079	101.32	403.88	.01
.094	101.32	400.83	.01
.11	101.32	398.08	.01
.133	101.32	394.5	.01
.147	101.32	392.6	.01
.183	101.32	387.71	.01
.211	101.32	384.71	.01
.242	101.32	382.29	.01
.28	101.32	379.14	.01
.316	101.32	376.09	.01
.37	101.32	372.6	.01
.41	101.32	370.15	.01
.454	101.32	368.03	.01
.492	101.32	366.24	.01
.533	101.32	364.62	.01
.568	101.32	363.3	.01
.61	101.32	361.9	.01
.636	101.32	361.07	.01
.674	101.32	360.03	.01
.716	101.32	358.96	.01
.749	101.32	358.14	.01
.78	101.32	357.41	.01
.804	101.32	356.75	.01
.818	101.32	356.34	.01
.834	101.32	356.12	.01
.844	101.32	355.89	.01
.864	101.32	355.53	.01
.869	101.32	355.4	.01
.896	101.32	354.85	.01
.92	101.32	354.39	.01
.933	101.32	354.13	.01
.946	101.32	353.89	.01
.956	101.32	353.69	.01
.966	101.32	353.53	.01
.974	101.32	353.37	.01
.982	101.32	353.17	.01
.989	101.32	352.99	.01
.993	101.32	352.79	.01
1	101.32	352.75	.01

System: nonane + methyl propanoate; phases: Gas, Liquid
Property: Mole fraction of methyl propanoate (Gas); method: Density calibration data
Mole fraction of methyl propanoate	Pressure, kPa	Mole fraction of methyl propanoate	uncertainty
0	101.32	0	.002
.01	101.32	.076	.002
.02	101.32	.149	.002
.04	101.32	.271	.002
.059	101.32	.366	.002
.079	101.32	.453	.002
.094	101.32	.506	.002
.11	101.32	.552	.002
.133	101.32	.608	.002
.147	101.32	.634	.002
.183	101.32	.699	.002
.211	101.32	.735	.002
.242	101.32	.762	.002
.28	101.32	.794	.002
.316	101.32	.818	.002
.37	101.32	.846	.002
.41	101.32	.863	.002
.454	101.32	.877	.002
.492	101.32	.89	.002
.533	101.32	.902	.002
.568	101.32	.91	.002
.61	101.32	.919	.002
.636	101.32	.924	.002
.674	101.32	.932	.002
.716	101.32	.939	.002
.749	101.32	.946	.002
.78	101.32	.952	.002
.804	101.32	.957	.002
.818	101.32	.96	.002
.834	101.32	.963	.002
.844	101.32	.965	.002
.864	101.32	.968	.002
.869	101.32	.969	.002
.896	101.32	.975	.002
.92	101.32	.98	.002
.933	101.32	.983	.002
.946	101.32	.986	.002
.956	101.32	.988	.002
.966	101.32	.99	.002
.974	101.32	.992	.002
.982	101.32	.995	.002
.989	101.32	.996	.002
.993	101.32	.998	.002
1	101.32	1	.002

System: ethyl propanoate + pentane; phases: Liquid, Gas
Property: Mass density, kg/m3 (Liquid); method: Vibrating tube method
Temperature, K	Mole fraction of ethyl propanoate	Mass density, kg/m3	uncertainty
288.15	0	630.78	.02
288.15	.0503	643.39	.02
288.15	.1017	656.5	.02
288.15	.1511	669.25	.02
288.15	.2025	682.62	.02
288.15	.2551	696.41	.02
288.15	.3012	708.53	.02
288.15	.3525	722.09	.02
288.15	.3947	733.28	.02
288.15	.4496	747.92	.02
288.15	.5009	761.7	.02
288.15	.5519	775.33	.02
288.15	.5987	787.9	.02
288.15	.6449	800.24	.02
288.15	.6974	814.34	.02
288.15	.7488	828.17	.02
288.15	.7974	841.13	.02
288.15	.8477	854.65	.02
288.15	.8951	867.4	.02
288.15	.9482	881.6	.02
288.15	1	895.58	.02
298.15	0	620.9	.02
298.15	.0545	634.55	.02
298.15	.1013	646.47	.02
298.15	.1538	659.85	.02
298.15	.2051	673.1	.02
298.15	.254	685.81	.02
298.15	.3038	698.8	.02
298.15	.3594	713.37	.02
298.15	.4062	725.7	.02
298.15	.4575	739.37	.02
298.15	.5083	752.81	.02
298.15	.56	766.57	.02
298.15	.606	778.84	.02
298.15	.6559	792.17	.02
298.15	.7061	805.64	.02
298.15	.7498	817.26	.02
298.15	.8007	830.93	.02
298.15	.8535	844.98	.02
298.15	.9054	858.85	.02
298.15	.9511	871.06	.02
298.15	1	884.15	.02

System: ethyl propanoate + pentane; phases: Liquid, Gas
Property: Boiling temperature at pressure P, K (Liquid); method: Ebulliometric method (Recirculating still)
Mole fraction of ethyl propanoate	Pressure, kPa	Boiling temperature at pressure P, K	uncertainty
0	101.32	309.23	.01
.016	101.32	309.67	.01
.032	101.32	309.99	.01
.044	101.32	310.3	.01
.057	101.32	310.56	.01
.073	101.32	310.88	.01
.086	101.32	311.19	.01
.101	101.32	311.51	.01
.123	101.32	311.94	.01
.139	101.32	312.32	.01
.139	101.32	312.33	.01
.16	101.32	312.72	.01
.176	101.32	312.93	.01
.179	101.32	313.14	.01
.198	101.32	313.57	.01
.214	101.32	313.88	.01
.237	101.32	314.43	.01
.251	101.32	314.57	.01
.26	101.32	314.91	.01
.288	101.32	315.56	.01
.318	101.32	316.16	.01
.346	101.32	316.88	.01
.368	101.32	317.51	.01
.402	101.32	318.18	.01
.442	101.32	319.65	.01
.468	101.32	320.45	.01
.493	101.32	321.3	.01
.531	101.32	323.15	.01
.548	101.32	323.87	.01
.568	101.32	324.73	.01
.59	101.32	325.59	.01
.637	101.32	327.89	.01
.661	101.32	329.08	.01
.692	101.32	330.95	.01
.71	101.32	332.17	.01
.723	101.32	332.92	.01
.736	101.32	333.98	.01
.743	101.32	334.77	.01
.761	101.32	336.18	.01
.772	101.32	337.59	.01
.815	101.32	341.21	.01
.851	101.32	345.64	.01
.865	101.32	347.59	.01
.872	101.32	348.44	.01
.884	101.32	350.18	.01
.912	101.32	354.59	.01
.926	101.32	356.79	.01
.929	101.32	357.62	.01
.934	101.32	358.21	.01
.953	101.32	362.15	.01
.96	101.32	363.44	.01
.978	101.32	367.35	.01
.991	101.32	370.1	.01
1	101.32	372.09	.01

System: ethyl propanoate + pentane; phases: Gas, Liquid
Property: Mole fraction of ethyl propanoate (Gas); method: Density calibration data
Mole fraction of ethyl propanoate	Pressure, kPa	Mole fraction of ethyl propanoate	uncertainty
0	101.32	0	.002
.016	101.32	.003	.002
.032	101.32	.006	.002
.044	101.32	.009	.002
.057	101.32	.011	.002
.073	101.32	.014	.002
.086	101.32	.017	.002
.101	101.32	.02	.002
.123	101.32	.023	.002
.139	101.32	.027	.002
.139	101.32	.027	.002
.16	101.32	.03	.002
.176	101.32	.032	.002
.179	101.32	.033	.002
.198	101.32	.037	.002
.214	101.32	.039	.002
.237	101.32	.043	.002
.251	101.32	.044	.002
.26	101.32	.047	.002
.288	101.32	.052	.002
.318	101.32	.057	.002
.346	101.32	.062	.002
.368	101.32	.067	.002
.402	101.32	.072	.002
.442	101.32	.082	.002
.468	101.32	.088	.002
.493	101.32	.095	.002
.531	101.32	.109	.002
.548	101.32	.115	.002
.568	101.32	.122	.002
.59	101.32	.129	.002
.637	101.32	.149	.002
.661	101.32	.16	.002
.692	101.32	.178	.002
.71	101.32	.19	.002
.723	101.32	.198	.002
.736	101.32	.209	.002
.743	101.32	.217	.002
.761	101.32	.235	.002
.772	101.32	.25	.002
.815	101.32	.299	.002
.851	101.32	.364	.002
.865	101.32	.394	.002
.872	101.32	.41	.002
.884	101.32	.44	.002
.912	101.32	.525	.002
.926	101.32	.57	.002
.929	101.32	.589	.002
.934	101.32	.604	.002
.953	101.32	.701	.002
.96	101.32	.733	.002
.978	101.32	.844	.002
.991	101.32	.933	.002
1	101.32	1	.002

System: ethyl propanoate + heptane; phases: Liquid, Gas
Property: Mass density, kg/m3 (Liquid); method: Vibrating tube method
Temperature, K	Mole fraction of ethyl propanoate	Mass density, kg/m3	uncertainty
288.15	0	688.16	.02
288.15	.0524	695.91	.02
288.15	.0988	703.07	.02
288.15	.1463	710.63	.02
288.15	.1941	718.6	.02
288.15	.2514	728.31	.02
288.15	.3018	737.02	.02
288.15	.3473	745.24	.02
288.15	.4004	755.32	.02
288.15	.4483	764.49	.02
288.15	.5023	775.33	.02
288.15	.5493	785.04	.02
288.15	.6523	807.55	.02
288.15	.7155	821.91	.02
288.15	.7532	830.95	.02
288.15	.7965	841.54	.02
288.15	.8566	856.59	.02
288.15	.9037	868.82	.02
288.15	.9502	881.54	.02
288.15	1	895.58	.02
298.15	0	679.62	.02
298.15	.0502	687.02	.02
298.15	.0966	693.85	.02
298.15	.1618	704.16	.02
298.15	.24	717.15	.02
298.15	.3102	729.24	.02
298.15	.401	745.76	.02
298.15	.4502	755.12	.02
298.15	.5047	765.87	.02
298.15	.598	785.24	.02
298.15	.6478	796.11	.02
298.15	.6968	807.1	.02
298.15	.7456	818.46	.02
298.15	.7933	829.93	.02
298.15	.8547	845.07	.02
298.15	.9029	857.64	.02
298.15	.952	870.77	.02
298.15	1	884.15	.02
308.15	0	670.96	.02
308.15	.0489	677.99	.02
308.15	.0972	685.13	.02
308.15	.1622	695.08	.02
308.15	.2109	702.86	.02
308.15	.2409	707.93	.02
308.15	.3084	719.36	.02
308.15	.352	727.08	.02
308.15	.4029	736.28	.02
308.15	.44	743.31	.02
308.15	.5033	755.53	.02
308.15	.5515	765.29	.02
308.15	.6049	776.34	.02
308.15	.6546	787.12	.02
308.15	.6957	796.27	.02
308.15	.7472	808.1	.02
308.15	.8001	820.72	.02
308.15	.8549	834.09	.02
308.15	.8932	843.97	.02
308.15	.949	858.62	.02
308.15	1	872.62	.02
318.15	0	662.33	.02
318.15	.0535	669.87	.02
318.15	.0979	676.31	.02
318.15	.1459	683.47	.02
318.15	.2045	692.71	.02
318.15	.262	702.04	.02
318.15	.3009	708.59	.02
318.15	.3494	717.01	.02
318.15	.4057	727.08	.02
318.15	.4487	735.05	.02
318.15	.5052	745.9	.02
318.15	.552	755.16	.02
318.15	.5969	764.38	.02
318.15	.6529	776.27	.02
318.15	.7022	787.15	.02
318.15	.7467	797.21	.02
318.15	.7935	808.2	.02
318.15	.8452	820.6	.02
318.15	.8929	832.6	.02
318.15	.9484	847.05	.02
318.15	1	861.08	.02
328.15	0	653.61	.02
328.15	.0528	660.86	.02
328.15	.1065	668.58	.02
328.15	.1619	676.84	.02
328.15	.2123	684.53	.02
328.15	.2511	690.83	.02
328.15	.3081	700.22	.02
328.15	.3519	707.73	.02
328.15	.4084	717.71	.02
328.15	.4478	724.83	.02
328.15	.5074	736.13	.02
328.15	.5522	744.86	.02
328.15	.6033	755.17	.02
328.15	.6454	764.1	.02
328.15	.7023	776.34	.02
328.15	.7443	785.77	.02
328.15	.7989	798.4	.02
328.15	.8593	812.97	.02
328.15	.8983	822.61	.02
328.15	.9494	835.87	.02
328.15	1	849.41	.02

System: ethyl propanoate + heptane; phases: Liquid, Gas
Property: Boiling temperature at pressure P, K (Liquid); method: Ebulliometric method (Recirculating still)
Mole fraction of ethyl propanoate	Pressure, kPa	Boiling temperature at pressure P, K	uncertainty
0	101.32	371.38	.01
.007	101.32	371.37	.01
.019	101.32	371.06	.01
.028	101.32	370.83	.01
.044	101.32	370.44	.01
.064	101.32	370.01	.01
.083	101.32	369.66	.01
.103	101.32	369.27	.01
.123	101.32	368.95	.01
.145	101.32	368.64	.01
.169	101.32	368.31	.01
.201	101.32	367.96	.01
.235	101.32	367.6	.01
.272	101.32	367.35	.01
.308	101.32	367.12	.01
.347	101.32	366.91	.01
.381	101.32	366.77	.01
.412	101.32	366.67	.01
.437	101.32	366.63	.01
.466	101.32	366.61	.01
.494	101.32	366.63	.01
.518	101.32	366.65	.01
.543	101.32	366.69	.01
.567	101.32	366.73	.01
.589	101.32	366.79	.01
.609	101.32	366.86	.01
.641	101.32	366.99	.01
.671	101.32	367.18	.01
.701	101.32	367.38	.01
.702	101.32	367.35	.01
.731	101.32	367.58	.01
.759	101.32	367.82	.01
.784	101.32	368.1	.01
.81	101.32	368.38	.01
.84	101.32	368.78	.01
.89	101.32	369.59	.01
.909	101.32	369.92	.01
.926	101.32	370.29	.01
.941	101.32	370.62	.01
.957	101.32	371	.01
.97	101.32	371.32	.01
.976	101.32	371.47	.01
.982	101.32	371.65	.01
.989	101.32	371.85	.01
.994	101.32	371.97	.01
1	101.32	372.09	.01

System: ethyl propanoate + heptane; phases: Gas, Liquid
Property: Mole fraction of ethyl propanoate (Gas); method: Density calibration data
Mole fraction of ethyl propanoate	Pressure, kPa	Mole fraction of ethyl propanoate	uncertainty
0	101.32	0	.002
.007	101.32	.012	.002
.019	101.32	.032	.002
.028	101.32	.046	.002
.044	101.32	.072	.002
.064	101.32	.1	.002
.083	101.32	.127	.002
.103	101.32	.152	.002
.123	101.32	.178	.002
.145	101.32	.202	.002
.169	101.32	.228	.002
.201	101.32	.26	.002
.235	101.32	.293	.002
.272	101.32	.325	.002
.308	101.32	.354	.002
.347	101.32	.384	.002
.381	101.32	.41	.002
.412	101.32	.433	.002
.437	101.32	.45	.002
.466	101.32	.471	.002
.494	101.32	.491	.002
.518	101.32	.508	.002
.543	101.32	.525	.002
.567	101.32	.541	.002
.589	101.32	.558	.002
.609	101.32	.572	.002
.641	101.32	.596	.002
.671	101.32	.619	.002
.701	101.32	.646	.002
.702	101.32	.642	.002
.731	101.32	.669	.002
.759	101.32	.693	.002
.784	101.32	.715	.002
.81	101.32	.748	.002
.84	101.32	.78	.002
.89	101.32	.838	.002
.909	101.32	.859	.002
.926	101.32	.885	.002
.941	101.32	.905	.002
.957	101.32	.929	.002
.97	101.32	.948	.002
.976	101.32	.958	.002
.982	101.32	.969	.002
.989	101.32	.98	.002
.994	101.32	.988	.002
1	101.32	1	.002

System: ethyl propanoate + heptane; phases: Liquid, Gas
Property: Azeotropic temperature, K (Liquid); method: By X=Y
Pressure, kPa	Azeotropic temperature, K	uncertainty
101.32	366.61	.01

System: ethyl propanoate + heptane; phases: Liquid, Gas
Property: Azeotropic composition: mole fraction of heptane (Liquid); method: By X=Y
Pressure, kPa	Azeotropic composition: mole fraction of heptane	uncertainty
101.32	.481	.003

System: ethyl propanoate + nonane; phases: Liquid, Gas
Property: Mass density, kg/m3 (Liquid); method: Vibrating tube method
Temperature, K	Mole fraction of ethyl propanoate	Mass density, kg/m3	uncertainty
288.15	0	721.65	.02
288.15	.0545	727.07	.02
288.15	.1159	733.36	.02
288.15	.1434	736.52	.02
288.15	.2218	745.49	.02
288.15	.2412	747.88	.02
288.15	.3158	757.46	.02
288.15	.3579	763.17	.02
288.15	.4121	770.89	.02
288.15	.462	778.51	.02
288.15	.5039	785.25	.02
288.15	.5537	793.58	.02
288.15	.6035	802.47	.02
288.15	.6328	807.91	.02
288.15	.6935	819.81	.02
288.15	.7463	830.79	.02
288.15	.7907	840.69	.02
288.15	.895	866.09	.02
288.15	.9488	880.62	.02
288.15	1	895.58	.02
298.15	0	713.85	.02
298.15	.0538	718.94	.02
298.15	.0883	722.45	.02
298.15	.142	728.05	.02
298.15	.2152	736.31	.02
298.15	.3007	746.83	.02
298.15	.3555	754.11	.02
298.15	.4078	761.4	.02
298.15	.4592	769.02	.02
298.15	.4988	775.19	.02
298.15	.5511	783.72	.02
298.15	.5917	790.84	.02
298.15	.6562	802.56	.02
298.15	.6962	810.32	.02
298.15	.741	819.48	.02
298.15	.7883	829.57	.02
298.15	.8559	845.47	.02
298.15	.9034	857.27	.02
298.15	.9521	870.29	.02
298.15	1	884.15	.02
308.15	0	705.96	.02
308.15	.0558	711.17	.02
308.15	.089	714.43	.02
308.15	.1555	721.34	.02
308.15	.2171	728.16	.02
308.15	.2586	733.03	.02
308.15	.3081	739.12	.02
308.15	.3829	748.94	.02
308.15	.4013	751.5	.02
308.15	.4533	759.02	.02
308.15	.5068	767.11	.02
308.15	.5509	774.2	.02
308.15	.6035	783.03	.02
308.15	.6525	791.81	.02
308.15	.6998	800.82	.02
308.15	.7473	810.39	.02
308.15	.794	820.41	.02
308.15	.8533	833.93	.02
308.15	.9006	845.51	.02
308.15	.9506	858.66	.02
308.15	1	872.62	.02
318.15	0	698.06	.02
318.15	.0516	702.64	.02
318.15	.0909	706.6	.02
318.15	.1617	713.7	.02
318.15	.219	719.88	.02
318.15	.2413	722.49	.02
318.15	.2923	728.44	.02
318.15	.3518	735.96	.02
318.15	.4062	743.15	.02
318.15	.4541	749.92	.02
318.15	.5056	757.57	.02
318.15	.556	765.57	.02
318.15	.6001	772.83	.02
318.15	.6514	781.78	.02
318.15	.6939	789.72	.02
318.15	.7552	801.69	.02
318.15	.7988	810.87	.02
318.15	.8559	823.94	.02
318.15	.9062	835.91	.02
318.15	.9524	847.95	.02
318.15	1	861.08	.02
328.15	0	690.17	.02
328.15	.0514	694.83	.02
328.15	.0965	699.04	.02
328.15	.1572	705.05	.02
328.15	.2061	710.14	.02
328.15	.2627	716.42	.02
328.15	.3163	722.76	.02
328.15	.3619	728.36	.02
328.15	.4059	734.14	.02
328.15	.4602	741.6	.02
328.15	.5053	748.09	.02
328.15	.5543	755.65	.02
328.15	.6024	763.42	.02
328.15	.6525	772.01	.02
328.15	.6996	780.61	.02
328.15	.7535	791.02	.02
328.15	.8019	801	.02
328.15	.8606	813.96	.02
328.15	.8933	821.83	.02
328.15	.9504	836	.02
328.15	1	849.41	.02

System: ethyl propanoate + nonane; phases: Liquid, Gas
Property: Boiling temperature at pressure P, K (Liquid); method: Ebulliometric method (Recirculating still)
Mole fraction of ethyl propanoate	Pressure, kPa	Boiling temperature at pressure P, K	uncertainty

System: ethyl propanoate + nonane; phases: Gas, Liquid
Property: Mole fraction of ethyl propanoate (Gas); method: Density calibration data
Mole fraction of ethyl propanoate	Pressure, kPa	Mole fraction of ethyl propanoate	uncertainty
