Measured thermophysical data. Studies on Thermodynamic Properties of FOX-7 and Its Five Closed-Loop Derivatives
Source: J. Chem. Eng. Data, 2015, 10.1021/acs.jced.5b00021
Compound 1: 1,1-diamino-2,2-dinitroethene, C2H4N4O4, purity 99.5%
Compound 2: 2-(dinitromethylene)-1,3-diazacyclopentane, C4H6N4O4, purity 99.5%
Compound 3: 2-(dinitromethylene)-1,3-diazacyclohexane, C5H8N4O4, purity 99.5%
Compound 4: 2-(dinitromethylene)-4-methylimidazolidine, C5H8N4O4, purity 99.5%
Compound 5: 2-(dinitromethylene)imidazolidine-4,5-diol, C4H6N4O6, purity 99.5%
Compound 6: 2-(dinitromethylene)-1,3-diazacycloheptane, C6H10N4O4, purity 99.5%
Compound 7: carbon dioxide, CO2
Compound 8: molecular nitrogen, N2
Compound 9: water, H2O
Compound 10: molecular oxygen, O2

System: 1,1-diamino-2,2-dinitroethene; phases: Crystal
Fixed: Pressure, kPa = 101.325
Property: Molar heat capacity at constant pressure, J/K/mol (Crystal); method: Small sample (50 mg) scanning calorimetry
Temperature, K	Molar heat capacity at constant pressure, J/K/mol	uncertainty
283	169.5489894	
293	174.13939872	
303	178.72980804	
313	183.32021736	
323	187.91062668	
333	192.501036	
343	197.09144532	
353	201.68185464	
298	176.50864224	

System: 2-(dinitromethylene)-1,3-diazacyclopentane; phases: Crystal
Fixed: Pressure, kPa = 101.325
Property: Molar heat capacity at constant pressure, J/K/mol (Crystal); method: Small sample (50 mg) scanning calorimetry
Temperature, K	Molar heat capacity at constant pressure, J/K/mol	uncertainty
283	197.44641	
293	202.66986	
303	207.89331	
313	213.290875	
323	218.514325	
333	223.737775	
343	229.13534	
353	234.35879	
298	205.281585	

System: 2-(dinitromethylene)-1,3-diazacyclohexane; phases: Crystal
Fixed: Pressure, kPa = 101.325
Property: Molar heat capacity at constant pressure, J/K/mol (Crystal); method: Small sample (50 mg) scanning calorimetry
Temperature, K	Molar heat capacity at constant pressure, J/K/mol	uncertainty
283	200.18264112	
293	205.26246378	
303	210.15414486	
313	215.04582594	
323	220.1256486	
333	225.01732968	
343	230.09715234	
353	234.98883342	
298	207.70830432	

System: 2-(dinitromethylene)-4-methylimidazolidine; phases: Crystal
Fixed: Pressure, kPa = 101.325
Property: Molar heat capacity at constant pressure, J/K/mol (Crystal); method: Small sample (50 mg) scanning calorimetry
Temperature, K	Molar heat capacity at constant pressure, J/K/mol	uncertainty
283	209.7778617	
293	215.79839226	
303	221.81892282	
313	227.83945338	
323	233.85998394	
333	239.8805145	
343	245.90104506	
353	251.92157562	
298	218.80865754	

System: 2-(dinitromethylene)imidazolidine-4,5-diol; phases: Crystal
Fixed: Pressure, kPa = 101.325
Property: Molar heat capacity at constant pressure, J/K/mol (Crystal); method: Small sample (50 mg) scanning calorimetry
Temperature, K	Molar heat capacity at constant pressure, J/K/mol	uncertainty
283	206.9382552	
293	213.9461244	
303	221.1601074	
313	228.3740904	
323	235.5880734	
333	242.8020564	
343	250.0160394	
353	257.0239086	
298	217.6561728	

System: 2-(dinitromethylene)-1,3-diazacycloheptane; phases: Crystal
Fixed: Pressure, kPa = 101.325
Property: Molar heat capacity at constant pressure, J/K/mol (Crystal); method: Small sample (50 mg) scanning calorimetry
Temperature, K	Molar heat capacity at constant pressure, J/K/mol	uncertainty
283	204.59417792	
293	211.67006352	
303	218.74594912	
313	226.02400288	
323	233.09988848	
333	240.17577408	
343	247.25165968	
353	254.32754528	
298	215.3090904	

Reaction: -1 1,1-diamino-2,2-dinitroethene + 2 carbon dioxide + 2 molecular nitrogen + 2 water + -1 molecular oxygen
Property: Specific internal energy of reaction at constant volume, J/g
-7831

Reaction: -1 2-(dinitromethylene)-1,3-diazacyclopentane + 4 carbon dioxide + 2 molecular nitrogen + 3 water + -3.5 molecular oxygen
Property: Molar enthalpy of reaction, kJ/mol
-2194

Reaction: -1 2-(dinitromethylene)-1,3-diazacyclohexane + 5 carbon dioxide + 2 molecular nitrogen + 4 water + -5 molecular oxygen
Property: Molar enthalpy of reaction, kJ/mol
-2781

Reaction: -1 2-(dinitromethylene)-4-methylimidazolidine + 5 carbon dioxide + 2 molecular nitrogen + 4 water + -5 molecular oxygen
Property: Molar enthalpy of reaction, kJ/mol
-2836

Reaction: -1 2-(dinitromethylene)imidazolidine-4,5-diol + 4 carbon dioxide + 2 molecular nitrogen + 3 water + -2.5 molecular oxygen
Property: Molar enthalpy of reaction, kJ/mol
-1836

Reaction: -1 2-(dinitromethylene)-1,3-diazacycloheptane + 6 carbon dioxide + 2 molecular nitrogen + 5 water + -6.5 molecular oxygen
Property: Molar enthalpy of reaction, kJ/mol
-3421
