Measured thermophysical data. Experimental and Computational Studies on the Structural and Thermodynamic Properties of Two Sulfur Heterocyclic Keto Compounds
Source: J. Chem. Eng. Data, 2010, 10.1021/je100603q
Compound 1: thioxanthone, C13H8OS, purity 97%
Compound 2: tetrahydro-4H-thiopyran-4-one, C5H8OS, purity 99%
Compound 3: sulfuric acid, H2O4S
Compound 4: carbon dioxide, CO2
Compound 5: water, H2O
Compound 6: oxygen, O2

System: thioxanthone; phases: Crystal, Gas
Property: Molar enthalpy of vaporization or sublimation, kJ/mol (Crystal); method: Microcalorimetry
Temperature, K	Molar enthalpy of vaporization or sublimation, kJ/mol	uncertainty
298.15	106.5	1.2

System: thioxanthone; phases: Gas
Property: Molar enthalpy, kJ/mol (Gas); method: Microcalorimetry
Temperature, K	Pressure, kPa	Molar enthalpy, kJ/mol	uncertainty
442.68	100	141.9	.4

System: tetrahydro-4H-thiopyran-4-one; phases: Crystal, Gas
Property: Molar enthalpy of vaporization or sublimation, kJ/mol (Crystal); method: Microcalorimetry
Temperature, K	Molar enthalpy of vaporization or sublimation, kJ/mol	uncertainty
298.15	73.4	1.4

System: tetrahydro-4H-thiopyran-4-one; phases: Gas
Property: Molar enthalpy, kJ/mol (Gas); method: Microcalorimetry
Temperature, K	Pressure, kPa	Molar enthalpy, kJ/mol	uncertainty
324.46	100	76.6	.6

Reaction: -1 tetrahydro-4H-thiopyran-4-one + 1 sulfuric acid + 5 carbon dioxide + 3 water + -8 oxygen
Property: Specific internal energy of reaction at constant volume, J/g
-29844.9

Reaction: -1 thioxanthone + 1 sulfuric acid + 13 carbon dioxide + 3 water + -16 oxygen
Property: Specific internal energy of reaction at constant volume, J/g
-32218.5
