Measured thermophysical data. Experimental and Computational Thermochemical Study of the Three Monoiodophenol Isomers
Source: J. Chem. Eng. Data, 2011, 10.1021/je200833s
Compound 1: 2-iodophenol, C6H5IO, purity 98%
Compound 2: m-iodophenol, C6H5IO, purity 98%
Compound 3: 4-iodophenol, C6H5IO, purity 98%
Compound 4: carbon dioxide, CO2
Compound 5: water, H2O
Compound 6: oxygen, O2
Compound 7: iodine, I2

System: 2-iodophenol; phases: Crystal, Gas
Property: Molar enthalpy of vaporization or sublimation, kJ/mol (Crystal); method: Calvet
Temperature, K	Molar enthalpy of vaporization or sublimation, kJ/mol	uncertainty
298.15	76.1	1.4

System: 2-iodophenol; phases: Gas
Property: Molar enthalpy, kJ/mol (Gas); method: Vacuum adiabatic calorimetry
Temperature, K	Pressure, kPa	Molar enthalpy, kJ/mol	uncertainty
323.3	100	79.3	.2

System: m-iodophenol; phases: Crystal, Gas
Property: Molar enthalpy of vaporization or sublimation, kJ/mol (Crystal); method: Calvet
Temperature, K	Molar enthalpy of vaporization or sublimation, kJ/mol	uncertainty
298.15	88.4	1.6

System: m-iodophenol; phases: Gas
Property: Molar enthalpy, kJ/mol (Gas); method: Vacuum adiabatic calorimetry
Temperature, K	Pressure, kPa	Molar enthalpy, kJ/mol	uncertainty
339.4	100	93.7	.1

System: 4-iodophenol; phases: Crystal, Gas
Property: Molar enthalpy of vaporization or sublimation, kJ/mol (Crystal); method: Calvet
Temperature, K	Molar enthalpy of vaporization or sublimation, kJ/mol	uncertainty
298.15	88.7	1.5

System: 4-iodophenol; phases: Gas
Property: Molar enthalpy, kJ/mol (Gas); method: Vacuum adiabatic calorimetry
Temperature, K	Pressure, kPa	Molar enthalpy, kJ/mol	uncertainty
349.4	100	95.2	.2

Reaction: -1 2-iodophenol + 0.5 iodine + 6 carbon dioxide + 2.5 water + -6.75 oxygen
Property: Specific internal energy of reaction at constant volume, J/g
-13555.6

Reaction: -1 m-iodophenol + 0.5 iodine + 6 carbon dioxide + 2.5 water + -6.75 oxygen
Property: Specific internal energy of reaction at constant volume, J/g
-13536.5

Reaction: -1 4-iodophenol + 0.5 iodine + 6 carbon dioxide + 2.5 water + -6.75 oxygen
Property: Specific internal energy of reaction at constant volume, J/g
-13502.7
