Measured thermophysical data. Knowledge of a Molecule: An Experimental and Theoretical Study of the Structure and Enthalpy of Formation of Tetrahydro-2H-1,3-oxazine-2-thione
Source: J. Chem. Eng. Data, 2011, 10.1021/je200549z
Compound 1: tetrahydro-2H-1,3-oxazine-2-thione, C4H7NOS
Compound 2: carbon dioxide, CO2
Compound 3: nitrogen, diatomic, N2
Compound 4: water, H2O
Compound 5: oxygen, O2
Compound 6: sulfuric acid, H2O4S

System: tetrahydro-2H-1,3-oxazine-2-thione; phases: Crystal, Liquid, Air at 1 atmosphere
Property: Normal melting temperature, K (Crystal); method: Visual observation
Normal melting temperature, K	uncertainty
400.2	

System: tetrahydro-2H-1,3-oxazine-2-thione; phases: Crystal
Fixed: Pressure, kPa = 101.325
Property: Mass density, kg/m3 (Crystal); method: Buoyancy - hydrostatic balance
Temperature, K	Mass density, kg/m3	uncertainty
298.15	1390	

System: tetrahydro-2H-1,3-oxazine-2-thione; phases: Crystal, Gas
Property: Vapor or sublimation pressure, kPa (Crystal); method: Knudsen effusion method
Temperature, K	Vapor or sublimation pressure, kPa	uncertainty
344.98	.0000174	.00000174
345.02	.0000181	.00000181
348.05	.0000181	.00000181
350.91	.000027	.0000027
354.08	.0000428	.00000428
354.55	.0000468	.00000468
357.09	.0000527	.00000527
357.64	.0000569	.00000569
358.64	.0000578	.00000578
361.9	.0000769	.00000769
362.01	.0000956	.00000956
363.53	.000126	.0000126
366.27	.000129	.0000129
366.58	.000145	.0000145
369.68	.000224	.0000224
369.83	.000182	.0000182
370.94	.00019	.000019
373.2	.000288	.0000288
376.57	.000399	.0000399
379.9	.000433	.0000433
379.95	.000529	.0000529

Reaction: 1 sulfuric acid + -1 tetrahydro-2H-1,3-oxazine-2-thione + 4 carbon dioxide + 0.5 nitrogen, diatomic + 2.5 water + -6.75 oxygen
Property: Specific internal energy of reaction at constant volume, J/g
-25233.6
