Measured thermophysical data. Levoglucosan: A Calorimetric, Thermodynamic, Spectroscopic, and Computational Investigation
Source: J. Chem. Eng. Data, 2013, 10.1021/je400207t
Compound 1: 1,6-anhydro-.beta.-D-glucopyranose, C6H10O5, purity 98%
Compound 2: carbon dioxide, CO2
Compound 3: water, H2O
Compound 4: oxygen, O2

System: 1,6-anhydro-.beta.-D-glucopyranose; phases: Crystal 2, Crystal 1, Air at 1 atmosphere
Property: Triple point temperature, K (Crystal 2); method: DSC/DTA
Triple point temperature, K	uncertainty
384.9	.3

System: 1,6-anhydro-.beta.-D-glucopyranose; phases: Crystal 1, Liquid, Air at 1 atmosphere
Property: Normal melting temperature, K (Crystal 1); method: DSC/DTA
Normal melting temperature, K	uncertainty
455.4	.1

System: 1,6-anhydro-.beta.-D-glucopyranose; phases: Crystal 2, Crystal 1, Air at 1 atmosphere
Property: Molar enthalpy of transition or fusion, kJ/mol (Crystal 2); method: DSC/DTA
Molar enthalpy of transition or fusion, kJ/mol	uncertainty
23.2	.4

System: 1,6-anhydro-.beta.-D-glucopyranose; phases: Crystal 1, Liquid, Air at 1 atmosphere
Property: Molar enthalpy of transition or fusion, kJ/mol (Crystal 1); method: DSC/DTA
Molar enthalpy of transition or fusion, kJ/mol	uncertainty
3.3	.2

System: 1,6-anhydro-.beta.-D-glucopyranose; phases: Crystal 2, Gas
Property: Vapor or sublimation pressure, kPa (Crystal 2); method: Knudsen effusion method
Temperature, K	Vapor or sublimation pressure, kPa	uncertainty
361.13	.0000535	.00001
363.14	.0000732	.00001
365.22	.0000967	.00001
367.16	.000113	.00001
369.14	.000152	.00001
371.15	.000183	.00001
373.15	.000231	.00001
375.13	.000289	.00001
377.22	.000396	.00001
379.15	.000458	.00001
361.13	.0000629	.00001
363.14	.0000732	.00001
365.22	.000102	.00001
367.16	.00012	.00001
369.14	.000164	.00001
371.15	.000183	.00001
373.15	.000247	.00001
375.13	.000317	.00001
377.22	.000407	.00001
379.15	.000476	.00001
361.13	.0000588	.00001
363.14	.0000778	.00001
365.22	.000101	.00001
367.16	.000119	.00001
369.14	.000144	.00001
371.15	.000192	.00001
373.15	.000231	.00001
375.13	.00028	.00001
377.22	.000368	.00001
379.15	.000472	.00001

Reaction: -1 1,6-anhydro-.beta.-D-glucopyranose + 6 carbon dioxide + 5 water + -6 oxygen
Property: Specific internal energy of reaction at constant volume, J/g
-17461
