Measured thermophysical data. Energetics and Reactivity of Morpholine and Thiomorpholine: A Joint Experimental and Computational Study
Source: J. Chem. Eng. Data, 2014, 10.1021/je4007162
Compound 1: morpholine, C4H9NO
Compound 2: thiomorpholine, C4H9NS
Compound 3: carbon dioxide, CO2
Compound 4: nitrogen, N2
Compound 5: water, H2O
Compound 6: oxygen, O2
Compound 7: sulfuric acid, H2O4S

System: morpholine; phases: Gas
Property: Molar enthalpy, kJ/mol (Gas); method: Calvet Microcalorimetry
Temperature, K	Pressure, kPa	Molar enthalpy, kJ/mol	uncertainty
339.9	100	50.88	.07

System: morpholine; phases: Liquid, Gas
Property: Molar enthalpy of vaporization or sublimation, kJ/mol (Liquid); method: calvet microcalorimetry
Temperature, K	Molar enthalpy of vaporization or sublimation, kJ/mol	uncertainty
298.15	46.5	.4

System: thiomorpholine; phases: Gas
Property: Molar enthalpy, kJ/mol (Gas); method: Calvet Microcalorimetry
Temperature, K	Pressure, kPa	Molar enthalpy, kJ/mol	uncertainty
338.9	100	58.6	.1

System: thiomorpholine; phases: Liquid, Gas
Property: Molar enthalpy of vaporization or sublimation, kJ/mol (Liquid); method: calvet microcalorimetry
Temperature, K	Molar enthalpy of vaporization or sublimation, kJ/mol	uncertainty
298.15	54	1.5

Reaction: -1 morpholine + 4 carbon dioxide + 0.5 nitrogen + 4.5 water + -5.75 oxygen
Property: Specific internal energy of reaction at constant volume, J/g
-30635.2

Reaction: -1 thiomorpholine + 1 sulfuric acid + 4 carbon dioxide + 0.5 nitrogen + 3.5 water + -7.75 oxygen
Property: Specific internal energy of reaction at constant volume, J/g
-33035.2
