Measured thermophysical data. Energetics of Hydroxytetralones: A Calorimetric and Computational  Thermochemical Study
Source: J. Chem. Eng. Data, 2009, 10.1021/je8004408
Compound 1: 5-hydroxy-1-tetralone, C10H10O2, purity 99%
Compound 2: 6-hydroxy-1-tetralone, C10H10O2, purity 99.9%
Compound 3: carbon dioxide, CO2
Compound 4: water, H2O
Compound 5: oxygen, O2

System: 5-hydroxy-1-tetralone; phases: Crystal, Liquid, Air at 1 atmosphere
Property: Normal melting temperature, K (Crystal); method: DSC/DTA
Normal melting temperature, K	uncertainty
480.06	.05

System: 5-hydroxy-1-tetralone; phases: Crystal, Liquid, Air at 1 atmosphere
Property: Molar enthalpy of transition or fusion, kJ/mol (Crystal); method: DSC/DTA
Molar enthalpy of transition or fusion, kJ/mol	uncertainty
33.67	.25

System: 5-hydroxy-1-tetralone; phases: Crystal, Gas
Property: Molar enthalpy of vaporization or sublimation, kJ/mol (Crystal); method: Drop Microcalorimetry
Temperature, K	Molar enthalpy of vaporization or sublimation, kJ/mol	uncertainty
298.15	118.5	1.5

System: 6-hydroxy-1-tetralone; phases: Crystal 1, Liquid, Air at 1 atmosphere
Property: Normal melting temperature, K (Crystal 1); method: DSC/DTA
Normal melting temperature, K	uncertainty
425.91	.14

System: 6-hydroxy-1-tetralone; phases: Crystal 1, Liquid, Air at 1 atmosphere
Property: Molar enthalpy of transition or fusion, kJ/mol (Crystal 1); method: DSC/DTA
Molar enthalpy of transition or fusion, kJ/mol	uncertainty
18.98	.29

System: 6-hydroxy-1-tetralone; phases: Crystal 2, Crystal 1, Air at 1 atmosphere
Property: Molar enthalpy of transition or fusion, kJ/mol (Crystal 2); method: DSC/DTA
Molar enthalpy of transition or fusion, kJ/mol	uncertainty
13.02	1.23

System: 6-hydroxy-1-tetralone; phases: Crystal 2, Crystal 1, Air at 1 atmosphere
Property: Triple point temperature, K (Crystal 2); method: DSC/DTA
Triple point temperature, K	uncertainty
387.46	.27

System: 6-hydroxy-1-tetralone; phases: Crystal 2, Gas
Property: Molar enthalpy of vaporization or sublimation, kJ/mol (Crystal 2); method: Drop Microcalorimetry
Temperature, K	Molar enthalpy of vaporization or sublimation, kJ/mol	uncertainty
298.15	117.5	1.4

Reaction: -1 5-hydroxy-1-tetralone + 10 carbon dioxide + 5 water + -11.5 oxygen
Property: Specific internal energy of reaction at constant volume, J/g
-30702.8

Reaction: -1 6-hydroxy-1-tetralone + 10 carbon dioxide + 5 water + -11.5 oxygen
Property: Specific internal energy of reaction at constant volume, J/g
-30673.9
