Measured thermophysical data. Heat Capacities and Thermodynamic Properties of (3,4-Dimethoxyphenyl) Acetonitrile (C10H11NO2)
Source: J. Chem. Eng. Data, 2009, 10.1021/je800203s
Compound 1: (3,4-dimethoxyphenyl)acetonitrile, C10H11NO2, purity 99%
Compound 2: carbon dioxide, CO2
Compound 3: nitrogen, N2
Compound 4: water, H2O
Compound 5: oxygen, O2

System: (3,4-dimethoxyphenyl)acetonitrile; phases: Crystal, Liquid, Gas
Property: Triple point temperature, K (Crystal); method: Adiabatic calorimetry
Triple point temperature, K	uncertainty
337.082	.005

System: (3,4-dimethoxyphenyl)acetonitrile; phases: Crystal, Liquid, Air at 1 atmosphere
Property: Molar enthalpy of transition or fusion, kJ/mol (Crystal); method: Adiabatic calorimetry
Molar enthalpy of transition or fusion, kJ/mol	uncertainty
24.72	.14

System: (3,4-dimethoxyphenyl)acetonitrile; phases: Crystal
Fixed: Pressure, kPa = 101.325
Property: Molar heat capacity at constant pressure, J/K/mol (Crystal); method: Small (less than 1 g) adiabatic calorimetry
Temperature, K	Molar heat capacity at constant pressure, J/K/mol	uncertainty
78.316	80.52	.24156
81.065	82.37	.24711
84.382	84.71	.25413
87.299	87.42	.26226
90.167	89.84	.26952
93.05	91.31	.27393
95.923	93.07	.27921
98.777	94.96	.28488
102.801	97.78	.29334
106.788	101.8	.3054
109.625	103.7	.3111
112.503	106.5	.3195
115.382	108.6	.3258
118.251	111	.333
121.124	113.3	.3399
123.994	115.6	.3468
126.872	118	.354
129.708	120.3	.3609
132.551	122.1	.3663
135.4	124.9	.3747
138.257	127.8	.3834
141.121	129.7	.3891
143.944	131.8	.3954
146.778	134.2	.4026
149.623	136.7	.4101
153.269	139.5	.4185
156.884	142.9	.4287
159.692	144.6	.4338
162.545	146.5	.4395
165.365	148.6	.4458
168.161	151.4	.4542
170.931	153.9	.4617
173.775	156.3	.4689
176.627	157.8	.4734
179.459	159.5	.4785
182.268	162.3	.4869
185.06	164.3	.4929
187.827	167.4	.5022
190.652	168.8	.5064
196.372	174.3	.5229
199.232	175.5	.5265
202.706	177.3	.5319
206.121	180.1	.5403
208.906	182.6	.5478
211.792	184.7	.5541
214.669	185.5	.5565
217.535	187.8	.5634
220.393	189.8	.5694
223.237	192.6	.5778
226.072	194.1	.5823
228.974	196	.588
231.922	198.1	.5943
234.864	200.2	.6006
237.825	201.4	.6042
240.775	203	.609
244.26	204.7	.6141
247.725	206	.618
250.62	206.7	.6201
253.504	208.8	.6264
256.375	210.7	.6321
259.238	213.1	.6393
262.095	214.8	.6444
264.938	216.4	.6492
267.886	218.3	.6549
270.928	221.1	.6633
273.96	223.6	.6708
276.98	226.3	.6789
279.994	228.9	.6867
282.996	231.4	.6942
285.983	234.1	.7023
288.954	236.8	.7104
291.892	239.8	.7194
294.782	242.2	.7266
297.684	245.2	.7356
300.708	247.1	.7413
303.675	250.1	.7503
306.624	252.2	.7566
309.559	254.2	.7626
312.48	256	.768
315.486	259.8	.7794
318.586	261.9	.7857
321.662	267	.801
324.716	275	.825
327.73	284.8	.8544
330.673	313	.939

System: (3,4-dimethoxyphenyl)acetonitrile; phases: Liquid
Fixed: Pressure, kPa = 101.325
Property: Molar heat capacity at constant pressure, J/K/mol (Liquid); method: Small (less than 1 g) adiabatic calorimetry
Temperature, K	Molar heat capacity at constant pressure, J/K/mol	uncertainty
342.04	352	1.056
345.022	352.7	1.0581
348.083	354.6	1.0638
351.142	356.8	1.0704
354.195	358.7	1.0761
357.244	360.1	1.0803
360.284	361.3	1.0839
363.322	362.6	1.0878
366.351	364.4	1.0932
369.378	366.3	1.0989
372.4	367.9	1.1037
375.418	368.7	1.1061
378.429	370.1	1.1103
381.437	371.6	1.1148
384.44	373	1.119
387.437	374.5	1.1235
390.427	376.1	1.1283
393.41	377.4	1.1322
396.394	379.4	1.1382
399.376	380.9	1.1427

System: (3,4-dimethoxyphenyl)acetonitrile; phases: Crystal
Fixed: Pressure, kPa = 101.325
Property: Molar heat capacity at constant pressure, J/K/mol (Crystal); method: Small (less than 1 g) adiabatic calorimetry
Temperature, K	Molar heat capacity at constant pressure, J/K/mol	uncertainty
80	82.15	.24645
85	85.39	.25617
90	88.81	.26643
95	92.41	.27723
100	96.15	.28845
105	100	.3
110	104	.312
115	108	.324
120	112.1	.3363
125	116.3	.3489
130	120.4	.3612
135	124.6	.3738
140	128.8	.3864
145	133	.399
150	137.1	.4113
155	141.2	.4236
160	145.3	.4359
165	149.3	.4479
170	153.3	.4599
175	157.2	.4716
180	161	.483
185	164.7	.4941
190	168.4	.5052
195	172	.516
200	175.6	.5268
205	179	.537
210	182.5	.5475
215	185.8	.5574
220	189.1	.5673
225	192.4	.5772
230	195.6	.5868
235	198.8	.5964
240	202	.606
245	205.2	.6156
250	208.4	.6252
255	211.6	.6348
260	214.9	.6447
265	218.2	.6546
270	221.6	.6648
275	225.2	.6756
280	228.8	.6864
285	232.6	.6978
290	236.6	.7098
295	240.8	.7224
298.15	243.5	.7305
300	245.2	.7356
305	249.8	.7494
310	254.8	.7644
315	260	.78
320	265.6	.7968

System: (3,4-dimethoxyphenyl)acetonitrile; phases: Liquid
Fixed: Pressure, kPa = 101.325
Property: Molar heat capacity at constant pressure, J/K/mol (Liquid); method: Small (less than 1 g) adiabatic calorimetry
Temperature, K	Molar heat capacity at constant pressure, J/K/mol	uncertainty
340	350.5	1.0515
345	353.2	1.0596
350	356	1.068
355	358.7	1.0761
360	361.4	1.0842
365	363.9	1.0917
370	366.3	1.0989
375	368.7	1.1061
380	371	1.113
385	373.3	1.1199
390	375.7	1.1271
395	378.4	1.1352
400	381.5	1.1445

Reaction: -1 (3,4-dimethoxyphenyl)acetonitrile + 10 carbon dioxide + 0.5 nitrogen + 5.5 water + -11.75 oxygen
Property: Molar internal energy of reaction at constant volume, kJ/mol
-5297.97
