Measured thermophysical data. Vapor Pressures and Enthalpies of Combustion of the Dihydroxybenzoic Acid Isomers
Source: J. Chem. Eng. Data, 2010, 10.1021/je900777q
Compound 1: 2,3-dihydroxybenzoic acid, C7H6O4, purity 99.4%
Compound 2: 2,5-dihydroxybenzoic acid, C7H6O4, purity 99.7%
Compound 3: 2,6-dihydroxybenzoic acid, C7H6O4, purity 98.8%
Compound 4: 3,4-dihydroxybenzoic acid, C7H6O4, purity 99.7%
Compound 5: 3,5-dihydroxybenzoic acid, C7H6O2, purity 99.6%
Compound 6: 2,4-dihydroxybenzoic acid, C7H6O4
Compound 7: carbon dioxide, CO2
Compound 8: water, H2O
Compound 9: oxygen, O2

System: 2,3-dihydroxybenzoic acid; phases: Crystal, Liquid, Air at 1 atmosphere
Property: Normal melting temperature, K (Crystal); method: DSC/DTA
Normal melting temperature, K	uncertainty
476.4	.6

System: 2,3-dihydroxybenzoic acid; phases: Crystal, Liquid, Air at 1 atmosphere
Property: Molar enthalpy of transition or fusion, kJ/mol (Crystal); method: DSC/DTA
Molar enthalpy of transition or fusion, kJ/mol	uncertainty
31.9	.5

System: 2,3-dihydroxybenzoic acid; phases: Crystal, Gas
Property: Vapor or sublimation pressure, kPa (Crystal); method: Knudsen effusion method
Temperature, K	Vapor or sublimation pressure, kPa	uncertainty
345.22	.000158	.00001
347.21	.000201	.00001
349.23	.00025	.00001
351.19	.00031	.00001
353.21	.00038	.00001
355.17	.000468	.00001
357.2	.000569	.00001
359.2	.000716	.00001
361.21	.000867	.00001
363.18	.001039	.00001
345.22	.000159	.00001
347.21	.000196	.00001
349.23	.000248	.00001
351.19	.000308	.00001
353.21	.000377	.00001
355.17	.000466	.00001
357.2	.000565	.00001
359.2	.000708	.00001
361.21	.000857	.00001
363.18	.001029	.00001
345.22	.000157	.00001
347.21	.000197	.00001
349.23	.000246	.00001
351.19	.000308	.00001
353.21	.000377	.00001
355.17	.000468	.00001
357.2	.000564	.00001
359.2	.000711	.00001
361.21	.000861	.00001
363.18	.001029	.00001

System: 2,5-dihydroxybenzoic acid; phases: Crystal, Liquid, Air at 1 atmosphere
Property: Normal melting temperature, K (Crystal); method: DSC/DTA
Normal melting temperature, K	uncertainty
476.2	.2

System: 2,5-dihydroxybenzoic acid; phases: Crystal, Liquid, Air at 1 atmosphere
Property: Molar enthalpy of transition or fusion, kJ/mol (Crystal); method: DSC/DTA
Molar enthalpy of transition or fusion, kJ/mol	uncertainty
20.8	1.7

System: 2,5-dihydroxybenzoic acid; phases: Crystal, Gas
Property: Vapor or sublimation pressure, kPa (Crystal); method: Knudsen effusion method
Temperature, K	Vapor or sublimation pressure, kPa	uncertainty
372.14	.00015	.00001
374.13	.000192	.00001
376.19	.000231	.00001
378.15	.000299	.00001
380.3	.000373	.00001
382.22	.00045	.00001
386.12	.000663	.00001
388.92	.000905	.00001
372.14	.000146	.00001
374.13	.000182	.00001
376.19	.000221	.00001
378.15	.000285	.00001
380.3	.000356	.00001
384.7	.000572	.00001
386.12	.000649	.00001
388.92	.000871	.00001
372.14	.000145	.00001
374.13	.000183	.00001
378.15	.000287	.00001
380.3	.000364	.00001
384.7	.000574	.00001
388.92	.000866	.00001

System: 2,6-dihydroxybenzoic acid; phases: Crystal, Gas
Property: Vapor or sublimation pressure, kPa (Crystal); method: Knudsen effusion method
Temperature, K	Vapor or sublimation pressure, kPa	uncertainty
347.14	.000138	.00001
355.35	.000336	.00001
357.2	.000401	.00001
359.28	.000491	.00001
361.38	.000609	.00001
363.19	.000713	.00001
365.17	.000881	.00001
347.14	.000131	.00001
349.32	.000171	.00001
351.02	.000204	.00001
353.26	.000255	.00001
357.2	.000391	.00001
359.28	.000477	.00001
361.38	.00059	.00001
363.19	.000692	.00001
365.17	.000845	.00001
347.14	.000133	.00001
349.32	.000173	.00001
351.02	.000208	.00001
353.26	.000249	.00001
355.35	.000323	.00001
357.2	.000386	.00001
359.28	.000479	.00001
361.38	.000586	.00001
363.19	.000679	.00001
365.17	.000834	.00001

System: 3,4-dihydroxybenzoic acid; phases: Crystal, Gas
Property: Vapor or sublimation pressure, kPa (Crystal); method: Knudsen effusion method
Temperature, K	Vapor or sublimation pressure, kPa	uncertainty
387.12	.000089	.00001
391.31	.000132	.00001
393.33	.000166	.00001
395.2	.000201	.00001
397.32	.000249	.00001
401.25	.000367	.00001
403.26	.000451	.00001
387.12	.000087	.00001
391.31	.000133	.00001
393.33	.000164	.00001
395.2	.0002	.00001
397.32	.000253	.00001
401.25	.000367	.00001
403.26	.000452	.00001
387.12	.000086	.00001
391.31	.000133	.00001
393.33	.000165	.00001
395.2	.000202	.00001
397.32	.00025	.00001
401.25	.000365	.00001
403.26	.00045	.00001

System: 3,5-dihydroxybenzoic acid; phases: Crystal, Liquid, Air at 1 atmosphere
Property: Normal melting temperature, K (Crystal); method: DSC/DTA
Normal melting temperature, K	uncertainty
508.3	.2

System: 3,5-dihydroxybenzoic acid; phases: Crystal, Liquid, Air at 1 atmosphere
Property: Molar enthalpy of transition or fusion, kJ/mol (Crystal); method: DSC/DTA
Molar enthalpy of transition or fusion, kJ/mol	uncertainty
38.3	.4

System: 3,5-dihydroxybenzoic acid; phases: Crystal, Gas
Property: Vapor or sublimation pressure, kPa (Crystal); method: Knudsen effusion method
Temperature, K	Vapor or sublimation pressure, kPa	uncertainty
407.36	.000098	.00001
410.25	.00013	.00001
413.16	.000176	.00001
416.13	.000238	.00001
419.21	.000305	.00001
422.2	.000407	.00001
425.23	.000561	.00001
407.36	.000097	.00001
410.25	.00013	.00001
413.16	.000179	.00001
416.13	.000237	.00001
419.21	.00031	.00001
422.2	.000409	.00001
425.23	.000563	.00001
407.36	.000097	.00001
410.25	.000129	.00001
413.16	.000175	.00001
416.13	.000234	.00001
419.21	.000311	.00001
422.2	.000412	.00001
425.23	.000561	.00001

System: 2,4-dihydroxybenzoic acid; phases: Crystal, Gas
Property: Vapor or sublimation pressure, kPa (Crystal); method: Knudsen effusion method
Temperature, K	Vapor or sublimation pressure, kPa	uncertainty
376.22	.000198	.00001
377.32	.000224	.00001
379.13	.000269	.00001
381.15	.000332	.00001
383.13	.000399	.00001
385.12	.000501	.00001
387.17	.000613	.00001
389.35	.000762	.00001
391.3	.000916	.00001
392.11	.000988	.00001
376.22	.000192	.00001
377.32	.000217	.00001
379.13	.00026	.00001
381.15	.000315	.00001
383.13	.000388	.00001
385.12	.000489	.00001
387.17	.000591	.00001
389.35	.000732	.00001
391.3	.000884	.00001
392.11	.000961	.00001
376.22	.000195	.00001
377.32	.00022	.00001
379.13	.000264	.00001
381.15	.000319	.00001
383.13	.00039	.00001
385.12	.000493	.00001
387.17	.000593	.00001
389.35	.000741	.00001
391.3	.000893	.00001
392.11	.000955	.00001

Reaction: -1 2,3-dihydroxybenzoic acid + 7 carbon dioxide + 3 water + -6.5 oxygen
Property: Specific internal energy of reaction at constant volume, J/g
-18363.4

Reaction: -1 2,4-dihydroxybenzoic acid + 7 carbon dioxide + 3 water + -6.5 oxygen
Property: Specific internal energy of reaction at constant volume, J/g
-18266.4

Reaction: -1 2,5-dihydroxybenzoic acid + 7 carbon dioxide + 3 water + -6.5 oxygen
Property: Specific internal energy of reaction at constant volume, J/g
-18341.9

Reaction: -1 2,6-dihydroxybenzoic acid + 7 carbon dioxide + 3 water + -6.5 oxygen
Property: Specific internal energy of reaction at constant volume, J/g
-18351.9

Reaction: -1 3,4-dihydroxybenzoic acid + 7 carbon dioxide + 3 water + -6.5 oxygen
Property: Specific internal energy of reaction at constant volume, J/g
-18328.7

Reaction: -1 3,5-dihydroxybenzoic acid + 7 carbon dioxide + 3 water + -7.5 oxygen
Property: Specific internal energy of reaction at constant volume, J/g
-18339.5
