Measured thermophysical data. Experimental and Computational Thermochemical Study of the Three Monofluorophenol Isomers
Source: J. Chem. Eng. Data, 2009, 10.1021/je9000872
Compound 1: phenol, 2-fluoro-, C6H5FO, purity 98%
Compound 2: phenol, 3-fluoro-, C6H5FO, purity 98%
Compound 3: 4-fluorophenol, C6H5FO, purity 98%
Compound 4: hydrogen fluoride, FH
Compound 5: carbon dioxide, CO2
Compound 6: water, H2O
Compound 7: oxygen, O2

System: phenol, 2-fluoro-; phases: Liquid, Gas
Property: Molar enthalpy of vaporization or sublimation, kJ/mol (Liquid); method: Calvet microcalorimetry
Temperature, K	Molar enthalpy of vaporization or sublimation, kJ/mol	uncertainty
298.15	52.3	.8

System: phenol, 2-fluoro-; phases: Gas
Property: Molar enthalpy, kJ/mol (Gas); method: Calvet microcalorimetry
Temperature, K	Pressure, kPa	Molar enthalpy, kJ/mol	uncertainty
298.15	100	54.3	.1

System: phenol, 3-fluoro-; phases: Liquid, Gas
Property: Molar enthalpy of vaporization or sublimation, kJ/mol (Liquid); method: Calvet microcalorimetry
Temperature, K	Molar enthalpy of vaporization or sublimation, kJ/mol	uncertainty
298.15	60.1	.9

System: phenol, 3-fluoro-; phases: Gas
Property: Molar enthalpy, kJ/mol (Gas); method: Calvet microcalorimetry
Temperature, K	Pressure, kPa	Molar enthalpy, kJ/mol	uncertainty
298.15	100	62.1	.1

System: 4-fluorophenol; phases: Crystal, Gas
Property: Molar enthalpy of vaporization or sublimation, kJ/mol (Crystal); method: Calvet microcalorimetry
Temperature, K	Molar enthalpy of vaporization or sublimation, kJ/mol	uncertainty
298.15	73.9	1.4

System: 4-fluorophenol; phases: Gas
Property: Molar enthalpy, kJ/mol (Gas); method: Calvet microcalorimetry
Temperature, K	Pressure, kPa	Molar enthalpy, kJ/mol	uncertainty
298.15	100	75.9	.2

Reaction: -1 phenol, 2-fluoro- + 1 hydrogen fluoride + 6 carbon dioxide + 2 water + -6.5 oxygen
Property: Specific internal energy of reaction at constant volume, J/g
-25930.1

Reaction: -1 phenol, 3-fluoro- + 1 hydrogen fluoride + 6 carbon dioxide + 2 water + -6.5 oxygen
Property: Specific internal energy of reaction at constant volume, J/g
-25785.9

Reaction: -1 4-fluorophenol + 1 hydrogen fluoride + 6 carbon dioxide + 2 water + -6.5 oxygen
Property: Specific internal energy of reaction at constant volume, J/g
-25798.4
