Measured thermophysical data. Measuring Diffusion and Solubility of Slightly Soluble Gases in [CnMIM][NTf2] Ionic Liquids
Source: J. Chem. Eng. Data, 2016, 10.1021/acs.jced.5b00990
Compound 1: hydrogen, H2, purity 99.999%
Compound 2: carbon dioxide, CO2, purity 99.995%
Compound 3: carbon monoxide, CO, purity 99.97%
Compound 4: 1-ethyl-3-methylimidazolium bis(trifluoromethylsulfonyl)imide, C8H11F6N3O4S2
Compound 5: 1-butyl-3-methylimidazolium bis(trifluoromethylsulfonyl)imide, C10H15F6N3O4S2
Compound 6: 1-hexyl-3-methylimidazolium bis(trifluoromethylsulfonyl)imide, C12H19F6N3O4S2
Compound 7: 1-octyl-3-methylimidazolium bis(trifluoromethylsulfonyl)imide, C14H23F6N3O4S2

System: carbon dioxide + 1-butyl-3-methylimidazolium bis(trifluoromethylsulfonyl)imide; phases: Liquid, Gas
Fixed: Mole fraction of carbon dioxide = 0
Property: Tracer diffusion coefficient, m2/s of carbon dioxide (Liquid); method: transient thin film method
Temperature, K	Tracer diffusion coefficient, m2/s of carbon dioxide	uncertainty
293.15	0.000000000432	
298.15	0.000000000509	
303.15	0.000000000587	
303.15	0.000000000583	
303.15	0.000000000579	
313.15	0.00000000075	
318.15	0.000000000845	
318.15	0.000000000845	
318.15	0.000000000856	
318.15	0.000000000841	
323.15	0.000000000915	

System: carbon dioxide + 1-butyl-3-methylimidazolium bis(trifluoromethylsulfonyl)imide; phases: Liquid, Gas
Fixed: Mole fraction of carbon dioxide = 0
Property: Henry's Law constant (mole fraction scale), kPa of carbon dioxide (Liquid); method: transient this film method
Temperature, K	Henry's Law constant (mole fraction scale), kPa of carbon dioxide	uncertainty
293.15	2900	
298.15	3190	
303.15	3460	
303.15	3480	
303.15	3490	
313.15	4130	
318.15	4460	
318.15	4510	
318.15	4470	
318.15	4440	
323.15	4910	

System: hydrogen + 1-ethyl-3-methylimidazolium bis(trifluoromethylsulfonyl)imide; phases: Liquid, Gas
Fixed: Mole fraction of hydrogen = 0
Property: Tracer diffusion coefficient, m2/s of hydrogen (Liquid); method: transient thin film method
Temperature, K	Tracer diffusion coefficient, m2/s of hydrogen	uncertainty
303.35	0.000000003232	
312.95	0.000000003963	
323.15	0.000000004504	
332.65	0.000000005422	

System: hydrogen + 1-ethyl-3-methylimidazolium bis(trifluoromethylsulfonyl)imide; phases: Liquid, Gas
Fixed: Mole fraction of hydrogen = 0
Property: Henry's Law constant (mole fraction scale), kPa of hydrogen (Liquid); method: transient this film method
Temperature, K	Henry's Law constant (mole fraction scale), kPa of hydrogen	uncertainty
303.35	230900	
312.95	219200	
323.15	207300	
332.65	202300	

System: hydrogen + 1-butyl-3-methylimidazolium bis(trifluoromethylsulfonyl)imide; phases: Liquid, Gas
Fixed: Mole fraction of hydrogen = 0
Property: Tracer diffusion coefficient, m2/s of hydrogen (Liquid); method: transient thin film method
Temperature, K	Tracer diffusion coefficient, m2/s of hydrogen	uncertainty
303.35	0.000000003236	
313.15	0.000000004096	
323.15	0.000000004568	
332.85	0.00000000558	

System: hydrogen + 1-butyl-3-methylimidazolium bis(trifluoromethylsulfonyl)imide; phases: Liquid, Gas
Fixed: Mole fraction of hydrogen = 0
Property: Henry's Law constant (mole fraction scale), kPa of hydrogen (Liquid); method: transient this film method
Temperature, K	Henry's Law constant (mole fraction scale), kPa of hydrogen	uncertainty
303.35	207500	
313.15	195300	
323.15	194130	
332.85	184600	

System: hydrogen + 1-hexyl-3-methylimidazolium bis(trifluoromethylsulfonyl)imide; phases: Liquid, Gas
Fixed: Mole fraction of hydrogen = 0
Property: Tracer diffusion coefficient, m2/s of hydrogen (Liquid); method: transient thin film method
Temperature, K	Tracer diffusion coefficient, m2/s of hydrogen	uncertainty
303.25	0.00000000329	
312.95	0.000000004032	
323.15	0.00000000492	
332.65	0.000000006228	

System: hydrogen + 1-hexyl-3-methylimidazolium bis(trifluoromethylsulfonyl)imide; phases: Liquid, Gas
Fixed: Mole fraction of hydrogen = 0
Property: Henry's Law constant (mole fraction scale), kPa of hydrogen (Liquid); method: transient this film method
Temperature, K	Henry's Law constant (mole fraction scale), kPa of hydrogen	uncertainty
303.25	200000	
312.95	195030	
323.15	187250	
332.65	173940	

System: hydrogen + 1-octyl-3-methylimidazolium bis(trifluoromethylsulfonyl)imide; phases: Liquid, Gas
Fixed: Mole fraction of hydrogen = 0
Property: Tracer diffusion coefficient, m2/s of hydrogen (Liquid); method: transient thin film method
Temperature, K	Tracer diffusion coefficient, m2/s of hydrogen	uncertainty
303.15	0.00000000247	
313.15	0.000000003191	
323.15	0.000000003915	
332.85	0.000000004837	

System: hydrogen + 1-octyl-3-methylimidazolium bis(trifluoromethylsulfonyl)imide; phases: Liquid, Gas
Fixed: Mole fraction of hydrogen = 0
Property: Henry's Law constant (mole fraction scale), kPa of hydrogen (Liquid); method: transient this film method
Temperature, K	Henry's Law constant (mole fraction scale), kPa of hydrogen	uncertainty
303.15	160200	
313.15	159400	
323.15	147860	
332.85	138700	

System: carbon monoxide + 1-butyl-3-methylimidazolium bis(trifluoromethylsulfonyl)imide; phases: Liquid, Gas
Fixed: Mole fraction of carbon monoxide = 0
Property: Tracer diffusion coefficient, m2/s of carbon monoxide (Liquid); method: transient thin film method
Temperature, K	Tracer diffusion coefficient, m2/s of carbon monoxide	uncertainty
293.15	0.00000000067	
298.15	0.000000000749	
303.15	0.000000000702	
313.15	0.000000000823	
323.15	0.000000001216	

System: carbon monoxide + 1-butyl-3-methylimidazolium bis(trifluoromethylsulfonyl)imide; phases: Liquid, Gas
Fixed: Mole fraction of carbon monoxide = 0
Property: Henry's Law constant (mole fraction scale), kPa of carbon monoxide (Liquid); method: transient this film method
Temperature, K	Henry's Law constant (mole fraction scale), kPa of carbon monoxide	uncertainty
293.15	64820	
298.15	64650	
303.15	68220	
313.15	70060	
323.15	71130	
