Measured thermophysical data. Gas Solubility in Binary Liquid Mixtures: Carbon Dioxide in Cyclohexane + Cyclohexanone
Source: J. Chem. Eng. Data, 2011, 10.1021/je101342q
Compound 1: cyclohexane, C6H12, purity 99%
Compound 2: cyclohexanone, C6H10O, purity 99%
Compound 3: carbon dioxide, CO2

System: cyclohexanone + cyclohexane + carbon dioxide; phases: Liquid, Gas
Property: Vapor or sublimation pressure, kPa (Liquid); method: Pressure Transducer
Temperature, K	Solvent: Mole fraction of cyclohexanone	Mole fraction of carbon dioxide	Vapor or sublimation pressure, kPa	uncertainty
313.5	0	.181	2440	2.5
313.5	0	.212	2760	10
313.5	0	.233	3000	10
313.5	0	.268	3380	10
313.5	0	.292	3610	10
313.5	.3	.149	1560	2.5
313.5	.3	.169	1770	2.5
313.5	.3	.195	2030	2.5
313.5	.3	.217	2230	2.5
313.5	.3	.247	2540	10
313.5	.3	.276	2840	10
313.5	.3	.319	3230	10
313.5	.6	.142	1270	2.5
313.5	.6	.175	1580	2.5
313.5	.6	.177	1590	2.5
313.5	.6	.214	1930	2.5
313.5	.6	.244	2210	2.5
313.5	.6	.274	2490	2.5
313.5	.6	.315	2850	10
313.5	.8	.185	1670	2.5
313.5	.8	.208	1870	2.5
313.5	.8	.241	2130	2.5
313.5	.8	.264	2360	2.5
313.5	.8	.304	2690	10
313.5	.8	.334	2940	10
313.5	1	.142	1230	2.5
313.5	1	.155	1330	2.5
313.5	1	.174	1490	2.5
313.5	1	.223	1910	2.5
313.5	1	.225	1950	2.5
313.5	1	.235	2070	2.5
313.5	1	.268	2370	2.5
313.5	1	.298	2650	10
352.7	0	.139	2640	10
352.7	0	.162	3030	10
352.7	0	.182	3390	10
352.7	0	.207	3790	10
352.7	0	.231	4190	10
352.7	0	.254	4610	10
352.7	0	.279	4980	10
352.7	.3	.132	2120	2.5
352.7	.3	.146	2360	2.5
352.7	.3	.178	2860	10
352.7	.3	.189	3030	10
352.7	.3	.215	3440	10
352.7	.3	.232	3710	10
352.7	.3	.253	4060	10
352.7	.3	.273	4380	10
352.7	.6	.135	1980	2.5
352.7	.6	.154	2260	2.5
352.7	.6	.164	2420	2.5
352.7	.6	.185	2720	10
352.7	.6	.205	3040	10
352.7	.6	.227	3360	10
352.7	.6	.248	3690	10
352.7	.8	.123	1770	2.5
352.7	.8	.14	2020	2.5
352.7	.8	.142	2140	2.5
352.7	.8	.162	2350	2.5
352.7	.8	.185	2700	10
352.7	.8	.204	2990	10
352.7	.8	.227	3350	10
352.7	1	.119	1670	2.5
352.7	1	.123	1720	2.5
352.7	1	.141	1960	2.5
352.7	1	.166	2400	2.5
352.7	1	.187	2640	10
352.7	1	.208	2940	10
352.7	1	.217	3160	10
352.7	1	.248	3580	10
392	0	.127	3090	10
392	0	.148	3530	10
392	0	.169	3990	10
392	0	.189	4440	10
392	0	.21	4880	10
392	0	.217	5010	10
392	0	.229	5330	10
392	0	.248	5640	10
392	.3	.118	2650	10
392	.3	.134	2990	10
392	.3	.153	3390	10
392	.3	.171	3780	10
392	.3	.197	4310	10
392	.3	.209	4580	10
392	.3	.227	4960	10
392	.6	.119	2510	10
392	.6	.142	2970	10
392	.6	.153	3200	10
392	.6	.169	3520	10
392	.6	.188	3940	10
392	.6	.202	4240	10
392	.6	.217	4540	10
392	.8	.111	2340	2.5
392	.8	.132	2780	10
392	.8	.148	3080	10
392	1	.109	2190	2.5
392	1	.128	2550	10
392	1	.147	2970	10
392	1	.165	3370	10
392	1	.179	3720	10
392	1	.196	4030	10
392	1	.215	4460	10

System: cyclohexane + carbon dioxide; phases: Liquid, Gas
Property: Vapor or sublimation pressure, kPa (Liquid); method: Pressure Transducer
Temperature, K	Mole fraction of carbon dioxide	Vapor or sublimation pressure, kPa	uncertainty
313.5	.181	2440	2.5
313.5	.212	2760	10
313.5	.233	6030	10
313.5	.268	3380	10
313.5	.292	3610	10
352.7	.139	2640	10
352.7	.162	3030	10
352.7	.182	3390	10
352.7	.207	3790	10
352.7	.231	4190	10
352.7	.254	4610	10
352.7	.279	4980	10
392	.127	3090	10
392	.148	3530	10
392	.169	3990	10
392	.189	4440	10
392	.21	4880	10
392	.217	5010	10
392	.229	5330	10
392	.248	5640	10

System: cyclohexanone + carbon dioxide; phases: Liquid, Gas
Property: Vapor or sublimation pressure, kPa (Liquid); method: Pressure Transducer
Temperature, K	Mole fraction of carbon dioxide	Vapor or sublimation pressure, kPa	uncertainty
313.5	.142	1230	2.5
313.5	.155	1330	2.5
313.5	.174	1490	2.5
313.5	.223	1910	2.5
313.5	.225	2070	2.5
313.5	.235	2370	2.5
313.5	.268	2370	2.5
313.5	.298	2650	10
352.7	.119	1670	2.5
352.7	.123	1720	2.5
352.7	.141	1960	2.5
352.7	.166	2400	2.5
352.7	.187	2640	10
352.7	.208	2940	10
352.7	.217	3160	10
352.7	.248	3580	10
392	.109	2190	2.5
392	.128	2550	10
392	.147	2970	10
392	.165	3370	10
392	.179	3720	10
392	.196	4030	10
392	.215	4460	10
