Measured thermophysical data. Determination of Henry's Law Constant Using Diffusion in Air and Water Boundary Layers
Source: J. Chem. Eng. Data, 2012, 10.1021/je300954s
Compound 1: methanol, CH4O, purity 99.9%
Compound 2: n-hexane, C6H14, purity 99%
Compound 3: naphthalene, C10H8, purity 99%
Compound 4: 1,2,6-trichlorobenzene, C6H3Cl3, purity 99.9%
Compound 5: unsym-trichlorobenzene, C6H3Cl3, purity 99%
Compound 6: s-tetrachlorobenzene, C6H2Cl4, purity 99%
Compound 7: 1,2,3,4,5-pentachlorobenzene, C6HCl5, purity 98%
Compound 8: hatco DBP, C16H22O4, purity 99.8%
Compound 9: benzyl butyl 1,2-benzenedioate, C19H20O4, purity 98%
Compound 10: 2,4,6-trinitro-3,5-dimethyl-tert-butylbenzene, C12H15N3O6, purity 99.9%
Compound 11: 3',5'-dinitro-2',6'-dimethyl-4'-tert-butylacetophenone, C14H18N2O5, purity 98%
Compound 12: water, H2O
Compound 13: acenaphthene, C12H10, purity 98%
Compound 14: fluorene, C13H10, purity 98%
Compound 15: phenanthrene, C14H10, purity 98%
Compound 16: anthracene, C14H10, purity 98%
Compound 17: fluoranthene, C16H10, purity 98%
Compound 18: pyrene, C16H10, purity 98%
Compound 19: benz[a]anthracene, C18H12, purity 98%
Compound 20: chrysene, C18H12, purity 98%
Compound 21: benzo[k]fluoranthene, C20H12, purity 98%
Compound 22: benzo[a]pyrene, C20H12, purity 98%
Compound 23: pentachlorophenyl chloride, C6Cl6, purity 98%

System: naphthalene + water; phases: Liquid, Gas
Fixed: Amount concentration (molarity), mol/dm3 of naphthalene = 0
Property: Henry's Law constant (amount concentration scale), kPa*dm3/mol of naphthalene (Liquid); method: Chromatography
Temperature, K	Henry's Law constant (amount concentration scale), kPa*dm3/mol of naphthalene	uncertainty
298.15	16.7	3.4

System: acenaphthene + water; phases: Liquid, Gas
Fixed: Amount concentration (molarity), mol/dm3 of acenaphthene = 0
Property: Henry's Law constant (amount concentration scale), kPa*dm3/mol of acenaphthene (Liquid); method: Chromatography
Temperature, K	Henry's Law constant (amount concentration scale), kPa*dm3/mol of acenaphthene	uncertainty
298.15	3.84	.75

System: fluorene + water; phases: Liquid, Gas
Fixed: Amount concentration (molarity), mol/dm3 of fluorene = 0
Property: Henry's Law constant (amount concentration scale), kPa*dm3/mol of fluorene (Liquid); method: Chromatography
Temperature, K	Henry's Law constant (amount concentration scale), kPa*dm3/mol of fluorene	uncertainty
298.15	3.12	.52

System: phenanthrene + water; phases: Liquid, Gas
Fixed: Amount concentration (molarity), mol/dm3 of phenanthrene = 0
Property: Henry's Law constant (amount concentration scale), kPa*dm3/mol of phenanthrene (Liquid); method: Chromatography
Temperature, K	Henry's Law constant (amount concentration scale), kPa*dm3/mol of phenanthrene	uncertainty
298.15	5.61	1.24

System: anthracene + water; phases: Liquid, Gas
Fixed: Amount concentration (molarity), mol/dm3 of anthracene = 0
Property: Henry's Law constant (amount concentration scale), kPa*dm3/mol of anthracene (Liquid); method: Chromatography
Temperature, K	Henry's Law constant (amount concentration scale), kPa*dm3/mol of anthracene	uncertainty
298.15	6.33	1.38

System: fluoranthene + water; phases: Liquid, Gas
Fixed: Amount concentration (molarity), mol/dm3 of fluoranthene = 0
Property: Henry's Law constant (amount concentration scale), kPa*dm3/mol of fluoranthene (Liquid); method: Chromatography
Temperature, K	Henry's Law constant (amount concentration scale), kPa*dm3/mol of fluoranthene	uncertainty
298.15	2.98	.72

System: pyrene + water; phases: Liquid, Gas
Fixed: Amount concentration (molarity), mol/dm3 of pyrene = 0
Property: Henry's Law constant (amount concentration scale), kPa*dm3/mol of pyrene (Liquid); method: Chromatography
Temperature, K	Henry's Law constant (amount concentration scale), kPa*dm3/mol of pyrene	uncertainty
298.15	2.44	.3

System: benz[a]anthracene + water; phases: Liquid, Gas
Fixed: Amount concentration (molarity), mol/dm3 of benz[a]anthracene = 0
Property: Henry's Law constant (amount concentration scale), kPa*dm3/mol of benz[a]anthracene (Liquid); method: Chromatography
Temperature, K	Henry's Law constant (amount concentration scale), kPa*dm3/mol of benz[a]anthracene	uncertainty
298.15	.6	.129

System: chrysene + water; phases: Liquid, Gas
Fixed: Amount concentration (molarity), mol/dm3 of chrysene = 0
Property: Henry's Law constant (amount concentration scale), kPa*dm3/mol of chrysene (Liquid); method: Chromatography
Temperature, K	Henry's Law constant (amount concentration scale), kPa*dm3/mol of chrysene	uncertainty
298.15	.478	.115

System: benzo[k]fluoranthene + water; phases: Liquid, Gas
Fixed: Amount concentration (molarity), mol/dm3 of benzo[k]fluoranthene = 0
Property: Henry's Law constant (amount concentration scale), kPa*dm3/mol of benzo[k]fluoranthene (Liquid); method: Chromatography
Temperature, K	Henry's Law constant (amount concentration scale), kPa*dm3/mol of benzo[k]fluoranthene	uncertainty
298.15	.0958	.0102

System: benzo[a]pyrene + water; phases: Liquid, Gas
Fixed: Amount concentration (molarity), mol/dm3 of benzo[a]pyrene = 0
Property: Henry's Law constant (amount concentration scale), kPa*dm3/mol of benzo[a]pyrene (Liquid); method: Chromatography
Temperature, K	Henry's Law constant (amount concentration scale), kPa*dm3/mol of benzo[a]pyrene	uncertainty
298.15	.161	.074

System: 1,2,6-trichlorobenzene + water; phases: Liquid, Gas
Fixed: Amount concentration (molarity), mol/dm3 of 1,2,6-trichlorobenzene = 0
Property: Henry's Law constant (amount concentration scale), kPa*dm3/mol of 1,2,6-trichlorobenzene (Liquid); method: Chromatography
Temperature, K	Henry's Law constant (amount concentration scale), kPa*dm3/mol of 1,2,6-trichlorobenzene	uncertainty
298.15	125	27

System: unsym-trichlorobenzene + water; phases: Liquid, Gas
Fixed: Amount concentration (molarity), mol/dm3 of unsym-trichlorobenzene = 0
Property: Henry's Law constant (amount concentration scale), kPa*dm3/mol of unsym-trichlorobenzene (Liquid); method: Chromatography
Temperature, K	Henry's Law constant (amount concentration scale), kPa*dm3/mol of unsym-trichlorobenzene	uncertainty
298.15	171	37

System: s-tetrachlorobenzene + water; phases: Liquid, Gas
Fixed: Amount concentration (molarity), mol/dm3 of s-tetrachlorobenzene = 0
Property: Henry's Law constant (amount concentration scale), kPa*dm3/mol of s-tetrachlorobenzene (Liquid); method: Chromatography
Temperature, K	Henry's Law constant (amount concentration scale), kPa*dm3/mol of s-tetrachlorobenzene	uncertainty
298.15	152	32

System: 1,2,3,4,5-pentachlorobenzene + water; phases: Liquid, Gas
Fixed: Amount concentration (molarity), mol/dm3 of 1,2,3,4,5-pentachlorobenzene = 0
Property: Henry's Law constant (amount concentration scale), kPa*dm3/mol of 1,2,3,4,5-pentachlorobenzene (Liquid); method: Chromatography
Temperature, K	Henry's Law constant (amount concentration scale), kPa*dm3/mol of 1,2,3,4,5-pentachlorobenzene	uncertainty
298.15	179	38

System: pentachlorophenyl chloride + water; phases: Liquid, Gas
Fixed: Amount concentration (molarity), mol/dm3 of pentachlorophenyl chloride = 0
Property: Henry's Law constant (amount concentration scale), kPa*dm3/mol of pentachlorophenyl chloride (Liquid); method: Chromatography
Temperature, K	Henry's Law constant (amount concentration scale), kPa*dm3/mol of pentachlorophenyl chloride	uncertainty
298.15	132	27

System: hatco DBP + water; phases: Liquid, Gas
Fixed: Amount concentration (molarity), mol/dm3 of hatco DBP = 0
Property: Henry's Law constant (amount concentration scale), kPa*dm3/mol of hatco DBP (Liquid); method: Chromatography
Temperature, K	Henry's Law constant (amount concentration scale), kPa*dm3/mol of hatco DBP	uncertainty
298.15	.108	.025

System: benzyl butyl 1,2-benzenedioate + water; phases: Liquid, Gas
Fixed: Amount concentration (molarity), mol/dm3 of benzyl butyl 1,2-benzenedioate = 0
Property: Henry's Law constant (amount concentration scale), kPa*dm3/mol of benzyl butyl 1,2-benzenedioate (Liquid); method: Chromatography
Temperature, K	Henry's Law constant (amount concentration scale), kPa*dm3/mol of benzyl butyl 1,2-benzenedioate	uncertainty
298.15	.00969	.00247

System: 2,4,6-trinitro-3,5-dimethyl-tert-butylbenzene + water; phases: Liquid, Gas
Fixed: Amount concentration (molarity), mol/dm3 of 2,4,6-trinitro-3,5-dimethyl-tert-butylbenzene = 0
Property: Henry's Law constant (amount concentration scale), kPa*dm3/mol of 2,4,6-trinitro-3,5-dimethyl-tert-butylbenzene (Liquid); method: Chromatography
Temperature, K	Henry's Law constant (amount concentration scale), kPa*dm3/mol of 2,4,6-trinitro-3,5-dimethyl-tert-butylbenzene	uncertainty
298.15	3.11	.7

System: 3',5'-dinitro-2',6'-dimethyl-4'-tert-butylacetophenone + water; phases: Liquid, Gas
Fixed: Amount concentration (molarity), mol/dm3 of 3',5'-dinitro-2',6'-dimethyl-4'-tert-butylacetophenone = 0
Property: Henry's Law constant (amount concentration scale), kPa*dm3/mol of 3',5'-dinitro-2',6'-dimethyl-4'-tert-butylacetophenone (Liquid); method: Chromatography
Temperature, K	Henry's Law constant (amount concentration scale), kPa*dm3/mol of 3',5'-dinitro-2',6'-dimethyl-4'-tert-butylacetophenone	uncertainty
298.15	.336	.076
