Measured thermophysical data. Physicochemical Properties of Aqueous Solutions of 2-Amino-2-hydroxymethyl-1,3-propanediol
Source: J. Chem. Eng. Data, 2009, 10.1021/je800460a
Compound 1: tris(hydroxymethyl)methanamine, C4H11NO3
Compound 2: water, H2O
Compound 3: nitrous oxide, N2O
Compound 4: carbon dioxide, CO2

System: tris(hydroxymethyl)methanamine + water; phases: Liquid
Fixed: Pressure, kPa = 101
Property: Mass density, kg/m3 (Liquid); method: Pycnometric method
Mass fraction of tris(hydroxymethyl)methanamine	Temperature, K	Mass density, kg/m3	uncertainty
.0217	298	1001.3	.035
.051	298	1009	.035
.103	298	1021.6	.035
.158	298	1033.6	.035
.217	298	1046.5	.035
.0217	303	999.6	.035
.051	303	1007.4	.035
.103	303	1019.2	.035
.158	303	1031.8	.035
.217	303	1044.2	.035
.0217	313	994.9	.035
.051	313	1002.8	.035
.103	313	1014.6	.035
.158	313	1026.8	.035
.217	313	1038.9	.035
.0217	323	988.1	.035
.051	323	996	.035
.103	323	1008.2	.035
.158	323	1019.9	.035
.217	323	1032.7	.035

System: tris(hydroxymethyl)methanamine + water; phases: Liquid
Fixed: Pressure, kPa = 101
Property: Viscosity, Pa*s (Liquid); method: Capillary tube (Ostwald; Ubbelohde) method
Mass fraction of tris(hydroxymethyl)methanamine	Temperature, K	Viscosity, Pa*s	uncertainty
.0217	298	.000913	.00000913
.051	298	.000995	.00000995
.103	298	.001148	.00001148
.158	298	.001353	.00001353
.217	298	.001605	.00001605
.0217	303	.000874	.00000874
.051	303	.00094	.0000094
.103	303	.001059	.00001059
.158	303	.001223	.00001223
.217	303	.001449	.00001449
.0217	313	.000733	.00000733
.051	313	.000799	.00000799
.103	313	.000884	.00000884
.158	313	.001008	.00001008
.217	313	.001172	.00001172
.0217	323	.0006	.000006
.051	323	.00065	.0000065
.103	323	.000711	.00000711
.158	323	.000808	.00000808
.217	323	.00093	.0000093

System: tris(hydroxymethyl)methanamine + water + nitrous oxide; phases: Liquid, Gas
Fixed: Amount concentration (molarity), mol/dm3 of nitrous oxide = 0
Property: Henry's Law constant (amount concentration scale), kPa*dm3/mol of nitrous oxide (Liquid); method: phase equilibration at constant pressure
Solvent: Mass fraction of tris(hydroxymethyl)methanamine	Temperature, K	Henry's Law constant (amount concentration scale), kPa*dm3/mol of nitrous oxide	uncertainty
.0217	298	4183	62.745
.051	298	4225	63.375
.103	298	4324	64.86
.158	298	4473	67.095
.217	298	4647	69.705
.0217	303	4672	70.08
.051	303	4730	70.95
.103	303	4851	72.765
.158	303	5048	75.72
.217	303	5263	78.945
.0217	313	6126	91.89
.051	313	6230	93.45
.103	313	6440	96.6
.158	313	6672	100.08
.217	313	6791	101.865
.0217	323	7784	116.76
.051	323	7950	119.25
.103	323	8123	121.845
.158	323	8301	124.515
.217	323	8489	127.335

System: tris(hydroxymethyl)methanamine + water + nitrous oxide; phases: Liquid
Fixed: Pressure, kPa = 100
Fixed: Mole fraction of nitrous oxide = 0
Property: Binary diffusion coefficient, m2/s (Liquid); method: Open capillary
Solvent: Volume fraction of tris(hydroxymethyl)methanamine	Temperature, K	Binary diffusion coefficient, m2/s	uncertainty
.0217	298	0.00000000155	.000000000031
.051	298	0.00000000134	.0000000000268
.103	298	0.00000000119	.0000000000238
.158	298	0.00000000106	.0000000000212
.217	298	0.00000000095	.000000000019
.0217	303	0.00000000175	.000000000035
.051	303	0.0000000016	.000000000032
.103	303	0.00000000138	.0000000000276
.158	303	0.00000000127	.0000000000254
.217	303	0.0000000012	.000000000024
.0217	313	0.00000000222	.0000000000444
.051	313	0.00000000212	.0000000000424
.103	313	0.00000000189	.0000000000378
.158	313	0.00000000176	.0000000000352
.217	313	0.00000000169	.0000000000338
.0217	323	0.0000000027	.000000000054
.051	323	0.00000000263	.0000000000526
.103	323	0.00000000234	.0000000000468
.158	323	0.00000000225	.000000000045
.217	323	0.00000000222	.0000000000444
