Measured thermophysical data. Solubility of N2O in Aqueous Solution of Diethylenetriamine
Source: J. Chem. Eng. Data, 2008, 10.1021/je800409d
Compound 1: diethylenetriamine, C4H13N3, purity 99%
Compound 2: nitrous oxide, N2O
Compound 3: water, H2O, purity 99.9%
Compound 4: carbon dioxide, CO2

System: water + nitrous oxide; phases: Liquid, Gas
Fixed: Amount concentration (molarity), mol/dm3 of nitrous oxide = 0
Property: Henry's Law constant (amount concentration scale), kPa*dm3/mol of nitrous oxide (Liquid); method: Photoacoustic method
Temperature, K	Henry's Law constant (amount concentration scale), kPa*dm3/mol of nitrous oxide	uncertainty
298.3	4146	124.38
298.2	4048	121.44
303.8	4842	145.26
303.9	4909	147.27
313.7	6010	180.3
313.7	5897	176.91
323.4	7246	217.38
323.4	7446	223.38
333.3	8920	267.6
333.4	8890	266.7
342.7	10368	311.04
343.5	10268	308.04
353.3	12205	366.15
353.4	12375	371.25

System: carbon dioxide + water; phases: Liquid, Gas
Fixed: Amount concentration (molarity), mol/dm3 of carbon dioxide = 0
Property: Henry's Law constant (amount concentration scale), kPa*dm3/mol of carbon dioxide (Liquid); method: Photoacoustic method
Temperature, K	Henry's Law constant (amount concentration scale), kPa*dm3/mol of carbon dioxide	uncertainty
298.3	3022	90.66
298.3	2991	89.73
303.4	3462	103.86
303.3	3401	102.03
313.3	4327	129.81
313.4	4328	129.84
323	5233	156.99
322.9	5184	155.52
332.7	6168	185.04
332.7	6128	183.84
332.8	6203	186.09
343	7111	213.33
342.9	7215	216.45
353.1	8359	250.77
352.1	8331	249.93

System: diethylenetriamine + water + nitrous oxide; phases: Liquid, Gas
Fixed: Amount concentration (molarity), mol/dm3 of nitrous oxide = 0
Property: Henry's Law constant (amount concentration scale), kPa*dm3/mol of nitrous oxide (Liquid); method: Photoacoustic method
Solvent: Mass fraction of diethylenetriamine	Temperature, K	Henry's Law constant (amount concentration scale), kPa*dm3/mol of nitrous oxide	uncertainty
.15	297.7	4685	140.55
.15	297.7	4824	144.72
.15	298.5	4794	143.82
.15	303.2	5303	159.09
.15	307.9	5812	174.36
.15	308	5890	176.7
.15	312.9	6310	189.3
.15	322.5	7430	222.9
.15	332	8668	260.04
.15	341.7	9860	295.8
.15	351.5	11508	345.24
.15	360.7	13175	395.25
.15	360.8	13061	391.83
.15	361	13175	395.25
.3	297.8	5532	165.96
.3	298	5552	166.56
.3	298.3	6114	183.42
.3	298.6	5894	176.82
.3	303	5966	178.98
.3	303.1	6077	182.31
.3	303.1	6107	183.21
.3	303.1	6412	192.36
.3	312.6	7022	210.66
.3	312.7	7198	215.94
.3	312.8	6981	209.43
.3	322.4	8681	260.43
.3	322.4	8653	259.59
.3	322.5	8737	262.11
.3	332.1	9638	289.14
.3	332.2	9813	294.39
.3	341.7	10970	329.1
.3	341.7	11051	331.53
.3	351.4	12408	372.24
.3	351.5	12579	377.37
.3	360.1	13958	418.74
.3	360.1	13834	415.02
.45	297.8	8740	262.2
.45	297.9	8567	257.01
.45	298.2	8475	254.25
.45	298.2	8611	258.33
.45	303.1	9111	273.33
.45	303.2	9206	276.18
.45	312.7	10041	301.23
.45	312.9	10169	305.07
.45	322.3	11127	333.81
.45	322.3	11411	342.33
.45	322.4	11542	346.26
.45	332	12370	371.1
.45	341.8	13494	404.82
.45	351.2	14437	433.11
.45	361	16191	485.73
.6	297.7	9662	289.86
.6	303.2	10215	306.45
.6	312.8	11792	353.76
.6	312.9	10835	325.05
.6	322.3	12443	373.29
.6	331.9	12821	384.63
.6	331.9	12231	366.93
.6	341.8	13298	398.94
.6	351	12090	362.7
.6	351.5	14134	424.02
.6	360.7	15236	457.08
.6	360.7	15236	457.08
.75	297.8	6891	206.73
.75	303.2	7097	212.91
.75	312.7	7441	223.23
.75	322.5	7702	231.06
.75	331.9	8062	241.86
.75	341.3	8365	250.95
.75	351	8639	259.17
.75	360.8	9067	272.01
.9	298.4	3139	94.17
.9	303.2	3344	100.32
.9	312.7	3635	109.05
.9	312.7	3644	109.32
.9	322.2	4002	120.06
.9	331.6	4229	126.87
.9	350.9	4830	144.9
.9	351.5	4824	144.72
.9	360.3	5004	150.12

System: diethylenetriamine + nitrous oxide; phases: Liquid, Gas
Fixed: Amount concentration (molarity), mol/dm3 of nitrous oxide = 0
Property: Henry's Law constant (amount concentration scale), kPa*dm3/mol of nitrous oxide (Liquid); method: mass balance
Temperature, K	Henry's Law constant (amount concentration scale), kPa*dm3/mol of nitrous oxide	uncertainty
297.8	1970	59.1
298.1	2013	60.39
298.1	2013	60.39
298.2	1989	59.67
303	2098	62.94
312.7	2324	69.72
322.3	2468	74.04
322.3	2552	76.56
322.4	2350	70.5
331.9	2783	83.49
341.6	3025	90.75
351.1	3100	93
351.2	3286	98.58
360.3	3462	103.86
360.7	3571	107.13
