Measured thermophysical data. Physicochemical Properties of Aqueous Solutions of 2-(1-Piperazinyl)-ethylamine
Source: J. Chem. Eng. Data, 2010, 10.1021/je9007926
Compound 1: N-(2-aminoethyl)piperazine, C6H15N3, purity 95%
Compound 2: water, H2O
Compound 3: nitrous oxide, N2O, purity 99.9%
Compound 4: carbon dioxide, CO2, purity 99.9%

System: N-(2-aminoethyl)piperazine + water; phases: Liquid
Fixed: Pressure, kPa = 101.3
Property: Mass density, kg/m3 (Liquid); method: Pycnometric method
Temperature, K	Mass fraction of N-(2-aminoethyl)piperazine	Mass density, kg/m3	uncertainty
298	.0108	998.4	.9984
298	.0194	999.8	.9998
298	.053	1002	1.002
298	.105	1006	1.006
298	.158	1010	1.01
303	.0108	996	.996
303	.0194	996.6	.9966
303	.053	998.6	.9986
303	.105	1003	1.003
303	.158	1009	1.009
313	.0108	991.9	.9919
313	.0194	992.6	.9926
313	.053	995.5	.9955
313	.105	999.5	.9995
313	.158	1005	1.005
323	.0108	988	.988
323	.0194	988.8	.9888
323	.053	990.4	.9904
323	.105	994.7	.9947
323	.158	1000	1

System: N-(2-aminoethyl)piperazine + water; phases: Liquid
Fixed: Pressure, kPa = 101.3
Property: Viscosity, Pa*s (Liquid); method: Capillary tube (Ostwald; Ubbelohde) method
Temperature, K	Mass fraction of N-(2-aminoethyl)piperazine	Viscosity, Pa*s	uncertainty
298	.0108	.00092	.00000092
298	.0194	.00095	.00000095
298	.053	.00111	.00000111
298	.105	.00138	.00000138
298	.158	.00182	.00000182
303	.0108	.00087	.00000087
303	.0194	.00089	.00000089
303	.053	.001	.000001
303	.105	.00125	.00000125
303	.158	.00166	.00000166
313	.0108	.00074	.00000074
313	.0194	.00078	.00000078
313	.053	.00085	.00000085
313	.105	.00104	.00000104
313	.158	.00132	.00000132
323	.0108	.0006	.0000006
323	.0194	.00061	.00000061
323	.053	.00069	.00000069
323	.105	.00083	.00000083
323	.158	.00103	.00000103

System: N-(2-aminoethyl)piperazine + water + nitrous oxide; phases: Liquid, Gas
Fixed: Amount concentration (molarity), mol/dm3 of nitrous oxide = 0
Property: Henry's Law constant (amount concentration scale), kPa*dm3/mol of nitrous oxide (Liquid); method: volume change on gas dissolution
Temperature, K	Solvent: Mass fraction of N-(2-aminoethyl)piperazine	Henry's Law constant (amount concentration scale), kPa*dm3/mol of nitrous oxide	uncertainty
298	.0108	4120	41.2
298	.0194	4170	41.7
298	.053	4324	43.24
298	.105	4528	45.28
298	.158	4590	45.9
303	.0108	4706	47.06
303	.0194	4763	47.63
303	.053	4935	49.35
303	.105	5080	50.8
303	.158	5202	52.02
313	.0108	5957	59.57
313	.0194	6027	60.27
313	.053	6221	62.21
313	.105	6444	64.44
313	.158	6531	65.31
323	.0108	7518	75.18
323	.0194	7674	76.74
323	.053	7977	79.77
323	.105	8172	81.72
323	.158	8317	83.17

System: N-(2-aminoethyl)piperazine + water + nitrous oxide; phases: Liquid
Fixed: Pressure, kPa = 101.3
Fixed: Mole fraction of nitrous oxide = 0
Property: Thermal diffusivity, m2/s (Liquid); method: wetted wall column absorber
Temperature, K	Solvent: Mass fraction of N-(2-aminoethyl)piperazine	Thermal diffusivity, m2/s	uncertainty
298	.0108	1.61	.04025
298	.0194	1.57	.03925
298	.053	1.47	.03675
298	.105	1.38	.0345
298	.158	1.31	.03275
303	.0108	1.83	.04575
303	.0194	1.79	.04475
303	.053	1.7	.0425
303	.105	1.6	.04
303	.158	1.54	.0385
313	.0108	2.32	.058
313	.0194	2.26	.0565
313	.053	2.19	.05475
313	.105	2.08	.052
313	.158	2.03	.05075
323	.0108	2.87	.07175
323	.0194	2.83	.07075
323	.053	2.75	.06875
323	.105	2.63	.06575
323	.158	2.57	.06425
