Measured thermophysical data. Solubilities, densities and refractive indices for the ternary systems ethylene glycol + MCl + H2O (M = Na, K, Rb, Cs) at (15 and 35) C
Source: J. Chem. Thermodyn., 2010, 10.1016/j.jct.2010.01.017
Compound 1: ethylene glycol, C2H6O2, purity 99.5%
Compound 2: sodium chloride, ClNa, purity 99.5%
Compound 3: potassium chloride, ClK, purity 99.5%
Compound 4: rubidium chloride (RbCl), ClRb, purity 99.5%
Compound 5: cesium chloride, ClCs, purity 99.5%
Compound 6: water, H2O

System: ethylene glycol + sodium chloride + water; phases: Liquid
Fixed: Pressure, kPa = 101.3
Property: Refractive index (Na D-line) (Liquid); method: Standard Abbe refractometry
Temperature, K	Solvent: Mass fraction of ethylene glycol	Mass fraction of sodium chloride	Refractive index (Na D-line)	uncertainty
288.15	0	.2635	1.381	.00004
288.15	.1	.2358	1.38516	.00004
288.15	.2007	.2058	1.38979	.00004
288.15	.3	.1895	1.39476	.00004
288.15	.3999	.1711	1.40022	.00004
288.15	.4995	.1503	1.40582	.00004
288.15	.5999	.1295	1.41173	.00004
288.15	.6985	.1134	1.41851	.00004
288.15	.7982	.0928	1.42581	.00004
288.15	.8996	.0792	1.43322	.00004
288.15	1	.0661	1.44048	.00004
308.15	0	.2661	1.37839	.00004
308.15	.102	.2385	1.38245	.00004
308.15	.1995	.2208	1.38629	.00004
308.15	.3001	.1971	1.39169	.00004
308.15	.4012	.1757	1.39693	.00004
308.15	.501	.153	1.4028	.00004
308.15	.5998	.1346	1.40864	.00004
308.15	.699	.1133	1.4149	.00004
308.15	.7991	.0955	1.42149	.00004
308.15	.8991	.0793	1.42828	.00004
308.15	1	.0693	1.4356	.00004

System: ethylene glycol + sodium chloride + water; phases: Liquid
Fixed: Pressure, kPa = 101.3
Property: Mass density, kg/m3 (Liquid); method: Vibrating tube method
Temperature, K	Solvent: Mass fraction of ethylene glycol	Mass fraction of sodium chloride	Mass density, kg/m3	uncertainty
288.15	0	.2635	1200.96	.03
288.15	.1	.2358	1194.11	.03
288.15	.2007	.2058	1187.06	.03
288.15	.3	.1895	1180.77	.03
288.15	.3999	.1711	1175.32	.03
288.15	.4995	.1503	1170	.03
288.15	.5999	.1295	1165.83	.03
288.15	.6985	.1134	1163.58	.03
288.15	.7982	.0928	1160.89	.03
288.15	.8996	.0792	1159.1	.03
288.15	1	.0661	1158.15	.03
308.15	0	.2661	1193.73	.03
308.15	.102	.2385	1185.57	.03
308.15	.1995	.2208	1176.04	.03
308.15	.3001	.1971	1171.67	.03
308.15	.4012	.1757	1165.83	.03
308.15	.501	.153	1160.95	.03
308.15	.5998	.1346	1156.1	.03
308.15	.699	.1133	1151.78	.03
308.15	.7991	.0955	1148.25	.03
308.15	.8991	.0793	1145.73	.03
308.15	1	.0693	1144.47	.03

System: ethylene glycol + sodium chloride + water; phases: Liquid
Fixed: Pressure, kPa = 101.3
Property: Refractive index (Na D-line) (Liquid); method: Standard Abbe refractometry
Temperature, K	Mass fraction of ethylene glycol	Mass fraction of sodium chloride	Refractive index (Na D-line)	uncertainty
288.15	.0977	.0221	1.34656	.00004
288.15	.0968	.045	1.35427	.00004
288.15	.0941	.0664	1.35463	.00004
288.15	.0917	.0869	1.35784	.00004
288.15	.0892	.1064	1.36105	.00004
288.15	.2949	.0186	1.36544	.00004
288.15	.289	.0376	1.36843	.00004
288.15	.284	.0535	1.37094	.00004
288.15	.2801	.07	1.37336	.00004
288.15	.2745	.0849	1.37589	.00004
288.15	.4927	.0148	1.38633	.00004
288.15	.4857	.0276	1.38814	.00004
288.15	.4796	.041	1.3902	.00004
288.15	.4729	.0549	1.39223	.00004
288.15	.4656	.0682	1.39413	.00004
288.15	.6899	.0114	1.40606	.00004
288.15	.6847	.0222	1.40733	.00004
288.15	.6721	.0332	1.40835	.00004
288.15	.6693	.0441	1.41063	.00004
288.15	.6614	.0552	1.41165	.00004
288.15	.8927	.0078	1.42498	.00004
288.15	.8851	.0161	1.42599	.00004
288.15	.8801	.0221	1.42675	.00004
288.15	.8721	.0309	1.42771	.00004
288.15	.8647	.0358	1.42783	.00004
288.15	.0892	.1245	1.36423	.00004
288.15	.0861	.1426	1.36724	.00004
288.15	.0838	.1621	1.37071	.00004
288.15	.0808	.1925	1.37614	.00004
288.15	.2695	.1026	1.37882	.00004
288.15	.2642	.1145	1.38044	.00004
288.15	.2609	.1309	1.38333	.00004
288.15	.2547	.1447	1.38535	.00004
288.15	.2537	.1599	1.38817	.00004
288.15	.0793	.4594	1.39551	.00004
288.15	.0925	.4543	1.39763	.00004
288.15	.1041	.4474	1.39869	.00004
288.15	.1156	.4425	1.40093	.00004
288.15	.1244	.4294	1.40127	.00004
288.15	.6519	.0669	1.4134	.00004
288.15	.6448	.0788	1.41513	.00004
288.15	.6393	.0873	1.41607	.00004
288.15	.6298	.0926	1.41626	.00004
288.15	.628	.1027	1.41803	.00004
288.15	.86	.0442	1.42875	.00004
288.15	.8495	.0509	1.42938	.00004
288.15	.8478	.0573	1.43016	.00004
288.15	.8416	.0651	1.4312	.00004
288.15	.8341	.0712	1.43156	.00004
308.15	.0982	.0233	1.34409	.00004
308.15	.0971	.0443	1.34761	.00004
308.15	.0954	.0664	1.35131	.00004
308.15	.0915	.0866	1.3545	.00004
308.15	.0899	.1062	1.35775	.00004
308.15	.2945	.0192	1.36084	.00004
308.15	.2891	.0381	1.3637	.00004
308.15	.2839	.0545	1.3664	.00004
308.15	.277	.0771	1.36986	.00004
308.15	.2734	.0891	1.37098	.00004
308.15	.4923	.0149	1.38087	.00004
308.15	.4855	.0297	1.38373	.00004
308.15	.4783	.0439	1.38515	.00004
308.15	.4713	.0572	1.38749	.00004
308.15	.4646	.0708	1.38878	.00004
308.15	.6916	.0111	1.40072	.00004
308.15	.6846	.0221	1.402	.00004
308.15	.6772	.0325	1.4034	.00004
308.15	.6699	.0432	1.40464	.00004
308.15	.6602	.0539	1.40582	.00004
308.15	.8929	.0078	1.41841	.00004
308.15	.8829	.0155	1.41905	.00004
308.15	.8781	.0233	1.41996	.00004
308.15	.8726	.0304	1.42022	.00004
308.15	.8654	.0378	1.42241	.00004
308.15	.0879	.1253	1.36107	.00004
308.15	.086	.143	1.36408	.00004
308.15	.0856	.1604	1.36673	.00004
308.15	.0823	.1762	1.36973	.00004
308.15	.0809	.1919	1.37246	.00004
308.15	.2688	.1072	1.37221	.00004
308.15	.2652	.12	1.37706	.00004
308.15	.2596	.1341	1.37869	.00004
308.15	.2562	.1487	1.381	.00004
308.15	.2518	.1632	1.38324	.00004
308.15	.4577	.0839	1.39168	.00004
308.15	.4515	.0968	1.39311	.00004
308.15	.4449	.1095	1.3944	.00004
308.15	.4393	.1214	1.39675	.00004
308.15	.4347	.1322	1.3977	.00004
308.15	.6557	.0629	1.40717	.00004
308.15	.6484	.0732	1.40795	.00004
308.15	.6425	.0826	1.40925	.00004
308.15	.6359	.0916	1.41077	.00004
308.15	.6287	.1011	1.41166	.00004
308.15	.8596	.0449	1.423	.00004
308.15	.8521	.0524	1.42335	.00004
308.15	.8467	.0593	1.42416	.00004
308.15	.8388	.0657	1.42564	.00004
308.15	.8313	.0758	1.42716	.00004

System: ethylene glycol + sodium chloride + water; phases: Liquid
Fixed: Pressure, kPa = 101.3
Property: Mass density, kg/m3 (Liquid); method: Vibrating tube method
Temperature, K	Mass fraction of ethylene glycol	Mass fraction of sodium chloride	Mass density, kg/m3	uncertainty
288.15	.0977	.0221	1027.76	.03
288.15	.0968	.045	1059.84	.03
288.15	.0941	.0664	1061.19	.03
288.15	.0917	.0869	1075.04	.03
288.15	.0892	.1064	1089.07	.03
288.15	.2949	.0186	1051.99	.03
288.15	.289	.0376	1065.08	.03
288.15	.284	.0535	1076.16	.03
288.15	.2801	.07	1088.02	.03
288.15	.2745	.0849	1098.44	.03
288.15	.4927	.0148	1077.24	.03
288.15	.4857	.0276	1085.77	.03
288.15	.4796	.041	1094.88	.03
288.15	.4729	.0549	1104.29	.03
288.15	.4656	.0682	1113.39	.03
288.15	.6899	.0114	1098.29	.03
288.15	.6847	.0222	1105.09	.03
288.15	.6721	.0332	1111.56	.03
288.15	.6693	.0441	1119.79	.03
288.15	.6614	.0552	1126.45	.03
288.15	.8927	.0078	1114.57	.03
288.15	.8851	.0161	1119.94	.03
288.15	.8801	.0221	1123.88	.03
288.15	.8721	.0309	1128.95	.03
288.15	.8647	.0358	1131.67	.03
288.15	.0892	.1245	1102.54	.03
288.15	.0861	.1426	1116.11	.03
288.15	.0838	.1621	1131.27	.03
288.15	.0808	.1925	1155.06	.03
288.15	.2695	.1026	1111.09	.03
288.15	.2642	.1145	1119.46	.03
288.15	.2609	.1309	1131.53	.03
288.15	.2547	.1447	1141.53	.03
288.15	.2537	.1599	1153.34	.03
288.15	.0793	.4594	1120.55	.03
288.15	.0925	.4543	1129.92	.03
288.15	.1041	.4474	1136.82	.03
288.15	.1156	.4425	1146.12	.03
288.15	.1244	.4294	1151.18	.03
288.15	.6519	.0669	1134.58	.03
288.15	.6448	.0788	1142.59	.03
288.15	.6393	.0873	1148.18	.03
288.15	.6298	.0926	1151.18	.03
288.15	.628	.1027	1158.38	.03
288.15	.86	.0442	1136.94	.03
288.15	.8495	.0509	1140.94	.03
288.15	.8478	.0573	1145.14	.03
288.15	.8416	.0651	1150.26	.03
288.15	.8341	.0712	1153.77	.03
308.15	.0982	.0233	1021.46	.03
308.15	.0971	.0443	1035.88	.03
308.15	.0954	.0664	1051.41	.03
308.15	.0915	.0866	1065.51	.03
308.15	.0899	.1062	1079.2	.03
308.15	.2945	.0192	1041.2	.03
308.15	.2891	.0381	1053.84	.03
308.15	.2839	.0545	1064.11	.03
308.15	.277	.0771	1079.95	.03
308.15	.2734	.0891	1087.17	.03
308.15	.4923	.0149	1064.92	.03
308.15	.4855	.0297	1075.69	.03
308.15	.4783	.0439	1084.04	.03
308.15	.4713	.0572	1093.55	.03
308.15	.4646	.0708	1101.39	.03
308.15	.6916	.0111	1085.27	.03
308.15	.6846	.0221	1092.03	.03
308.15	.6772	.0325	1098.9	.03
308.15	.6699	.0432	1105.56	.03
308.15	.6602	.0539	1112.34	.03
308.15	.8929	.0078	1100.16	.03
308.15	.8829	.0155	1104.77	.03
308.15	.8781	.0233	1109.08	.03
308.15	.8726	.0304	1113.41	.03
308.15	.8654	.0378	1119.59	.03
308.15	.0879	.1253	1093.75	.03
308.15	.086	.143	1106.88	.03
308.15	.0856	.1604	1118.32	.03
308.15	.0823	.1762	1131.84	.03
308.15	.0809	.1919	1143.97	.03
308.15	.2688	.1072	1099.9	.03
308.15	.2652	.12	1110.66	.03
308.15	.2596	.1341	1121.61	.03
308.15	.2562	.1487	1133.36	.03
308.15	.2518	.1632	1142.92	.03
308.15	.4577	.0839	1112.18	.03
308.15	.4515	.0968	1120.23	.03
308.15	.4449	.1095	1127.81	.03
308.15	.4393	.1214	1137.2	.03
308.15	.4347	.1322	1143.44	.03
308.15	.6557	.0629	1118.29	.03
308.15	.6484	.0732	1124.25	.03
308.15	.6425	.0826	1130.57	.03
308.15	.6359	.0916	1137.07	.03
308.15	.6287	.1011	1142.94	.03
308.15	.8596	.0449	1123.96	.03
308.15	.8521	.0524	1127.7	.03
308.15	.8467	.0593	1131.95	.03
308.15	.8388	.0657	1137.07	.03
308.15	.8313	.0758	1143.79	.03

System: ethylene glycol + potassium chloride + water; phases: Liquid
Fixed: Pressure, kPa = 101.3
Property: Refractive index (Na D-line) (Liquid); method: Standard Abbe refractometry
Temperature, K	Solvent: Mass fraction of ethylene glycol	Mass fraction of potassium chloride	Refractive index (Na D-line)	uncertainty
288.15	0	.2432	1.36807	.00004
288.15	.1016	.2103	1.37261	.00004
288.15	.2007	.1757	1.37788	.00004
288.15	.3003	.1468	1.38387	.00004
288.15	.3996	.1189	1.39031	.00004
288.15	.5001	.0931	1.39758	.00004
288.15	.5999	.0678	1.40517	.00004
288.15	.6988	.0509	1.41262	.00004
288.15	.7943	.0369	1.42024	.00004
288.15	.8997	.0265	1.4288	.00004
288.15	1	.0192	1.43692	.00004
308.15	0	.2811	1.36947	.00004
308.15	.1009	.2544	1.37362	.00004
308.15	.2006	.2309	1.37843	.00004
308.15	.3	.2002	1.38349	.00004
308.15	.3998	.1758	1.38955	.00004
308.15	.4998	.1454	1.39594	.00004
308.15	.5998	.1227	1.40271	.00004
308.15	.7001	.1	1.40971	.00004
308.15	.7991	.0756	1.41679	.00004
308.15	.9001	.0648	1.42395	.00004
308.15	1	.0589	1.43242	.00004

System: ethylene glycol + potassium chloride + water; phases: Liquid
Fixed: Pressure, kPa = 101.3
Property: Mass density, kg/m3 (Liquid); method: Vibrating tube method
Temperature, K	Solvent: Mass fraction of ethylene glycol	Mass fraction of potassium chloride	Mass density, kg/m3	uncertainty
288.15	0	.2432	1169.18	.03
288.15	.1016	.2103	1161.17	.03
288.15	.2007	.1757	1155.09	.03
288.15	.3003	.1468	1149.09	.03
288.15	.3996	.1189	1145.39	.03
288.15	.5001	.0931	1142.98	.03
288.15	.5999	.0678	1141.5	.03
288.15	.6988	.0509	1140.64	.03
288.15	.7943	.0369	1141	.03
288.15	.8997	.0265	1141.72	.03
288.15	1	.0192	1143.42	.03
308.15	0	.2811	1183.94	.03
308.15	.1009	.2544	1175.34	.03
308.15	.2006	.2309	1165.98	.03
308.15	.3	.2002	1158.23	.03
308.15	.3998	.1758	1151.67	.03
308.15	.4998	.1454	1146.05	.03
308.15	.5998	.1227	1141.2	.03
308.15	.7001	.1	1137.59	.03
308.15	.7991	.0756	1134.76	.03
308.15	.9001	.0648	1132.47	.03
308.15	1	.0589	1133.06	.03

System: ethylene glycol + potassium chloride + water; phases: Liquid
Fixed: Pressure, kPa = 101.3
Property: Refractive index (Na D-line) (Liquid); method: Standard Abbe refractometry
Temperature, K	Mass fraction of ethylene glycol	Mass fraction of potassium chloride	Refractive index (Na D-line)	uncertainty
288.15	.0979	.0208	1.34574	.00004
288.15	.0973	.0402	1.3485	.00004
288.15	.0949	.0588	1.35078	.00004
288.15	.0939	.0767	1.35339	.00004
288.15	.0913	.0938	1.35546	.00004
288.15	.294	.0143	1.36493	.00004
288.15	.293	.0286	1.36701	.00004
288.15	.2861	.0426	1.36821	.00004
288.15	.2845	.0564	1.37032	.00004
288.15	.2803	.0675	1.37153	.00004
288.15	.4949	.0119	1.38543	.00004
288.15	.4904	.0213	1.38615	.00004
288.15	.4839	.0315	1.38692	.00004
288.15	.4792	.0418	1.3874	.00004
288.15	.4746	.0519	1.38915	.00004
288.15	.6952	.0071	1.40546	.00004
288.15	.6889	.0148	1.40559	.00004
288.15	.683	.022	1.40657	.00004
288.15	.68	.0279	1.40723	.00004
288.15	.6756	.035	1.40802	.00004
288.15	.8968	.003	1.42435	.00004
288.15	.8952	.0053	1.42461	.00004
288.15	.8917	.008	1.42472	.00004
288.15	.8887	.0108	1.42477	.00004
288.15	.8884	.0131	1.42498	.00004
288.15	.0889	.1116	1.35783	.00004
288.15	.088	.128	1.36007	.00004
288.15	.0872	.1421	1.36202	.00004
288.15	.0845	.1575	1.36477	.00004
288.15	.0839	.177	1.36672	.00004
288.15	.276	.0821	1.37327	.00004
288.15	.2708	.0953	1.37471	.00004
288.15	.2676	.1066	1.37613	.00004
288.15	.2643	.1188	1.37754	.00004
288.15	.2611	.1301	1.37886	.00004
288.15	.4688	.0629	1.3905	.00004
288.15	.4647	.0703	1.39077	.00004
288.15	.4622	.0797	1.39185	.00004
288.15	.4563	.0894	1.39329	.00004
288.15	.4503	.0986	1.3942	.00004
288.15	.6688	.0414	1.40832	.00004
288.15	.6633	.0484	1.40883	.00004
288.15	.6618	.0546	1.40937	.00004
288.15	.6582	.0605	1.41185	.00004
288.15	.652	.0674	1.41066	.00004
288.15	.8843	.0154	1.42529	.00004
288.15	.881	.0182	1.42511	.00004
288.15	.8798	.0208	1.42536	.00004
288.15	.8759	.0231	1.42566	.00004
288.15	.8758	.0244	1.42604	.00004
308.15	.0982	.0233	1.34409	.00004
308.15	.0971	.0443	1.34761	.00004
308.15	.0954	.0664	1.35131	.00004
308.15	.0915	.0866	1.3545	.00004
308.15	.0899	.1062	1.35775	.00004
308.15	.2945	.0192	1.36084	.00004
308.15	.2891	.0381	1.3637	.00004
308.15	.2839	.0545	1.3664	.00004
308.15	.277	.0771	1.36986	.00004
308.15	.2734	.0891	1.37098	.00004
308.15	.4923	.0149	1.38087	.00004
308.15	.4855	.0297	1.38373	.00004
308.15	.4783	.0439	1.38515	.00004
308.15	.4713	.0572	1.38749	.00004
308.15	.4646	.0706	1.38878	.00004
308.15	.6916	.0111	1.40072	.00004
308.15	.6846	.0221	1.402	.00004
308.15	.6772	.0325	1.4034	.00004
308.15	.6699	.0432	1.40464	.00004
308.15	.6602	.0539	1.40582	.00004
308.15	.8929	.0078	1.41841	.00004
308.15	.8829	.0155	1.41905	.00004
308.15	.8781	.0233	1.41996	.00004
308.15	.8726	.0304	1.42022	.00004
308.15	.8654	.0378	1.42261	.00004
308.15	.0879	.1253	1.36107	.00004
308.15	.086	.143	1.36408	.00004
308.15	.0856	.1604	1.36673	.00004
308.15	.0823	.1762	1.36973	.00004
308.15	.0809	.1919	1.37246	.00004
308.15	.2688	.1072	1.37221	.00004
308.15	.2652	.12	1.37706	.00004
308.15	.2596	.1341	1.37869	.00004
308.15	.2562	.1487	1.381	.00004
308.15	.2518	.1632	1.38324	.00004
308.15	.4577	.0839	1.39168	.00004
308.15	.4515	.0968	1.39311	.00004
308.15	.4449	.1095	1.3944	.00004
308.15	.4393	.1214	1.39675	.00004
308.15	.4347	.1322	1.3977	.00004
308.15	.6557	.0629	1.40717	.00004
308.15	.6484	.0732	1.40795	.00004
308.15	.6425	.0826	1.40925	.00004
308.15	.6359	.0916	1.41077	.00004
308.15	.6286	.1011	1.41166	.00004
308.15	.8596	.0449	1.42331	.00004
308.15	.8521	.0524	1.42335	.00004
308.15	.8467	.0593	1.42416	.00004
308.15	.8388	.0657	1.42564	.00004
308.15	.8313	.0758	1.42716	.00004

System: ethylene glycol + potassium chloride + water; phases: Liquid
Fixed: Pressure, kPa = 101.3
Property: Mass density, kg/m3 (Liquid); method: Vibrating tube method
Temperature, K	Mass fraction of ethylene glycol	Mass fraction of potassium chloride	Mass density, kg/m3	uncertainty
288.15	.0979	.0208	1025.27	.03
288.15	.0973	.0402	1038.09	.03
288.15	.0949	.0588	1049.42	.03
288.15	.0939	.0767	1062	.03
288.15	.0913	.0938	1072.94	.03
288.15	.294	.0143	1048.78	.03
288.15	.293	.0286	1058.18	.03
288.15	.2861	.0426	1066.14	.03
288.15	.2845	.0564	1075.61	.03
288.15	.2803	.0675	1082.52	.03
288.15	.4949	.0119	1074.52	.03
288.15	.4904	.0213	1080.72	.03
288.15	.4839	.0315	1085.43	.03
288.15	.4792	.0418	1090.68	.03
288.15	.4746	.0519	1097.95	.03
288.15	.6952	.0071	1095.46	.03
288.15	.6889	.0148	1098.87	.03
288.15	.683	.022	1103.86	.03
288.15	.68	.0279	1107.63	.03
288.15	.6756	.035	1111.82	.03
288.15	.8968	.003	1111.2	.03
288.15	.8952	.0053	1112.55	.03
288.15	.8917	.008	1114.07	.03
288.15	.8887	.0108	1115.53	.03
288.15	.8884	.0131	1116.86	.03
288.15	.0889	.1116	1084.95	.03
288.15	.088	.128	1096.14	.03
288.15	.0872	.1421	1106.16	.03
288.15	.0845	.1575	1122.49	.03
288.15	.0839	.177	1130.11	.03
288.15	.276	.0821	1091.79	.03
288.15	.2708	.0953	1099.87	.03
288.15	.2676	.1066	1107.65	.03
288.15	.2643	.1188	1115.52	.03
288.15	.2611	.1301	1122.89	.03
288.15	.4688	.0629	1105.06	.03
288.15	.4647	.0703	1108.86	.03
288.15	.4622	.0797	1114.92	.03
288.15	.4563	.0894	1121.41	.03
288.15	.4503	.0986	1128.22	.03
288.15	.6688	.0414	1114.99	.03
288.15	.6633	.0484	1118.96	.03
288.15	.6618	.0546	1122.56	.03
288.15	.6582	.0605	1129.07	.03
288.15	.652	.0674	1129.88	.03
288.15	.8843	.0154	1118.39	.03
288.15	.881	.0182	1119.64	.03
288.15	.8798	.0208	1120.94	.03
288.15	.8759	.0231	1122.9	.03
288.15	.8758	.0244	1123.66	.03
308.15	.0982	.0233	1021.46	.03
308.15	.0971	.0443	1035.88	.03
308.15	.0954	.0664	1051.41	.03
308.15	.0915	.0866	1065.51	.03
308.15	.0899	.1062	1079.2	.03
308.15	.2945	.0192	1041.2	.03
308.15	.2891	.0381	1053.84	.03
308.15	.2839	.0545	1064.11	.03
308.15	.277	.0771	1079.95	.03
308.15	.2734	.0891	1087.17	.03
308.15	.4923	.0149	1064.92	.03
308.15	.4855	.0297	1075.69	.03
308.15	.4783	.0439	1084.04	.03
308.15	.4713	.0572	1093.55	.03
308.15	.4646	.0706	1101.39	.03
308.15	.6916	.0111	1085.27	.03
308.15	.6846	.0221	1092.03	.03
308.15	.6772	.0325	1098.9	.03
308.15	.6699	.0432	1105.56	.03
308.15	.6602	.0539	1112.34	.03
308.15	.8929	.0078	1100.16	.03
308.15	.8829	.0155	1104.77	.03
308.15	.8781	.0233	1109.08	.03
308.15	.8726	.0304	1113.41	.03
308.15	.8654	.0378	1119.59	.03
308.15	.0879	.1253	1093.75	.03
308.15	.086	.143	1106.88	.03
308.15	.0856	.1604	1118.32	.03
308.15	.0823	.1762	1131.84	.03
308.15	.0809	.1919	1143.97	.03
308.15	.2688	.1072	1099.9	.03
308.15	.2652	.12	1110.66	.03
308.15	.2596	.1341	1121.61	.03
308.15	.2562	.1487	1133.36	.03
308.15	.2518	.1632	1142.92	.03
308.15	.4577	.0839	1112.18	.03
308.15	.4515	.0968	1120.23	.03
308.15	.4449	.1095	1127.81	.03
308.15	.4393	.1214	1137.2	.03
308.15	.4347	.1322	1143.44	.03
308.15	.6557	.0629	1118.29	.03
308.15	.6484	.0732	1124.25	.03
308.15	.6425	.0826	1130.57	.03
308.15	.6359	.0916	1137.07	.03
308.15	.6286	.1011	1142.94	.03
308.15	.8596	.0449	1123.96	.03
308.15	.8521	.0524	1127.7	.03
308.15	.8467	.0593	1131.95	.03
308.15	.8388	.0657	1137.07	.03
308.15	.8313	.0758	1143.79	.03

System: ethylene glycol + water + rubidium chloride (RbCl); phases: Liquid
Fixed: Pressure, kPa = 101.3
Property: Refractive index (Na D-line) (Liquid); method: Standard Abbe refractometry
Temperature, K	Solvent: Mass fraction of ethylene glycol	Mass fraction of rubidium chloride (RbCl)	Refractive index (Na D-line)	uncertainty
288.15	0	.4686	1.38739	.00004
288.15	.1	.4309	1.38998	.00004
288.15	.201	.3862	1.39331	.00004
288.15	.3009	.349	1.39718	.00004
288.15	.3995	.3111	1.40165	.00004
288.15	.4998	.2727	1.40683	.00004
288.15	.5995	.2279	1.41256	.00004
288.15	.6983	.1927	1.41838	.00004
288.15	.7999	.1392	1.42465	.00004
288.15	.8992	.1007	1.4323	.00004
288.15	1	.0605	1.43988	.00004
308.15	0	.5049	1.38937	.00004
308.15	.1009	.4688	1.39167	.00004
308.15	.2015	.4336	1.39468	.00004
308.15	.3005	.3928	1.39844	.00004
308.15	.3988	.3504	1.40216	.00004
308.15	.5001	.3077	1.40691	.00004
308.15	.5993	.2643	1.412	.00004
308.15	.6992	.2259	1.41763	.00004
308.15	.8009	.184	1.42346	.00004
308.15	.8999	.1388	1.42956	.00004
308.15	1	.1126	1.43623	.00004

System: ethylene glycol + water + rubidium chloride (RbCl); phases: Liquid
Fixed: Pressure, kPa = 101.3
Property: Mass density, kg/m3 (Liquid); method: Vibrating tube method
Temperature, K	Solvent: Mass fraction of ethylene glycol	Mass fraction of rubidium chloride (RbCl)	Mass density, kg/m3	uncertainty
288.15	0	.4686	1480.37	.03
288.15	.1	.4309	1444.4	.03
288.15	.201	.3862	1408.99	.03
288.15	.3009	.349	1375.02	.03
288.15	.3995	.3111	1342.68	.03
288.15	.4998	.2727	1312.37	.03
288.15	.5995	.2279	1283.9	.03
288.15	.6983	.1927	1255.13	.03
288.15	.7999	.1392	1236.63	.03
288.15	.8992	.1007	1216.68	.03
288.15	1	.0605	1201.46	.03
308.15	0	.5049	1517.58	.03
308.15	.1009	.4688	1486.43	.03
308.15	.2015	.4336	1445.72	.03
308.15	.3005	.3928	1409.84	.03
308.15	.3988	.3504	1375.23	.03
308.15	.5001	.3077	1339.26	.03
308.15	.5993	.2643	1304.67	.03
308.15	.6992	.2259	1273.89	.03
308.15	.8009	.184	1244.65	.03
308.15	.8999	.1388	1219.78	.03
308.15	1	.1126	1201.89	.03

System: ethylene glycol + water + rubidium chloride (RbCl); phases: Liquid
Fixed: Pressure, kPa = 101.3
Property: Refractive index (Na D-line) (Liquid); method: Standard Abbe refractometry
Temperature, K	Mass fraction of ethylene glycol	Mass fraction of rubidium chloride (RbCl)	Refractive index (Na D-line)	uncertainty
288.15	.0961	.0413	1.3468	.00004
288.15	.0929	.0788	1.35032	.00004
288.15	.0892	.114	1.35368	.00004
288.15	.0854	.1458	1.35666	.00004
288.15	.0825	.1782	1.36	.00004
288.15	.2907	.0335	1.3663	.00004
288.15	.2804	.0655	1.36876	.00004
288.15	.2715	.0948	1.37127	.00004
288.15	.2615	.1224	1.37358	.00004
288.15	.2552	.1492	1.3761	.00004
288.15	.4861	.0273	1.38619	.00004
288.15	.4731	.054	1.38842	.00004
288.15	.4617	.0772	1.39008	.00004
288.15	.4495	.1016	1.39191	.00004
288.15	.438	.1223	1.39331	.00004
288.15	.6858	.0189	1.40616	.00004
288.15	.6729	.0383	1.40752	.00004
288.15	.6578	.0556	1.4084	.00004
288.15	.6492	.0729	1.40985	.00004
288.15	.6384	.0883	1.41083	.00004
288.15	.8875	.0123	1.42494	.00004
288.15	.8765	.024	1.42563	.00004
288.15	.8672	.0362	1.42654	.00004
288.15	.8558	.0472	1.42729	.00004
288.15	.8461	.0587	1.42774	.00004
288.15	.0819	.2046	1.36298	.00004
288.15	.078	.2308	1.36564	.00004
288.15	.0755	.255	1.36822	.00004
288.15	.0724	.2795	1.37088	.00004
288.15	.0729	.2996	1.37347	.00004
288.15	.2488	.1735	1.3784	.00004
288.15	.241	.1962	1.38037	.00004
288.15	.2343	.2181	1.38241	.00004
288.15	.2293	.2386	1.38456	.00004
288.15	.2224	.2587	1.38636	.00004
288.15	.428	.1448	1.3953	.00004
288.15	.4167	.1641	1.39663	.00004
288.15	.4082	.1834	1.39883	.00004
288.15	.3988	.2009	1.39958	.00004
288.15	.3903	.2196	1.40114	.00004
288.15	.6217	.104	1.4113	.00004
288.15	.6166	.1201	1.41307	.00004
288.15	.6041	.1358	1.41392	.00004
288.15	.5945	.1498	1.41496	.00004
288.15	.583	.1628	1.41572	.00004
288.15	.8372	.0694	1.42843	.00004
288.15	.8257	.08	1.42947	.00004
288.15	.8183	.0903	1.42978	.00004
288.15	.8095	.1007	1.43033	.00004
288.15	.7999	.1102	1.43059	.00004
308.15	.0975	.0446	1.3446	.00004
308.15	.0918	.0857	1.34796	.00004
308.15	.0884	.1243	1.35193	.00004
308.15	.0886	.1574	1.35549	.00004
308.15	.0818	.1897	1.35833	.00004
308.15	.2891	.0373	1.36301	.00004
308.15	.2784	.0728	1.36606	.00004
308.15	.2726	.1031	1.36896	.00004
308.15	.2604	.1352	1.36969	.00004
308.15	.2512	.1624	1.37379	.00004
308.15	.4852	.0298	1.38185	.00004
308.15	.4708	.0576	1.38273	.00004
308.15	.4564	.0852	1.38606	.00004
308.15	.445	.1096	1.38801	.00004
308.15	.4342	.1327	1.38991	.00004
308.15	.6835	.022	1.40098	.00004
308.15	.6693	.0444	1.40231	.00004
308.15	.6562	.0636	1.4039	.00004
308.15	.6418	.083	1.40517	.00004
308.15	.6288	.103	1.40656	.00004
308.15	.8875	.0137	1.41896	.00004
308.15	.8754	.0271	1.41965	.00004
308.15	.8633	.0402	1.42049	.00004
308.15	.8514	.0526	1.42133	.00004
308.15	.8418	.0648	1.42224	.00004
308.15	.0791	.2218	1.36172	.00004
308.15	.0899	.2463	1.3659	.00004
308.15	.0731	.2733	1.36725	.00004
308.15	.0704	.2959	1.36973	.00004
308.15	.0686	.3133	1.37177	.00004
308.15	.2432	.1888	1.37621	.00004
308.15	.2383	.2121	1.37858	.00004
308.15	.2298	.2384	1.38109	.00004
308.15	.2222	.2611	1.38317	.00004
308.15	.2153	.282	1.38509	.00004
308.15	.4226	.1549	1.39158	.00004
308.15	.4112	.1776	1.39345	.00004
308.15	.4012	.1966	1.39498	.00004
308.15	.4024	.2129	1.39763	.00004
308.15	.3825	.2349	1.39862	.00004
308.15	.6164	.1195	1.40711	.00004
308.15	.6041	.1365	1.4085	.00004
308.15	.5934	.1528	1.40968	.00004
308.15	.582	.1688	1.41117	.00004
308.15	.5709	.1838	1.41327	.00004
308.15	.8296	.0774	1.42321	.00004
308.15	.8194	.0888	1.42368	.00004
308.15	.8094	.1001	1.42429	.00004
308.15	.7987	.1121	1.4251	.00004
308.15	.7904	.1216	1.42575	.00004

System: ethylene glycol + water + rubidium chloride (RbCl); phases: Liquid
Fixed: Pressure, kPa = 101.3
Property: Mass density, kg/m3 (Liquid); method: Vibrating tube method
Temperature, K	Mass fraction of ethylene glycol	Mass fraction of rubidium chloride (RbCl)	Mass density, kg/m3	uncertainty
288.15	.0961	.0413	1042.95	.03
288.15	.0929	.0788	1073.22	.03
288.15	.0892	.114	1102.24	.03
288.15	.0854	.1458	1129.36	.03
288.15	.0825	.1782	1158.99	.03
288.15	.2907	.0335	1065.48	.03
288.15	.2804	.0655	1087.34	.03
288.15	.2715	.0948	1112.36	.03
288.15	.2615	.1224	1136.4	.03
288.15	.2552	.1492	1159.88	.03
288.15	.4861	.0273	1087.62	.03
288.15	.4731	.054	1108.16	.03
288.15	.4617	.0772	1126.45	.03
288.15	.4495	.1016	1146.44	.03
288.15	.438	.1223	1163.32	.03
288.15	.6858	.0189	1104.99	.03
288.15	.6729	.0383	1119.8	.03
288.15	.6578	.0556	1132.61	.03
288.15	.6492	.0729	1146.72	.03
288.15	.6384	.0883	1158.11	.03
288.15	.8875	.0123	1118.55	.03
288.15	.8765	.024	1127.34	.03
288.15	.8672	.0362	1136.71	.03
288.15	.8558	.0472	1145.2	.03
288.15	.8461	.0587	1154.08	.03
288.15	.0819	.2046	1184.11	.03
288.15	.078	.2308	1209.55	.03
288.15	.0755	.255	1233.7	.03
288.15	.0724	.2795	1259.12	.03
288.15	.0729	.2996	1281.18	.03
288.15	.2488	.1735	1181.01	.03
288.15	.241	.1962	1202.19	.03
288.15	.2343	.2181	1223.25	.03
288.15	.2293	.2386	1243.95	.03
288.15	.2224	.2587	1263.59	.03
288.15	.428	.1448	1182.84	.03
288.15	.4167	.1641	1199.62	.03
288.15	.4082	.1834	1217.16	.03
288.15	.3988	.2009	1232.76	.03
288.15	.3903	.2196	1250.77	.03
288.15	.6217	.104	1171.28	.03
288.15	.6166	.1201	1185.43	.03
288.15	.6041	.1358	1198.37	.03
288.15	.5945	.1498	1210.56	.03
288.15	.583	.1628	1221.7	.03
288.15	.8372	.0694	1162.39	.03
288.15	.8257	.08	1169.02	.03
288.15	.8183	.0903	1179.02	.03
288.15	.8095	.1007	1187.79	.03
288.15	.7999	.1102	1193.28	.03
308.15	.0975	.0446	1038.76	.03
308.15	.0918	.0857	1068.13	.03
308.15	.0884	.1243	1103.32	.03
308.15	.0886	.1574	1132.23	.03
308.15	.0818	.1897	1161.04	.03
308.15	.2891	.0373	1057.81	.03
308.15	.2784	.0728	1087.13	.03
308.15	.2726	.1031	1111.37	.03
308.15	.2604	.1352	1130.16	.03
308.15	.2512	.1624	1161.53	.03
308.15	.4852	.0298	1077.45	.03
308.15	.4708	.0576	1096.12	.03
308.15	.4564	.0852	1120.95	.03
308.15	.445	.1096	1139.25	.03
308.15	.4342	.1327	1158.36	.03
308.15	.6835	.022	1094.18	.03
308.15	.6693	.0444	1112.31	.03
308.15	.6562	.0636	1126.03	.03
308.15	.6418	.083	1140.93	.03
308.15	.6288	.103	1157.23	.03
308.15	.8875	.0137	1105.1	.03
308.15	.8754	.0271	1112.07	.03
308.15	.8633	.0402	1122.2	.03
308.15	.8514	.0526	1134.58	.03
308.15	.8418	.0648	1144.35	.03
308.15	.0791	.2218	1190.57	.03
308.15	.0899	.2463	1218.15	.03
308.15	.0731	.2733	1243.58	.03
308.15	.0704	.2959	1267.36	.03
308.15	.0686	.3133	1286.78	.03
308.15	.2432	.1888	1185.11	.03
308.15	.2383	.2121	1207.22	.03
308.15	.2298	.2384	1233.21	.03
308.15	.2222	.2611	1256.02	.03
308.15	.2153	.282	1276.08	.03
308.15	.4226	.1549	1178.46	.03
308.15	.4112	.1776	1198.99	.03
308.15	.4012	.1966	1216.9	.03
308.15	.4024	.2129	1233.52	.03
308.15	.3825	.2349	1253.57	.03
308.15	.6164	.1195	1165.04	.03
308.15	.6041	.1365	1184.31	.03
308.15	.5934	.1528	1198.97	.03
308.15	.582	.1688	1212.2	.03
308.15	.5709	.1838	1222.2	.03
308.15	.8296	.0774	1155.74	.03
308.15	.8194	.0888	1163.93	.03
308.15	.8094	.1001	1171.76	.03
308.15	.7987	.1121	1181.07	.03
308.15	.7904	.1216	1190.5	.03

System: ethylene glycol + cesium chloride + water; phases: Liquid
Fixed: Pressure, kPa = 101.3
Property: Refractive index (Na D-line) (Liquid); method: Standard Abbe refractometry
Temperature, K	Solvent: Mass fraction of ethylene glycol	Mass fraction of cesium chloride	Refractive index (Na D-line)	uncertainty
288.15	0	.6491	1.41793	.00004
288.15	.1019	.6139	1.41864	.00004
288.15	.2005	.5823	1.41953	.00004
288.15	.2999	.5397	1.42104	.00004
288.15	.4	.4982	1.42289	.00004
288.15	.5008	.4488	1.42532	.00004
288.15	.6006	.3955	1.42828	.00004
288.15	.7004	.3412	1.43178	.00004
288.15	.7978	.2904	1.43568	.00004
288.15	.8972	.2212	1.44026	.00004
288.15	1	.1581	1.44588	.00004
308.15	0	.6699	1.42044	.00004
308.15	.1005	.6447	1.42081	.00004
308.15	.2068	.6169	1.42148	.00004
308.15	.3007	.5718	1.42248	.00004
308.15	.3997	.5448	1.4244	.00004
308.15	.5003	.509	1.42624	.00004
308.15	.599	.4531	1.42851	.00004
308.15	.7061	.4047	1.431	.00004
308.15	.7982	.3465	1.43397	.00004
308.15	.8979	.3019	1.43753	.00004
308.15	1	.2421	1.44201	.00004

System: ethylene glycol + cesium chloride + water; phases: Liquid
Fixed: Pressure, kPa = 101.3
Property: Mass density, kg/m3 (Liquid); method: Vibrating tube method
Temperature, K	Solvent: Mass fraction of ethylene glycol	Mass fraction of cesium chloride	Mass density, kg/m3	uncertainty
288.15	0	.6491	1893.4	.03
288.15	.1019	.6139	1836.48	.03
288.15	.2005	.5823	1762.03	.03
288.15	.2999	.5397	1717.84	.03
288.15	.4	.4982	1654.35	.03
288.15	.5008	.4488	1590.19	.03
288.15	.6006	.3955	1526.38	.03
288.15	.7004	.3412	1465.07	.03
288.15	.7978	.2904	1406.91	.03
288.15	.8972	.2212	1355.3	.03
288.15	1	.1581	1308.81	.03
308.15	0	.6699	1946.35	.03
308.15	.1005	.6447	1891.8	.03
308.15	.2068	.6169	1835.59	.03
308.15	.3007	.5718	1763.31	.03
308.15	.3997	.5448	1698.51	.03
308.15	.5003	.509	1648.27	.03
308.15	.599	.4531	1578.22	.03
308.15	.7061	.4047	1509.5	.03
308.15	.7982	.3465	1440.37	.03
308.15	.8979	.3019	1376.17	.03
308.15	1	.2421	1324.3	.03

System: ethylene glycol + cesium chloride + water; phases: Liquid
Fixed: Pressure, kPa = 101.3
Property: Refractive index (Na D-line) (Liquid); method: Standard Abbe refractometry
Temperature, K	Mass fraction of ethylene glycol	Mass fraction of cesium chloride	Refractive index (Na D-line)	uncertainty
288.15	.0949	.0588	1.34763	.00004
288.15	.0891	.1086	1.35153	.00004
288.15	.0852	.1524	1.35572	.00004
288.15	.0807	.1939	1.35957	.00004
288.15	.0796	.2297	1.36343	.00004
288.15	.2863	.0531	1.36732	.00004
288.15	.2707	.0975	1.37049	.00004
288.15	.2585	.1432	1.37436	.00004
288.15	.2458	.1782	1.37711	.00004
288.15	.2358	.2132	1.38026	.00004
288.15	.4769	.044	1.38329	.00004
288.15	.4579	.0821	1.38598	.00004
288.15	.4417	.1181	1.38864	.00004
288.15	.4216	.1513	1.39076	.00004
288.15	.409	.184	1.39352	.00004
288.15	.672	.0328	1.40528	.00004
288.15	.6531	.0645	1.40797	.00004
288.15	.6319	.0938	1.40969	.00004
288.15	.6131	.1205	1.41141	.00004
288.15	.5943	.1501	1.41346	.00004
288.15	.8762	.0237	1.42469	.00004
288.15	.8606	.0426	1.42613	.00004
288.15	.8396	.066	1.42762	.00004
288.15	.8243	.0842	1.42831	.00004
288.15	.8081	.1007	1.42941	.00004
288.15	.0737	.2684	1.36728	.00004
288.15	.0708	.2958	1.37029	.00004
288.15	.0674	.3242	1.37346	.00004
288.15	.0651	.3504	1.37654	.00004
288.15	.0625	.3756	1.37981	.00004
288.15	.2257	.2485	1.38366	.00004
288.15	.2171	.2751	1.38612	.00004
288.15	.2114	.3013	1.38904	.00004
288.15	.2021	.3239	1.39105	.00004
288.15	.1961	.3485	1.39405	.00004
288.15	.3971	.2104	1.3963	.00004
288.15	.3803	.2382	1.39842	.00004
288.15	.3669	.2657	1.4012	.00004
288.15	.3548	.2869	1.4033	.00004
288.15	.3449	.3104	1.4056	.00004
288.15	.5777	.1743	1.41528	.00004
288.15	.5624	.1918	1.41613	.00004
288.15	.5519	.2128	1.41809	.00004
288.15	.535	.2364	1.4198	.00004
288.15	.5127	.266	1.42216	.00004
288.15	.7949	.1167	1.43021	.00004
288.15	.777	.1366	1.43201	.00004
288.15	.7616	.1506	1.43221	.00004
288.15	.7491	.1658	1.4333	.00004
288.15	.7365	.1806	1.43437	.00004
308.15	.0945	.0618	1.34548	.00004
308.15	.0889	.1138	1.34974	.00004
308.15	.0845	.1619	1.35402	.00004
308.15	.0806	.2043	1.35809	.00004
308.15	.0761	.2435	1.36141	.00004
308.15	.2846	.054	1.3637	.00004
308.15	.2693	.1032	1.36681	.00004
308.15	.256	.1467	1.36971	.00004
308.15	.2441	.1858	1.37295	.00004
308.15	.2329	.2232	1.37703	.00004
308.15	.4741	.0492	1.38315	.00004
308.15	.4512	.0964	1.38666	.00004
308.15	.4298	.1376	1.38941	.00004
308.15	.4132	.1701	1.39151	.00004
308.15	.3992	.1997	1.39445	.00004
308.15	.671	.0399	1.40206	.00004
308.15	.6446	.0779	1.40419	.00004
308.15	.6248	.1072	1.40598	.00004
308.15	.6023	.1395	1.40836	.00004
308.15	.5827	.1662	1.40917	.00004
308.15	.8712	.0305	1.41861	.00004
308.15	.8463	.0595	1.42027	.00004
308.15	.8254	.0829	1.42294	.00004
308.15	.7891	.1073	1.42351	.00004
308.15	.7786	.1333	1.42492	.00004
308.15	.0721	.2791	1.36542	.00004
308.15	.069	.3105	1.367011	.00004
308.15	.0663	.3396	1.37301	.00004
308.15	.0634	.3661	1.37394	.00004
308.15	.0619	.3947	1.37772	.00004
308.15	.2236	.2551	1.37938	.00004
308.15	.2136	.2873	1.3825	.00004
308.15	.2055	.3139	1.3843	.00004
308.15	.1982	.3402	1.38683	.00004
308.15	.1919	.3627	1.38932	.00004
308.15	.3839	.2323	1.39653	.00004
308.15	.3692	.2607	1.39945	.00004
308.15	.3569	.2866	1.40206	.00004
308.15	.3439	.3132	1.40417	.00004
308.15	.3338	.3335	1.40605	.00004
308.15	.5605	.1931	1.41216	.00004
308.15	.5441	.2201	1.41368	.00004
308.15	.5299	.242	1.416	.00004
308.15	.5102	.269	1.41818	.00004
308.15	.4995	.2857	1.42027	.00004
308.15	.7634	.152	1.4252	.00004
308.15	.741	.175	1.42799	.00004
308.15	.7251	.1944	1.42895	.00004
308.15	.7072	.2134	1.42948	.00004
308.15	.6885	.2305	1.43353	.00004

System: ethylene glycol + cesium chloride + water; phases: Liquid
Fixed: Pressure, kPa = 101.3
Property: Mass density, kg/m3 (Liquid); method: Vibrating tube method
Temperature, K	Mass fraction of ethylene glycol	Mass fraction of cesium chloride	Mass density, kg/m3	uncertainty
288.15	.0949	.0588	1059.41	.03
288.15	.0891	.1086	1101.98	.03
288.15	.0852	.1524	1143.14	.03
288.15	.0807	.1939	1184.06	.03
288.15	.0796	.2297	1222.26	.03
288.15	.2863	.0531	1082.95	.03
288.15	.2707	.0975	1120.77	.03
288.15	.2585	.1432	1162.97	.03
288.15	.2458	.1782	1196.67	.03
288.15	.2358	.2132	1232.74	.03
288.15	.4769	.044	1097.93	.03
288.15	.4579	.0821	1130.2	.03
288.15	.4417	.1181	1162.3	.03
288.15	.4216	.1513	1193.17	.03
288.15	.409	.184	1224.73	.03
288.15	.672	.0328	1116.1	.03
288.15	.6531	.0645	1143.2	.03
288.15	.6319	.0938	1168.67	.03
288.15	.6131	.1205	1192.87	.03
288.15	.5943	.1501	1220.44	.03
288.15	.8762	.0237	1128.17	.03
288.15	.8606	.0426	1143.97	.03
288.15	.8396	.066	1164.01	.03
288.15	.8243	.0842	1173.86	.03
288.15	.8081	.1007	1194.35	.03
288.15	.0737	.2684	1265.61	.03
288.15	.0708	.2958	1298.28	.03
288.15	.0674	.3242	1333.5	.03
288.15	.0651	.3504	1366.76	.03
288.15	.0625	.3756	1402.8	.03
288.15	.2257	.2485	1271.29	.03
288.15	.2171	.2751	1301.63	.03
288.15	.2114	.3013	1333.51	.03
288.15	.2021	.3239	1360.82	.03
288.15	.1961	.3485	1394.08	.03
288.15	.3971	.2104	1253.59	.03
288.15	.3803	.2382	1282.06	.03
288.15	.3669	.2657	1317.65	.03
288.15	.3548	.2869	1343.17	.03
288.15	.3449	.3104	1372.68	.03
288.15	.5777	.1743	1244.87	.03
288.15	.5624	.1918	1262.49	.03
288.15	.5519	.2128	1284.49	.03
288.15	.535	.2364	1309.87	.03
288.15	.5127	.266	1343.4	.03
288.15	.7949	.1167	1209.26	.03
288.15	.777	.1366	1227.76	.03
288.15	.7616	.1506	1240.97	.03
288.15	.7491	.1658	1256.17	.03
288.15	.7365	.1806	1272.09	.03
308.15	.0945	.0618	1055.53	.03
308.15	.0889	.1138	1099.92	.03
308.15	.0845	.1619	1144.32	.03
308.15	.0806	.2043	1186.73	.03
308.15	.0761	.2435	1224.57	.03
308.15	.2846	.054	1073.48	.03
308.15	.2693	.1032	1112.46	.03
308.15	.256	.1467	1149.31	.03
308.15	.2441	.1858	1186.35	.03
308.15	.2329	.2232	1227.7	.03
308.15	.4741	.0492	1094.35	.03
308.15	.4512	.0964	1135.16	.03
308.15	.4298	.1376	1171.74	.03
308.15	.4132	.1701	1201.97	.03
308.15	.3992	.1997	1232.66	.03
308.15	.671	.0399	1109.43	.03
308.15	.6446	.0779	1140.28	.03
308.15	.6248	.1072	1166.03	.03
308.15	.6023	.1395	1195.97	.03
308.15	.5827	.1662	1217.57	.03
308.15	.8712	.0305	1117.82	.03
308.15	.8463	.0595	1141.43	.03
308.15	.8254	.0829	1164.74	.03
308.15	.7891	.1073	1184.35	.03
308.15	.7786	.1333	1206.09	.03
308.15	.0721	.2791	1266.69	.03
308.15	.069	.3105	1290.19	.03
308.15	.0663	.3396	1322.1	.03
308.15	.0634	.3661	1362.41	.03
308.15	.0619	.3947	1402.37	.03
308.15	.2236	.2551	1258.03	.03
308.15	.2136	.2873	1294.22	.03
308.15	.2055	.3139	1320.24	.03
308.15	.1982	.3402	1350.33	.03
308.15	.1919	.3627	1379.07	.03
308.15	.3839	.2323	1264.28	.03
308.15	.3692	.2607	1297.75	.03
308.15	.3569	.2866	1328.4	.03
308.15	.3439	.3132	1359.34	.03
308.15	.3338	.3335	1383.63	.03
308.15	.5605	.1931	1249.13	.03
308.15	.5441	.2201	1275.13	.03
308.15	.5299	.242	1298.28	.03
308.15	.5102	.269	1330.11	.03
308.15	.4995	.2857	1352.07	.03
308.15	.7634	.152	1221.62	.03
308.15	.741	.175	1247.16	.03
308.15	.7251	.1944	1264.8	.03
308.15	.7072	.2134	1282.34	.03
308.15	.6885	.2305	1308.99	.03
