Measured thermophysical data. Structure and energetics correlations in some chlorohydroxypyridines
Source: J. Chem. Thermodyn., 2013, 10.1016/j.jct.2013.03.001
Compound 1: 3-chloro-5-hydroxypyridine, C5H4ClNO, purity 98%
Compound 2: 2-chloro-3-hydroxypyridine, C5H4ClNO, purity 97%
Compound 3: 2(1H)-pyridinone, 6-chloro-, C5H4ClNO, purity 98%
Compound 4: hydrogen chloride, ClH
Compound 5: carbon dioxide, CO2
Compound 6: nitrogen, N2
Compound 7: water, H2O
Compound 8: oxygen, O2

System: 3-chloro-5-hydroxypyridine; phases: Crystal, Liquid, Air at 1 atmosphere
Property: Molar enthalpy of transition or fusion, kJ/mol (Crystal); method: DSC/DTA
Molar enthalpy of transition or fusion, kJ/mol	uncertainty
21.59	.35

System: 3-chloro-5-hydroxypyridine; phases: Crystal, Liquid, Air at 1 atmosphere
Property: Normal melting temperature, K (Crystal); method: DSC/DTA
Normal melting temperature, K	uncertainty
432.91	.2

System: 3-chloro-5-hydroxypyridine; phases: Crystal, Gas
Property: Molar enthalpy of vaporization or sublimation, kJ/mol (Crystal); method: Static calorimetry
Temperature, K	Molar enthalpy of vaporization or sublimation, kJ/mol	uncertainty
298.15	99.5	2

System: 2-chloro-3-hydroxypyridine; phases: Crystal, Liquid, Air at 1 atmosphere
Property: Molar enthalpy of transition or fusion, kJ/mol (Crystal); method: DSC/DTA
Molar enthalpy of transition or fusion, kJ/mol	uncertainty
26.75	.25

System: 2-chloro-3-hydroxypyridine; phases: Crystal, Liquid, Air at 1 atmosphere
Property: Normal melting temperature, K (Crystal); method: DSC/DTA
Normal melting temperature, K	uncertainty
443.14	.2

System: 2-chloro-3-hydroxypyridine; phases: Crystal, Gas
Property: Molar enthalpy of vaporization or sublimation, kJ/mol (Crystal); method: Static calorimetry
Temperature, K	Molar enthalpy of vaporization or sublimation, kJ/mol	uncertainty
298.15	89.2	1.7

System: 2(1H)-pyridinone, 6-chloro-; phases: Crystal, Liquid, Air at 1 atmosphere
Property: Molar enthalpy of transition or fusion, kJ/mol (Crystal); method: DSC/DTA
Molar enthalpy of transition or fusion, kJ/mol	uncertainty
18.38	.24

System: 2(1H)-pyridinone, 6-chloro-; phases: Crystal, Liquid, Air at 1 atmosphere
Property: Normal melting temperature, K (Crystal); method: DSC/DTA
Normal melting temperature, K	uncertainty
401.61	.04

System: 2(1H)-pyridinone, 6-chloro-; phases: Crystal, Gas
Property: Molar enthalpy of vaporization or sublimation, kJ/mol (Crystal); method: Static calorimetry
Temperature, K	Molar enthalpy of vaporization or sublimation, kJ/mol	uncertainty
298.15	91.7	1.2

Reaction: -1 2-chloro-3-hydroxypyridine + 1 hydrogen chloride + 5 carbon dioxide + 0.5 nitrogen + 1.5 water + -5.25 oxygen
Property: Specific internal energy of reaction at constant volume, J/g
-18506.2

Reaction: 1 hydrogen chloride + -1 2(1H)-pyridinone, 6-chloro- + 5 carbon dioxide + 0.5 nitrogen + 1.5 water + -5.25 oxygen
Property: Specific internal energy of reaction at constant volume, J/g
-18269.3

Reaction: 1 hydrogen chloride + -1 3-chloro-5-hydroxypyridine + 5 carbon dioxide + 0.5 nitrogen + 1.5 water + -5.25 oxygen
Property: Specific internal energy of reaction at constant volume, J/g
-18546.8
