Measured thermophysical data. Density, speed of sound, heat capacity, and related properties of 1-hexanol and 2-ethyl-1-butanol as function of temperature and pressure
Source: J. Chem. Thermodyn., 2013, 10.1016/j.jct.2012.09.027
Compound 1: amylcarbinol, C6H14O, purity 99%
Compound 2: 2-ethyl-1-butanol, C6H14O, purity 99%

System: amylcarbinol; phases: Liquid
Property: Speed of sound, m/s (Liquid); method: Pulse-echo method
Pressure, kPa	Temperature, K	Speed of sound, m/s	uncertainty
101	292.91	1320.79	.5
30390	292.92	1465.73	.5
45590	292.92	1525.8	.5
60790	292.91	1581.37	.5
75990	292.92	1633.75	.5
91180	292.91	1682.67	.5
101320	292.91	1713.2	.5
101	308.15	1269.05	.5
15200	308.15	1349.81	.5
30390	308.15	1419.69	.5
45590	308.15	1482.88	.5
60790	308.15	1540.4	.5
75990	308.15	1594.13	.5
91180	308.16	1643.48	.5
101320	308.16	1675.87	.5
101	298.18	1302.75	.5
15200	298.19	1381.46	.5
30390	298.19	1449.11	.5
45590	298.19	1510.11	.5
60790	298.19	1566.83	.5
75990	298.19	1619.35	.5
91180	298.19	1668.5	.5
101320	298.19	1699.28	.5
101	313.13	1252.38	.5
15200	313.14	1334.05	.5
30390	313.14	1404.76	.5
45590	313.14	1469.3	.5
60790	313.14	1527.64	.5
75990	313.14	1581.73	.5
91180	313.14	1632.08	.5
101320	313.14	1664.3	.5
101	318.22	1235.52	.5
15200	318.22	1318.81	.5
30390	318.21	1390.85	.5
45590	318.21	1456	.5
60790	318.21	1514.43	.5
75990	318.21	1569.15	.5
91180	318.21	1620.49	.5
101320	318.21	1653	.5

System: amylcarbinol; phases: Liquid
Fixed: Pressure, kPa = 101.325
Property: Mass density, kg/m3 (Liquid); method: Vibrating tube method
Temperature, K	Mass density, kg/m3	uncertainty
283.14	825.82	.05
288.15	822.29	.05
293.15	818.75	.05
298.14	815.18	.05
303.15	811.59	.05
308.14	807.98	.05
313.15	804.33	.05
318.15	800.65	.05
323.15	796.93	.05
328.15	793.17	.05
333.14	789.37	.05
338.15	785.53	.05
343.14	781.62	.05

System: 2-ethyl-1-butanol; phases: Liquid
Property: Speed of sound, m/s (Liquid); method: Pulse-echo method
Pressure, kPa	Temperature, K	Speed of sound, m/s	uncertainty
101	292.89	1321.71	.5
15200	292.86	1403.2	.5
30390	292.85	1472.37	.5
45590	292.85	1534.86	.5
60790	292.85	1592.44	.5
75990	292.84	1645.88	.5
91180	292.85	1695.72	.5
101320	292.85	1727.57	.5
101	308.11	1265.89	.5
15200	308.1	1351.8	.5
30390	308.11	1424.12	.5
45590	308.11	1489.3	.5
60790	308.11	1549.01	.5
75990	308.11	1604.28	.5
91180	308.11	1655.77	.5
101320	308.11	1688.13	.5
101	298.15	1302.28	.5
15200	298.15	1385.09	.5
30390	298.15	1455.32	.5
45590	298.15	1518.76	.5
60790	298.15	1577.16	.5
75990	298.15	1631.16	.5
91180	298.15	1681.56	.5
101320	298.15	1713.55	.5
101	313.08	1247.84	.5
15200	313.08	1335.35	.5
30390	313.08	1409.02	.5
45590	313.08	1474.98	.5
60790	313.08	1535.15	.5
75990	313.08	1591.18	.5
91180	313.08	1643.09	.5
101320	313.09	1675.87	.5
101	303.13	1284.05	.5
15200	303.12	1368.36	.5
30390	303.11	1439.59	.5
45590	303.11	1503.98	.5
60790	303.11	1562.96	.5
75990	303.12	1617.74	.5
91180	303.12	1668.49	.5
101320	303.11	1700.72	.5
101	318.16	1229.47	.5
15200	318.15	1318.79	.5
30390	318.25	1393.2	.5
45590	318.25	1460.26	.5
60790	318.25	1521.19	.5
75990	318.25	1577.53	.5
91180	318.26	1630.31	.5
101320	318.25	1663.33	.5

System: 2-ethyl-1-butanol; phases: Liquid
Fixed: Pressure, kPa = 101.325
Property: Mass density, kg/m3 (Liquid); method: Vibrating tube method
Temperature, K	Mass density, kg/m3	uncertainty
283.16	840.58	.05
288.15	836.86	.05
293.15	833.11	.05
298.15	829.31	.05
303.15	825.47	.05
308.15	821.59	.05
313.15	817.66	.05
318.15	813.68	.05
323.15	809.65	.05
328.15	805.58	.05
333.15	801.44	.05
338.14	797.26	.05
343.15	793.02	.05
348.15	788.72	.05
353.14	784.37	.05

System: 2-ethyl-1-butanol; phases: Liquid
Fixed: Pressure, kPa = 101.325
Property: Molar heat capacity at constant pressure, J/K/mol (Liquid); method: Small sample (50 mg) DSC
Temperature, K	Molar heat capacity at constant pressure, J/K/mol	uncertainty
293.15	245	2.45
298.15	250.7	2.507
303.15	256.4	2.564
308.15	262.1	2.621
313.15	267.9	2.679
318.15	273.6	2.736
323.15	279.2	2.792
