Measured thermophysical data. Surface tension and density of mixtures of m-xylene + n-alkane at 293.15 K: Analysis under the extended Langmuir and Shereshefsky models
Source: J. Chem. Thermodyn., 2017, 10.1016/j.jct.2016.11.018
Compound 1: m-xylene, C8H10, purity 99%
Compound 2: n-pentane, C5H12, purity 99.5%
Compound 3: n-hexane, C6H14, purity 99.5%
Compound 4: n-heptane, C7H16, purity 99.5%
Compound 5: n-octane, C8H18, purity 99.5%

System: m-xylene; phases: Liquid
Property: Mass density, kg/m3 (Liquid); method: Vibrating tube method
Temperature, K	Pressure, kPa	Mass density, kg/m3	uncertainty
293.15	101.3	864.16	

System: m-xylene; phases: Liquid, Air at 1 atmosphere
Property: Surface tension liquid-gas, N/m (Liquid); method: Pendant drop shape
Temperature, K	Surface tension liquid-gas, N/m	uncertainty
293.15	.02868	

System: n-pentane; phases: Liquid
Property: Mass density, kg/m3 (Liquid); method: Vibrating tube method
Temperature, K	Pressure, kPa	Mass density, kg/m3	uncertainty
293.15	101.3	626.23	

System: n-pentane; phases: Liquid, Air at 1 atmosphere
Property: Surface tension liquid-gas, N/m (Liquid); method: Pendant drop shape
Temperature, K	Surface tension liquid-gas, N/m	uncertainty
293.15	.01607	

System: n-hexane; phases: Liquid
Property: Mass density, kg/m3 (Liquid); method: Vibrating tube method
Temperature, K	Pressure, kPa	Mass density, kg/m3	uncertainty
293.15	101.3	660.51	

System: n-hexane; phases: Liquid, Air at 1 atmosphere
Property: Surface tension liquid-gas, N/m (Liquid); method: Pendant drop shape
Temperature, K	Surface tension liquid-gas, N/m	uncertainty
293.15	.01839	

System: n-heptane; phases: Liquid
Property: Mass density, kg/m3 (Liquid); method: Vibrating tube method
Temperature, K	Pressure, kPa	Mass density, kg/m3	uncertainty
293.15	101.3	683.78	

System: n-heptane; phases: Liquid, Air at 1 atmosphere
Property: Surface tension liquid-gas, N/m (Liquid); method: Pendant drop shape
Temperature, K	Surface tension liquid-gas, N/m	uncertainty
293.15	.02013	

System: n-octane; phases: Liquid
Property: Mass density, kg/m3 (Liquid); method: Vibrating tube method
Temperature, K	Pressure, kPa	Mass density, kg/m3	uncertainty
293.15	101.3	702.93	

System: n-octane; phases: Liquid, Air at 1 atmosphere
Property: Surface tension liquid-gas, N/m (Liquid); method: Pendant drop shape
Temperature, K	Surface tension liquid-gas, N/m	uncertainty
293.15	.02167	

System: m-xylene + n-pentane; phases: Liquid
Property: Mass density, kg/m3 (Liquid); method: Vibrating tube method
Temperature, K	Pressure, kPa	Mole fraction of m-xylene	Mass density, kg/m3	uncertainty
293.15	101.3	.1223	655.69	
293.15	101.3	.2011	674.54	
293.15	101.3	.2995	698.03	
293.15	101.3	.4014	722.31	
293.15	101.3	.4988	745.51	
293.15	101.3	.6007	769.71	
293.15	101.3	.6998	793.19	
293.15	101.3	.8013	817.15	
293.15	101.3	.8987	840.15	
293.15	101.3	1	864.16	
293.15	101.3	0	626.23	

System: m-xylene + n-pentane; phases: Liquid, Air at 1 atmosphere
Property: Surface tension liquid-gas, N/m (Liquid); method: Pendant drop shape
Temperature, K	Mole fraction of m-xylene	Surface tension liquid-gas, N/m	uncertainty
293.15	.1223	.01731	
293.15	.2011	.0181	
293.15	.2995	.01911	
293.15	.4014	.0202	
293.15	.4988	.02133	
293.15	.6007	.02262	
293.15	.6998	.02399	
293.15	.8013	.02549	
293.15	.8987	.02702	
293.15	1	.02868	
293.15	0	.01607	

System: m-xylene + n-hexane; phases: Liquid
Property: Mass density, kg/m3 (Liquid); method: Vibrating tube method
Temperature, K	Pressure, kPa	Mole fraction of m-xylene	Mass density, kg/m3	uncertainty
293.15	101.3	.1005	680.22	
293.15	101.3	.1992	699.79	
293.15	101.3	.3001	719.97	
293.15	101.3	.3994	740.01	
293.15	101.3	.4999	760.43	
293.15	101.3	.6091	782.79	
293.15	101.3	.6913	799.74	
293.15	101.3	.8019	822.68	
293.15	101.3	.8992	843.01	
293.15	101.3	1	864.16	
293.15	101.3	0	660.51	

System: m-xylene + n-hexane; phases: Liquid, Air at 1 atmosphere
Property: Surface tension liquid-gas, N/m (Liquid); method: Pendant drop shape
Temperature, K	Mole fraction of m-xylene	Surface tension liquid-gas, N/m	uncertainty
293.15	.1005	.01911	
293.15	.1992	.01985	
293.15	.3001	.02064	
293.15	.3994	.02147	
293.15	.4999	.02237	
293.15	.6091	.0235	
293.15	.6913	.02445	
293.15	.8019	.02586	
293.15	.8992	.02721	
293.15	1	.02868	
293.15	0	.01839	

System: m-xylene + n-heptane; phases: Liquid
Property: Mass density, kg/m3 (Liquid); method: Vibrating tube method
Temperature, K	Pressure, kPa	Mole fraction of m-xylene	Mass density, kg/m3	uncertainty
293.15	101.3	.1102	700.76	
293.15	101.3	.2022	715.42	
293.15	101.3	.2994	731.42	
293.15	101.3	.4006	748.68	
293.15	101.3	.4986	766.02	
293.15	101.3	.6028	785.15	
293.15	101.3	.6994	803.43	
293.15	101.3	.8095	824.97	
293.15	101.3	.8998	843.21	
293.15	101.3	1	864.16	
293.15	101.3	0	683.78	

System: m-xylene + n-heptane; phases: Liquid, Air at 1 atmosphere
Property: Surface tension liquid-gas, N/m (Liquid); method: Pendant drop shape
Temperature, K	Mole fraction of m-xylene	Surface tension liquid-gas, N/m	uncertainty
293.15	.1102	.02069	
293.15	.2022	.02115	
293.15	.2994	.02175	
293.15	.4006	.02241	
293.15	.4986	.02313	
293.15	.6028	.02402	
293.15	.6994	.02497	
293.15	.8095	.02622	
293.15	.8998	.02734	
293.15	1	.02868	
293.15	0	.02013	

System: m-xylene + n-octane; phases: Liquid
Property: Mass density, kg/m3 (Liquid); method: Vibrating tube method
Temperature, K	Pressure, kPa	Mole fraction of m-xylene	Mass density, kg/m3	uncertainty
293.15	101.3	.1	714.96	
293.15	101.3	.2035	728.42	
293.15	101.3	.3029	742.19	
293.15	101.3	.4105	759.36	
293.15	101.3	.499	771.74	
293.15	101.3	.6017	788.49	
293.15	101.3	.6969	804.93	
293.15	101.3	.7995	823.73	
293.15	101.3	.9001	843.33	
293.15	101.3	1	864.16	
293.15	101.3	0	702.93	

System: m-xylene + n-octane; phases: Liquid, Air at 1 atmosphere
Property: Surface tension liquid-gas, N/m (Liquid); method: Pendant drop shape
Temperature, K	Mole fraction of m-xylene	Surface tension liquid-gas, N/m	uncertainty
293.15	.1	.02201	
293.15	.2035	.02239	
293.15	.3029	.02281	
293.15	.4105	.02335	
293.15	.499	.02386	
293.15	.6017	.02455	
293.15	.6969	.02531	
293.15	.7995	.02628	
293.15	.9001	.02741	
293.15	1	.02868	
293.15	0	.02167	
