Measured thermophysical data. Vapor pressures and activity coefficients of binary mixtures of 1-ethyl-3-methylimidazolium bis(trifluoromethylsulfonyl)imide  with acetonitrile and tetrahydrofuran
Source: J. Chem. Thermodyn., 2012, 10.1016/j.jct.2011.09.022
Compound 1: ethanonitrile, C2H3N, purity 99.9%
Compound 2: oxacyclopentane, C4H8O, purity 99.9%
Compound 3: 1-ethyl-3-methylimidazolium bis[(trifluoromethyl)sulfonyl]imide, C8H11F6N3O4S2, purity 99%

System: ethanonitrile; phases: Liquid, Gas
Property: Vapor or sublimation pressure, kPa (Liquid); method: Closed cell (Static) method
Temperature, K	Vapor or sublimation pressure, kPa	uncertainty
278.98	4.513	.0022565
278.72	4.443	.0022215
278.88	4.539	.0022695
279.81	4.732	.002366
280.27	4.859	.0024295
281.91	5.339	.0026695
283.17	5.637	.0028185
283.56	5.838	.002919
283.81	5.916	.002958
284.56	6.102	.003051
285.7	6.473	.0032365
286.17	6.59	.003295
286.61	6.754	.003377
288.72	7.498	.003749
288.8	7.559	.0037795
288.83	7.594	.003797
289.39	7.802	.003901
290.09	8.032	.004016
290.6	8.302	.004151
291.36	8.598	.004299
292.48	9.163	.0045815
293.21	9.408	.004704
293.92	9.82	.00491
294.4	10.027	.0050135
295.33	10.427	.0052135
295.94	10.77	.005385
296.44	11.024	.005512
297.48	11.599	.0057995
298.3	12.05	.006025
298.67	12.171	.0060855
299.42	12.605	.0063025
301.19	13.607	.0068035
302.14	14.181	.0070905
304.16	15.574	.007787
305.01	16.102	.008051
306.04	16.957	.0084785
306.9	17.526	.008763
307.95	18.223	.0091115
309.92	19.851	.0099255
310.71	20.489	.0102445
311.79	21.382	.010691
311.88	21.547	.0107735
312.81	22.496	.011248
313.77	23.421	.0117105
314.79	24.167	.0120835
315.71	25.102	.012551
315.79	25.152	.012576
316.63	26.109	.0130545
317.72	27.213	.0136065
318.66	28.265	.0141325
319.69	29.386	.014693
320.67	30.521	.0152605
321.65	31.734	.015867
322.54	32.955	.0164775
322.56	32.942	.016471
322.64	33.191	.0165955
323.64	34.487	.0172435
324.59	35.645	.0178225
325.58	37.001	.0185005

System: oxacyclopentane; phases: Liquid, Gas
Property: Vapor or sublimation pressure, kPa (Liquid); method: Closed cell (Static) method
Temperature, K	Vapor or sublimation pressure, kPa	uncertainty
275.99	7.099	.0035495
276.53	7.556	.003778
277.76	7.839	.0039195
278.19	8.328	.004164
279.41	8.614	.004307
279.86	9.036	.004518
280.16	8.932	.004466
281.95	9.957	.0049785
283.07	10.554	.005277
283.15	10.316	.005158
283.36	10.9	.00545
284.88	11.682	.005841
286.55	12.444	.006222
288.5	13.787	.0068935
289	14.002	.007001
289.66	14.48	.00724
291.04	15.65	.007825
292.31	16.652	.008326
293.3	17.425	.0087125
296.05	19.72	.00986
296.84	20.369	.0101845
297.09	20.646	.010323
298.15	21.5	.01075
298.72	22.239	.0111195
300.57	23.843	.0119215
301.73	25.278	.012639
302.96	26.622	.013311
303.23	26.87	.013435
304.04	27.788	.013894
305.35	29.426	.014713
306.54	30.767	.0153835
308.07	32.491	.0162455
310.2	35.55	.017775
310.86	36.653	.0183265
311.9	38.542	.019271
313.12	40.13	.020065
313.18	40.095	.0200475
315.86	44.654	.022327
317.71	47.862	.023931
319.58	51.314	.025657
321.57	55.345	.0276725
323.59	59.463	.0297315

System: ethanonitrile + 1-ethyl-3-methylimidazolium bis[(trifluoromethyl)sulfonyl]imide; phases: Liquid, Gas
Property: Vapor or sublimation pressure, kPa (Liquid); method: Closed cell (Static) method
Mole fraction of ethanonitrile	Temperature, K	Vapor or sublimation pressure, kPa	uncertainty
.0577	283.15	.192	.000096
.11839	283.15	.347	.0001735
.1663	283.15	.469	.0002345
.20793	283.15	.611	.0003055
.25407	283.15	.751	.0003755
.30868	283.15	.931	.0004655
.35724	283.15	1.129	.0005645
.41013	283.15	1.398	.000699
.47088	283.15	1.747	.0008735
.55329	283.15	2.252	.001126
.61428	283.15	2.762	.001381
.64687	283.15	3.117	.0015585
.71969	283.15	3.933	.0019665
.8032	283.15	4.838	.002419
.85839	283.15	5.375	.0026875
.91122	283.15	5.68	.00284
.0577	293.15	.274	.000137
.11839	293.15	.531	.0002655
.1663	293.15	.725	.0003625
.20793	293.15	.947	.0004735
.25407	293.15	1.143	.0005715
.30868	293.15	1.428	.000714
.35724	293.15	1.71	.000855
.41013	293.15	2.122	.001061
.47088	293.15	2.638	.001319
.55329	293.15	3.457	.0017285
.61428	293.15	4.239	.0021195
.64687	293.15	4.761	.0023805
.71969	293.15	6.132	.003066
.8032	293.15	7.557	.0037785
.85839	293.15	8.418	.004209
.91122	293.15	8.959	.0044795
.0577	303.15	.401	.0002005
.11839	303.15	.78	.00039
.1663	303.15	1.108	.000554
.20793	303.15	1.412	.000706
.25407	303.15	1.741	.0008705
.30868	303.15	2.14	.00107
.35724	303.15	2.547	.0012735
.41013	303.15	3.172	.001586
.47088	303.15	3.956	.001978
.55329	303.15	5.237	.0026185
.61428	303.15	6.437	.0032185
.64687	303.15	7.22	.00361
.71969	303.15	9.315	.0046575
.8032	303.15	11.657	.0058285
.85839	303.15	13.004	.006502
.91122	303.15	13.967	.0069835
.0577	313.15	.55	.000275
.11839	313.15	1.187	.0005935
.1663	313.15	1.655	.0008275
.20793	313.15	2.105	.0010525
.25407	313.15	2.566	.001283
.30868	313.15	3.097	.0015485
.35724	313.15	3.728	.001864
.41013	313.15	4.539	.0022695
.47088	313.15	5.72	.00286
.55329	313.15	7.764	.003882
.61428	313.15	9.608	.004804
.64687	313.15	10.771	.0053855
.71969	313.15	13.97	.006985
.8032	313.15	17.689	.0088445
.85839	313.15	19.798	.009899
.91122	313.15	21.31	.010655

System: oxacyclopentane + 1-ethyl-3-methylimidazolium bis[(trifluoromethyl)sulfonyl]imide; phases: Liquid, Gas
Property: Vapor or sublimation pressure, kPa (Liquid); method: Closed cell (Static) method
Mole fraction of oxacyclopentane	Temperature, K	Vapor or sublimation pressure, kPa	uncertainty
.04046	283.15	.445	.0002225
.11663	283.15	.741	.0003705
.17682	283.15	1.152	.000576
.1827	283.15	1.201	.0006005
.23003	283.15	1.54	.00077
.28057	283.15	1.953	.0009765
.33608	283.15	2.573	.0012865
.37931	283.15	3.077	.0015385
.46749	283.15	4.303	.0021515
.56159	283.15	5.715	.0028575
.61659	283.15	6.651	.0033255
.70114	283.15	8.15	.004075
.75981	283.15	9.118	.004559
.80426	283.15	9.77	.004885
.86856	283.15	10.323	.0051615
.89811	283.15	10.441	.0052205
.04046	293.15	.65	.000325
.11663	293.15	1.172	.000586
.17682	293.15	1.781	.0008905
.1827	293.15	1.844	.000922
.23003	293.15	2.282	.001141
.28057	293.15	2.963	.0014815
.33608	293.15	3.893	.0019465
.37931	293.15	4.735	.0023675
.46749	293.15	6.695	.0033475
.56159	293.15	9	.0045
.61659	293.15	10.481	.0052405
.70114	293.15	12.83	.006415
.75981	293.15	14.382	.007191
.80426	293.15	15.409	.0077045
.86856	293.15	16.463	.0082315
.89811	293.15	16.652	.008326
.04046	303.15	.956	.000478
.11663	303.15	1.806	.000903
.17682	303.15	2.645	.0013225
.1827	303.15	2.67	.001335
.23003	303.15	3.289	.0016445
.28057	303.15	4.296	.002148
.33608	303.15	5.702	.002851
.37931	303.15	6.907	.0034535
.46749	303.15	10.006	.005003
.56159	303.15	13.593	.0067965
.61659	303.15	15.846	.007923
.70114	303.15	19.472	.009736
.75981	303.15	21.728	.010864
.80426	303.15	23.282	.011641
.86856	303.15	25.092	.012546
.89811	303.15	25.621	.0128105
.04046	313.15	1.427	.0007135
.11663	313.15	2.7	.00135
.17682	313.15	3.773	.0018865
.1827	313.15	3.816	.001908
.23003	313.15	4.599	.0022995
.28057	313.15	6.008	.003004
.33608	313.15	7.941	.0039705
.37931	313.15	9.74	.00487
.46749	313.15	14.473	.0072365
.56159	313.15	19.952	.009976
.61659	313.15	23.307	.0116535
.70114	313.15	28.68	.01434
.75981	313.15	32.084	.016042
.80426	313.15	34.363	.0171815
.86856	313.15	37.214	.018607
.89811	313.15	38.377	.0191885
