Measured thermophysical data. Thermodynamic investigations on barium indate
Source: J. Chem. Thermodyn., 2015, 10.1016/j.jct.2015.04.035
Compound 1: barium indium oxide (Ba2In2O5), Ba2In2O5
Compound 2: oxygen, O2
Compound 3: indium, In
Compound 4: barium, Ba

System: barium indium oxide (Ba2In2O5); phases: Crystal 3, Crystal 2, Air at 1 atmosphere
Property: Triple point temperature, K (Crystal 3); method: DSC/DTA
Triple point temperature, K	uncertainty
1195	

System: barium indium oxide (Ba2In2O5); phases: Crystal 2, Crystal 1, Air at 1 atmosphere
Property: Triple point temperature, K (Crystal 2); method: DSC/DTA
Triple point temperature, K	uncertainty
1316	

System: barium indium oxide (Ba2In2O5); phases: Crystal 3
Fixed: Pressure, kPa = 101.325
Property: Molar enthalpy, kJ/mol (Crystal 3); method: Drop calorimetry
Temperature, K	Molar enthalpy, kJ/mol	uncertainty
350	12.3764	.185646
375.5	17.4674	.262011
426	27.7863	.4167945
477	40.0819	.6012285
528	52.8996	.793494
579	64.4617	.9669255
630	74.7743	1.1216145
681	89.0653	1.3359795
732	99.1976	1.487964
783	114.9183	1.7237745
834	122.4026	1.836039
885	137.396	2.06094
936	147.7707	2.2165605
986.5	166.4131	2.4961965

Reaction: -2 barium + -2 indium + 1 barium indium oxide (Ba2In2O5) + -2.5 oxygen
Property: Molar enthalpy of reaction, kJ/mol
-2125.7
