Measured thermophysical data. Solubility of climbazole in various alcohols at different temperatures
Source: J. Chem. Thermodyn., 2014, 10.1016/j.jct.2014.04.011
Compound 1: ethanol, C2H6O, purity 99.9%
Compound 2: 1-propanol, C3H8O, purity 99.9%
Compound 3: 1-butanol, C4H10O, purity 99.7%
Compound 4: 1-pentanol, C5H12O, purity 99%
Compound 5: 1-hexanol, C6H14O, purity 99%
Compound 6: 1-heptanol, C7H16O, purity 98%
Compound 7: 1-(4-Chlorophenoxy)-1-(imidazol-1-yl)-3,3-dimethylbutanone, C15H17ClN2O2, purity 98%

System: 1-(4-Chlorophenoxy)-1-(imidazol-1-yl)-3,3-dimethylbutanone; phases: Crystal, Liquid, Air at 1 atmosphere
Property: Triple point temperature, K (Crystal); method: DSC/DTA
Triple point temperature, K	uncertainty
372	

System: 1-(4-Chlorophenoxy)-1-(imidazol-1-yl)-3,3-dimethylbutanone; phases: Crystal, Liquid, Air at 1 atmosphere
Property: Molar enthalpy of transition or fusion, kJ/mol (Crystal); method: DSC
Molar enthalpy of transition or fusion, kJ/mol	uncertainty
29	

System: ethanol + 1-(4-Chlorophenoxy)-1-(imidazol-1-yl)-3,3-dimethylbutanone; phases: Liquid, Crystal
Fixed: Pressure, kPa = 101
Property: Mole fraction of 1-(4-Chlorophenoxy)-1-(imidazol-1-yl)-3,3-dimethylbutanone (Liquid); method: gravimetric
Temperature, K	Mole fraction of 1-(4-Chlorophenoxy)-1-(imidazol-1-yl)-3,3-dimethylbutanone	uncertainty
278.15	.0801	.004
283.15	.0952	.004
288.15	.1122	.004
293.15	.1331	.004
298.15	.1585	.004
303.15	.1844	.004
308.15	.2151	.004
313.15	.2492	.004
318.15	.287	.004

System: 1-propanol + 1-(4-Chlorophenoxy)-1-(imidazol-1-yl)-3,3-dimethylbutanone; phases: Liquid, Crystal
Fixed: Pressure, kPa = 101
Property: Mole fraction of 1-(4-Chlorophenoxy)-1-(imidazol-1-yl)-3,3-dimethylbutanone (Liquid); method: gravimetric
Temperature, K	Mole fraction of 1-(4-Chlorophenoxy)-1-(imidazol-1-yl)-3,3-dimethylbutanone	uncertainty
278.15	.0842	.004
283.15	.0998	.004
288.15	.1171	.004
293.15	.1392	.004
298.15	.1653	.004
303.15	.1899	.004
308.15	.2195	.004
313.15	.2536	.004
318.15	.2905	.004

System: 1-butanol + 1-(4-Chlorophenoxy)-1-(imidazol-1-yl)-3,3-dimethylbutanone; phases: Liquid, Crystal
Fixed: Pressure, kPa = 101
Property: Mole fraction of 1-(4-Chlorophenoxy)-1-(imidazol-1-yl)-3,3-dimethylbutanone (Liquid); method: gravimetric
Temperature, K	Mole fraction of 1-(4-Chlorophenoxy)-1-(imidazol-1-yl)-3,3-dimethylbutanone	uncertainty
278.15	.0804	.004
283.15	.0957	.004
288.15	.1115	.004
293.15	.1321	.004
298.15	.156	.004
303.15	.1805	.004
308.15	.2093	.004
313.15	.2432	.004
318.15	.2824	.004

System: 1-pentanol + 1-(4-Chlorophenoxy)-1-(imidazol-1-yl)-3,3-dimethylbutanone; phases: Liquid, Crystal
Fixed: Pressure, kPa = 101
Property: Mole fraction of 1-(4-Chlorophenoxy)-1-(imidazol-1-yl)-3,3-dimethylbutanone (Liquid); method: gravimetric
Temperature, K	Mole fraction of 1-(4-Chlorophenoxy)-1-(imidazol-1-yl)-3,3-dimethylbutanone	uncertainty
278.15	.0781	.004
283.15	.0912	.004
288.15	.1073	.004
293.15	.1265	.004
298.15	.1501	.004
303.15	.1739	.004
308.15	.204	.004
313.15	.2379	.004
318.15	.2732	.004

System: 1-hexanol + 1-(4-Chlorophenoxy)-1-(imidazol-1-yl)-3,3-dimethylbutanone; phases: Liquid, Crystal
Fixed: Pressure, kPa = 101
Property: Mole fraction of 1-(4-Chlorophenoxy)-1-(imidazol-1-yl)-3,3-dimethylbutanone (Liquid); method: gravimetric
Temperature, K	Mole fraction of 1-(4-Chlorophenoxy)-1-(imidazol-1-yl)-3,3-dimethylbutanone	uncertainty
278.15	.073	.004
283.15	.0858	.004
288.15	.0999	.004
293.15	.119	.004
298.15	.1409	.004
303.15	.1642	.004
308.15	.1919	.004
313.15	.2234	.004
318.15	.2632	.004

System: 1-heptanol + 1-(4-Chlorophenoxy)-1-(imidazol-1-yl)-3,3-dimethylbutanone; phases: Liquid, Crystal
Fixed: Pressure, kPa = 101
Property: Mole fraction of 1-(4-Chlorophenoxy)-1-(imidazol-1-yl)-3,3-dimethylbutanone (Liquid); method: gravimetric
Temperature, K	Mole fraction of 1-(4-Chlorophenoxy)-1-(imidazol-1-yl)-3,3-dimethylbutanone	uncertainty
278.15	.0686	.004
283.15	.0797	.004
288.15	.0937	.004
293.15	.1106	.004
298.15	.1307	.004
303.15	.1522	.004
308.15	.18	.004
313.15	.2105	.004
318.15	.2448	.004
