Measured thermophysical data. Isothermal vapour-liquid equilibrium data for the binary systems of (CHF3 or C2F6) and n-heptane
Source: J. Chem. Thermodyn., 2016, 10.1016/j.jct.2016.06.031
Compound 1: trifluoromethane, CHF3
Compound 2: hexafluoroethane, C2F6
Compound 3: n-heptane, C7H16, purity 99.5%

System: hexafluoroethane; phases: Liquid, Gas
Property: Vapor or sublimation pressure, kPa (Liquid); method: Closed cell (Static) method
Temperature, K	Vapor or sublimation pressure, kPa	uncertainty
273.06	1839	
278.07	2100	
283.07	2388	
288.07	2701	
292.07	2972	

System: n-heptane; phases: Liquid
Fixed: Pressure, kPa = 101.325
Property: Refractive index (Na D-line) (Liquid); method: Standard Abbe refractometry
Temperature, K	Refractive index (Na D-line)	uncertainty
293.15	1.3878	
298.15	1.3852	

System: n-heptane; phases: Liquid
Fixed: Pressure, kPa = 101.325
Property: Mass density, kg/m3 (Liquid); method: Vibrating tube method
Temperature, K	Mass density, kg/m3	uncertainty
293.15	683.8	
295.15	681.6	
297.15	679.9	
298.15	679.1	
300.4	677.1	

System: trifluoromethane + n-heptane; phases: Liquid mixture 1, Liquid mixture 2
Property: Mole fraction of trifluoromethane (Liquid mixture 1); method: Chromatography
Temperature, K	Pressure, kPa	Mole fraction of trifluoromethane	uncertainty
272.88	2428	.312	
282.97	3063	.366	
293.04	3833	.429	
303.12	4716	.486	
313.19	5728	.542	

System: trifluoromethane + n-heptane; phases: Liquid mixture 2, Liquid mixture 1
Property: Mole fraction of trifluoromethane (Liquid mixture 2); method: Chromatography
Temperature, K	Pressure, kPa	Mole fraction of trifluoromethane	uncertainty
272.88	2428	.959	
282.97	3063	.943	
293.04	3833	.943	
303.12	4716	.931	
313.19	5728	.95	

System: trifluoromethane + n-heptane; phases: Liquid, Gas
Property: Vapor or sublimation pressure, kPa (Liquid); method: Closed cell (Static) method
Mole fraction of trifluoromethane	Temperature, K	Vapor or sublimation pressure, kPa	uncertainty
.095	272.89	1108	
.134	272.88	1453	
.156	272.88	1604	
.217	272.87	1994	
.264	272.89	2215	
.295	272.88	2338	
.312	272.88	2428	
.959	272.88	2428	
.973	272.87	2436	
.989	272.88	2440	
.09	282.96	1198	
.127	282.95	1559	
.149	282.96	1763	
.207	282.96	2232	
.239	282.96	2471	
.282	282.95	2701	
.352	282.98	2986	
.366	282.97	3063	
.943	282.97	3063	
.971	282.96	3114	
.987	282.96	3138	
.087	293.03	1283	
.143	293.04	1923	
.198	293.04	2456	
.225	293.04	2698	
.269	293.03	3032	
.316	293.06	3333	
.412	293.04	3775	
.429	293.04	3833	
.943	293.04	3833	
.959	293.02	3879	
.983	293.04	3959	
.082	303.1	1344	
.139	303.11	2081	
.19	303.11	2661	
.213	303.12	2902	
.259	303.1	3336	
.293	303.11	3632	
.395	303.11	4327	
.486	303.12	4716	
.931	303.12	4716	
.953	303.11	4771	
.975	303.12	4857	
.071	313.21	1278	
.134	313.21	2208	
.196	313.2	3044	
.274	313.2	3889	
.329	313.2	4410	
.378	313.2	4821	
.444	313.2	5273	
.526	313.2	5663	
.542	313.19	5728	
.95	313.19	5728	
.961	313.2	5742	

System: trifluoromethane + n-heptane; phases: Gas, Liquid
Property: Mole fraction of trifluoromethane (Gas); method: Chromatography
Mole fraction of trifluoromethane	Temperature, K	Mole fraction of trifluoromethane	uncertainty
.095	272.89	.986	
.134	272.88	.993	
.156	272.88	.992	
.217	272.87	.996	
.264	272.89	.997	
.295	272.88	.998	
.312	272.88	.995	
.959	272.88	.995	
.973	272.87	.997	
.989	272.88	.9976	
.09	282.96	.983	
.127	282.95	.988	
.149	282.96	.9866	
.207	282.96	.987	
.239	282.96	.992	
.282	282.95	.99	
.352	282.98	.994	
.366	282.97	.995	
.943	282.97	.995	
.971	282.96	.995	
.987	282.96	.996	
.087	293.03	.98	
.143	293.04	.989	
.198	293.04	.992	
.225	293.04	.99	
.269	293.03	.99	
.316	293.06	.992	
.412	293.04	.992	
.429	293.04	.992	
.943	293.04	.992	
.959	293.02	.994	
.983	293.04	.996	
.082	303.1	.989	
.139	303.11	.984	
.19	303.11	.988	
.213	303.12	.984	
.259	303.1	.986	
.293	303.11	.988	
.395	303.11	.991	
.486	303.12	.991	
.931	303.12	.991	
.953	303.11	.994	
.975	303.12	.995	
.071	313.21	.98	
.134	313.21	.985	
.196	313.2	.99	
.274	313.2	.99	
.329	313.2	.991	
.378	313.2	.989	
.444	313.2	.988	
.526	313.2	.978	
.542	313.19	.979	
.95	313.19	.979	
.961	313.2	.976	

System: trifluoromethane + n-heptane; phases: Liquid, Gas
Property: Vapor or sublimation pressure, kPa (Liquid); method: Closed cell (Static) method
Temperature, K	Mole fraction of trifluoromethane	Vapor or sublimation pressure, kPa	uncertainty
293.2	.206	2586	
293.17	.357	3557	
293.17	.43	3820	
293.17	.971	3915	
303.21	.206	2870	
303.18	.357	4101	
303.18	.476	4695	
303.19	.971	4864	
313.23	.206	3149	
313.21	.357	4642	
313.23	.476	5486	

System: hexafluoroethane + n-heptane; phases: Liquid mixture 1, Liquid mixture 2
Property: Mole fraction of hexafluoroethane (Liquid mixture 1); method: Chromatography
Temperature, K	Pressure, kPa	Mole fraction of hexafluoroethane	uncertainty
293.04	2717	.114	
303.12	3325	.132	

System: hexafluoroethane + n-heptane; phases: Liquid mixture 2, Liquid mixture 1
Property: Mole fraction of hexafluoroethane (Liquid mixture 2); method: Chromatography
Temperature, K	Pressure, kPa	Mole fraction of hexafluoroethane	uncertainty
293.04	2717	.841	
303.12	3325	.878	
313.17	4151	.888	

System: hexafluoroethane + n-heptane; phases: Liquid, Gas
Property: Vapor or sublimation pressure, kPa (Liquid); method: Closed cell (Static) method
Mole fraction of hexafluoroethane	Temperature, K	Vapor or sublimation pressure, kPa	uncertainty
.023	293.04	872	
.029	293.03	1054	
.039	293.03	1335	
.049	293.05	1597	
.068	293.05	1996	
.08	293.04	2214	
.115	293.04	2664	
.114	293.04	2717	
.841	293.04	2717	
.915	293.05	2854	
.936	293.05	2912	
.947	293.05	2942	
.989	293.05	3011	
.02	303.11	820	
.032	303.11	1239	
.046	303.11	1657	
.061	303.11	2040	
.077	303.11	2399	
.096	303.1	2770	
.117	303.1	3077	
.13	303.12	3295	
.132	303.12	3325	
.878	303.12	3325	
.894	303.14	3385	
.916	303.13	3448	
.969	303.13	3653	
.018	313.22	807	
.025	313.22	1108	
.037	313.22	1521	
.056	313.21	2082	
.078	313.21	2632	
.098	313.23	3074	
.121	313.23	3517	
.131	313.23	3753	
.139	313.22	3822	
.144	313.23	3948	
.147	313.22	4084	

System: hexafluoroethane + n-heptane; phases: Gas, Liquid
Property: Mole fraction of hexafluoroethane (Gas); method: Chromatography
Mole fraction of hexafluoroethane	Temperature, K	Mole fraction of hexafluoroethane	uncertainty
.023	293.04	.966	
.029	293.03	.965	
.039	293.03	.971	
.049	293.05	.975	
.068	293.05	.977	
.08	293.04	.982	
.115	293.04	.976	
.114	293.04	.98	
.841	293.04	.98	
.915	293.05	.989	
.936	293.05	.989	
.947	293.05	.992	
.989	293.05	.997	
.02	303.11	.96	
.032	303.11	.968	
.046	303.11	.968	
.061	303.11	.975	
.077	303.11	.974	
.096	303.1	.974	
.117	303.1	.971	
.13	303.12	.961	
.132	303.12	.965	
.878	303.12	.965	
.894	303.14	.979	
.916	303.13	.984	
.969	303.13	.985	
.018	313.22	.923	
.025	313.22	.956	
.037	313.22	.963	
.056	313.21	.97	
.078	313.21	.97	
.098	313.23	.968	
.121	313.23	.963	
.131	313.23	.962	
.139	313.22	.96	
.144	313.23	.942	
.147	313.22	.913	

System: hexafluoroethane + n-heptane; phases: Liquid, Gas
Property: Vapor or sublimation pressure, kPa (Liquid); method: Closed cell (Static) method
Temperature, K	Mole fraction of hexafluoroethane	Vapor or sublimation pressure, kPa	uncertainty
293.04	.059	1864	
293.04	.12	2748	
293.03	.943	2894	
303.22	.059	2044	
303.06	.12	3105	
303.14	.888	3344	
303.15	.943	3565	
313.17	.059	2227	
313.18	.12	3542	
313.17	.888	4151	
