Measured thermophysical data. Screening of environmental friendly ionic liquid as a solvent for the different types of separations problem: Insight from activity coefficients at infinite dilution measurement using (gas + liquid) chromatography technique
Source: J. Chem. Thermodyn., 2016, 10.1016/j.jct.2015.08.017
Compound 1: 1-ethyl-3-methylimidazolium octyl sulfate, C14H28N2O4S, purity 98%
Compound 2: pentane, C5H12, purity 99%
Compound 3: hexane, C6H14, purity 99%
Compound 4: heptane, C7H16, purity 99%
Compound 5: octane, C8H18, purity 99%
Compound 6: nonane, C9H20, purity 99.8%
Compound 7: cyclohexane, C6H12, purity 99%
Compound 8: cyclopentane, C5H10, purity 99%
Compound 9: cyclooctane, C8H16, purity 99%
Compound 10: methylcyclohexane, C7H14, purity 99%
Compound 11: 1-pentene, C5H10, purity 98.5%
Compound 12: 1-hexene, C6H12, purity 99%
Compound 13: 1-heptene, C7H14, purity 97%
Compound 14: 1-octene, C8H16, purity 99.5%
Compound 15: 1-nonene, C9H18, purity 95%
Compound 16: 1-pentyne, C5H8, purity 99%
Compound 17: 1-hexyne, C6H10, purity 97%
Compound 18: 1-heptyne, C7H12, purity 98%
Compound 19: 1-octyne, C8H14, purity 98%
Compound 20: 1-nonyne, C9H16, purity 99%
Compound 21: benzene, C6H6, purity 99%
Compound 22: toluene, C7H8, purity 99%
Compound 23: methyl propyl ketone, C5H10O, purity 99.5%
Compound 24: methanol, CH4O, purity 99.9%
Compound 25: ethanol, C2H6O, purity 99.9%
Compound 26: 2-propanol, C3H8O, purity 99.9%
Compound 27: acetone, C3H6O, purity 99%
Compound 28: 2-butanone, C4H8O, purity 99.7%
Compound 29: 1-butanol, C4H10O, purity 99.9%
Compound 30: 2-methyl-1-propanol, C4H10O, purity 99.9%
Compound 31: water, H2O, purity 99.9%

System: 1-ethyl-3-methylimidazolium octyl sulfate; phases: Liquid
Fixed: Pressure, kPa = 101.325
Property: Mass density, kg/m3 (Liquid); method: Vibrating tube method
Temperature, K	Mass density, kg/m3	uncertainty
283.15	1104.37	4
293.15	1097.5	4
303.15	1090.88	4
313.15	1084.22	4

System: 1-ethyl-3-methylimidazolium octyl sulfate; phases: Liquid
Fixed: Pressure, kPa = 101.325
Property: Viscosity, Pa*s (Liquid); method: Oscillating disk viscometry
Temperature, K	Viscosity, Pa*s	uncertainty
283.15	1.5788	.055258
293.15	.7179	.0251265
303.15	.3685	.0128975
313.15	.2083	.0072905

System: 1-ethyl-3-methylimidazolium octyl sulfate; phases: Liquid
Fixed: Pressure, kPa = 101.325
Property: Refractive index (Na D-line) (Liquid); method: Standard Abbe refractometry
Temperature, K	Refractive index (Na D-line)	uncertainty
283.15	1.479	.003
293.15	1.477	.003
303.15	1.4741	.003
313.15	1.471	.003

System: pentane + 1-ethyl-3-methylimidazolium octyl sulfate; phases: Liquid
Fixed: Pressure, kPa = 101
Fixed: Mole fraction of pentane = 0
Property: Activity coefficient of pentane (Liquid); method: Chromatography
Temperature, K	Activity coefficient of pentane	uncertainty
318.15	4.54	.08
333.15	4.49	.12
348.15	4.4	.12
358.15	4.37	.14

System: hexane + 1-ethyl-3-methylimidazolium octyl sulfate; phases: Liquid
Fixed: Pressure, kPa = 101
Fixed: Mole fraction of hexane = 0
Property: Activity coefficient of hexane (Liquid); method: Chromatography
Temperature, K	Activity coefficient of hexane	uncertainty
318.15	5.66	.1
333.15	5.93	.14
348.15	5.99	.15
358.15	6.06	.19

System: heptane + 1-ethyl-3-methylimidazolium octyl sulfate; phases: Liquid
Fixed: Pressure, kPa = 101
Fixed: Mole fraction of heptane = 0
Property: Activity coefficient of heptane (Liquid); method: Chromatography
Temperature, K	Activity coefficient of heptane	uncertainty
318.15	6.67	.12
333.15	6.65	.26
348.15	6.62	.22
358.15	6.61	.53

System: octane + 1-ethyl-3-methylimidazolium octyl sulfate; phases: Liquid
Fixed: Pressure, kPa = 101
Fixed: Mole fraction of octane = 0
Property: Activity coefficient of octane (Liquid); method: Chromatography
Temperature, K	Activity coefficient of octane	uncertainty
318.15	8.07	.13
333.15	7.72	.21
348.15	7.58	.19
358.15	7.56	.18

System: nonane + 1-ethyl-3-methylimidazolium octyl sulfate; phases: Liquid
Fixed: Pressure, kPa = 101
Fixed: Mole fraction of nonane = 0
Property: Activity coefficient of nonane (Liquid); method: Chromatography
Temperature, K	Activity coefficient of nonane	uncertainty
318.15	9.57	.18
333.15	9.16	.23
348.15	9.03	.32
358.15	8.82	.21

System: cyclohexane + 1-ethyl-3-methylimidazolium octyl sulfate; phases: Liquid
Fixed: Pressure, kPa = 101
Fixed: Mole fraction of cyclohexane = 0
Property: Activity coefficient of cyclohexane (Liquid); method: Chromatography
Temperature, K	Activity coefficient of cyclohexane	uncertainty
318.15	3.6	.06
333.15	3.51	.09
348.15	3.42	.11
358.15	3.39	.08

System: cyclopentane + 1-ethyl-3-methylimidazolium octyl sulfate; phases: Liquid
Fixed: Pressure, kPa = 101
Fixed: Mole fraction of cyclopentane = 0
Property: Activity coefficient of cyclopentane (Liquid); method: Chromatography
Temperature, K	Activity coefficient of cyclopentane	uncertainty
318.15	2.78	.05
333.15	2.75	.11
348.15	2.69	.1
358.15	2.68	.16

System: cyclooctane + 1-ethyl-3-methylimidazolium octyl sulfate; phases: Liquid
Fixed: Pressure, kPa = 101
Fixed: Mole fraction of cyclooctane = 0
Property: Activity coefficient of cyclooctane (Liquid); method: Chromatography
Temperature, K	Activity coefficient of cyclooctane	uncertainty
318.15	4.89	.08
333.15	4.67	.11
348.15	4.52	.27
358.15	4.4	.11

System: methylcyclohexane + 1-ethyl-3-methylimidazolium octyl sulfate; phases: Liquid
Fixed: Pressure, kPa = 101
Fixed: Mole fraction of methylcyclohexane = 0
Property: Activity coefficient of methylcyclohexane (Liquid); method: Chromatography
Temperature, K	Activity coefficient of methylcyclohexane	uncertainty
318.15	4.4	.08
333.15	4.28	.11
348.15	4.08	.15
358.15	4.08	.24

System: 1-pentene + 1-ethyl-3-methylimidazolium octyl sulfate; phases: Liquid
Fixed: Pressure, kPa = 101
Fixed: Mole fraction of 1-pentene = 0
Property: Activity coefficient of 1-pentene (Liquid); method: Chromatography
Temperature, K	Activity coefficient of 1-pentene	uncertainty
318.15	3.27	.06
333.15	3.14	.08
348.15	3.07	.08
358.15	3.01	.08

System: 1-hexene + 1-ethyl-3-methylimidazolium octyl sulfate; phases: Liquid
Fixed: Pressure, kPa = 101
Fixed: Mole fraction of 1-hexene = 0
Property: Activity coefficient of 1-hexene (Liquid); method: Chromatography
Temperature, K	Activity coefficient of 1-hexene	uncertainty
318.15	3.97	.07
333.15	3.93	.1
348.15	3.88	.09
358.15	3.87	.09

System: 1-heptene + 1-ethyl-3-methylimidazolium octyl sulfate; phases: Liquid
Fixed: Pressure, kPa = 101
Fixed: Mole fraction of 1-heptene = 0
Property: Activity coefficient of 1-heptene (Liquid); method: Chromatography
Temperature, K	Activity coefficient of 1-heptene	uncertainty
318.15	4.78	.08
333.15	4.67	.11
348.15	4.64	.12
358.15	4.61	.11

System: 1-octene + 1-ethyl-3-methylimidazolium octyl sulfate; phases: Liquid
Fixed: Pressure, kPa = 101
Fixed: Mole fraction of 1-octene = 0
Property: Activity coefficient of 1-octene (Liquid); method: Chromatography
Temperature, K	Activity coefficient of 1-octene	uncertainty
318.15	5.71	.1
333.15	5.57	.14
348.15	5.48	.13
358.15	5.47	.13

System: 1-nonene + 1-ethyl-3-methylimidazolium octyl sulfate; phases: Liquid
Fixed: Pressure, kPa = 101
Fixed: Mole fraction of 1-nonene = 0
Property: Activity coefficient of 1-nonene (Liquid); method: Chromatography
Temperature, K	Activity coefficient of 1-nonene	uncertainty
318.15	6.96	.12
333.15	6.73	.17
348.15	6.63	.16
358.15	6.55	.15

System: 1-pentyne + 1-ethyl-3-methylimidazolium octyl sulfate; phases: Liquid
Fixed: Pressure, kPa = 101
Fixed: Mole fraction of 1-pentyne = 0
Property: Activity coefficient of 1-pentyne (Liquid); method: Chromatography
Temperature, K	Activity coefficient of 1-pentyne	uncertainty
318.15	1.14	.02
333.15	1.18	.03
348.15	1.21	.03
358.15	1.25	.03

System: 1-hexyne + 1-ethyl-3-methylimidazolium octyl sulfate; phases: Liquid
Fixed: Pressure, kPa = 101
Fixed: Mole fraction of 1-hexyne = 0
Property: Activity coefficient of 1-hexyne (Liquid); method: Chromatography
Temperature, K	Activity coefficient of 1-hexyne	uncertainty
318.15	1.38	.02
333.15	1.42	.03
348.15	1.47	.04
358.15	1.51	.04

System: 1-heptyne + 1-ethyl-3-methylimidazolium octyl sulfate; phases: Liquid
Fixed: Pressure, kPa = 101
Fixed: Mole fraction of 1-heptyne = 0
Property: Activity coefficient of 1-heptyne (Liquid); method: Chromatography
Temperature, K	Activity coefficient of 1-heptyne	uncertainty
318.15	1.47	.02
333.15	1.58	.04
348.15	1.69	.04
358.15	1.77	.04

System: 1-octyne + 1-ethyl-3-methylimidazolium octyl sulfate; phases: Liquid
Fixed: Pressure, kPa = 101
Fixed: Mole fraction of 1-octyne = 0
Property: Activity coefficient of 1-octyne (Liquid); method: Chromatography
Temperature, K	Activity coefficient of 1-octyne	uncertainty
318.15	2.07	.04
333.15	2.14	.05
348.15	2.24	.05
358.15	2.27	.05

System: 1-nonyne + 1-ethyl-3-methylimidazolium octyl sulfate; phases: Liquid
Fixed: Pressure, kPa = 101
Fixed: Mole fraction of 1-nonyne = 0
Property: Activity coefficient of 1-nonyne (Liquid); method: Chromatography
Temperature, K	Activity coefficient of 1-nonyne	uncertainty
318.15	1.83	.03
333.15	1.99	.05
348.15	2.18	.05
358.15	2.29	.05

System: benzene + 1-ethyl-3-methylimidazolium octyl sulfate; phases: Liquid
Fixed: Pressure, kPa = 101
Fixed: Mole fraction of benzene = 0
Property: Activity coefficient of benzene (Liquid); method: Chromatography
Temperature, K	Activity coefficient of benzene	uncertainty
318.15	.89	.01
333.15	.89	.02
348.15	.88	.02
358.15	.87	.02

System: toluene + 1-ethyl-3-methylimidazolium octyl sulfate; phases: Liquid
Fixed: Pressure, kPa = 101
Fixed: Mole fraction of toluene = 0
Property: Activity coefficient of toluene (Liquid); method: Chromatography
Temperature, K	Activity coefficient of toluene	uncertainty
318.15	1.26	.02
333.15	1.25	.03
348.15	1.24	.03
358.15	1.22	.03

System: methyl propyl ketone + 1-ethyl-3-methylimidazolium octyl sulfate; phases: Liquid
Fixed: Pressure, kPa = 101
Fixed: Mole fraction of methyl propyl ketone = 0
Property: Activity coefficient of methyl propyl ketone (Liquid); method: Chromatography
Temperature, K	Activity coefficient of methyl propyl ketone	uncertainty
318.15	4.47	.08
333.15	3.98	.1
348.15	3.68	.09
358.15	3.51	.08

System: methanol + 1-ethyl-3-methylimidazolium octyl sulfate; phases: Liquid
Fixed: Pressure, kPa = 101
Fixed: Mole fraction of methanol = 0
Property: Activity coefficient of methanol (Liquid); method: Chromatography
Temperature, K	Activity coefficient of methanol	uncertainty
318.15	.2	
333.15	.19	
348.15	.19	
358.15	.18	

System: ethanol + 1-ethyl-3-methylimidazolium octyl sulfate; phases: Liquid
Fixed: Pressure, kPa = 101
Fixed: Mole fraction of ethanol = 0
Property: Activity coefficient of ethanol (Liquid); method: Chromatography
Temperature, K	Activity coefficient of ethanol	uncertainty
318.15	.3	.01
333.15	.27	.01
348.15	.27	.01
358.15	.26	.01

System: 2-propanol + 1-ethyl-3-methylimidazolium octyl sulfate; phases: Liquid
Fixed: Pressure, kPa = 101
Fixed: Mole fraction of 2-propanol = 0
Property: Activity coefficient of 2-propanol (Liquid); method: Chromatography
Temperature, K	Activity coefficient of 2-propanol	uncertainty
318.15	.38	.01
333.15	.36	.01
348.15	.34	.01
358.15	.34	.01

System: acetone + 1-ethyl-3-methylimidazolium octyl sulfate; phases: Liquid
Fixed: Pressure, kPa = 101
Fixed: Mole fraction of acetone = 0
Property: Activity coefficient of acetone (Liquid); method: Chromatography
Temperature, K	Activity coefficient of acetone	uncertainty
318.15	.83	.01
333.15	.83	.02
348.15	.81	.02
358.15	.8	.02

System: 2-butanone + 1-ethyl-3-methylimidazolium octyl sulfate; phases: Liquid
Fixed: Pressure, kPa = 101
Fixed: Mole fraction of 2-butanone = 0
Property: Activity coefficient of 2-butanone (Liquid); method: Chromatography
Temperature, K	Activity coefficient of 2-butanone	uncertainty
318.15	1.03	.02
333.15	1.01	.02
348.15	.99	.02
358.15	.98	.03

System: 1-butanol + 1-ethyl-3-methylimidazolium octyl sulfate; phases: Liquid
Fixed: Pressure, kPa = 101
Fixed: Mole fraction of 1-butanol = 0
Property: Activity coefficient of 1-butanol (Liquid); method: Chromatography
Temperature, K	Activity coefficient of 1-butanol	uncertainty
348.15	.38	.01
358.15	.37	.01

System: 2-methyl-1-propanol + 1-ethyl-3-methylimidazolium octyl sulfate; phases: Liquid
Fixed: Pressure, kPa = 101
Fixed: Mole fraction of 2-methyl-1-propanol = 0
Property: Activity coefficient of 2-methyl-1-propanol (Liquid); method: Chromatography
Temperature, K	Activity coefficient of 2-methyl-1-propanol	uncertainty
348.15	.35	.01
358.15	.34	.01

System: water + 1-ethyl-3-methylimidazolium octyl sulfate; phases: Liquid
Fixed: Pressure, kPa = 101
Fixed: Mole fraction of water = 0
Property: Activity coefficient of water (Liquid); method: Chromatography
Temperature, K	Activity coefficient of water	uncertainty
333.15	.16	.004
348.15	.15	.004
358.15	.15	.004
