Measured thermophysical data. Effect of the alkyl side chain of the 1-alkylpiperidinium-based ionic liquids on desulfurization of fuels
Source: J. Chem. Thermodyn., 2014, 10.1016/j.jct.2013.12.029
Compound 1: 1-methyl-1-propylpiperidinium bis(trifluoromethylsulfonyl)imide, C11H20F6N2O4S2, purity 99%
Compound 2: 1-butyl-1-methylpiperidinium bis(trifluoromethanesulfonyl)imide, C12H22F6N2O4S2, purity 99%
Compound 3: 1-hexyl-1-methylpiperidinium bis(trifluoromethanesulfonyl)imide, C14H26F6N2O4S2, purity 99%
Compound 4: thiophene, C4H4S, purity 99%
Compound 5: heptane, C7H16, purity 99%
Compound 6: 1-benzothiophene, C8H6S, purity 99.5%
Compound 7: 1-propanol, C3H8O, purity 99%
Compound 8: acetone, C3H6O, purity 99.5%

System: 1-methyl-1-propylpiperidinium bis(trifluoromethylsulfonyl)imide; phases: Liquid
Fixed: Pressure, kPa = 101.325
Property: Mass density, kg/m3 (Liquid); method: Vibrating tube method
Temperature, K	Mass density, kg/m3	uncertainty
298.15	1409.8	.5

System: 1-butyl-1-methylpiperidinium bis(trifluoromethanesulfonyl)imide; phases: Liquid
Fixed: Pressure, kPa = 101.325
Property: Mass density, kg/m3 (Liquid); method: Vibrating tube method
Temperature, K	Mass density, kg/m3	uncertainty
298.15	1379.2	.5

System: 1-hexyl-1-methylpiperidinium bis(trifluoromethanesulfonyl)imide; phases: Liquid
Fixed: Pressure, kPa = 101.325
Property: Mass density, kg/m3 (Liquid); method: Vibrating tube method
Temperature, K	Mass density, kg/m3	uncertainty
298.15	1325.4	.5
293	1329.5	.5

System: thiophene; phases: Liquid
Fixed: Pressure, kPa = 101.325
Property: Mass density, kg/m3 (Liquid); method: Vibrating tube method
Temperature, K	Mass density, kg/m3	uncertainty
298.15	1058.92	.5

System: heptane; phases: Liquid
Fixed: Pressure, kPa = 101.325
Property: Mass density, kg/m3 (Liquid); method: Vibrating tube method
Temperature, K	Mass density, kg/m3	uncertainty
298.15	679.54	.5

System: 1-benzothiophene; phases: Liquid
Fixed: Pressure, kPa = 101.325
Property: Mass density, kg/m3 (Liquid); method: Vibrating tube method
Temperature, K	Mass density, kg/m3	uncertainty
298.15	1427	.5

System: 1-propanol; phases: Liquid
Fixed: Pressure, kPa = 101.325
Property: Mass density, kg/m3 (Liquid); method: Vibrating tube method
Temperature, K	Mass density, kg/m3	uncertainty
298.15	799.52	.5

System: acetone; phases: Liquid
Fixed: Pressure, kPa = 101.325
Property: Mass density, kg/m3 (Liquid); method: Vibrating tube method
Temperature, K	Mass density, kg/m3	uncertainty
298.15	785.32	.5

System: thiophene + heptane + 1-methyl-1-propylpiperidinium bis(trifluoromethylsulfonyl)imide; phases: Liquid mixture 2, Liquid mixture 1
Fixed: Pressure, kPa = 101.33
Fixed: Temperature, K = 298.15
Property: Mole fraction of 1-methyl-1-propylpiperidinium bis(trifluoromethylsulfonyl)imide (Liquid mixture 2); method: Chromatography
Property: Mole fraction of thiophene (Liquid mixture 1); method: Chromatography
Property: Mole fraction of 1-methyl-1-propylpiperidinium bis(trifluoromethylsulfonyl)imide (Liquid mixture 1); method: Chromatography
Mole fraction of thiophene	Mole fraction of 1-methyl-1-propylpiperidinium bis(trifluoromethylsulfonyl)imide	uncertainty	Mole fraction of thiophene	uncertainty	Mole fraction of 1-methyl-1-propylpiperidinium bis(trifluoromethylsulfonyl)imide	uncertainty
0	.961	.005	0	.003	0	.003
.256	.707	.005	.12	.003	0	.003
.366	.598	.005	.197	.003	0	.003
.472	.494	.005	.305	.003	0	.003
.554	.412	.005	.425	.003	0	.003
.613	.355	.005	.566	.003	0	.003
.66	.31	.005	.693	.003	0	.003
.697	.275	.005	.795	.003	0	.003
.742	.235	.005	.87	.003	0	.003
.797	.203	.005	1	.003	0	.003
.09	.87	.005	.036	.003	0	.003
.212	.75	.005	.095	.003	0	.003

System: thiophene + heptane + 1-butyl-1-methylpiperidinium bis(trifluoromethanesulfonyl)imide; phases: Liquid mixture 1, Liquid mixture 2
Fixed: Temperature, K = 298.15
Fixed: Pressure, kPa = 101.33
Property: Mole fraction of 1-butyl-1-methylpiperidinium bis(trifluoromethanesulfonyl)imide (Liquid mixture 1); method: Chromatography
Property: Mole fraction of 1-butyl-1-methylpiperidinium bis(trifluoromethanesulfonyl)imide (Liquid mixture 2); method: Chromatography
Property: Mole fraction of thiophene (Liquid mixture 2); method: Chromatography
Mole fraction of thiophene	Mole fraction of 1-butyl-1-methylpiperidinium bis(trifluoromethanesulfonyl)imide	uncertainty	Mole fraction of 1-butyl-1-methylpiperidinium bis(trifluoromethanesulfonyl)imide	uncertainty	Mole fraction of thiophene	uncertainty
0	0	.003	.944	.005	0	.005
.168	0	.003	.613	.005	.339	.005
.254	0	.003	.513	.005	.44	.005
.342	0	.003	.437	.005	.516	.005
.458	0	.003	.377	.005	.576	.005
.529	0	.003	.339	.005	.614	.005
.58	0	.003	.308	.005	.645	.005
.723	0	.003	.269	.005	.69	.005
.753	0	.003	.25	.005	.709	.005
.878	0	.003	.202	.005	.771	.005
1	0	.003	.168	.005	.832	.005
.026	0	.003	.86	.005	.08	.005
.076	0	.003	.753	.005	.194	.005
.112	0	.003	.691	.005	.259	.005

System: thiophene + heptane + 1-hexyl-1-methylpiperidinium bis(trifluoromethanesulfonyl)imide; phases: Liquid mixture 1, Liquid mixture 2
Fixed: Temperature, K = 298.15
Fixed: Pressure, kPa = 101.33
Property: Mole fraction of 1-hexyl-1-methylpiperidinium bis(trifluoromethanesulfonyl)imide (Liquid mixture 1); method: Chromatography
Property: Mole fraction of 1-hexyl-1-methylpiperidinium bis(trifluoromethanesulfonyl)imide (Liquid mixture 2); method: Chromatography
Property: Mole fraction of thiophene (Liquid mixture 2); method: Chromatography
Mole fraction of thiophene	Mole fraction of 1-hexyl-1-methylpiperidinium bis(trifluoromethanesulfonyl)imide	uncertainty	Mole fraction of 1-hexyl-1-methylpiperidinium bis(trifluoromethanesulfonyl)imide	uncertainty	Mole fraction of thiophene	uncertainty
0	0	.003	.891	.005	0	.005
.267	0	.003	.448	.005	.472	.005
.35	0	.003	.377	.005	.542	.005
.465	0	.003	.319	.005	.605	.005
.548	0	.003	.285	.005	.641	.005
.674	0	.003	.229	.005	.698	.005
.766	0	.003	.185	.005	.752	.005
.902	0	.003	.158	.005	.805	.005
1	0	.003	.14	.005	.86	.005
.025	0	.003	.81	.005	.082	.005
.1	0	.003	.665	.005	.244	.005
.127	0	.003	.614	.005	.297	.005
.169	0	.003	.558	.005	.358	.005

System: 1-benzothiophene + heptane + 1-methyl-1-propylpiperidinium bis(trifluoromethylsulfonyl)imide; phases: Liquid mixture 1, Liquid mixture 2
Fixed: Temperature, K = 308.15
Fixed: Pressure, kPa = 101.33
Property: Mole fraction of 1-methyl-1-propylpiperidinium bis(trifluoromethylsulfonyl)imide (Liquid mixture 1); method: Chromatography
Property: Mole fraction of 1-methyl-1-propylpiperidinium bis(trifluoromethylsulfonyl)imide (Liquid mixture 2); method: Chromatography
Property: Mole fraction of 1-benzothiophene (Liquid mixture 2); method: Chromatography
Mole fraction of 1-benzothiophene	Mole fraction of 1-methyl-1-propylpiperidinium bis(trifluoromethylsulfonyl)imide	uncertainty	Mole fraction of 1-methyl-1-propylpiperidinium bis(trifluoromethylsulfonyl)imide	uncertainty	Mole fraction of 1-benzothiophene	uncertainty
0	0	.003	.949	.005	0	.005
1	0	.003	.055	.005	.945	.005
.028	0	.003	.794	.005	.15	.005
.053	0	.003	.745	.005	.205	.005
.095	0	.003	.628	.005	.32	.005
.126	0	.003	.551	.005	.395	.005
.15	0	.003	.495	.005	.447	.005
.162	0	.003	.471	.005	.47	.005
.22	0	.003	.375	.005	.565	.005
.253	0	.003	.335	.005	.605	.005
.418	0	.003	.279	.005	.657	.005
.493	0	.003	.249	.005	.691	.005
.591	0	.003	.223	.005	.719	.005
.704	.003	.003	.19	.005	.75	.005
.739	0	.003	.169	.005	.774	.005
.848	0	.003	.135	.005	.807	.005
.903	0	.003	.102	.005	.847	.005
.94	0	.003	.073	.005	.894	.005

System: heptane + 1-methyl-1-propylpiperidinium bis(trifluoromethylsulfonyl)imide; phases: Liquid mixture 2, Liquid mixture 1
Property: Mole fraction of 1-methyl-1-propylpiperidinium bis(trifluoromethylsulfonyl)imide (Liquid mixture 2); method: Chromatography
Temperature, K	Pressure, kPa	Mole fraction of 1-methyl-1-propylpiperidinium bis(trifluoromethylsulfonyl)imide	uncertainty
298.15	101.33	.961	.005
308.15	101.33	.949	.005

System: thiophene + 1-methyl-1-propylpiperidinium bis(trifluoromethylsulfonyl)imide; phases: Liquid mixture 2, Liquid mixture 1
Property: Mole fraction of 1-methyl-1-propylpiperidinium bis(trifluoromethylsulfonyl)imide (Liquid mixture 2); method: Chromatography
Temperature, K	Pressure, kPa	Mole fraction of 1-methyl-1-propylpiperidinium bis(trifluoromethylsulfonyl)imide	uncertainty
298.15	101.33	.203	.005

System: heptane + 1-butyl-1-methylpiperidinium bis(trifluoromethanesulfonyl)imide; phases: Liquid mixture 2, Liquid mixture 1
Property: Mole fraction of 1-butyl-1-methylpiperidinium bis(trifluoromethanesulfonyl)imide (Liquid mixture 2); method: Chromatography
Pressure, kPa	Temperature, K	Mole fraction of 1-butyl-1-methylpiperidinium bis(trifluoromethanesulfonyl)imide	uncertainty
101.33	298.15	.944	.005

System: thiophene + 1-butyl-1-methylpiperidinium bis(trifluoromethanesulfonyl)imide; phases: Liquid mixture 2, Liquid mixture 1
Property: Mole fraction of thiophene (Liquid mixture 2); method: Chromatography
Pressure, kPa	Temperature, K	Mole fraction of thiophene	uncertainty
101.33	298.15	.832	.005

System: heptane + 1-hexyl-1-methylpiperidinium bis(trifluoromethanesulfonyl)imide; phases: Liquid mixture 2, Liquid mixture 1
Property: Mole fraction of 1-hexyl-1-methylpiperidinium bis(trifluoromethanesulfonyl)imide (Liquid mixture 2); method: Chromatography
Pressure, kPa	Temperature, K	Mole fraction of 1-hexyl-1-methylpiperidinium bis(trifluoromethanesulfonyl)imide	uncertainty
101.33	298.15	.891	.005

System: thiophene + 1-hexyl-1-methylpiperidinium bis(trifluoromethanesulfonyl)imide; phases: Liquid mixture 2, Liquid mixture 1
Property: Mole fraction of thiophene (Liquid mixture 2); method: Chromatography
Pressure, kPa	Temperature, K	Mole fraction of thiophene	uncertainty
101.33	298.15	.86	.005

System: 1-benzothiophene + 1-methyl-1-propylpiperidinium bis(trifluoromethylsulfonyl)imide; phases: Liquid mixture 2, Liquid mixture 1
Property: Mole fraction of 1-benzothiophene (Liquid mixture 2); method: Chromatography
Pressure, kPa	Temperature, K	Mole fraction of 1-benzothiophene	uncertainty
101.33	308.15	.945	.005
