Measured thermophysical data. Measurements and correlations of density, viscosity, and vapour-liquid equilibrium for fluoro alcohols
Source: J. Chem. Thermodyn., 2016, 10.1016/j.jct.2016.07.011
Compound 1: 2,2,3,3-tetrafluoro-1-propanol, C3H4F4O, purity 99.9%
Compound 2: 2,2,3,3,4,4,5,5-octafluoro-1-pentanol, C5H4F8O, purity 99.5%
Compound 3: methanol, CH4O, purity 99.7%

System: 2,2,3,3-tetrafluoro-1-propanol; phases: Liquid
Fixed: Pressure, kPa = 101.325
Property: Mass density, kg/m3 (Liquid); method: Vibrating tube method
Temperature, K	Mass density, kg/m3	uncertainty
293.15	1493.2	
301.55	1482.8	
306.15	1474.2	
309.05	1468.6	
312.65	1460.2	
316.15	1454.2	
319.35	1447.6	
323.25	1441.8	
327.05	1434	
330.65	1427.4	
334.35	1416.8	
338.25	1409	
342.25	1401	

System: 2,2,3,3-tetrafluoro-1-propanol; phases: Liquid
Fixed: Pressure, kPa = 101.325
Property: Viscosity, Pa*s (Liquid); method: Falling or rolling sphere viscometry
Temperature, K	Viscosity, Pa*s	uncertainty
295.65	.0050291	
298.65	.0044895	
300.15	.0042738	
302.15	.0037942	
304.15	.0035945	
306.15	.0032597	
307.65	.0030668	
309.15	.0029539	
311.65	.0027028	
313.15	.0025676	
318.15	.002153	
323.15	.0018482	
328.15	.0016235	
333.15	.0014082	

System: 2,2,3,3-tetrafluoro-1-propanol; phases: Liquid, Gas
Property: Vapor or sublimation pressure, kPa (Liquid); method: Ebulliometric method (Recirculating still)
Temperature, K	Vapor or sublimation pressure, kPa	uncertainty
382.28	101.3	

System: 2,2,3,3,4,4,5,5-octafluoro-1-pentanol; phases: Liquid
Fixed: Pressure, kPa = 101.325
Property: Mass density, kg/m3 (Liquid); method: Vibrating tube method
Temperature, K	Mass density, kg/m3	uncertainty
293.15	1674.2	
301.55	1667	
306.15	1659	
309.05	1655.2	
312.65	1649.2	
316.15	1643	
319.35	1636.4	
323.25	1630.4	
327.05	1623.2	
330.65	1617.8	
334.35	1609.6	
338.25	1603.8	
342.25	1596	

System: 2,2,3,3,4,4,5,5-octafluoro-1-pentanol; phases: Liquid
Fixed: Pressure, kPa = 101.325
Property: Viscosity, Pa*s (Liquid); method: Falling or rolling sphere viscometry
Temperature, K	Viscosity, Pa*s	uncertainty
295.65	.0131131	
297.55	.0121638	
300.15	.0106354	
302.15	.0098974	
304.15	.0087389	
306.15	.0080401	
307.65	.0074159	
309.15	.0070723	
311.65	.0062897	
313.15	.0059399	
318.15	.0048217	
323.15	.0038553	
328.15	.0032983	
333.15	.0027817	

System: 2,2,3,3,4,4,5,5-octafluoro-1-pentanol; phases: Liquid, Gas
Property: Vapor or sublimation pressure, kPa (Liquid); method: Ebulliometric method (Recirculating still)
Temperature, K	Vapor or sublimation pressure, kPa	uncertainty
413.25	101.3	
413.57	101.3	

System: methanol; phases: Liquid, Gas
Property: Vapor or sublimation pressure, kPa (Liquid); method: Ebulliometric method (Recirculating still)
Temperature, K	Vapor or sublimation pressure, kPa	uncertainty
337.45	101.3	

System: methanol + 2,2,3,3,4,4,5,5-octafluoro-1-pentanol; phases: Liquid, Gas
Fixed: Pressure, kPa = 101.3
Property: Boiling temperature at pressure P, K (Liquid); method: Ebulliometric method (Recirculating still)
Mole fraction of methanol	Boiling temperature at pressure P, K	uncertainty
0	413.25	
.1788	390.2	
.2211	385.45	
.2655	380	
.3174	375.05	
.3641	370.9	
.4165	366.5	
.4586	363.21	
.4816	361.48	
.5101	359.22	
.5336	357.58	
.5645	355.25	
.6387	351.3	
.6957	348.35	
.803	344.25	
.8439	342.65	
.893	340.4	
.9298	339.2	
.9641	338.13	
1	337.45	

System: methanol + 2,2,3,3,4,4,5,5-octafluoro-1-pentanol; phases: Gas, Liquid
Fixed: Pressure, kPa = 101.3
Property: Mole fraction of methanol (Gas); method: Chromatography
Mole fraction of methanol	Mole fraction of methanol	uncertainty
0	0	
.1788	.6147	
.2211	.7102	
.2655	.7821	
.3174	.8332	
.3641	.8737	
.4165	.9041	
.4586	.9236	
.4816	.9341	
.5101	.9419	
.5336	.9532	
.5645	.9613	
.6387	.9744	
.6957	.9815	
.803	.9908	
.8439	.9927	
.893	.9956	
.9298	.9975	
.9641	.9988	
1	1	

System: 2,2,3,3-tetrafluoro-1-propanol + 2,2,3,3,4,4,5,5-octafluoro-1-pentanol; phases: Liquid, Gas
Fixed: Pressure, kPa = 101.3
Property: Boiling temperature at pressure P, K (Liquid); method: Ebulliometric method (Recirculating still)
Mole fraction of 2,2,3,3-tetrafluoro-1-propanol	Boiling temperature at pressure P, K	uncertainty
0	413.57	
.1661	407.14	
.2555	403.52	
.3011	401.69	
.3569	399.4	
.3922	398.25	
.4028	397.54	
.4605	395.23	
.4863	394.15	
.5041	393.49	
.6068	390.45	
.6998	387.75	
.7561	385.45	
.8104	384.15	
.8526	383.15	
1	382.28	

System: 2,2,3,3-tetrafluoro-1-propanol + 2,2,3,3,4,4,5,5-octafluoro-1-pentanol; phases: Gas, Liquid
Fixed: Pressure, kPa = 101.3
Property: Mole fraction of 2,2,3,3-tetrafluoro-1-propanol (Gas); method: Chromatography
Mole fraction of 2,2,3,3-tetrafluoro-1-propanol	Mole fraction of 2,2,3,3-tetrafluoro-1-propanol	uncertainty
0	0	
.1661	.3501	
.2555	.4999	
.3011	.5607	
.3569	.6299	
.3922	.6616	
.4028	.6791	
.4605	.7348	
.4863	.7629	
.5041	.7758	
.6068	.8419	
.6998	.8985	
.7561	.9276	
.8104	.9551	
.8526	.9752	
1	1	
