Measured thermophysical data. Liquid-liquid equilibria of mutually immiscible ionic liquids with a common anion of basic character
Source: J. Chem. Thermodyn., 2016, 10.1016/j.jct.2016.05.023
Compound 1: 1-ethyl-3-methylimidazolium chloride, C6H11ClN2, purity 98%
Compound 2: 1-butyl-3-methylimidazolium chloride, C8H15ClN2, purity 95%
Compound 3: 1-hexyl-3-methylimidazolium chloride, C10H19ClN2
Compound 4: 1-octyl-3-methylimidazolium chloride, C12H23ClN2, purity 98%
Compound 5: 1-ethyl-3-methylimidazolium acetate, C8H14N2O2, purity 95%
Compound 6: 1-butyl-3-methylimidazolium acetate, C10H18N2O2, purity 95%
Compound 7: trihexyl(tetradecyl)phosphonium chloride, C32H68ClP, purity 97%
Compound 8: trihexyl(tetradecyl)phosphonium acetate, C34H71O2P

System: 1-ethyl-3-methylimidazolium chloride; phases: Crystal, Liquid, Air at 1 atmosphere
Property: Normal melting temperature, K (Crystal); method: DSC/DTA
Normal melting temperature, K	uncertainty
357	1

System: 1-butyl-3-methylimidazolium chloride; phases: Glass, Liquid, Air at 1 atmosphere
Property: Triple point temperature, K (Glass); method: DSC
Triple point temperature, K	uncertainty
221	1

System: 1-hexyl-3-methylimidazolium chloride; phases: Glass, Liquid, Air at 1 atmosphere
Property: Triple point temperature, K (Glass); method: DSC
Triple point temperature, K	uncertainty
208	1

System: 1-octyl-3-methylimidazolium chloride; phases: Glass, Liquid, Air at 1 atmosphere
Property: Triple point temperature, K (Glass); method: DSC
Triple point temperature, K	uncertainty
199	1

System: 1-ethyl-3-methylimidazolium acetate; phases: Glass, Liquid, Air at 1 atmosphere
Property: Triple point temperature, K (Glass); method: DSC
Triple point temperature, K	uncertainty
202	1

System: 1-butyl-3-methylimidazolium acetate; phases: Glass, Liquid, Air at 1 atmosphere
Property: Triple point temperature, K (Glass); method: DSC
Triple point temperature, K	uncertainty
210	1

System: trihexyl(tetradecyl)phosphonium chloride; phases: Crystal, Liquid, Air at 1 atmosphere
Property: Normal melting temperature, K (Crystal); method: DSC/DTA
Normal melting temperature, K	uncertainty
207	1

System: trihexyl(tetradecyl)phosphonium acetate; phases: Crystal, Liquid, Air at 1 atmosphere
Property: Normal melting temperature, K (Crystal); method: DSC/DTA
Normal melting temperature, K	uncertainty
206	1

System: 1-ethyl-3-methylimidazolium chloride + trihexyl(tetradecyl)phosphonium chloride; phases: Liquid mixture 1, Liquid mixture 2
Fixed: Pressure, kPa = 101
Property: Mole fraction of 1-ethyl-3-methylimidazolium chloride (Liquid mixture 1); method: NMR proton spectroscopy
Temperature, K	Mole fraction of 1-ethyl-3-methylimidazolium chloride	uncertainty
373.2	.098	
383.2	.093	
393.2	.087	
403.2	.084	
413.2	.086	
423.2	.08	

System: 1-ethyl-3-methylimidazolium acetate + trihexyl(tetradecyl)phosphonium acetate; phases: Liquid mixture 1, Liquid mixture 2
Fixed: Pressure, kPa = 101
Property: Mole fraction of 1-ethyl-3-methylimidazolium acetate (Liquid mixture 1); method: NMR proton spectroscopy
Temperature, K	Mole fraction of 1-ethyl-3-methylimidazolium acetate	uncertainty
298.2	.4	
318.2	.369	
328.2	.36	
338.2	.352	
358.2	.33	
368.2	.324	
378.2	.313	

System: 1-ethyl-3-methylimidazolium acetate + trihexyl(tetradecyl)phosphonium acetate; phases: Liquid mixture 2, Liquid mixture 1
Fixed: Pressure, kPa = 101
Property: Mole fraction of 1-ethyl-3-methylimidazolium acetate (Liquid mixture 2); method: NMR Proton Spectroscopy
Temperature, K	Mole fraction of 1-ethyl-3-methylimidazolium acetate	uncertainty
298.2	.992	
318.2	.995	
328.2	.997	
338.2	.996	
358.2	.993	
368.2	.994	
378.2	.995	
