Measured thermophysical data. Thermodynamic equilibrium of 4-hydroxy-2,5-dimethyl-3(2H)-furanone in different solvent systems
Source: J. Chem. Thermodyn., 2016, 10.1016/j.jct.2015.08.035
Compound 1: 4-hydroxy-2,5-dimethyl-3(2H)-furanone, C6H8O3
Compound 2: methanol, CH4O, purity 99.5%
Compound 3: ethanol, C2H6O, purity 99.5%
Compound 4: ethyl acetate, C4H8O2, purity 99.5%
Compound 5: butyl acetate, C6H12O2, purity 99.5%
Compound 6: isopropyl acetate, C5H10O2, purity 99.5%
Compound 7: water, H2O

System: 4-hydroxy-2,5-dimethyl-3(2H)-furanone; phases: Crystal, Liquid, Air at 1 atmosphere
Property: Normal melting temperature, K (Crystal); method: DSC/DTA
Normal melting temperature, K	uncertainty
355.22	.5

System: 4-hydroxy-2,5-dimethyl-3(2H)-furanone; phases: Crystal, Liquid, Air at 1 atmosphere
Property: Molar enthalpy of transition or fusion, kJ/mol (Crystal); method: DSC
Molar enthalpy of transition or fusion, kJ/mol	uncertainty
18.698	.5

System: methanol + 4-hydroxy-2,5-dimethyl-3(2H)-furanone; phases: Liquid, Crystal
Fixed: Pressure, kPa = 100
Property: Mole fraction of 4-hydroxy-2,5-dimethyl-3(2H)-furanone (Liquid); method: Gravimetric
Temperature, K	Mole fraction of 4-hydroxy-2,5-dimethyl-3(2H)-furanone	uncertainty
283.15	.1196	.00598
288.15	.1609	.008045
293.15	.1989	.009945
298.15	.2339	.011695
303.15	.2747	.013735
308.15	.3195	.015975
313.15	.3646	.01823
318.15	.4317	.021585

System: ethanol + 4-hydroxy-2,5-dimethyl-3(2H)-furanone; phases: Liquid, Crystal
Fixed: Pressure, kPa = 100
Property: Mole fraction of 4-hydroxy-2,5-dimethyl-3(2H)-furanone (Liquid); method: Gravimetric
Temperature, K	Mole fraction of 4-hydroxy-2,5-dimethyl-3(2H)-furanone	uncertainty
283.15	.1154	.00577
288.15	.1552	.00776
293.15	.1943	.009715
298.15	.2256	.01128
303.15	.2559	.012795
308.15	.3002	.01501
313.15	.3491	.017455
318.15	.4123	.020615

System: ethanol + 4-hydroxy-2,5-dimethyl-3(2H)-furanone; phases: Liquid, Crystal
Fixed: Pressure, kPa = 100
Property: Mole fraction of 4-hydroxy-2,5-dimethyl-3(2H)-furanone (Liquid); method: Titration method
Temperature, K	Mole fraction of 4-hydroxy-2,5-dimethyl-3(2H)-furanone	uncertainty
283.15	.116	.0058
288.15	.1494	.00747
293.15	.1902	.00951
298.15	.2175	.010875
303.15	.2492	.01246
308.15	.299	.01495
313.15	.3554	.01777
318.15	.4146	.02073

System: 4-hydroxy-2,5-dimethyl-3(2H)-furanone + water; phases: Liquid, Crystal
Fixed: Pressure, kPa = 100
Property: Mole fraction of 4-hydroxy-2,5-dimethyl-3(2H)-furanone (Liquid); method: Gravimetric
Temperature, K	Mole fraction of 4-hydroxy-2,5-dimethyl-3(2H)-furanone	uncertainty
283.15	.00699	.0003495
288.15	.01301	.0006505
293.15	.01989	.0009945
298.15	.02986	.001493
303.15	.04212	.002106
308.15	.06172	.003086
313.15	.09161	.0045805
318.15	.1394	.00697

System: ethyl acetate + 4-hydroxy-2,5-dimethyl-3(2H)-furanone; phases: Liquid, Crystal
Fixed: Pressure, kPa = 100
Property: Mole fraction of 4-hydroxy-2,5-dimethyl-3(2H)-furanone (Liquid); method: Gravimetric
Temperature, K	Mole fraction of 4-hydroxy-2,5-dimethyl-3(2H)-furanone	uncertainty
283.15	.08295	.0041475
288.15	.1195	.005975
293.15	.1452	.00726
298.15	.1817	.009085
303.15	.2235	.011175
308.15	.2712	.01356
313.15	.3196	.01598
318.15	.3749	.018745

System: butyl acetate + 4-hydroxy-2,5-dimethyl-3(2H)-furanone; phases: Liquid, Crystal
Fixed: Pressure, kPa = 100
Property: Mole fraction of 4-hydroxy-2,5-dimethyl-3(2H)-furanone (Liquid); method: Gravimetric
Temperature, K	Mole fraction of 4-hydroxy-2,5-dimethyl-3(2H)-furanone	uncertainty
283.15	.05571	.0027855
288.15	.07992	.003996
293.15	.108	.0054
298.15	.1359	.006795
303.15	.165	.00825
308.15	.211	.01055
313.15	.2582	.01291
318.15	.3002	.01501

System: isopropyl acetate + 4-hydroxy-2,5-dimethyl-3(2H)-furanone; phases: Liquid, Crystal
Fixed: Pressure, kPa = 100
Property: Mole fraction of 4-hydroxy-2,5-dimethyl-3(2H)-furanone (Liquid); method: Gravimetric
Temperature, K	Mole fraction of 4-hydroxy-2,5-dimethyl-3(2H)-furanone	uncertainty
283.15	.06011	.0030055
288.15	.09364	.004682
293.15	.1159	.005795
298.15	.1426	.00713
303.15	.1802	.00901
308.15	.2169	.010845
313.15	.2681	.013405
318.15	.3125	.015625

System: ethanol + 4-hydroxy-2,5-dimethyl-3(2H)-furanone + water; phases: Liquid, Crystal
Fixed: Pressure, kPa = 100
Property: Mole fraction of 4-hydroxy-2,5-dimethyl-3(2H)-furanone (Liquid); method: Gravimetric
Temperature, K	Solvent: Mole fraction of ethanol	Mole fraction of 4-hydroxy-2,5-dimethyl-3(2H)-furanone	uncertainty
283.15	0	.00699	.0003495
283.15	.0891	.01975	.0009875
283.15	.21	.03543	.0017715
283.15	.4081	.05457	.0027285
283.15	.6	.07982	.003991
283.15	.7923	.09937	.0049685
283.15	.8814	.1108	.00554
283.15	1	.1154	.00577
288.15	0	.01301	.0006505
288.15	.0891	.0295	.001475
288.15	.21	.04892	.002446
288.15	.4081	.08331	.0041655
288.15	.6	.1074	.00537
288.15	.7923	.135	.00675
288.15	.8814	.1437	.007185
288.15	1	.1552	.00776
293.15	0	.01989	.0009945
293.15	.0891	.03992	.001996
293.15	.21	.06503	.0032515
293.15	.4081	.1006	.00503
293.15	.6	.1395	.006975
293.15	.7923	.1593	.007965
293.15	.8814	.1731	.008655
293.15	1	.1943	.009715
298.15	0	.02986	.001493
298.15	.0891	.04873	.0024365
298.15	.21	.07692	.003846
298.15	.4081	.1256	.00628
298.15	.6	.1579	.007895
298.15	.7923	.1841	.009205
298.15	.8814	.1977	.009885
298.15	1	.2256	.01128
303.15	0	.04212	.002106
303.15	.0891	.05801	.0029005
303.15	.21	.08936	.004468
303.15	.4081	.1426	.00713
303.15	.6	.18	.009
303.15	.7923	.2075	.010375
303.15	.8814	.2201	.011005
303.15	1	.2559	.012795
308.15	0	.06172	.003086
308.15	.0891	.07713	.0038565
308.15	.21	.1152	.00576
308.15	.4081	.1714	.00857
308.15	.6	.2101	.010505
308.15	.7923	.2401	.012005
308.15	.8814	.2564	.01282
308.15	1	.3002	.01501
313.15	0	.09161	.0045805
313.15	.0891	.1031	.005155
313.15	.21	.1499	.007495
313.15	.4081	.215	.01075
313.15	.6	.2591	.012955
313.15	.7923	.2927	.014635
313.15	.8814	.3099	.015495
313.15	1	.3491	.017455
318.15	0	.1394	.00697
318.15	.0891	.1624	.00812
318.15	.21	.2101	.010505
318.15	.4081	.2882	.01441
318.15	.6	.3314	.01657
318.15	.7923	.3689	.018445
318.15	.8814	.3857	.019285
318.15	1	.4123	.020615
