Measured thermophysical data. A thermodynamic study of the (fluoromethane + water) system
Source: J. Chem. Thermodyn., 2013, 10.1016/j.jct.2012.08.013
Compound 1: methyl fluoride, CH3F, purity 99.9995%
Compound 2: water, H2O, purity 99.8%

System: methyl fluoride + water; phases: Liquid, Gas
Property: Mole fraction of methyl fluoride (Liquid); method: Phase equilibration
Temperature, K	Pressure, kPa	Mole fraction of methyl fluoride	uncertainty
280.15	178	.003	.001
280.15	345	.00575	.001
282.15	184	.00292	.001
282.15	357	.00562	.001
282.15	466	.00713	.001
284.15	190	.00284	.001
284.15	369	.00547	.001
284.15	480	.00695	.001
286.15	196	.00276	.001
286.15	382	.00531	.001
286.15	494	.00678	.001
286.15	754	.01	.001
288.15	202	.00268	.001
288.15	393	.00516	.001
288.15	509	.00659	.001
288.15	775	.00971	.001
288.15	1056	.01277	.001
288.15	1242	.01461	.001
290.15	208	.00261	.001
290.15	406	.00502	.001
290.15	523	.00641	.001
290.15	797	.00942	.001
290.15	1082	.01242	.001
290.15	1276	.01418	.001
292.15	214	.00254	.001
292.15	417	.00489	.001
292.15	538	.00622	.001
292.15	819	.00918	.001
292.15	1108	.01206	.001
292.15	1308	.01379	.001
294.15	219	.00248	.001
294.15	427	.00476	.001
294.15	553	.00605	.001
294.15	839	.00892	.001
294.15	1135	.01171	.001
294.15	1337	.01346	.001
296.15	224	.00241	.001
296.15	438	.00464	.001
296.15	566	.00589	.001
296.15	858	.00868	.001
296.15	1161	.01136	.001
296.15	1366	.01312	.001
298.15	230	.00235	.001
298.15	449	.00453	.001
298.15	580	.00574	.001
298.15	878	.00846	.001
298.15	1185	.01109	.001
298.15	1398	.01276	.001
