Measured thermophysical data. Probing solute solute and solute solvent interactions in (l-arginine + d-xylose/ l-arabinose + water) solutions at different temperatures by using volumetric and viscometric methods
Source: J. Chem. Thermodyn., 2013, 10.1016/j.jct.2013.04.001
Compound 1: L-arginine, C6H14N4O2, purity .99%
Compound 2: xylose, C5H10O5, purity 99%
Compound 3: (+)-arabinose, C5H10O5, purity 99%
Compound 4: water, H2O, purity 99.8%

System: water; phases: Liquid
Property: Mass density, kg/m3 (Liquid); method: Pycnometric method
Temperature, K	Pressure, kPa	Mass density, kg/m3	uncertainty
293.15	101	998.24	
298.15	101	997.07	
303.15	101	995.68	
308.15	101	994.07	
313.15	101	992.25	
318.15	101	990.24	

System: water; phases: Liquid
Property: Viscosity, Pa*s (Liquid); method: Capillary tube (Ostwald; Ubbelohde) method
Temperature, K	Pressure, kPa	Viscosity, Pa*s	uncertainty
298.15	101	.0008903	.000017806
303.15	101	.0007973	.000015946
308.15	101	.000719	.00001438
313.15	101	.0006526	.000013052
318.15	101	.0005972	.000011944

System: L-arginine + water; phases: Liquid
Fixed: Pressure, kPa = 101
Property: Mass density, kg/m3 (Liquid); method: Pycnometric method
Molality, mol/kg of L-arginine	Temperature, K	Mass density, kg/m3	uncertainty
0	293.15	998.24	
.025	293.15	999.51	
.05	293.15	1000.78	
.075	293.15	1002.04	
.1	293.15	1003.3	
.125	293.15	1004.55	
.15	293.15	1005.79	
.175	293.15	1007.02	
.2	293.15	1008.25	
0	298.15	997.07	
.025	298.15	998.35	
.05	298.15	999.62	
.075	298.15	1000.89	
.1	298.15	1002.14	
.125	298.15	1003.4	
.15	298.15	1004.64	
.175	298.15	1005.88	
.2	298.15	1007.11	
0	303.15	995.68	
.025	303.15	996.96	
.05	303.15	998.24	
.075	303.15	999.51	
.1	303.15	1000.78	
.125	303.15	1002.03	
.15	303.15	1003.28	
.175	303.15	1004.53	
.2	303.15	1005.76	
0	308.15	994.07	
.025	308.15	995.36	
.05	308.15	996.65	
.075	308.15	997.93	
.1	308.15	999.2	
.125	308.15	1000.46	
.15	308.15	1001.72	
.175	308.15	1002.97	
.2	308.15	1004.22	
0	313.15	992.25	
.025	313.15	993.55	
.05	313.15	994.85	
.075	313.15	996.14	
.1	313.15	997.42	
.125	313.15	998.69	
.15	313.15	999.96	
.175	313.15	1001.22	
.2	313.15	1002.47	
0	318.15	990.24	
.025	318.15	991.55	
.05	318.15	992.86	
.075	318.15	994.16	
.1	318.15	995.45	
.125	318.15	996.74	
.15	318.15	998.01	
.175	318.15	999.28	
.2	318.15	1000.55	

System: L-arginine + water; phases: Liquid
Fixed: Pressure, kPa = 101
Property: Viscosity, Pa*s (Liquid); method: Capillary tube (Ostwald; Ubbelohde) method
Temperature, K	Molality, mol/kg of L-arginine	Viscosity, Pa*s	uncertainty
298.15	0	.0008903	.000017806
298.15	.025	.0009009	.000018018
298.15	.05	.0009108	.000018216
298.15	.075	.0009207	.000018414
298.15	.1	.00093	.0000186
298.15	.125	.0009393	.000018786
298.15	.15	.0009486	.000018972
298.15	.175	.0009579	.000019158
298.15	.2	.0009668	.000019336
303.15	0	.0007973	.000015946
303.15	.025	.0008062	.000016124
303.15	.05	.0008145	.00001629
303.15	.075	.0008225	.00001645
303.15	.1	.0008304	.000016608
303.15	.125	.000838	.00001676
303.15	.15	.0008457	.000016914
303.15	.175	.0008533	.000017066
303.15	.2	.0008609	.000017218
308.15	0	.000719	.00001438
308.15	.025	.0007267	.000014534
308.15	.05	.0007336	.000014672
308.15	.075	.0007403	.000014806
308.15	.1	.0007471	.000014942
308.15	.125	.0007535	.00001507
308.15	.15	.0007601	.000015202
308.15	.175	.0007664	.000015328
308.15	.2	.0007726	.000015452
313.15	0	.0006526	.000013052
313.15	.025	.0006593	.000013186
313.15	.05	.0006652	.000013304
313.15	.075	.0006708	.000013416
313.15	.1	.0006764	.000013528
313.15	.125	.0006818	.000013636
313.15	.15	.0006873	.000013746
313.15	.175	.0006926	.000013852
313.15	.2	.0006976	.000013952
318.15	0	.0005972	.000011944
318.15	.025	.0006031	.000012062
318.15	.05	.000608	.00001216
318.15	.075	.0006128	.000012256
318.15	.1	.0006174	.000012348
318.15	.125	.000622	.00001244
318.15	.15	.0006266	.000012532
318.15	.175	.0006311	.000012622
318.15	.2	.0006355	.00001271

System: xylose + L-arginine + water; phases: Liquid
Fixed: Pressure, kPa = 101
Property: Mass density, kg/m3 (Liquid); method: Pycnometric method
Solvent: Mass fraction of xylose	Temperature, K	Molality, mol/kg of L-arginine	Mass density, kg/m3	uncertainty
.025	293.15	0	1007.24	
.025	293.15	.0249	1008.44	
.025	293.15	.05	1009.64	
.025	293.15	.0749	1010.82	
.025	293.15	.1	1012.01	
.025	293.15	.125	1013.19	
.025	293.15	.15	1014.36	
.025	293.15	.175	1015.53	
.025	293.15	.2	1016.7	
.025	298.15	0	1005.63	
.025	298.15	.0249	1006.83	
.025	298.15	.05	1008.04	
.025	298.15	.0749	1009.23	
.025	298.15	.1	1010.43	
.025	298.15	.125	1011.61	
.025	298.15	.15	1012.8	
.025	298.15	.175	1013.97	
.025	298.15	.2	1015.14	
.025	303.15	0	1004.03	
.025	303.15	.0249	1005.24	
.025	303.15	.05	1006.46	
.025	303.15	.0749	1007.65	
.025	303.15	.1	1008.86	
.025	303.15	.125	1010.05	
.025	303.15	.15	1011.24	
.025	303.15	.175	1012.42	
.025	303.15	.2	1013.6	
.025	308.15	0	1002.43	
.025	308.15	.0249	1003.65	
.025	308.15	.05	1004.87	
.025	308.15	.0749	1006.08	
.025	308.15	.1	1007.29	
.025	308.15	.125	1008.49	
.025	308.15	.15	1009.68	
.025	308.15	.175	1010.87	
.025	308.15	.2	1012.05	
.025	313.15	0	1000.84	
.025	313.15	.0249	1002.07	
.025	313.15	.05	1003.3	
.025	313.15	.0749	1004.51	
.025	313.15	.1	1005.73	
.025	313.15	.125	1006.94	
.025	313.15	.15	1008.14	
.025	313.15	.175	1009.34	
.025	313.15	.2	1010.53	
.025	318.15	0	999.23	
.025	318.15	.0249	1000.47	
.025	318.15	.05	1001.71	
.025	318.15	.0749	1002.93	
.025	318.15	.1	1004.16	
.025	318.15	.125	1005.37	
.025	318.15	.15	1006.58	
.025	318.15	.175	1007.78	
.025	318.15	.2	1008.98	
.05	293.15	0	1015.93	
.05	293.15	.025	1017.07	
.05	293.15	.05	1018.21	
.05	293.15	.0749	1019.34	
.05	293.15	.0999	1020.47	
.05	293.15	.125	1021.59	
.05	293.15	.1499	1022.71	
.05	293.15	.175	1023.83	
.05	293.15	.2	1024.95	
.05	298.15	0	1014.27	
.05	298.15	.025	1015.42	
.05	298.15	.05	1016.56	
.05	298.15	.0749	1017.7	
.05	298.15	.0999	1018.83	
.05	298.15	.125	1019.97	
.05	298.15	.1499	1021.09	
.05	298.15	.175	1022.22	
.05	298.15	.2	1023.34	
.05	303.15	0	1012.62	
.05	303.15	.025	1013.78	
.05	303.15	.05	1014.93	
.05	303.15	.0749	1016.07	
.05	303.15	.0999	1017.22	
.05	303.15	.125	1018.36	
.05	303.15	.1499	1019.49	
.05	303.15	.175	1020.62	
.05	303.15	.2	1021.75	
.05	308.15	0	1010.96	
.05	308.15	.025	1012.13	
.05	308.15	.05	1013.29	
.05	308.15	.0749	1014.44	
.05	308.15	.0999	1015.59	
.05	308.15	.125	1016.74	
.05	308.15	.1499	1017.87	
.05	308.15	.175	1019.01	
.05	308.15	.2	1020.15	
.05	313.15	0	1009.31	
.05	313.15	.025	1010.48	
.05	313.15	.05	1011.65	
.05	313.15	.0749	1012.81	
.05	313.15	.0999	1013.97	
.05	313.15	.125	1015.13	
.05	313.15	.1499	1016.27	
.05	313.15	.175	1017.42	
.05	313.15	.2	1018.56	
.05	318.15	0	1007.66	
.05	318.15	.025	1008.84	
.05	318.15	.05	1010.02	
.05	318.15	.0749	1011.19	
.05	318.15	.0999	1012.36	
.05	318.15	.125	1013.52	
.05	318.15	.1499	1014.68	
.05	318.15	.175	1015.83	
.05	318.15	.2	1016.98	

System: xylose + L-arginine + water; phases: Liquid
Fixed: Pressure, kPa = 101
Property: Viscosity, Pa*s (Liquid); method: Capillary tube (Ostwald; Ubbelohde) method
Temperature, K	Molality, mol/kg of L-arginine	Solvent: Mass fraction of xylose	Viscosity, Pa*s	uncertainty
298.15	0	.025	.0009096	.000018192
298.15	.0249	.025	.0009212	.000018424
298.15	.05	.025	.0009328	.000018656
298.15	.0749	.025	.0009443	.000018886
298.15	.1	.025	.0009559	.000019118
298.15	.125	.025	.0009675	.00001935
298.15	.15	.025	.0009793	.000019586
298.15	.175	.025	.0009907	.000019814
298.15	.2	.025	.0010021	.000020042
303.15	0	.025	.0008077	.000016154
303.15	.0249	.025	.0008174	.000016348
303.15	.05	.025	.000827	.00001654
303.15	.0749	.025	.0008365	.00001673
303.15	.1	.025	.0008462	.000016924
303.15	.125	.025	.0008559	.000017118
303.15	.15	.025	.0008655	.00001731
303.15	.175	.025	.0008751	.000017502
303.15	.2	.025	.0008846	.000017692
308.15	0	.025	.0007269	.000014538
308.15	.0249	.025	.0007353	.000014706
308.15	.05	.025	.0007436	.000014872
308.15	.0749	.025	.0007518	.000015036
308.15	.1	.025	.0007599	.000015198
308.15	.125	.025	.0007679	.000015358
308.15	.15	.025	.0007761	.000015522
308.15	.175	.025	.0007842	.000015684
308.15	.2	.025	.0007922	.000015844
313.15	0	.025	.0006571	.000013142
313.15	.0249	.025	.0006644	.000013288
313.15	.05	.025	.0006716	.000013432
313.15	.0749	.025	.0006786	.000013572
313.15	.1	.025	.0006856	.000013712
313.15	.125	.025	.0006924	.000013848
313.15	.15	.025	.0006993	.000013986
313.15	.175	.025	.0007061	.000014122
313.15	.2	.025	.0007127	.000014254
318.15	0	.025	.0005992	.000011984
318.15	.0249	.025	.0006056	.000012112
318.15	.05	.025	.0006118	.000012236
318.15	.0749	.025	.0006178	.000012356
318.15	.1	.025	.0006239	.000012478
318.15	.125	.025	.0006298	.000012596
318.15	.15	.025	.0006355	.00001271
318.15	.175	.025	.0006413	.000012826
318.15	.2	.025	.000647	.00001294
298.15	0	.05	.000964	.00001928
298.15	.025	.05	.000978	.00001956
298.15	.05	.05	.000992	.00001984
298.15	.0749	.05	.0010058	.000020116
298.15	.0999	.05	.0010197	.000020394
298.15	.125	.05	.0010339	.000020678
298.15	.1499	.05	.0010481	.000020962
298.15	.175	.05	.0010623	.000021246
298.15	.2	.05	.0010758	.000021516
303.15	0	.05	.0008547	.000017094
303.15	.025	.05	.0008662	.000017324
303.15	.05	.05	.0008778	.000017556
303.15	.0749	.05	.0008893	.000017786
303.15	.0999	.05	.0009008	.000018016
303.15	.125	.05	.0009126	.000018252
303.15	.1499	.05	.0009243	.000018486
303.15	.175	.05	.000936	.00001872
303.15	.2	.05	.0009476	.000018952
308.15	0	.05	.0007637	.000015274
308.15	.025	.05	.0007734	.000015468
308.15	.05	.05	.000783	.00001566
308.15	.0749	.05	.0007926	.000015852
308.15	.0999	.05	.0008022	.000016044
308.15	.125	.05	.0008121	.000016242
308.15	.1499	.05	.0008221	.000016442
308.15	.175	.05	.0008319	.000016638
308.15	.2	.05	.0008415	.00001683
313.15	0	.05	.0006869	.000013738
313.15	.025	.05	.0006953	.000013906
313.15	.05	.05	.0007035	.00001407
313.15	.0749	.05	.0007116	.000014232
313.15	.0999	.05	.0007197	.000014394
313.15	.125	.05	.0007282	.000014564
313.15	.1499	.05	.0007368	.000014736
313.15	.175	.05	.0007449	.000014898
313.15	.2	.05	.0007529	.000015058
318.15	0	.05	.0006253	.000012506
318.15	.025	.05	.0006327	.000012654
318.15	.05	.05	.0006398	.000012796
318.15	.0749	.05	.0006469	.000012938
318.15	.0999	.05	.000654	.00001308
318.15	.125	.05	.0006613	.000013226
318.15	.1499	.05	.0006685	.00001337
318.15	.175	.05	.0006756	.000013512
318.15	.2	.05	.0006825	.00001365

System: L-arginine + (+)-arabinose + water; phases: Liquid
Fixed: Pressure, kPa = 101
Property: Mass density, kg/m3 (Liquid); method: Pycnometric method
Solvent: Mass fraction of (+)-arabinose	Temperature, K	Molality, mol/kg of L-arginine	Mass density, kg/m3	uncertainty
.025	293.15	0	1007.35	
.025	293.15	.025	1008.55	
.025	293.15	.0499	1009.74	
.025	293.15	.0749	1010.93	
.025	293.15	.0999	1012.11	
.025	293.15	.125	1013.29	
.025	293.15	.15	1014.46	
.025	293.15	.175	1015.63	
.025	293.15	.2	1016.79	
.025	298.15	0	1005.77	
.025	298.15	.025	1006.98	
.025	298.15	.0499	1008.17	
.025	298.15	.0749	1009.37	
.025	298.15	.0999	1010.56	
.025	298.15	.125	1011.75	
.025	298.15	.15	1012.93	
.025	298.15	.175	1014.1	
.025	298.15	.2	1015.27	
.025	303.15	0	1004.18	
.025	303.15	.025	1005.39	
.025	303.15	.0499	1006.6	
.025	303.15	.0749	1007.8	
.025	303.15	.0999	1009	
.025	303.15	.125	1010.19	
.025	303.15	.15	1011.38	
.025	303.15	.175	1012.56	
.025	303.15	.2	1013.74	
.025	308.15	0	1002.6	
.025	308.15	.025	1003.82	
.025	308.15	.0499	1005.03	
.025	308.15	.0749	1006.24	
.025	308.15	.0999	1007.45	
.025	308.15	.125	1008.65	
.025	308.15	.15	1009.85	
.025	308.15	.175	1011.04	
.025	308.15	.2	1012.22	
.025	313.15	0	1001.01	
.025	313.15	.025	1002.24	
.025	313.15	.0499	1003.46	
.025	313.15	.0749	1004.68	
.025	313.15	.0999	1005.89	
.025	313.15	.125	1007.1	
.025	313.15	.15	1008.3	
.025	313.15	.175	1009.5	
.025	313.15	.2	1010.69	
.025	318.15	0	999.43	
.025	318.15	.025	1000.67	
.025	318.15	.0499	1001.9	
.025	318.15	.0749	1003.13	
.025	318.15	.0999	1004.35	
.025	318.15	.125	1005.57	
.025	318.15	.15	1006.77	
.025	318.15	.175	1007.98	
.025	318.15	.2	1009.18	
.05	293.15	0	1016.09	
.05	293.15	.025	1017.23	
.05	293.15	.0499	1018.36	
.05	293.15	.0749	1019.49	
.05	293.15	.1	1020.63	
.05	293.15	.1249	1021.74	
.05	293.15	.15	1022.87	
.05	293.15	.175	1023.98	
.05	293.15	.2	1025.09	
.05	298.15	0	1014.44	
.05	298.15	.025	1015.59	
.05	298.15	.0499	1016.73	
.05	298.15	.0749	1017.87	
.05	298.15	.1	1019	
.05	298.15	.1249	1020.13	
.05	298.15	.15	1021.26	
.05	298.15	.175	1022.38	
.05	298.15	.2	1023.49	
.05	303.15	0	1012.79	
.05	303.15	.025	1013.95	
.05	303.15	.0499	1015.09	
.05	303.15	.0749	1016.24	
.05	303.15	.1	1017.38	
.05	303.15	.1249	1018.52	
.05	303.15	.15	1019.65	
.05	303.15	.175	1020.78	
.05	303.15	.2	1021.9	
.05	308.15	0	1011.13	
.05	308.15	.025	1012.29	
.05	308.15	.0499	1013.45	
.05	308.15	.0749	1014.6	
.05	308.15	.1	1015.76	
.05	308.15	.1249	1016.9	
.05	308.15	.15	1018.04	
.05	308.15	.175	1019.18	
.05	308.15	.2	1020.31	
.05	313.15	0	1009.46	
.05	313.15	.025	1010.63	
.05	313.15	.0499	1011.8	
.05	313.15	.0749	1012.96	
.05	313.15	.1	1014.12	
.05	313.15	.1249	1015.27	
.05	313.15	.15	1016.42	
.05	313.15	.175	1017.56	
.05	313.15	.2	1018.7	
.05	318.15	0	1007.8	
.05	318.15	.025	1008.98	
.05	318.15	.0499	1010.15	
.05	318.15	.0749	1011.33	
.05	318.15	.1	1012.5	
.05	318.15	.1249	1013.65	
.05	318.15	.15	1014.81	
.05	318.15	.175	1015.97	
.05	318.15	.2	1017.11	

System: L-arginine + (+)-arabinose + water; phases: Liquid
Fixed: Pressure, kPa = 101
Property: Viscosity, Pa*s (Liquid); method: Capillary tube (Ostwald; Ubbelohde) method
Temperature, K	Molality, mol/kg of L-arginine	Solvent: Mass fraction of (+)-arabinose	Viscosity, Pa*s	uncertainty
298.15	0	.025	.0009141	.000018282
298.15	.025	.025	.0009264	.000018528
298.15	.0499	.025	.0009387	.000018774
298.15	.0749	.025	.0009508	.000019016
298.15	.0999	.025	.0009629	.000019258
298.15	.125	.025	.0009751	.000019502
298.15	.15	.025	.0009872	.000019744
298.15	.175	.025	.0009992	.000019984
298.15	.2	.025	.0010108	.000020216
303.15	0	.025	.0008116	.000016232
303.15	.025	.025	.0008218	.000016436
303.15	.0499	.025	.000832	.00001664
303.15	.0749	.025	.0008423	.000016846
303.15	.0999	.025	.0008522	.000017044
303.15	.125	.025	.0008622	.000017244
303.15	.15	.025	.0008722	.000017444
303.15	.175	.025	.0008823	.000017646
303.15	.2	.025	.0008922	.000017844
308.15	0	.025	.0007304	.000014608
308.15	.025	.025	.0007391	.000014782
308.15	.0499	.025	.0007479	.000014958
308.15	.0749	.025	.0007565	.00001513
308.15	.0999	.025	.000765	.0000153
308.15	.125	.025	.0007736	.000015472
308.15	.15	.025	.0007821	.000015642
308.15	.175	.025	.0007905	.00001581
308.15	.2	.025	.0007986	.000015972
313.15	0	.025	.0006591	.000013182
313.15	.025	.025	.0006666	.000013332
313.15	.0499	.025	.0006741	.000013482
313.15	.0749	.025	.0006814	.000013628
313.15	.0999	.025	.0006887	.000013774
313.15	.125	.025	.0006959	.000013918
313.15	.15	.025	.000703	.00001406
313.15	.175	.025	.0007102	.000014204
313.15	.2	.025	.0007171	.000014342
318.15	0	.025	.0006006	.000012012
318.15	.025	.025	.0006071	.000012142
318.15	.0499	.025	.0006135	.00001227
318.15	.0749	.025	.0006198	.000012396
318.15	.0999	.025	.0006261	.000012522
318.15	.125	.025	.0006322	.000012644
318.15	.15	.025	.0006383	.000012766
318.15	.175	.025	.0006443	.000012886
318.15	.2	.025	.0006503	.000013006
298.15	0	.05	.0009695	.00001939
298.15	.025	.05	.0009835	.00001967
298.15	.0499	.05	.0009976	.000019952
298.15	.0749	.05	.0010119	.000020238
298.15	.1	.05	.0010264	.000020528
298.15	.1249	.05	.0010407	.000020814
298.15	.15	.05	.0010557	.000021114
298.15	.175	.05	.0010698	.000021396
298.15	.2	.05	.0010837	.000021674
303.15	0	.05	.0008573	.000017146
303.15	.025	.05	.0008689	.000017378
303.15	.0499	.05	.0008805	.00001761
303.15	.0749	.05	.0008923	.000017846
303.15	.1	.05	.0009042	.000018084
303.15	.1249	.05	.0009162	.000018324
303.15	.15	.05	.0009286	.000018572
303.15	.175	.05	.0009407	.000018814
303.15	.2	.05	.0009523	.000019046
308.15	0	.05	.0007658	.000015316
308.15	.025	.05	.0007756	.000015512
308.15	.0499	.05	.0007852	.000015704
308.15	.0749	.05	.0007952	.000015904
308.15	.1	.05	.0008052	.000016104
308.15	.1249	.05	.0008154	.000016308
308.15	.15	.05	.0008256	.000016512
308.15	.175	.05	.0008358	.000016716
308.15	.2	.05	.000846	.00001692
313.15	0	.05	.000689	.00001378
313.15	.025	.05	.0006974	.000013948
313.15	.0499	.05	.0007056	.000014112
313.15	.0749	.05	.000714	.00001428
313.15	.1	.05	.0007225	.00001445
313.15	.1249	.05	.0007311	.000014622
313.15	.15	.05	.0007398	.000014796
313.15	.175	.05	.0007486	.000014972
313.15	.2	.05	.0007572	.000015144
318.15	0	.05	.0006295	.00001259
318.15	.025	.05	.0006369	.000012738
318.15	.0499	.05	.0006441	.000012882
318.15	.0749	.05	.0006513	.000013026
318.15	.1	.05	.0006588	.000013176
318.15	.1249	.05	.000666	.00001332
318.15	.15	.05	.0006737	.000013474
318.15	.175	.05	.0006812	.000013624
318.15	.2	.05	.0006884	.000013768

System: xylose + water; phases: Liquid
Property: Mass density, kg/m3 (Liquid); method: Pycnometric method
Mass fraction of xylose	Temperature, K	Pressure, kPa	Mass density, kg/m3	uncertainty
.025	293.15	101	1007.24	
.025	298.15	101	1005.63	
.025	303.15	101	1004.03	
.025	308.15	101	1002.43	
.025	313.15	101	1000.84	
.025	318.15	101	999.23	
.05	293.15	101	1015.93	
.05	298.15	101	1014.27	
.05	303.15	101	1012.62	
.05	308.15	101	1010.96	
.05	313.15	101	1009.31	
.05	318.15	101	1007.66	

System: xylose + water; phases: Liquid
Property: Viscosity, Pa*s (Liquid); method: Capillary tube (Ostwald; Ubbelohde) method
Temperature, K	Mass fraction of xylose	Pressure, kPa	Viscosity, Pa*s	uncertainty
298.15	.025	101	.0009096	.000018192
303.15	.025	101	.0008077	.000016154
308.15	.025	101	.0007269	.000014538
313.15	.025	101	.0006571	.000013142
318.15	.025	101	.0005992	.000011984
298.15	.05	101	.000964	.00001928
303.15	.05	101	.0008547	.000017094
308.15	.05	101	.0007637	.000015274
313.15	.05	101	.0006869	.000013738
318.15	.05	101	.0006253	.000012506

System: (+)-arabinose + water; phases: Liquid
Property: Mass density, kg/m3 (Liquid); method: Pycnometric method
Mass fraction of (+)-arabinose	Temperature, K	Pressure, kPa	Mass density, kg/m3	uncertainty
.025	293.15	101	1007.35	
.025	298.15	101	1005.77	
.025	303.15	101	1004.18	
.025	308.15	101	1002.6	
.025	313.15	101	1001.01	
.025	318.15	101	999.43	
.05	293.15	101	1016.09	
.05	298.15	101	1014.44	
.05	303.15	101	1012.79	
.05	308.15	101	1011.13	
.05	313.15	101	1009.46	
.05	318.15	101	1007.8	

System: (+)-arabinose + water; phases: Liquid
Property: Viscosity, Pa*s (Liquid); method: Capillary tube (Ostwald; Ubbelohde) method
Temperature, K	Mass fraction of (+)-arabinose	Pressure, kPa	Viscosity, Pa*s	uncertainty
298.15	.025	101	.0009141	.000018282
303.15	.025	101	.0008116	.000016232
308.15	.025	101	.0007304	.000014608
313.15	.025	101	.0006591	.000013182
318.15	.025	101	.0006006	.000012012
298.15	.05	101	.0009695	.00001939
303.15	.05	101	.0008573	.000017146
308.15	.05	101	.0007658	.000015316
313.15	.05	101	.000689	.00001378
318.15	.05	101	.0006295	.00001259
