Measured thermophysical data. Tie line data for the (water + butyric acid + n-butyl alcohol or amyl alcohol) at T = (298.2, 308.2, and 318.2) K and (water + butyric acid + isoamyl alcohol) at T = 298.2 K
Source: J. Chem. Thermodyn., 2014, 10.1016/j.jct.2013.11.028
Compound 1: butyric acid, C4H8O2, purity 99%
Compound 2: n-butyl alcohol, C4H10O, purity 99%
Compound 3: amyl alcohol, C5H12O, purity 99%
Compound 4: isoamyl alcohol, C5H12O, purity 98.5%
Compound 5: water, H2O

System: butyric acid; phases: Liquid
Fixed: Pressure, kPa = 101.325
Property: Refractive index (Na D-line) (Liquid); method: Standard Abbe refractometry
Temperature, K	Refractive index (Na D-line)	uncertainty
298.2	1.3977	.0002

System: butyric acid; phases: Liquid
Fixed: Pressure, kPa = 101.325
Property: Mass density, kg/m3 (Liquid); method: Vibrating tube method
Temperature, K	Mass density, kg/m3	uncertainty
298.2	952.68	.03

System: n-butyl alcohol; phases: Liquid
Fixed: Pressure, kPa = 101.325
Property: Refractive index (Na D-line) (Liquid); method: Standard Abbe refractometry
Temperature, K	Refractive index (Na D-line)	uncertainty
298.2	1.3968	.0002

System: n-butyl alcohol; phases: Liquid
Fixed: Pressure, kPa = 101.325
Property: Mass density, kg/m3 (Liquid); method: Vibrating tube method
Temperature, K	Mass density, kg/m3	uncertainty
298.2	805.6	.03

System: amyl alcohol; phases: Liquid
Fixed: Pressure, kPa = 101.325
Property: Refractive index (Na D-line) (Liquid); method: Standard Abbe refractometry
Temperature, K	Refractive index (Na D-line)	uncertainty
298.2	1.4073	.0002

System: amyl alcohol; phases: Liquid
Fixed: Pressure, kPa = 101.325
Property: Mass density, kg/m3 (Liquid); method: Vibrating tube method
Temperature, K	Mass density, kg/m3	uncertainty
298.2	810.92	.03

System: isoamyl alcohol; phases: Liquid
Fixed: Pressure, kPa = 101.325
Property: Refractive index (Na D-line) (Liquid); method: Standard Abbe refractometry
Temperature, K	Refractive index (Na D-line)	uncertainty
298.2	1.4085	.0002

System: isoamyl alcohol; phases: Liquid
Fixed: Pressure, kPa = 101.325
Property: Mass density, kg/m3 (Liquid); method: Vibrating tube method
Temperature, K	Mass density, kg/m3	uncertainty
298.2	809.05	.03

System: water; phases: Liquid
Fixed: Pressure, kPa = 101.325
Property: Refractive index (Na D-line) (Liquid); method: Standard Abbe refractometry
Temperature, K	Refractive index (Na D-line)	uncertainty
298.2	1.3325	.0002

System: water; phases: Liquid
Fixed: Pressure, kPa = 101.325
Property: Mass density, kg/m3 (Liquid); method: Vibrating tube method
Temperature, K	Mass density, kg/m3	uncertainty
298.2	997.05	.03

System: n-butyl alcohol + butyric acid + water; phases: Liquid mixture 1, Liquid mixture 2
Fixed: Pressure, kPa = 101.3
Property: Mass fraction of butyric acid (Liquid mixture 1); method: Titration method
Temperature, K	Mass fraction of water	Mass fraction of butyric acid	uncertainty
298.2	.9739	.0017	.0008
298.2	.9143	.0566	.0008
298.2	.8662	.0989	.0008
298.2	.8003	.1567	.0008
298.2	.7444	.2011	.0008
298.2	.6928	.2455	.0008
298.2	.6337	.2847	.0008
298.2	.589	.318	.0008
298.2	.4965	.3756	.0008
298.2	.4368	.3896	.0008
298.2	.3942	.3925	.0008
298.2	.3647	.3818	.0008
298.2	.3469	.3536	.0008
298.2	.3301	.2961	.0008
298.2	.3128	.1973	.0008
308.2	.9589	.0018	.0008
308.2	.8855	.0664	.0008
308.2	.8439	.1006	.0008
308.2	.7776	.1563	.0008
308.2	.7301	.1966	.0008
308.2	.684	.2364	.0008
308.2	.6285	.2755	.0008
308.2	.5595	.3183	.0008
308.2	.4922	.3507	.0008
308.2	.4408	.3606	.0008
308.2	.4063	.3623	.0008
308.2	.3837	.3438	.0008
308.2	.3664	.3172	.0008
308.2	.3545	.2839	.0008
308.2	.3388	.2278	.0008
318.2	.9469	.0028	.0008
318.2	.8779	.0626	.0008
318.2	.8185	.1114	.0008
318.2	.7719	.1531	.0008
318.2	.7201	.1957	.0008
318.2	.6488	.2434	.0008
318.2	.5895	.2813	.0008
318.2	.5293	.313	.0008
318.2	.4713	.3339	.0008
318.2	.4178	.3094	.0008
318.2	.3891	.2694	.0008
318.2	.3618	.1924	.0008
318.2	.3422	.1006	.0008
318.2	.3202	.0004	.0008

System: n-butyl alcohol + butyric acid + water; phases: Liquid mixture 1, Liquid mixture 2
Property: Mass fraction of butyric acid (Liquid mixture 1); method: Titration method
Property: Mass fraction of water (Liquid mixture 2); method: Titration method
Property: Mass fraction of butyric acid (Liquid mixture 2); method: Titration method
Temperature, K	Pressure, kPa	Mass fraction of water	Mass fraction of butyric acid	uncertainty	Mass fraction of water	uncertainty	Mass fraction of butyric acid	uncertainty
298.2	101.3	.95	.025	.001	.305	.001	.175	.001
308.2	101.3	.901	.053	.001	.359	.001	.297	.001
308.2	101.3	.887	.066	.001	.379	.001	.335	.001
308.2	101.3	.871	.08	.001	.392	.001	.354	.001
318.2	101.3	.863	.076	.001	.449	.001	.324	.001
318.2	101.3	.919	.029	.001	.358	.001	.183	.001
318.2	101.3	.91	.036	.001	.372	.001	.216	.001
318.2	101.3	.901	.043	.001	.384	.001	.247	.001
318.2	101.3	.89	.052	.001	.399	.001	.279	.001
318.2	101.3	.88	.061	.001	.418	.001	.304	.001
298.2	101.3	.938	.036	.001	.32	.001	.225	.001
298.2	101.3	.926	.046	.001	.327	.001	.265	.001
298.2	101.3	.915	.056	.001	.335	.001	.3	.001
298.2	101.3	.901	.068	.001	.34	.001	.327	.001
298.2	101.3	.889	.079	.001	.346	.001	.352	.001
308.2	101.3	.931	.027	.001	.333	.001	.192	.001
308.2	101.3	.92	.036	.001	.339	.001	.231	.001
308.2	101.3	.913	.042	.001	.346	.001	.258	.001

System: amyl alcohol + butyric acid + water; phases: Liquid mixture 1, Liquid mixture 2
Fixed: Pressure, kPa = 101.3
Property: Mass fraction of butyric acid (Liquid mixture 1); method: Titration method
Temperature, K	Mass fraction of water	Mass fraction of butyric acid	uncertainty
298.2	.9391	.0569	.0008
298.2	.834	.1582	.0008
298.2	.7825	.2078	.0008
298.2	.7279	.2566	.0008
298.2	.6799	.301	.0008
298.2	.576	.3937	.0008
298.2	.5293	.4352	.0008
298.2	.4213	.5214	.0008
298.2	.3795	.5484	.0008
298.2	.3015	.5712	.0008
298.2	.2559	.5578	.0008
298.2	.2194	.5376	.0008
298.2	.2044	.5157	.0008
298.2	.1745	.4446	.0008
298.2	.162	.4237	.0008
298.2	.1536	.3847	.0008
298.2	.1453	.3439	.0008
298.2	.139	.3105	.0008
298.2	.1296	.2617	.0008
308.2	.9371	.0569	.0008
308.2	.8334	.1568	.0008
308.2	.7762	.2103	.0008
308.2	.731	.2514	.0008
308.2	.6794	.2976	.0008
308.2	.5772	.3853	.0008
308.2	.5221	.4308	.0008
308.2	.4057	.5143	.0008
308.2	.3564	.5406	.0008
308.2	.2916	.5587	.0008
308.2	.2246	.4984	.0008
308.2	.2027	.4732	.0008
308.2	.188	.4425	.0008
308.2	.1636	.3797	.0008
308.2	.1531	.3387	.0008
308.2	.1395	.3001	.0008
308.2	.1359	.2669	.0008
308.2	.1291	.2279	.0008
308.2	.1244	.1828	.0008
318.2	.9374	.0547	.0008
318.2	.8314	.1569	.0008
318.2	.7797	.2046	.0008
318.2	.7257	.2509	.0008
318.2	.6761	.2948	.0008
318.2	.5684	.382	.0008
318.2	.5174	.4265	.0008
318.2	.4115	.5022	.0008
318.2	.3461	.5194	.0008
318.2	.2821	.523	.0008
318.2	.2117	.4729	.0008
318.2	.1962	.4456	.0008
318.2	.1846	.4077	.0008
318.2	.163	.3351	.0008
318.2	.1507	.3014	.0008
318.2	.1455	.2608	.0008
318.2	.1384	.2168	.0008
318.2	.1367	.1764	.0008
318.2	.132	.142	.0008

System: amyl alcohol + butyric acid + water; phases: Liquid mixture 1, Liquid mixture 2
Property: Mass fraction of water (Liquid mixture 1); method: Index of refraction calibration data
Property: Mass fraction of butyric acid (Liquid mixture 2); method: Index of refraction calibration data
Property: Mass fraction of water (Liquid mixture 2); method: Index of refraction calibration data
Temperature, K	Pressure, kPa	Mass fraction of butyric acid	Mass fraction of water	uncertainty	Mass fraction of butyric acid	uncertainty	Mass fraction of water	uncertainty
298.2	101.3	.017	.981	.001	.179	.001	.12	.001
308.2	101.3	.018	.979	.001	.183	.001	.124	.001
308.2	101.3	.031	.965	.001	.3	.001	.139	.001
308.2	101.3	.042	.953	.001	.363	.001	.154	.001
318.2	101.3	.058	.934	.001	.442	.001	.197	.001
318.2	101.3	.02	.976	.001	.198	.001	.133	.001
318.2	101.3	.029	.966	.001	.289	.001	.151	.001
318.2	101.3	.068	.923	.001	.469	.001	.219	.001
318.2	101.3	.041	.953	.001	.362	.001	.165	.001
318.2	101.3	.053	.94	.001	.421	.001	.187	.001
298.2	101.3	.032	.965	.001	.294	.001	.132	.001
298.2	101.3	.043	.953	.001	.365	.001	.146	.001
298.2	101.3	.053	.943	.001	.406	.001	.158	.001
298.2	101.3	.062	.932	.001	.448	.001	.175	.001
298.2	101.3	.069	.925	.001	.469	.001	.183	.001
308.2	101.3	.053	.942	.001	.417	.001	.17	.001
308.2	101.3	.061	.933	.001	.457	.001	.188	.001
308.2	101.3	.067	.927	.001	.468	.001	.196	.001

System: butyric acid + isoamyl alcohol + water; phases: Liquid mixture 1, Liquid mixture 2
Fixed: Pressure, kPa = 101.3
Property: Mass fraction of butyric acid (Liquid mixture 1); method: Titration method
Temperature, K	Mass fraction of water	Mass fraction of butyric acid	uncertainty
298.2	.9251	.069	.0008
298.2	.8828	.1093	.0008
298.2	.8268	.1634	.0008
298.2	.7812	.2073	.0008
298.2	.7231	.2596	.0008
298.2	.69	.2887	.0008
298.2	.6218	.3514	.0008
298.2	.5745	.3927	.0008
298.2	.5242	.4348	.0008
298.2	.4743	.4782	.0008
298.2	.42	.5157	.0008
298.2	.3666	.5449	.0008
298.2	.3036	.564	.0008
298.2	.2486	.5552	.0008
298.2	.2912	.5588	.0008
298.2	.2532	.5509	.0008
298.2	.2527	.5191	.0008
298.2	.2153	.5091	.0008
298.2	.1902	.4878	.0008
298.2	.1663	.4499	.0008
298.2	.1575	.4221	.0008
298.2	.1457	.3842	.0008
298.2	.1375	.3459	.0008
298.2	.1325	.3041	.0008
298.2	.1275	.2635	.0008
298.2	.1209	.2228	.0008
298.2	.1169	.1906	.0008
298.2	.1147	.145	.0008
298.2	.1079	.1063	.0008
298.2	.0983	.059	.0008

System: butyric acid + isoamyl alcohol + water; phases: Liquid mixture 1, Liquid mixture 2
Property: Mass fraction of water (Liquid mixture 1); method: Index of refraction calibration data
Property: Mass fraction of butyric acid (Liquid mixture 2); method: Index of refraction calibration data
Property: Mass fraction of water (Liquid mixture 2); method: Index of refraction calibration data
Temperature, K	Pressure, kPa	Mass fraction of butyric acid	Mass fraction of water	uncertainty	Mass fraction of butyric acid	uncertainty	Mass fraction of water	uncertainty
298.2	101.3	.015	.981	.001	.165	.001	.115	.001
298.2	101.3	.028	.968	.001	.282	.001	.131	.001
298.2	101.3	.039	.956	.001	.347	.001	.138	.001
298.2	101.3	.051	.944	.001	.408	.001	.154	.001
298.2	101.3	.059	.935	.001	.438	.001	.166	.001
298.2	101.3	.069	.925	.001	.475	.001	.182	.001
