Measured thermophysical data. Low-temperature heat capacity of Ru(C5H7O2)3
Source: J. Chem. Thermodyn., 2015, 10.1016/j.jct.2014.10.016
Compound 1: ruthenium (III) acetylacetonate, C15H21O6Ru

System: ruthenium (III) acetylacetonate; phases: Crystal, Liquid, Air at 1 atmosphere
Property: Normal melting temperature, K (Crystal); method: Visual observation
Normal melting temperature, K	uncertainty
504	

System: ruthenium (III) acetylacetonate; phases: Crystal
Fixed: Pressure, kPa = 101.325
Property: Molar heat capacity at constant pressure, J/K/mol (Crystal); method: Vacuum adiabatic calorimetry
Temperature, K	Molar heat capacity at constant pressure, J/K/mol	uncertainty
6.83	2.999	1
9.11	7.04	1
10.71	10.26	1
11.71	12.13	1
12.58	13.91	1
14.08	17.3	1
16.32	22.22	1
19.62	29.5	1
22.46	36.37	.3
24.66	41.49	.3
26.9	46.75	.3
28.85	51.51	.3
30.6	55.79	.3
33.2	62.05	.3
36.45	69.65	.3
39.15	75.63	.3
41.78	82.21	.3
44.41	88.4	.3
47.12	94.76	.3
49.89	101.2	.3
53.65	110.5	.3
58.23	120.8	.3
62.19	130.2	.3
65.72	138.9	.3
69.72	147.7	.3
74.79	159.1	.3
79.15	168.1	.3
79.43	168.5	.3
83.76	177.4	.15
90.69	190.7	.15
95.18	198.6	.15
100.21	207.5	.15
104.98	215.7	.15
109.35	222.6	.15
110.19	223.8	.15
113.3	229	.15
113.7	229.5	.15
117.14	234.1	.15
120.49	238.7	.15
120.87	239.3	.15
124.61	244.8	.15
128.83	250.8	.15
133.39	256.8	.15
137.84	262.2	.15
142.34	267.5	.15
146.87	272.8	.15
151.31	277.9	.15
155.66	283.1	.15
159.92	287.4	.15
164.76	292.9	.15
170.16	298.5	.15
175.44	304.1	.15
180.65	309.8	.15
185.79	315.3	.15
190.89	320.1	.15
195.89	325.6	.15
200.86	330.4	.15
206.44	336.2	.15
212.6	342.3	.15
218.69	348.2	.15
224.68	354.8	.15
230.61	360.3	.15
236.47	366.1	.15
242.27	371.6	.15
248.01	377	.15
253.62	382.8	.15
259.14	388.5	.15
264.61	393.8	.15
270.03	399.6	.15
275.4	405	.15
280.72	410.8	.15
286.03	415.8	.15
291.85	421.9	.15
298.09	428.2	.15
304.23	434.8	.15
310.33	440.9	.15
