Measured thermophysical data. Solubilities and partial molar volumes of new CO2-philic propane derivatives in supercritical carbon dioxide
Source: J. Chem. Thermodyn., 2013, 10.1016/j.jct.2013.08.015
Compound 1: carbon dioxide, CO2, purity 99.99%
Compound 2: 2-methyl-2-propyl-1,3-propanediyl bis(2,2-dimethylpropanoate), C17H32O4
Compound 3: 2-methyl-1,3-propanediyl bis(2,2-dimethylpropanoate), C14H26O4
Compound 4: 2,2-diethyl-1,3-propanediyl bis(2,2-dimethylpropanoate), C17H32O4

System: carbon dioxide + 2-methyl-2-propyl-1,3-propanediyl bis(2,2-dimethylpropanoate); phases: Fluid (supercritical or subcritical phases), Liquid
Property: Mole fraction of 2-methyl-2-propyl-1,3-propanediyl bis(2,2-dimethylpropanoate) (Fluid (supercritical or subcritical phases)); method: Combination of gravimetric and volumetric methods
Temperature, K	Pressure, kPa	Mole fraction of 2-methyl-2-propyl-1,3-propanediyl bis(2,2-dimethylpropanoate)	uncertainty
313	7800	.00176	.0000088
313	8000	.00325	.00001625
313	8200	.00446	.0000223
313	8300	.00566	.0000283
313	8400	.00671	.00003355
323	8500	.00182	.0000091
323	8800	.00335	.00001675
323	9100	.00463	.00002315
323	9300	.00582	.0000291
323	9500	.00685	.00003425
333	9200	.00185	.00000925
333	9600	.0034	.000017
333	9900	.00478	.0000239
333	10200	.00598	.0000299
333	10500	.00702	.0000351
343	9700	.00193	.00000965
343	10200	.00353	.00001765
343	10600	.00495	.00002475
343	11000	.00617	.00003085
343	11400	.00721	.00003605
353	10200	.00198	.0000099
353	10800	.00363	.00001815
353	11300	.00506	.0000253
353	11700	.00637	.00003185
353	12100	.00753	.00003765

System: 2-methyl-1,3-propanediyl bis(2,2-dimethylpropanoate) + carbon dioxide; phases: Fluid (supercritical or subcritical phases), Liquid
Property: Mole fraction of 2-methyl-1,3-propanediyl bis(2,2-dimethylpropanoate) (Fluid (supercritical or subcritical phases)); method: Combination of gravimetric and volumetric methods
Temperature, K	Pressure, kPa	Mole fraction of 2-methyl-1,3-propanediyl bis(2,2-dimethylpropanoate)	uncertainty
313	7700	.00211	.00001055
313	7900	.00393	.00001965
313	8100	.00542	.0000271
313	8200	.00691	.00003455
313	8300	.00823	.00004115
323	8400	.00216	.0000108
323	8700	.004	.00002
323	9000	.00553	.00002765
323	9200	.00696	.0000348
323	9300	.00845	.00004225
333	9000	.00223	.00001115
333	9400	.00411	.00002055
333	9700	.00579	.00002895
333	10000	.00725	.00003625
333	10300	.00851	.00004255
343	9500	.00231	.00001155
343	10000	.00425	.00002125
343	10400	.00595	.00002975
343	10800	.00741	.00003705
343	11100	.00881	.00004405
353	9900	.00241	.00001205
353	10500	.0044	.000022
353	11000	.00614	.0000307
353	11400	.00772	.0000386
353	11800	.00913	.00004565

System: carbon dioxide + 2,2-diethyl-1,3-propanediyl bis(2,2-dimethylpropanoate); phases: Fluid (supercritical or subcritical phases), Liquid
Property: Mole fraction of 2,2-diethyl-1,3-propanediyl bis(2,2-dimethylpropanoate) (Fluid (supercritical or subcritical phases)); method: Combination of gravimetric and volumetric methods
Temperature, K	Pressure, kPa	Mole fraction of 2,2-diethyl-1,3-propanediyl bis(2,2-dimethylpropanoate)	uncertainty
313	7800	.00176	.0000088
313	8000	.00325	.00001625
313	8200	.00446	.0000223
313	8300	.00566	.0000283
313	8400	.00671	.00003355
323	8500	.00182	.0000091
323	8800	.00335	.00001675
323	9100	.00463	.00002315
323	9300	.00582	.0000291
323	9400	.00706	.0000353
333	9200	.00185	.00000925
333	9600	.0034	.000017
333	9900	.00478	.0000239
333	10100	.00611	.00003055
333	10400	.00717	.00003585
343	9700	.00193	.00000965
343	10200	.00353	.00001765
343	10600	.00495	.00002475
343	10900	.00627	.00003135
343	11200	.00745	.00003725
353	10200	.00198	.0000099
353	10800	.00363	.00001815
353	11300	.00506	.0000253
353	11700	.00636	.0000318
353	12000	.00763	.00003815
