Measured thermophysical data. Volumetric and acoustic studies on (tetraethylene glycol + water) mixtures in a wide temperature range
Source: J. Chem. Thermodyn., 2015, 10.1016/j.jct.2015.02.007
Compound 1: tetraethylene glycol, C8H18O5, purity 99.5%
Compound 2: water, H2O

System: tetraethylene glycol; phases: Liquid
Property: Mass density, kg/m3 (Liquid); method: Vibrating tube method
Temperature, K	Pressure, kPa	Mass density, kg/m3	uncertainty
278.15	100	1135.805	.05
283.15	100	1131.848	.05
288.15	100	1127.875	.05
293.15	100	1123.898	.05
298.15	100	1119.917	.05
303.15	100	1115.941	.05
308.15	100	1111.962	.05
313.15	100	1107.981	.05
318.15	100	1104.005	.05
323.15	100	1100.022	.05
328.15	100	1096.037	.05
333.15	100	1092.048	.05

System: tetraethylene glycol; phases: Liquid
Property: Speed of sound, m/s (Liquid); method: Pulse-echo method
Temperature, K	Pressure, kPa	Speed of sound, m/s	uncertainty
288.15	100	1633.14	
293.15	100	1615.35	
298.15	100	1599.09	
303.15	100	1582.9	
308.15	100	1568.7	
313.15	100	1553.48	
318.15	100	1538.54	

System: water; phases: Liquid
Property: Mass density, kg/m3 (Liquid); method: Vibrating tube method
Temperature, K	Pressure, kPa	Mass density, kg/m3	uncertainty
278.15	100	999.965	.05
283.15	100	999.698	.05
288.15	100	999.099	.05
293.15	100	998.204	.05
298.15	100	997.043	.05
303.15	100	995.643	.05
308.15	100	994.026	.05
313.15	100	992.208	.05
318.15	100	990.201	.05
323.15	100	988.027	.05
328.15	100	985.682	.05
333.15	100	983.186	.05

System: water; phases: Liquid
Property: Speed of sound, m/s (Liquid); method: Pulse-echo method
Temperature, K	Pressure, kPa	Speed of sound, m/s	uncertainty
288.15	100	1466.57	
293.15	100	1482.33	
298.15	100	1496.75	
303.15	100	1509.39	
308.15	100	1520.13	
313.15	100	1529.76	
318.15	100	1536.65	

System: tetraethylene glycol + water; phases: Liquid
Fixed: Pressure, kPa = 100
Property: Mass density, kg/m3 (Liquid); method: Vibrating tube method
Temperature, K	Mole fraction of tetraethylene glycol	Mass density, kg/m3	uncertainty
278.15	0	999.965	.05
278.15	.0116	1018.941	.05
278.15	.0203	1031.274	.05
278.15	.0406	1055.352	.05
278.15	.0605	1073.218	.05
278.15	.0806	1086.767	.05
278.15	.1024	1097.769	.05
278.15	.1511	1113.073	.05
278.15	.2006	1121.278	.05
278.15	.25	1125.884	.05
278.15	.3012	1128.729	.05
278.15	.4024	1131.711	.05
278.15	.4964	1133.141	.05
278.15	.5985	1134.109	.05
278.15	.7018	1134.759	.05
278.15	.759	1135.014	.05
278.15	.8201	1135.225	.05
278.15	.8353	1135.27	.05
278.15	.8804	1135.396	.05
278.15	.9237	1135.519	.05
278.15	.9719	1135.683	.05
278.15	1	1135.805	.05
283.15	0	999.698	.05
283.15	.0116	1018.155	.05
283.15	.0203	1030.119	.05
283.15	.0406	1053.436	.05
283.15	.0605	1070.731	.05
283.15	.0806	1083.862	.05
283.15	.1024	1094.548	.05
283.15	.1511	1109.469	.05
283.15	.2006	1117.514	.05
283.15	.25	1122.055	.05
283.15	.3012	1124.877	.05
283.15	.4024	1127.856	.05
283.15	.4964	1129.284	.05
283.15	.5985	1130.235	.05
283.15	.7018	1130.859	.05
283.15	.759	1131.102	.05
283.15	.8201	1131.302	.05
283.15	.8353	1131.345	.05
283.15	.8804	1131.465	.05
283.15	.9237	1131.581	.05
283.15	.9719	1131.734	.05
283.15	1	1131.848	.05
288.15	0	999.099	.05
288.15	.0116	1017.079	.05
288.15	.0203	1028.707	.05
288.15	.0406	1051.333	.05
288.15	.0605	1068.111	.05
288.15	.0806	1080.865	.05
288.15	.1024	1091.264	.05
288.15	.1511	1105.834	.05
288.15	.2006	1113.728	.05
288.15	.25	1118.204	.05
288.15	.3012	1121	.05
288.15	.4024	1123.972	.05
288.15	.4964	1125.396	.05
288.15	.5985	1126.33	.05
288.15	.7018	1126.93	.05
288.15	.759	1127.161	.05
288.15	.8201	1127.353	.05
288.15	.8353	1127.394	.05
288.15	.8804	1127.51	.05
288.15	.9237	1127.622	.05
288.15	.9719	1127.768	.05
288.15	1	1127.875	.05
293.15	0	998.204	.05
293.15	.0116	1015.749	.05
293.15	.0203	1027.072	.05
293.15	.0406	1049.077	.05
293.15	.0605	1065.391	.05
293.15	.0806	1077.803	.05
293.15	.1024	1087.936	.05
293.15	.1511	1102.172	.05
293.15	.2006	1109.914	.05
293.15	.25	1114.324	.05
293.15	.3012	1117.096	.05
293.15	.4024	1120.07	.05
293.15	.4964	1121.496	.05
293.15	.5985	1122.411	.05
293.15	.7018	1122.985	.05
293.15	.759	1123.206	.05
293.15	.8201	1123.392	.05
293.15	.8353	1123.433	.05
293.15	.8804	1123.548	.05
293.15	.9237	1123.658	.05
293.15	.9719	1123.799	.05
293.15	1	1123.898	.05
298.15	0	997.043	.05
298.15	.0116	1014.303	.05
298.15	.0203	1025.367	.05
298.15	.0406	1046.754	.05
298.15	.0605	1062.565	.05
298.15	.0806	1074.606	.05
298.15	.1024	1084.471	.05
298.15	.1511	1098.433	.05
298.15	.2006	1106.098	.05
298.15	.25	1110.479	.05
298.15	.3012	1113.226	.05
298.15	.4024	1116.154	.05
298.15	.4964	1117.561	.05
298.15	.5985	1118.475	.05
298.15	.7018	1119.048	.05
298.15	.759	1119.263	.05
298.15	.8201	1119.438	.05
298.15	.8353	1119.476	.05
298.15	.8804	1119.58	.05
298.15	.9237	1119.682	.05
298.15	.9719	1119.817	.05
298.15	1	1119.917	.05
303.15	0	995.643	.05
303.15	.0116	1012.579	.05
303.15	.0203	1023.397	.05
303.15	.0406	1044.249	.05
303.15	.0605	1059.644	.05
303.15	.0806	1071.377	.05
303.15	.1024	1081.009	.05
303.15	.1511	1094.697	.05
303.15	.2006	1102.249	.05
303.15	.25	1106.58	.05
303.15	.3012	1109.301	.05
303.15	.4024	1112.214	.05
303.15	.4964	1113.623	.05
303.15	.5985	1114.537	.05
303.15	.7018	1115.103	.05
303.15	.759	1115.312	.05
303.15	.8201	1115.48	.05
303.15	.8353	1115.516	.05
303.15	.8804	1115.616	.05
303.15	.9237	1115.714	.05
303.15	.9719	1115.844	.05
303.15	1	1115.941	.05
308.15	0	994.026	.05
308.15	.0116	1010.659	.05
308.15	.0203	1021.249	.05
308.15	.0406	1041.613	.05
308.15	.0605	1056.628	.05
308.15	.0806	1068.077	.05
308.15	.1024	1077.491	.05
308.15	.1511	1090.916	.05
308.15	.2006	1098.361	.05
308.15	.25	1102.648	.05
308.15	.3012	1105.351	.05
308.15	.4024	1108.26	.05
308.15	.4964	1109.673	.05
308.15	.5985	1110.585	.05
308.15	.7018	1111.144	.05
308.15	.759	1111.349	.05
308.15	.8201	1111.515	.05
308.15	.8353	1111.55	.05
308.15	.8804	1111.649	.05
308.15	.9237	1111.744	.05
308.15	.9719	1111.87	.05
308.15	1	1111.962	.05
313.15	0	992.208	.05
313.15	.0116	1008.561	.05
313.15	.0203	1018.942	.05
313.15	.0406	1038.856	.05
313.15	.0605	1053.521	.05
313.15	.0806	1064.71	.05
313.15	.1024	1073.925	.05
313.15	.1511	1087.112	.05
313.15	.2006	1094.459	.05
313.15	.25	1098.703	.05
313.15	.3012	1101.385	.05
313.15	.4024	1104.285	.05
313.15	.4964	1105.705	.05
313.15	.5985	1106.623	.05
313.15	.7018	1107.181	.05
313.15	.759	1107.383	.05
313.15	.8201	1107.544	.05
313.15	.8353	1107.578	.05
313.15	.8804	1107.674	.05
313.15	.9237	1107.767	.05
313.15	.9719	1107.89	.05
313.15	1	1107.981	.05
318.15	0	990.201	.05
318.15	.0116	1006.251	.05
318.15	.0203	1016.427	.05
318.15	.0406	1035.932	.05
318.15	.0605	1050.29	.05
318.15	.0806	1061.25	.05
318.15	.1024	1070.288	.05
318.15	.1511	1083.253	.05
318.15	.2006	1090.51	.05
318.15	.25	1094.723	.05
318.15	.3012	1097.398	.05
318.15	.4024	1100.309	.05
318.15	.4964	1101.739	.05
318.15	.5985	1102.662	.05
318.15	.7018	1103.216	.05
318.15	.759	1103.415	.05
318.15	.8201	1103.574	.05
318.15	.8353	1103.607	.05
318.15	.8804	1103.701	.05
318.15	.9237	1103.794	.05
318.15	.9719	1103.916	.05
318.15	1	1104.005	.05
323.15	0	988.027	.05
323.15	.0116	1003.818	.05
323.15	.0203	1013.81	.05
323.15	.0406	1032.929	.05
323.15	.0605	1046.99	.05
323.15	.0806	1057.727	.05
323.15	.1024	1066.592	.05
323.15	.1511	1079.348	.05
323.15	.2006	1086.524	.05
323.15	.25	1090.711	.05
323.15	.3012	1093.382	.05
323.15	.4024	1096.306	.05
323.15	.4964	1097.752	.05
323.15	.5985	1098.684	.05
323.15	.7018	1099.24	.05
323.15	.759	1099.44	.05
323.15	.8201	1099.598	.05
323.15	.8353	1099.632	.05
323.15	.8804	1099.725	.05
323.15	.9237	1099.816	.05
323.15	.9719	1099.936	.05
323.15	1	1100.022	.05
328.15	0	985.682	.05
328.15	.0116	1001.244	.05
328.15	.0203	1011.068	.05
328.15	.0406	1029.826	.05
328.15	.0605	1043.605	.05
328.15	.0806	1054.13	.05
328.15	.1024	1062.831	.05
328.15	.1511	1075.396	.05
328.15	.2006	1082.506	.05
328.15	.25	1086.674	.05
328.15	.3012	1089.345	.05
328.15	.4024	1092.284	.05
328.15	.4964	1093.746	.05
328.15	.5985	1094.691	.05
328.15	.7018	1095.255	.05
328.15	.759	1095.456	.05
328.15	.8201	1095.615	.05
328.15	.8353	1095.649	.05
328.15	.8804	1095.743	.05
328.15	.9237	1095.835	.05
328.15	.9719	1095.952	.05
328.15	1	1096.037	.05
333.15	0	983.186	.05
333.15	.0116	998.51	.05
333.15	.0203	1008.169	.05
333.15	.0406	1026.595	.05
333.15	.0605	1040.123	.05
333.15	.0806	1050.463	.05
333.15	.1024	1059.022	.05
333.15	.1511	1071.418	.05
333.15	.2006	1078.466	.05
333.15	.25	1082.617	.05
333.15	.3012	1085.288	.05
333.15	.4024	1088.241	.05
333.15	.4964	1089.72	.05
333.15	.5985	1090.681	.05
333.15	.7018	1091.256	.05
333.15	.759	1091.461	.05
333.15	.8201	1091.624	.05
333.15	.8353	1091.659	.05
333.15	.8804	1091.755	.05
333.15	.9237	1091.847	.05
333.15	.9719	1091.965	.05
333.15	1	1092.048	.05

System: tetraethylene glycol + water; phases: Liquid
Fixed: Pressure, kPa = 100
Property: Speed of sound, m/s (Liquid); method: Pulse-echo method
Temperature, K	Mole fraction of tetraethylene glycol	Speed of sound, m/s	uncertainty
288.15	0	1466.57	
288.15	.0005	1469.01	
288.15	.0009	1471.33	
288.15	.0021	1477.21	
288.15	.0036	1485.12	
288.15	.0058	1496.57	
288.15	.0082	1508.88	
288.15	.0174	1554.01	
288.15	.0206	1569.14	
288.15	.0244	1586.27	
288.15	.0292	1606.5	
288.15	.0332	1622.35	
288.15	.0388	1642.92	
288.15	.0427	1655.98	
288.15	.0466	1668.2	
288.15	.0518	1683.19	
288.15	.0579	1698.53	
288.15	.0648	1713.28	
288.15	.0698	1722.61	
288.15	.0751	1731.13	
288.15	.0804	1738.42	
288.15	.0819	1740.24	
288.15	.0874	1746.38	
288.15	.0942	1752.38	
288.15	.0999	1756.35	
288.15	.1029	1758.09	
288.15	.1068	1760.03	
288.15	.1133	1762.4	
288.15	.1137	1762.52	
288.15	.1202	1764.04	
288.15	.1308	1765.03	
288.15	.1439	1764.3	
288.15	.1556	1762.35	
288.15	.1791	1756.16	
288.15	.2001	1749.35	
288.15	.2146	1744.38	
288.15	.2391	1735.98	
288.15	.284	1721.28	
288.15	.3449	1703.58	
288.15	.424	1684.54	
288.15	.5705	1660.64	
288.15	.7053	1647.66	
288.15	.8249	1639.76	
288.15	.9027	1636.25	
288.15	.9471	1634.78	
288.15	1	1633.14	
293.15	0	1482.33	
293.15	.0003	1483.98	
293.15	.0008	1486.76	
293.15	.0017	1491.96	
293.15	.0031	1499.16	
293.15	.0052	1510.45	
293.15	.0084	1527.08	
293.15	.012	1545.1	
293.15	.0157	1562.08	
293.15	.0215	1587.83	
293.15	.0254	1603.48	
293.15	.0304	1622.33	
293.15	.0352	1638.83	
293.15	.0399	1653.32	
293.15	.0462	1671.07	
293.15	.0524	1686.04	
293.15	.0583	1698.6	
293.15	.0663	1712.77	
293.15	.0704	1719.01	
293.15	.0764	1726.91	
293.15	.0808	1731.82	
293.15	.0831	1734.18	
293.15	.0858	1736.61	
293.15	.0892	1739.47	
293.15	.0932	1742.35	
293.15	.0947	1743.31	
293.15	.1007	1746.62	
293.15	.1017	1747.08	
293.15	.1087	1749.76	
293.15	.1105	1750.26	
293.15	.1161	1751.54	
293.15	.1187	1751.95	
293.15	.1337	1752.46	
293.15	.143	1751.5	
293.15	.1574	1748.65	
293.15	.1704	1745.11	
293.15	.2166	1729.09	
293.15	.2475	1717.85	
293.15	.2809	1706.38	
293.15	.3333	1690.48	
293.15	.396	1674.65	
293.15	.4747	1658.99	
293.15	.6122	1639.64	
293.15	.7276	1628.33	
293.15	.8253	1621.79	
293.15	.9044	1618.69	
293.15	.9677	1616.8	
293.15	1	1615.35	
298.15	0	1496.75	
298.15	.0003	1498.52	
298.15	.0008	1501.4	
298.15	.0017	1506.49	
298.15	.0033	1515.1	
298.15	.0051	1524.81	
298.15	.0074	1536.8	
298.15	.0104	1551.53	
298.15	.0142	1568.81	
298.15	.0186	1587.45	
298.15	.0239	1607.98	
298.15	.0284	1623.87	
298.15	.0324	1636.66	
298.15	.0383	1653.68	
298.15	.0442	1668.56	
298.15	.0498	1680.92	
298.15	.0553	1691.59	
298.15	.0653	1707.4	
298.15	.0726	1716.54	
298.15	.0798	1723.8	
298.15	.0829	1726.38	
298.15	.0895	1731.12	
298.15	.0901	1731.48	
298.15	.0991	1736.05	
298.15	.1005	1736.61	
298.15	.1092	1739.24	
298.15	.1121	1739.81	
298.15	.1182	1740.6	
298.15	.1266	1740.87	
298.15	.1376	1740.02	
298.15	.1498	1737.86	
298.15	.1606	1735.15	
298.15	.1728	1731.42	
298.15	.186	1726.85	
298.15	.2067	1719.11	
298.15	.2378	1707.13	
298.15	.2631	1697.77	
298.15	.3049	1683.76	
298.15	.3449	1672.19	
298.15	.4055	1657.65	
298.15	.485	1642.65	
298.15	.5922	1626.96	
298.15	.7004	1614.83	
298.15	.8265	1605.71	
298.15	.9098	1602.68	
298.15	.9665	1600.85	
298.15	1	1599.09	
303.15	0	1509.39	
303.15	.0003	1511.24	
303.15	.0011	1515.24	
303.15	.0027	1523.74	
303.15	.0048	1535.02	
303.15	.0078	1549.53	
303.15	.011	1564.29	
303.15	.0142	1577.88	
303.15	.0174	1590.88	
303.15	.0215	1605.88	
303.15	.0264	1622.55	
303.15	.0325	1640.77	
303.15	.0385	1656.28	
303.15	.0438	1668.17	
303.15	.0496	1679.61	
303.15	.0549	1688.71	
303.15	.0609	1697.54	
303.15	.067	1704.99	
303.15	.0765	1714.21	
303.15	.0831	1719.04	
303.15	.0852	1720.33	
303.15	.0883	1722.05	
303.15	.0911	1723.4	
303.15	.0971	1725.78	
303.15	.0993	1726.49	
303.15	.104	1727.69	
303.15	.1106	1728.77	
303.15	.1136	1729.05	
303.15	.1203	1729.27	
303.15	.1252	1729.09	
303.15	.1427	1726.63	
303.15	.1568	1723.12	
303.15	.1769	1716.68	
303.15	.1966	1709.4	
303.15	.2222	1699.47	
303.15	.261	1684.74	
303.15	.2948	1673.02	
303.15	.346	1657.61	
303.15	.4153	1640.94	
303.15	.4781	1628.97	
303.15	.5805	1613.54	
303.15	.6796	1601.77	
303.15	.7959	1591.9	
303.15	.92	1586.66	
303.15	.9652	1585.01	
303.15	1	1582.9	
308.15	0	1520.13	
308.15	.0003	1521.84	
308.15	.0008	1524.34	
308.15	.002	1530.13	
308.15	.0035	1537.67	
308.15	.0054	1546.76	
308.15	.0081	1558.75	
308.15	.0108	1570.18	
308.15	.0149	1586.64	
308.15	.019	1601.46	
308.15	.0233	1615.51	
308.15	.0282	1630.15	
308.15	.0351	1647.91	
308.15	.0413	1661.43	
308.15	.0481	1673.97	
308.15	.0537	1682.8	
308.15	.0593	1690.29	
308.15	.0659	1697.68	
308.15	.0714	1702.75	
308.15	.0755	1705.89	
308.15	.0811	1709.51	
308.15	.083	1710.56	
308.15	.0851	1711.64	
308.15	.0898	1713.68	
308.15	.0935	1715	
308.15	.0994	1716.55	
308.15	.1007	1716.8	
308.15	.109	1717.88	
308.15	.1109	1717.99	
308.15	.1132	1718.07	
308.15	.1217	1717.82	
308.15	.1324	1716.5	
308.15	.1412	1714.75	
308.15	.1526	1711.83	
308.15	.1639	1708.33	
308.15	.1746	1704.65	
308.15	.1895	1699.15	
308.15	.2231	1686.01	
308.15	.2635	1670.62	
308.15	.3091	1655	
308.15	.3628	1639.47	
308.15	.4253	1625	
308.15	.5089	1610.12	
308.15	.5893	1598.86	
308.15	.6676	1589.62	
308.15	.7748	1579.72	
308.15	.8613	1574.91	
308.15	.9148	1573.14	
308.15	.9645	1571.25	
308.15	1	1568.7	
313.15	0	1529.76	
313.15	.0004	1531.63	
313.15	.0009	1533.71	
313.15	.0016	1537.12	
313.15	.0031	1543.82	
313.15	.0057	1554.96	
313.15	.0086	1566.8	
313.15	.012	1579.56	
313.15	.0155	1591.65	
313.15	.0194	1604.41	
313.15	.0232	1615.72	
313.15	.0274	1627.18	
313.15	.0318	1637.97	
313.15	.0375	1650.36	
313.15	.0422	1659.25	
313.15	.0478	1668.71	
313.15	.0532	1676.42	
313.15	.0581	1682.55	
313.15	.0629	1687.7	
313.15	.0674	1691.84	
313.15	.073	1696.25	
313.15	.0764	1698.48	
313.15	.0801	1700.58	
313.15	.0846	1702.71	
313.15	.0885	1704.26	
313.15	.0944	1706	
313.15	.0951	1706.16	
313.15	.1028	1707.45	
313.15	.1088	1707.86	
313.15	.1108	1707.89	
313.15	.1131	1707.87	
313.15	.1275	1706.45	
313.15	.1415	1703.42	
313.15	.1573	1698.66	
313.15	.1715	1693.6	
313.15	.1914	1685.85	
313.15	.2132	1676.99	
313.15	.2363	1667.71	
313.15	.2621	1657.87	
313.15	.2912	1647.68	
313.15	.3544	1628.83	
313.15	.404	1616.72	
313.15	.4539	1606.33	
313.15	.5601	1588.53	
313.15	.6931	1572.92	
313.15	.8369	1562.81	
313.15	.9134	1558.71	
313.15	.9649	1555.76	
313.15	1	1553.48	
318.15	0	1536.65	
318.15	.0003	1537.75	
318.15	.0005	1538.78	
318.15	.0011	1541.09	
318.15	.0019	1544.03	
318.15	.0033	1549.3	
318.15	.0051	1555.93	
318.15	.0077	1565.35	
318.15	.011	1576.21	
318.15	.0144	1587.12	
318.15	.0179	1597.3	
318.15	.0216	1607.69	
318.15	.0258	1618.48	
318.15	.0298	1627.8	
318.15	.0334	1635.46	
318.15	.0373	1643.21	
318.15	.042	1651.62	
318.15	.0468	1659.27	
318.15	.0494	1662.98	
318.15	.0513	1665.55	
318.15	.0541	1669.08	
318.15	.0562	1671.65	
318.15	.059	1674.68	
318.15	.0617	1677.46	
318.15	.0647	1680.23	
318.15	.0682	1683.13	
318.15	.0722	1686.08	
318.15	.077	1689.04	
318.15	.078	1689.57	
318.15	.082	1691.52	
318.15	.0847	1692.65	
318.15	.0852	1692.81	
318.15	.0878	1693.72	
318.15	.0893	1694.19	
318.15	.091	1694.66	
318.15	.0928	1695.11	
318.15	.0946	1695.51	
318.15	.095	1695.58	
318.15	.0975	1696	
318.15	.0993	1696.26	
318.15	.1013	1696.48	
318.15	.1068	1696.78	
318.15	.1071	1696.78	
318.15	.1174	1696.28	
318.15	.1339	1693.3	
318.15	.1514	1688.15	
318.15	.1626	1684.14	
318.15	.1741	1679.71	
318.15	.1879	1674.1	
318.15	.2091	1665.33	
318.15	.23	1656.86	
318.15	.2494	1649.3	
318.15	.2715	1641.2	
318.15	.2962	1632.83	
318.15	.3232	1624.42	
318.15	.366	1612.56	
318.15	.416	1600.52	
318.15	.4896	1585.67	
318.15	.5655	1573.53	
318.15	.6606	1562.43	
318.15	.7639	1554.24	
318.15	.8853	1546.48	
318.15	.9479	1542.22	
318.15	.9817	1539.82	
318.15	1	1538.54	
