Measured thermophysical data. (Liquid + liquid) equilibria in ternary aqueous mixtures of phosphoric acid  with organic solvents at T = 298.2 K
Source: J. Chem. Thermodyn., 2010, 10.1016/j.jct.2010.01.001
Compound 1: cyclohexane, C6H12, purity 99%
Compound 2: tert-pentyl alcohol, C5H12O, purity 99%
Compound 3: acetic acid, 2-methylpropyl ester, C6H12O2, purity 98%
Compound 4: orthophosphoric acid, H3O4P, purity 85%
Compound 5: water, H2O

System: cyclohexane + orthophosphoric acid + water; phases: Liquid mixture 1, Liquid mixture 2
Property: Mole fraction of water (Liquid mixture 1); method: Material balance
Property: Mole fraction of orthophosphoric acid (Liquid mixture 2); method: Material balance
Property: Mole fraction of water (Liquid mixture 2); method: Material balance
Temperature, K	Pressure, kPa	Mole fraction of orthophosphoric acid	Mole fraction of water	uncertainty	Mole fraction of orthophosphoric acid	uncertainty	Mole fraction of water	uncertainty
298.2	101.3	.0745	.9029	.0005	.0354	.0005	.0459	.0005
298.2	101.3	.1007	.8745	.0005	.0498	.0005	.0457	.0005
298.2	101.3	.1306	.8465	.0005	.0608	.0005	.0489	.0005
298.2	101.3	.157	.8176	.0005	.0845	.0005	.053	.0005
298.2	101.3	.1847	.7859	.0005	.0987	.0005	.056	.0005

System: acetic acid, 2-methylpropyl ester + orthophosphoric acid + water; phases: Liquid mixture 2, Liquid mixture 1
Property: Mole fraction of water (Liquid mixture 2); method: Titration method
Property: Mole fraction of water (Liquid mixture 1); method: Titration method
Property: Mole fraction of orthophosphoric acid (Liquid mixture 1); method: Titration method
Temperature, K	Pressure, kPa	Mole fraction of orthophosphoric acid	Mole fraction of water	uncertainty	Mole fraction of water	uncertainty	Mole fraction of orthophosphoric acid	uncertainty
298.2	101.3	.0276	.0626	.0005	.912	.0005	.0764	.0005
298.2	101.3	.0539	.0639	.0005	.8817	.0005	.108	.0005
298.2	101.3	.0756	.0674	.0005	.8602	.0005	.1294	.0005
298.2	101.3	.1005	.0842	.0005	.8388	.0005	.1494	.0005
298.2	101.3	.1087	.084	.0005	.8019	.0005	.1625	.0005

System: tert-pentyl alcohol + orthophosphoric acid + water; phases: Liquid mixture 2, Liquid mixture 1
Property: Mole fraction of orthophosphoric acid (Liquid mixture 2); method: Titration method
Property: Mole fraction of water (Liquid mixture 1); method: Titration method
Property: Mole fraction of orthophosphoric acid (Liquid mixture 1); method: Titration method
Temperature, K	Pressure, kPa	Mole fraction of water	Mole fraction of orthophosphoric acid	uncertainty	Mole fraction of water	uncertainty	Mole fraction of orthophosphoric acid	uncertainty
298.2	101.3	.5642	.0862	.0005	.9066	.0005	.0759	.0005
298.2	101.3	.5805	.1045	.0005	.8825	.0005	.1013	.0005
298.2	101.3	.5911	.1211	.0005	.8647	.0005	.1199	.0005
298.2	101.3	.5948	.1357	.0005	.845	.0005	.132	.0005
298.2	101.3	.6211	.1578	.0005	.8265	.0005	.1569	.0005
