Measured thermophysical data. (Liquid + liquid) equilibria for (benzene + cyclohexane + dimethyl sulfoxide) system at T = (298.15 or 303.15) K: Experimental data and correlation
Source: J. Chem. Thermodyn., 2015, 10.1016/j.jct.2014.12.014
Compound 1: benzene, C6H6, purity 99.87%
Compound 2: cyclohexane, C6H12, purity 99.94%
Compound 3: DMSO, C2H6OS, purity 99.92%

System: DMSO + benzene + cyclohexane; phases: Liquid mixture 1, Liquid mixture 2
Fixed: Pressure, kPa = 100.01
Property: Mass fraction of cyclohexane (Liquid mixture 1); method: Chromatography
Property: Mass fraction of benzene (Liquid mixture 2); method: Chromatography
Property: Mass fraction of cyclohexane (Liquid mixture 2); method: Chromatography
Temperature, K	Mass fraction of benzene	Mass fraction of cyclohexane	uncertainty	Mass fraction of benzene	uncertainty	Mass fraction of cyclohexane	uncertainty
298.15	.036	.042	.001	.055	.001	.942	.001
303.15	.03	.038	.001	.053	.001	.944	.001
303.15	.049	.044	.001	.082	.001	.912	.001
303.15	.074	.046	.001	.114	.001	.878	.001
303.15	.087	.047	.001	.142	.001	.846	.001
303.15	.108	.058	.001	.17	.001	.816	.001
303.15	.133	.063	.001	.201	.001	.781	.001
303.15	.156	.072	.001	.232	.001	.745	.001
303.15	.173	.075	.001	.26	.001	.712	.001
303.15	.194	.078	.001	.3	.001	.66	.001
303.15	.226	.093	.001	.32	.001	.637	.001
298.15	.053	.046	.001	.083	.001	.914	.001
298.15	.08	.056	.001	.116	.001	.879	.001
298.15	.102	.058	.001	.142	.001	.853	.001
298.15	.121	.06	.001	.179	.001	.816	.001
298.15	.144	.066	.001	.2	.001	.788	.001
298.15	.161	.069	.001	.246	.001	.741	.001
298.15	.188	.079	.001	.259	.001	.719	.001
298.15	.228	.089	.001	.29	.001	.673	.001
