Measured thermophysical data. Experimental measurement of vapor pressures and (vapor + liquid) equilibrium  for {1,1,1,2-tetrafluoroethane (R134a) + propane (R290)} by a recirculation  apparatus with view windows
Source: J. Chem. Thermodyn., 2011, 10.1016/j.jct.2010.11.001
Compound 1: ethane, 1,1,1,2-tetrafluoro-, C2H2F4, purity 99.9%
Compound 2: n-propane, C3H8, purity 99.9%

System: ethane, 1,1,1,2-tetrafluoro-; phases: Liquid, Gas
Property: Vapor or sublimation pressure, kPa (Liquid); method: Closed cell (Static) method
Temperature, K	Vapor or sublimation pressure, kPa	uncertainty
243.139	84.1	1
245.144	92.4	1
247.143	101.4	1
249.148	111.1	1
251.155	121.4	1
253.15	132.5	1
255.142	144.3	1
257.159	157.1	1
259.169	170.6	1
261.16	185	1
263.145	200.2	1
265.127	216.4	1
267.129	233.7	1
269.141	252.1	1
271.136	271.6	1
273.132	292.1	1
275.132	313.9	1
277.161	337.2	1
279.161	361.5	1
281.163	387.3	1
283.173	414.3	1
285.143	442.1	1
287.154	472.3	1
289.141	503.4	1
291.143	536.3	1
293.14	570.9	1

System: n-propane; phases: Liquid, Gas
Property: Vapor or sublimation pressure, kPa (Liquid); method: Closed cell (Static) method
Temperature, K	Vapor or sublimation pressure, kPa	uncertainty
233.215	111.3	1
235.211	121.3	1
237.181	131.7	1
239.2	143.2	1
241.22	155.4	1
243.21	168.2	1
245.259	182.1	1
247.126	195.6	1
249.137	211.1	1
251.142	227.4	1
253.14	244.5	1
255.14	262.5	1
257.134	281.5	1
259.149	301.8	1
261.123	322.7	1
263.148	345.3	1
265.139	368.6	1
267.141	393.2	1
269.142	419	1
271.139	446.1	1
273.137	474.3	1
275.137	503.9	1
277.139	535	1
279.146	567.4	1
281.149	601.4	1
283.148	636.7	1
285.146	673.5	1
287.138	711.8	1
289.154	752	1
291.156	793.7	1
293.154	836.8	1

System: n-propane + ethane, 1,1,1,2-tetrafluoro-; phases: Liquid, Gas
Property: Vapor or sublimation pressure, kPa (Liquid); method: Ebulliometric method (Recirculating still)
Temperature, K	Mole fraction of ethane, 1,1,1,2-tetrafluoro-	Vapor or sublimation pressure, kPa	uncertainty
255	0	261.1	1
255	.128	312.4	1
255	.265	324.4	1
255	.353	324.9	1
255	.406	324.1	1
255	.533	319.5	1
255	.638	312.3	1
255	.829	273.8	1
255	1	143.8	1
265	0	366.7	1
265	.127	435.5	1
265	.268	454.8	1
265	.353	456.3	1
265	.41	455	1
265	.534	448	1
265	.63	436.4	1
265	.821	385.2	1
265	1	215.4	1
275	0	501.6	1
275	.126	591.5	1
275	.264	620.9	1
275	.353	623.8	1
275	.412	622.3	1
275	.532	612.6	1
275	.644	594.5	1
275	.827	520.2	1
275	1	312.9	1
285	0	670.5	1
285	.123	784.7	1
285	.273	828.1	1
285	.353	833.8	1
285	.412	832	1
285	.536	818.2	1
285	.647	792.4	1
285	.834	690.5	1
285	1	440.4	1

System: n-propane + ethane, 1,1,1,2-tetrafluoro-; phases: Gas, Liquid
Property: Mole fraction of ethane, 1,1,1,2-tetrafluoro- (Gas); method: Chromatography
Temperature, K	Mole fraction of ethane, 1,1,1,2-tetrafluoro-	Mole fraction of ethane, 1,1,1,2-tetrafluoro-	uncertainty
255	0	0	.005
255	.128	.234	.005
255	.265	.308	.005
255	.353	.334	.005
255	.406	.348	.005
255	.533	.371	.005
255	.638	.397	.005
255	.829	.491	.005
255	1	1	.005
265	0	0	.005
265	.127	.228	.005
265	.268	.312	.005
265	.353	.342	.005
265	.41	.358	.005
265	.534	.393	.005
265	.63	.423	.005
265	.821	.518	.005
265	1	1	.005
275	0	0	.005
275	.126	.221	.005
275	.264	.314	.005
275	.353	.35	.005
275	.412	.369	.005
275	.532	.411	.005
275	.644	.447	.005
275	.827	.558	.005
275	1	1	.005
285	0	0	.005
285	.123	.213	.005
285	.273	.315	.005
285	.353	.356	.005
285	.412	.38	.005
285	.536	.424	.005
285	.647	.472	.005
285	.834	.593	.005
285	1	1	.005
