Measured thermophysical data. Viscometric studies of interactions between ionic liquid 1-octyl-3-methyl-imidazolium bromide and polyvinyl pyrrolidone in aqueous solutions
Source: J. Chem. Thermodyn., 2014, 10.1016/j.jct.2014.07.005
Compound 1: 1-octyl-3-methylimidazolium bromide, C12H23BrN2
Compound 2: water, H2O

System: water; phases: Liquid
Property: Mass density, kg/m3 (Liquid); method: Vibrating tube method
Temperature, K	Pressure, kPa	Mass density, kg/m3	uncertainty
288.15	100	999.102	.05
293.15	100	998.205	.05
298.15	100	997.047	.05
303.15	100	995.65	.05
308.15	100	994.038	.05
313.15	100	992.224	.05

System: water; phases: Liquid
Property: Viscosity, Pa*s (Liquid); method: Capillary tube (Ostwald; Ubbelohde) method
Temperature, K	Pressure, kPa	Viscosity, Pa*s	uncertainty
288.15	100	.001139	.00001139
293.15	100	.001002	.00001002
298.15	100	.00089	.0000089
303.15	100	.000798	.00000798
308.15	100	.000719	.00000719
313.15	100	.000653	.00000653

System: water + 1-octyl-3-methylimidazolium bromide; phases: Liquid
Fixed: Pressure, kPa = 100
Property: Mass density, kg/m3 (Liquid); method: Vibrating tube method
Molality, mol/kg of 1-octyl-3-methylimidazolium bromide	Temperature, K	Mass density, kg/m3	uncertainty
.0035	288.15	999.275	.05
.0035	293.15	998.364	.05
.0035	298.15	997.197	.05
.0035	303.15	995.792	.05
.0035	308.15	994.141	.05
.0035	313.15	992.331	.05
.0111	288.15	999.611	.05
.0111	293.15	998.697	.05
.0111	298.15	997.499	.05
.0111	303.15	996.09	.05
.0111	308.15	994.373	.05
.0111	313.15	992.622	.05
.0185	288.15	999.913	.05
.0185	293.15	998.983	.05
.0185	298.15	997.781	.05
.0185	303.15	996.32	.05
.0185	308.15	994.59	.05
.0185	313.15	992.876	.05
0	288.15	999.102	.05
0	293.15	998.205	.05
0	298.15	997.047	.05
0	303.15	995.65	.05
0	308.15	994.038	.05
0	313.15	992.224	.05

System: water + 1-octyl-3-methylimidazolium bromide; phases: Liquid
Fixed: Pressure, kPa = 100
Property: Viscosity, Pa*s (Liquid); method: Capillary tube (Ostwald; Ubbelohde) method
Molality, mol/kg of 1-octyl-3-methylimidazolium bromide	Temperature, K	Viscosity, Pa*s	uncertainty
.0035	288.15	.001146	.00001146
.0035	293.15	.001006	.00001006
.0035	298.15	.000895	.00000895
.0035	303.15	.0008	.000008
.0035	308.15	.000721	.00000721
.0035	313.15	.000655	.00000655
.0111	288.15	.001151	.00001151
.0111	293.15	.001013	.00001013
.0111	298.15	.0009	.000009
.0111	303.15	.000805	.00000805
.0111	308.15	.000723	.00000723
.0111	313.15	.000659	.00000659
.0185	288.15	.001154	.00001154
.0185	293.15	.001021	.00001021
.0185	298.15	.000904	.00000904
.0185	303.15	.000807	.00000807
.0185	308.15	.000728	.00000728
.0185	313.15	.00066	.0000066
0	288.15	.001139	.00001139
0	293.15	.001002	.00001002
0	298.15	.00089	.0000089
0	303.15	.000798	.00000798
0	308.15	.000719	.00000719
0	313.15	.000653	.00000653
