Measured thermophysical data. Standard thermochemical characteristics of combustion and formation of 3,5-di-tert-butyl-o-benzoquinone and 3,6-di-tert-butyl-o-benzoquinone at T = 298.15 K
Source: J. Chem. Thermodyn., 2016, 10.1016/j.jct.2015.09.003
Compound 1: 3,5-di-tert-butyl-o-benzoquinone, C14H20O2
Compound 2: 3,6-di-tert-butyl-o-benzoquinone, C14H20O2
Compound 3: carbon dioxide, CO2
Compound 4: water, H2O
Compound 5: oxygen, O2

System: 3,5-di-tert-butyl-o-benzoquinone; phases: Crystal, Liquid, Air at 1 atmosphere
Property: Normal melting temperature, K (Crystal); method: DSC/DTA
Normal melting temperature, K	uncertainty
388.5	.5

System: 3,5-di-tert-butyl-o-benzoquinone; phases: Crystal, Liquid, Air at 1 atmosphere
Property: Molar enthalpy of transition or fusion, kJ/mol (Crystal); method: DSC
Molar enthalpy of transition or fusion, kJ/mol	uncertainty
26.21	.25

System: 3,6-di-tert-butyl-o-benzoquinone; phases: Crystal, Liquid, Air at 1 atmosphere
Property: Normal melting temperature, K (Crystal); method: DSC/DTA
Normal melting temperature, K	uncertainty
475.3	.5

System: 3,6-di-tert-butyl-o-benzoquinone; phases: Crystal, Liquid, Air at 1 atmosphere
Property: Molar enthalpy of transition or fusion, kJ/mol (Crystal); method: DSC
Molar enthalpy of transition or fusion, kJ/mol	uncertainty
27.98	.28

Reaction: -1 3,5-di-tert-butyl-o-benzoquinone + 14 carbon dioxide + 10 water + -18 oxygen
Property: Specific internal energy of reaction at constant volume, J/g
-36082.67

Reaction: -1 3,6-di-tert-butyl-o-benzoquinone + 14 carbon dioxide + 10 water + -18 oxygen
Property: Specific internal energy of reaction at constant volume, J/g
-36073.91
