Measured thermophysical data. (Vapour + liquid) equilibria, (VLE) excess molar enthalpies and infinite dilution activity coefficients of selected binary systems involving n-hexyl pyridinium bis(trifluoromethylsulphonyl)imide ionic liquid: Experimental and predictions using modified UNIFAC (Dortmund)
Source: J. Chem. Thermodyn., 2015, 10.1016/j.jct.2015.06.023
Compound 1: 1-hexylpyridinium bis(trifluromethylsulfonyl)imide, C13H18F6N2O4S2, purity 99%
Compound 2: ethanol, C2H6O, purity 99%
Compound 3: 1-propanol, C3H8O, purity 99%
Compound 4: butan-1-ol, C4H10O, purity 99%
Compound 5: cyclohexane, C6H12, purity 99%
Compound 6: benzene, C6H6, purity 99%
Compound 7: toluene, C7H8, purity 99%

System: 1-hexylpyridinium bis(trifluromethylsulfonyl)imide; phases: Liquid
Fixed: Pressure, kPa = 101.325
Property: Mass density, kg/m3 (Liquid); method: Vibrating tube method
Temperature, K	Mass density, kg/m3	uncertainty
293.15	1389.16	1
298.15	1384.56	1
299.15	1383.67	1
303.15	1380.22	1
313.15	1371.26	1
323.15	1362.38	1
333.15	1353.54	1
343.15	1344.76	1
353.15	1336.02	1

System: 1-propanol; phases: Liquid, Gas
Property: Vapor or sublimation pressure, kPa (Liquid); method: Closed cell (Static) method
Temperature, K	Vapor or sublimation pressure, kPa	uncertainty
363.2	76.56	.5

System: butan-1-ol; phases: Liquid, Gas
Property: Vapor or sublimation pressure, kPa (Liquid); method: Closed cell (Static) method
Temperature, K	Vapor or sublimation pressure, kPa	uncertainty
363.2	34.47	.5

System: ethanol + 1-hexylpyridinium bis(trifluromethylsulfonyl)imide; phases: Liquid
Fixed: Pressure, kPa = 100
Fixed: Mole fraction of ethanol = 0
Property: Activity coefficient of ethanol (Liquid); method: Chromatography
Temperature, K	Activity coefficient of ethanol	uncertainty
303.2	1.636	.0818
313.2	1.348	.0674
323.2	1.283	.06415
333.2	1.128	.0564
343.2	.996	.0498

System: 1-propanol + 1-hexylpyridinium bis(trifluromethylsulfonyl)imide; phases: Liquid, Gas
Fixed: Temperature, K = 363.2
Property: Vapor or sublimation pressure, kPa (Liquid); method: Closed cell (Static) method
Mole fraction of 1-propanol	Vapor or sublimation pressure, kPa	uncertainty
.015	.74	.5
.03	1.47	.5
.048	2.3	.5
.077	3.78	.5
.107	5.29	.5
.151	7.66	.5
.206	10.71	.5
.276	15.02	.5
.351	20.05	.5
.429	25.7	.5
.504	31.74	.5
.573	37.77	.5
.641	44.01	.5
.698	49.53	.5
.747	54.32	.5
.787	58.31	.5
.821	61.56	.5
.848	64.2	.5
.871	66.32	.5
.872	66.51	.5
.89	67.99	.5
.89	68.09	.5
.906	69.34	.5
.907	69.47	.5
.922	70.67	.5
.935	71.72	.5
.947	72.6	.5
.958	73.35	.5
.967	73.97	.5
.974	74.5	.5
.981	74.95	.5
.985	75.3	.5
.989	75.61	.5
.992	75.83	.5
.995	76.04	.5
.997	76.21	.5
.998	76.31	.5
.998	76.39	.5
.999	76.43	.5
.999	76.48	.5
.999	76.51	.5
.999	76.44	.5
1	76.56	.5

System: 1-propanol + 1-hexylpyridinium bis(trifluromethylsulfonyl)imide; phases: Liquid
Fixed: Pressure, kPa = 100
Fixed: Temperature, K = 363.2
Property: Excess molar enthalpy (molar enthalpy of mixing), kJ/mol (Liquid); method: Flow calorimetry
Mole fraction of 1-propanol	Excess molar enthalpy (molar enthalpy of mixing), kJ/mol	uncertainty
.052	.356	.0178
.1	.6901	.034505
.185	1.251	.06255
.259	1.683	.08415
.324	2.021	.10105
.432	2.464	.1232
.519	2.692	.1346
.621	2.767	.13835
.699	2.648	.1324
.779	2.345	.11725
.841	1.932	.0966
.889	1.497	.07485
.928	1.05	.0525
.961	.6129	.030645
.988	.1996	.00998

System: 1-propanol + 1-hexylpyridinium bis(trifluromethylsulfonyl)imide; phases: Liquid
Fixed: Pressure, kPa = 100
Fixed: Mole fraction of 1-propanol = 0
Property: Activity coefficient of 1-propanol (Liquid); method: Chromatography
Temperature, K	Activity coefficient of 1-propanol	uncertainty
303.2	1.98	.099
313.2	1.49	.0745
323.2	1.473	.07365
333.2	1.258	.0629
343.2	1.154	.0577

System: butan-1-ol + 1-hexylpyridinium bis(trifluromethylsulfonyl)imide; phases: Liquid, Gas
Fixed: Temperature, K = 363.2
Property: Vapor or sublimation pressure, kPa (Liquid); method: Closed cell (Static) method
Mole fraction of butan-1-ol	Vapor or sublimation pressure, kPa	uncertainty
.025	.72	.5
.039	1.11	.5
.063	1.78	.5
.089	2.53	.5
.126	3.64	.5
.175	5.2	.5
.24	7.33	.5
.31	9.8	.5
.385	12.66	.5
.458	15.66	.5
.527	18.64	.5
.597	21.76	.5
.657	24.53	.5
.709	26.94	.5
.754	28.93	.5
.791	30.56	.5
.822	31.87	.5
.848	32.93	.5
.85	32.95	.5
.87	33.77	.5
.871	33.77	.5
.888	33.78	.5
.888	33.76	.5
.89	33.79	.5
.907	34.08	.5
.923	34.29	.5
.937	34.32	.5
.949	34.34	.5
.96	34.35	.5
.969	34.35	.5
.977	34.38	.5
.983	34.4	.5
.987	34.42	.5
.991	34.44	.5
.994	34.44	.5
.996	34.45	.5
.997	34.46	.5
.998	34.46	.5
.999	34.47	.5
.999	34.46	.5
.999	34.47	.5
.999	34.47	.5
1	34.47	.5

System: butan-1-ol + 1-hexylpyridinium bis(trifluromethylsulfonyl)imide; phases: Liquid
Fixed: Pressure, kPa = 100
Fixed: Temperature, K = 363.2
Property: Excess molar enthalpy (molar enthalpy of mixing), kJ/mol (Liquid); method: Flow calorimetry
Mole fraction of butan-1-ol	Excess molar enthalpy (molar enthalpy of mixing), kJ/mol	uncertainty
.043	.3019	.015095
.083	.5856	.02928
.157	1.078	.0539
.222	1.489	.07445
.282	1.823	.09115
.384	2.301	.11505
.469	2.589	.12945
.572	2.764	.1382
.655	2.726	.1363
.743	2.485	.12425
.812	2.111	.10555
.868	1.668	.0834
.914	1.189	.05945
.952	.703	.03515
.985	.2296	.01148

System: butan-1-ol + 1-hexylpyridinium bis(trifluromethylsulfonyl)imide; phases: Liquid
Fixed: Pressure, kPa = 100
Fixed: Mole fraction of butan-1-ol = 0
Property: Activity coefficient of butan-1-ol (Liquid); method: Chromatography
Temperature, K	Activity coefficient of butan-1-ol	uncertainty
303.2	2.738	.1369
313.2	1.717	.08585
323.2	1.593	.07965
333.2	1.416	.0708
343.2	1.246	.0623

System: cyclohexane + 1-hexylpyridinium bis(trifluromethylsulfonyl)imide; phases: Liquid
Fixed: Pressure, kPa = 100
Fixed: Mole fraction of cyclohexane = 0
Property: Activity coefficient of cyclohexane (Liquid); method: Chromatography
Temperature, K	Activity coefficient of cyclohexane	uncertainty
303.2	5.193	.25965
313.2	4.863	.24315
323.2	4.68	.234
333.2	4.406	.2203
343.2	4.301	.21505

System: benzene + 1-hexylpyridinium bis(trifluromethylsulfonyl)imide; phases: Liquid
Fixed: Pressure, kPa = 100
Fixed: Mole fraction of benzene = 0
Property: Activity coefficient of benzene (Liquid); method: Chromatography
Temperature, K	Activity coefficient of benzene	uncertainty
303.2	.639	.03195
313.2	.655	.03275
323.2	.627	.03135
333.2	.657	.03285
343.2	.605	.03025

System: toluene + 1-hexylpyridinium bis(trifluromethylsulfonyl)imide; phases: Liquid
Fixed: Pressure, kPa = 100
Fixed: Mole fraction of toluene = 0
Property: Activity coefficient of toluene (Liquid); method: Chromatography
Temperature, K	Activity coefficient of toluene	uncertainty
303.2	.828	.0414
313.2	.868	.0434
323.2	.82	.041
333.2	.847	.04235
343.2	.882	.0441
