Measured thermophysical data. Thermodynamic properties of intermetallic PtTe determined by means of a solid electrolyte EMF method
Source: J. Chem. Thermodyn., 2016, 10.1016/j.jct.2015.09.007
Compound 1: platinum, Pt, purity 99.99%
Compound 2: tellurium dioxide, O2Te, purity 99.99%
Compound 3: oxygen, O2, purity 99.95%
Compound 4: platinum telluride (PtTe), PtTe, purity 98%
Compound 5: tellurium, Te, purity 99.999%

System: tellurium dioxide; phases: Crystal, Liquid, Air at 1 atmosphere
Property: Molar enthalpy of transition or fusion, kJ/mol (Crystal); method: Derived from reaction Gibbs energy
Molar enthalpy of transition or fusion, kJ/mol	uncertainty
29.14	2.4

System: tellurium dioxide; phases: Crystal, Liquid, Air at 1 atmosphere
Property: Triple point temperature, K (Crystal); method: Derived from reaction Gibbs energy
Triple point temperature, K	uncertainty
1004.8	21.7

Reaction: 1 platinum + 1 tellurium dioxide + -1 platinum telluride (PtTe) + -1 oxygen
Property: Molar Gibbs energy of reaction, kJ/mol
988.4	-93.80
968.7	-96.87
949	-99.96
929.3	-103.00
909.6	-106.02
889.6	-108.97
978.5	-95.36
899.7	-107.49
919.2	-104.50
938.8	-101.48
958.7	-98.43
998.2	-92.30
988.4	-94.13
944.1	-99.64
963.8	-97.17
954	-98.37
973.4	-95.90
988.1	-94.25
983.4	-94.83

Reaction: 1 platinum + 1 tellurium dioxide + -1 platinum telluride (PtTe) + -1 oxygen
Property: Molar Gibbs energy of reaction, kJ/mol
1008.1	-90.91
1018	-89.68
1027.9	-88.46

Reaction: -1 platinum + 1 platinum telluride (PtTe) + -1 tellurium
Property: Molar Gibbs energy of reaction, kJ/mol
890	-48.11
900	-47.83
910	-47.54
920	-47.26
930	-46.97
940	-46.68
950	-46.40
960	-46.11
970	-45.83
980	-45.54
990	-45.26
998	-45.03
