Measured thermophysical data. Measurement and correlation of solubility of abietic acid in ethanol + water mixtures
Source: J. Chem. Thermodyn., 2014, 10.1016/j.jct.2013.07.015
Compound 1: abietic acid, C20H30O2, purity 99.11%
Compound 2: ethanol, C2H6O, purity 99.8%
Compound 3: water, H2O, purity 99.8%

System: abietic acid; phases: Crystal, Liquid, Air at 1 atmosphere
Property: Molar enthalpy of transition or fusion, kJ/mol (Crystal); method: DSC/DTA
Molar enthalpy of transition or fusion, kJ/mol	uncertainty
19.45389	.1945389

System: abietic acid; phases: Crystal, Liquid, Air at 1 atmosphere
Property: Normal melting temperature, K (Crystal); method: DSC/DTA
Normal melting temperature, K	uncertainty
450.89	.1

System: ethanol + abietic acid + water; phases: Liquid, Crystal
Fixed: Pressure, kPa = 101
Property: Mole fraction of abietic acid (Liquid); method: Gravimetric
Temperature, K	Solvent: Mass fraction of ethanol	Mole fraction of abietic acid	uncertainty
286.05	.7209	.0009315	.000009315
289.21	.7209	.0009942	.000009942
291.24	.7209	.001117	.00001117
293.87	.7209	.001225	.00001225
297.02	.7209	.001312	.00001312
299.72	.7209	.001455	.00001455
301.89	.7209	.001587	.00001587
304.67	.7209	.001748	.00001748
291.86	.7741	.001635	.00001635
294.65	.7741	.001897	.00001897
299.15	.7741	.002221	.00002221
300.83	.7741	.002402	.00002402
304.35	.7741	.002687	.00002687
305.95	.7741	.002913	.00002913
310.89	.7741	.003519	.00003519
288.59	.8257	.003354	.00003354
291.96	.8257	.003768	.00003768
295.37	.8257	.004172	.00004172
297.69	.8257	.00457	.0000457
299.82	.8257	.004975	.00004975
301.99	.8257	.005309	.00005309
303.9	.8257	.005539	.00005539
304.75	.8257	.005734	.00005734
286.65	.8804	.005677	.00005677
289.55	.8804	.006313	.00006313
293.1	.8804	.007057	.00007057
295.55	.8804	.007678	.00007678
298.25	.8804	.008345	.00008345
300.26	.8804	.008996	.00008996
303.99	.8804	.01013	.0001013
307.1	.8804	.01106	.0001106
287.11	.9386	.009952	.00009952
289.91	.9386	.01106	.0001106
292.31	.9386	.01183	.0001183
295.39	.9386	.01278	.0001278
298.95	.9386	.01425	.0001425
301.45	.9386	.01562	.0001562
304.6	.9386	.01715	.0001715
306.87	.9386	.01821	.0001821
285.07	1	.01655	.0001655
288.7	1	.01828	.0001828
292	1	.02022	.0002022
294.8	1	.02193	.0002193
297.05	1	.02349	.0002349
299.63	1	.02529	.0002529
301.8	1	.02719	.0002719
304.05	1	.02909	.0002909
308.03	.7209	.001972	.00001972
311.04	.7209	.002248	.00002248
312.92	.7209	.002455	.00002455
315.36	.7209	.002701	.00002701
317.61	.7209	.002945	.00002945
319.64	.7209	.003158	.00003158
321.62	.7209	.003365	.00003365
313.57	.7741	.00388	.0000388
314.95	.7741	.004207	.00004207
315.15	.7741	.004239	.00004239
316.95	.7741	.004587	.00004587
318.97	.7741	.004995	.00004995
321.04	.7741	.005427	.00005427
323.7	.7741	.005836	.00005836
306.16	.8257	.006108	.00006108
308.42	.8257	.006615	.00006615
311.46	.8257	.007314	.00007314
313.89	.8257	.008014	.00008014
316.26	.8257	.008727	.00008727
318.02	.8257	.009414	.00009414
320.63	.8257	.0103	.000103
311.74	.8804	.01279	.0001279
314.84	.8804	.01407	.0001407
316.14	.8804	.01542	.0001542
317.84	.8804	.01616	.0001616
320.04	.8804	.01753	.0001753
321.57	.8804	.01875	.0001875
323.85	.8804	.01996	.0001996
308.73	.9386	.01936	.0001936
310.47	.9386	.02064	.0002064
312.5	.9386	.02181	.0002181
313.95	.9386	.02261	.0002261
315.85	.9386	.02461	.0002461
318	.9386	.02601	.0002601
320.17	.9386	.02857	.0002857
306.05	1	.03111	.0003111
308.22	1	.03347	.0003347
310.35	1	.03604	.0003604
312.35	1	.03853	.0003853
315.23	1	.04102	.0004102
316.85	1	.04387	.0004387
319.03	1	.04672	.0004672

System: ethanol + abietic acid; phases: Liquid, Crystal
Property: Mole fraction of abietic acid (Liquid); method: Gravimetric
Temperature, K	Pressure, kPa	Mole fraction of abietic acid	uncertainty
285.07	101	.01655	.0001655
288.7	101	.01828	.0001828
292	101	.02022	.0002022
294.8	101	.02193	.0002193
297.05	101	.02349	.0002349
299.63	101	.02529	.0002529
301.8	101	.02719	.0002719
304.05	101	.02909	.0002909
306.05	101	.03111	.0003111
308.22	101	.03347	.0003347
310.35	101	.03604	.0003604
312.35	101	.03853	.0003853
315.23	101	.04102	.0004102
316.85	101	.04387	.0004387
319.03	101	.04672	.0004672
