Measured thermophysical data. Activity coefficients at infinite dilution of organic solutes in the ionic liquid  trihexyltetradecylphosphonium hexafluorophosphate using gas liquid  chromatography at T = (313.15, 333.15, 353.15, and 363.15) K
Source: J. Chem. Thermodyn., 2012, 10.1016/j.jct.2012.01.004
Compound 1: trihexyl(tetradecyl)phosphonium hexafluorophosphate, C32H68F6P2, purity 98%
Compound 2: pentane, C5H12, purity 98%
Compound 3: n-hexane, C6H14, purity 98%
Compound 4: heptane, C7H16, purity 98%
Compound 5: n-octane, C8H18, purity 98%
Compound 6: nonane, C9H20, purity 98%
Compound 7: n-decane, C10H22, purity 98%
Compound 8: 1-pentene, C5H10, purity 98%
Compound 9: 1-hexene, C6H12, purity 98%
Compound 10: 1-heptene, C7H14, purity 98%
Compound 11: 1-octene, C8H16, purity 98%
Compound 12: 1-nonene, C9H18, purity 98%
Compound 13: 1-decene, C10H20, purity 98%
Compound 14: 1-pentyne, C5H8, purity 98%
Compound 15: butylacetylene, C6H10, purity 98%
Compound 16: 1-heptyne, C7H12, purity 98%
Compound 17: 1-octyne, C8H14, purity 98%
Compound 18: 1-nonyne, C9H16, purity 98%
Compound 19: 1-decyne, C10H18, purity 98%
Compound 20: cyclopentane, C5H10, purity 98%
Compound 21: cyclohexane, C6H12, purity 98%
Compound 22: cycloheptane, C7H14, purity 98%
Compound 23: cyclooctane, C8H16, purity 98%
Compound 24: cyclononane, C9H18, purity 98%
Compound 25: methanol, CH4O, purity 98%
Compound 26: ethanol, C2H6O, purity 98%
Compound 27: benzene, C6H6, purity 98%
Compound 28: toluene, C7H8, purity 98%
Compound 29: ethylbenzene, C8H10, purity 98%
Compound 30: propylbenzene, C9H12, purity 98%
Compound 31: acetone, C3H6O, purity 98%
Compound 32: butanone, C4H8O, purity 98%

System: trihexyl(tetradecyl)phosphonium hexafluorophosphate; phases: Liquid
Fixed: Pressure, kPa = 101.325
Property: Mass density, kg/m3 (Liquid); method: Vibrating tube method
Temperature, K	Mass density, kg/m3	uncertainty
323.15	987.15	

System: pentane + trihexyl(tetradecyl)phosphonium hexafluorophosphate; phases: Gas, Liquid
Fixed: Mole fraction of pentane = 0
Property: Activity coefficient of pentane (Gas); method: Chromatography
Temperature, K	Activity coefficient of pentane	uncertainty
313.15	1.773	.07092
333.15	1.517	.06068
353.15	1.268	.05072
363.15	1.193	.04772
313.15	1.921	.07684
333.15	1.553	.06212
353.15	1.288	.05152
363.15	1.251	.05004

System: n-hexane + trihexyl(tetradecyl)phosphonium hexafluorophosphate; phases: Gas, Liquid
Fixed: Mole fraction of n-hexane = 0
Property: Activity coefficient of n-hexane (Gas); method: Chromatography
Temperature, K	Activity coefficient of n-hexane	uncertainty
313.15	1.96	.0784
333.15	1.687	.06748
353.15	1.482	.05928
363.15	1.43	.0572
313.15	2.072	.08288
333.15	1.795	.0718
353.15	1.496	.05984
363.15	1.472	.05888

System: heptane + trihexyl(tetradecyl)phosphonium hexafluorophosphate; phases: Gas, Liquid
Fixed: Mole fraction of heptane = 0
Property: Activity coefficient of heptane (Gas); method: Chromatography
Temperature, K	Activity coefficient of heptane	uncertainty
313.15	2.246	.08984
333.15	1.806	.07224
353.15	1.648	.06592
363.15	1.555	.0622
313.15	2.194	.08776
333.15	2.004	.08016
353.15	1.668	.06672
363.15	1.651	.06604

System: n-octane + trihexyl(tetradecyl)phosphonium hexafluorophosphate; phases: Gas, Liquid
Fixed: Mole fraction of n-octane = 0
Property: Activity coefficient of n-octane (Gas); method: Chromatography
Temperature, K	Activity coefficient of n-octane	uncertainty
313.15	2.528	.10112
333.15	2.12	.0848
353.15	1.869	.07476
363.15	1.812	.07248
313.15	2.492	.09968
333.15	2.184	.08736
353.15	1.831	.07324
363.15	1.742	.06968

System: nonane + trihexyl(tetradecyl)phosphonium hexafluorophosphate; phases: Gas, Liquid
Fixed: Mole fraction of nonane = 0
Property: Activity coefficient of nonane (Gas); method: Chromatography
Temperature, K	Activity coefficient of nonane	uncertainty
313.15	2.774	.11096
333.15	2.426	.09704
353.15	2.088	.08352
363.15	1.984	.07936
313.15	3.04	.1216
333.15	2.468	.09872
353.15	2.054	.08216
363.15	2.004	.08016

System: n-decane + trihexyl(tetradecyl)phosphonium hexafluorophosphate; phases: Gas, Liquid
Fixed: Mole fraction of n-decane = 0
Property: Activity coefficient of n-decane (Gas); method: Chromatography
Temperature, K	Activity coefficient of n-decane	uncertainty
313.15	3.278	.13112
333.15	2.62	.1048
353.15	2.295	.0918
363.15	2.186	.08744
313.15	3.324	.13296
333.15	2.896	.11584
353.15	2.309	.09236
363.15	2.236	.08944

System: 1-pentene + trihexyl(tetradecyl)phosphonium hexafluorophosphate; phases: Gas, Liquid
Fixed: Mole fraction of 1-pentene = 0
Property: Activity coefficient of 1-pentene (Gas); method: Chromatography
Temperature, K	Activity coefficient of 1-pentene	uncertainty
313.15	1.421	.05684
333.15	1.236	.04944
353.15	1.066	.04264
363.15	1.049	.04196
313.15	1.541	.06164
333.15	1.368	.05472
353.15	1.134	.04536
363.15	1.069	.04276

System: 1-hexene + trihexyl(tetradecyl)phosphonium hexafluorophosphate; phases: Gas, Liquid
Fixed: Mole fraction of 1-hexene = 0
Property: Activity coefficient of 1-hexene (Gas); method: Chromatography
Temperature, K	Activity coefficient of 1-hexene	uncertainty
313.15	1.665	.0666
333.15	1.41	.0564
353.15	1.138	.04552
363.15	1.128	.04512
313.15	1.701	.06804
333.15	1.436	.05744
353.15	1.264	.05056
363.15	1.174	.04696

System: 1-heptene + trihexyl(tetradecyl)phosphonium hexafluorophosphate; phases: Gas, Liquid
Fixed: Mole fraction of 1-heptene = 0
Property: Activity coefficient of 1-heptene (Gas); method: Chromatography
Temperature, K	Activity coefficient of 1-heptene	uncertainty
313.15	1.857	.07428
333.15	1.581	.06324
353.15	1.321	.05284
363.15	1.269	.05076
313.15	1.903	.07612
333.15	1.591	.06364
353.15	1.361	.05444
363.15	1.299	.05196

System: 1-octene + trihexyl(tetradecyl)phosphonium hexafluorophosphate; phases: Gas, Liquid
Fixed: Mole fraction of 1-octene = 0
Property: Activity coefficient of 1-octene (Gas); method: Chromatography
Temperature, K	Activity coefficient of 1-octene	uncertainty
313.15	2.023	.08092
333.15	1.752	.07008
353.15	1.514	.06056
363.15	1.437	.05748
313.15	2.199	.08796
333.15	1.794	.07176
353.15	1.484	.05936
363.15	1.433	.05732

System: 1-nonene + trihexyl(tetradecyl)phosphonium hexafluorophosphate; phases: Gas, Liquid
Fixed: Mole fraction of 1-nonene = 0
Property: Activity coefficient of 1-nonene (Gas); method: Chromatography
Temperature, K	Activity coefficient of 1-nonene	uncertainty
313.15	2.4	.096
333.15	2.013	.08052
353.15	1.617	.06468
363.15	1.539	.06156
313.15	2.496	.09984
333.15	1.975	.079
353.15	1.627	.06508
363.15	1.549	.06196

System: 1-decene + trihexyl(tetradecyl)phosphonium hexafluorophosphate; phases: Gas, Liquid
Fixed: Mole fraction of 1-decene = 0
Property: Activity coefficient of 1-decene (Gas); method: Chromatography
Temperature, K	Activity coefficient of 1-decene	uncertainty
313.15	2.81	.1124
333.15	2.29	.0916
353.15	1.851	.07404
363.15	1.74	.0696
313.15	2.788	.11152
333.15	2.276	.09104
353.15	1.827	.07308
363.15	1.75	.07

System: 1-pentyne + trihexyl(tetradecyl)phosphonium hexafluorophosphate; phases: Gas, Liquid
Fixed: Mole fraction of 1-pentyne = 0
Property: Activity coefficient of 1-pentyne (Gas); method: Chromatography
Temperature, K	Activity coefficient of 1-pentyne	uncertainty
313.15	1.518	.06072
333.15	1.282	.05128
353.15	1.053	.04212
363.15	1.028	.04112
313.15	1.444	.05776
333.15	1.266	.05064
353.15	1.147	.04588
363.15	1.094	.04376

System: butylacetylene + trihexyl(tetradecyl)phosphonium hexafluorophosphate; phases: Gas, Liquid
Fixed: Mole fraction of butylacetylene = 0
Property: Activity coefficient of butylacetylene (Gas); method: Chromatography
Temperature, K	Activity coefficient of butylacetylene	uncertainty
313.15	1.659	.06636
333.15	1.417	.05668
353.15	1.158	.04632
363.15	1.163	.04652
313.15	1.707	.06828
333.15	1.433	.05732
353.15	1.244	.04976
363.15	1.139	.04556

System: 1-heptyne + trihexyl(tetradecyl)phosphonium hexafluorophosphate; phases: Gas, Liquid
Fixed: Mole fraction of 1-heptyne = 0
Property: Activity coefficient of 1-heptyne (Gas); method: Chromatography
Temperature, K	Activity coefficient of 1-heptyne	uncertainty
313.15	1.957	.07828
333.15	1.591	.06364
353.15	1.364	.05456
363.15	1.299	.05196
313.15	1.803	.07212
333.15	1.611	.06444
353.15	1.318	.05272
363.15	1.269	.05076

System: 1-octyne + trihexyl(tetradecyl)phosphonium hexafluorophosphate; phases: Gas, Liquid
Fixed: Mole fraction of 1-octyne = 0
Property: Activity coefficient of 1-octyne (Gas); method: Chromatography
Temperature, K	Activity coefficient of 1-octyne	uncertainty
313.15	2.188	.08752
333.15	1.794	.07176
353.15	1.441	.05764
363.15	1.411	.05644
313.15	2.034	.08136
333.15	1.754	.07016
353.15	1.557	.06228
363.15	1.455	.0582

System: 1-nonyne + trihexyl(tetradecyl)phosphonium hexafluorophosphate; phases: Gas, Liquid
Fixed: Mole fraction of 1-nonyne = 0
Property: Activity coefficient of 1-nonyne (Gas); method: Chromatography
Temperature, K	Activity coefficient of 1-nonyne	uncertainty
313.15	2.497	.09988
333.15	1.961	.07844
353.15	1.651	.06604
363.15	1.564	.06256
313.15	2.399	.09596
333.15	2.023	.08092
353.15	1.593	.06372
363.15	1.518	.06072

System: 1-decyne + trihexyl(tetradecyl)phosphonium hexafluorophosphate; phases: Gas, Liquid
Fixed: Mole fraction of 1-decyne = 0
Property: Activity coefficient of 1-decyne (Gas); method: Chromatography
Temperature, K	Activity coefficient of 1-decyne	uncertainty
313.15	2.758	.11032
333.15	2.488	.09952
353.15	1.827	.07308
363.15	1.735	.0694
313.15	2.84	.1136
333.15	2.322	.09288
353.15	1.851	.07404
363.15	1.721	.06884

System: cyclopentane + trihexyl(tetradecyl)phosphonium hexafluorophosphate; phases: Gas, Liquid
Fixed: Mole fraction of cyclopentane = 0
Property: Activity coefficient of cyclopentane (Gas); method: Chromatography
Temperature, K	Activity coefficient of cyclopentane	uncertainty
313.15	1.348	.05392
333.15	1.079	.04316
353.15	.901	.03604
363.15	.883	.03532
313.15	1.344	.05376
333.15	1.141	.04564
353.15	.941	.03764
363.15	.871	.03484

System: cyclohexane + trihexyl(tetradecyl)phosphonium hexafluorophosphate; phases: Gas, Liquid
Fixed: Mole fraction of cyclohexane = 0
Property: Activity coefficient of cyclohexane (Gas); method: Chromatography
Temperature, K	Activity coefficient of cyclohexane	uncertainty
313.15	1.459	.05836
333.15	1.234	.04936
353.15	1.049	.04196
363.15	.991	.03964
313.15	1.475	.059
333.15	1.212	.04848
353.15	.969	.03876
363.15	.951	.03804

System: cycloheptane + trihexyl(tetradecyl)phosphonium hexafluorophosphate; phases: Gas, Liquid
Fixed: Mole fraction of cycloheptane = 0
Property: Activity coefficient of cycloheptane (Gas); method: Chromatography
Temperature, K	Activity coefficient of cycloheptane	uncertainty
313.15	1.574	.06296
333.15	1.299	.05196
353.15	1.084	.04336
363.15	1.035	.0414
313.15	1.602	.06408
333.15	1.335	.0534
353.15	1.1	.044
363.15	1.049	.04196

System: cyclooctane + trihexyl(tetradecyl)phosphonium hexafluorophosphate; phases: Gas, Liquid
Fixed: Mole fraction of cyclooctane = 0
Property: Activity coefficient of cyclooctane (Gas); method: Chromatography
Temperature, K	Activity coefficient of cyclooctane	uncertainty
313.15	1.643	.06572
333.15	1.402	.05608
353.15	1.171	.04684
363.15	1.115	.0446
313.15	1.799	.07196
333.15	1.442	.05768
353.15	1.199	.04796
363.15	1.143	.04572

System: cyclononane + trihexyl(tetradecyl)phosphonium hexafluorophosphate; phases: Gas, Liquid
Fixed: Mole fraction of cyclononane = 0
Property: Activity coefficient of cyclononane (Gas); method: Chromatography
Temperature, K	Activity coefficient of cyclononane	uncertainty
313.15	1.883	.07532
333.15	1.567	.06268
353.15	1.319	.05276
363.15	1.234	.04936
313.15	1.891	.07564
333.15	1.601	.06404
353.15	1.333	.05332
363.15	1.304	.05216

System: methanol + trihexyl(tetradecyl)phosphonium hexafluorophosphate; phases: Gas, Liquid
Fixed: Mole fraction of methanol = 0
Property: Activity coefficient of methanol (Gas); method: Chromatography
Temperature, K	Activity coefficient of methanol	uncertainty
313.15	2.115	.0846
333.15	1.412	.05648
353.15	.938	.03752
363.15	.855	.0342
313.15	2.139	.08556
333.15	1.444	.05776
353.15	.984	.03936
363.15	.881	.03524

System: ethanol + trihexyl(tetradecyl)phosphonium hexafluorophosphate; phases: Gas, Liquid
Fixed: Mole fraction of ethanol = 0
Property: Activity coefficient of ethanol (Gas); method: Chromatography
Temperature, K	Activity coefficient of ethanol	uncertainty
313.15	2.215	.0886
333.15	1.515	.0606
353.15	.989	.03956
363.15	.893	.03572
313.15	2.315	.0926
333.15	1.491	.05964
353.15	1.015	.0406
363.15	.911	.03644

System: benzene + trihexyl(tetradecyl)phosphonium hexafluorophosphate; phases: Gas, Liquid
Fixed: Mole fraction of benzene = 0
Property: Activity coefficient of benzene (Gas); method: Chromatography
Temperature, K	Activity coefficient of benzene	uncertainty
313.15	.659	.02636
333.15	.543	.02172
353.15	.438	.01752
363.15	.415	.0166
313.15	.705	.0282
333.15	.553	.02212
353.15	.448	.01792
363.15	.419	.01676

System: toluene + trihexyl(tetradecyl)phosphonium hexafluorophosphate; phases: Gas, Liquid
Fixed: Mole fraction of toluene = 0
Property: Activity coefficient of toluene (Gas); method: Chromatography
Temperature, K	Activity coefficient of toluene	uncertainty
313.15	.772	.03088
333.15	.671	.02684
353.15	.535	.0214
363.15	.506	.02024
313.15	.814	.03256
333.15	.639	.02556
353.15	.541	.02164
363.15	.516	.02064

System: ethylbenzene + trihexyl(tetradecyl)phosphonium hexafluorophosphate; phases: Gas, Liquid
Fixed: Mole fraction of ethylbenzene = 0
Property: Activity coefficient of ethylbenzene (Gas); method: Chromatography
Temperature, K	Activity coefficient of ethylbenzene	uncertainty
313.15	.961	.03844
333.15	.783	.03132
353.15	.63	.0252
363.15	.626	.02504
313.15	1.005	.0402
333.15	.835	.0334
353.15	.694	.02776
363.15	.642	.02568

System: propylbenzene + trihexyl(tetradecyl)phosphonium hexafluorophosphate; phases: Gas, Liquid
Fixed: Mole fraction of propylbenzene = 0
Property: Activity coefficient of propylbenzene (Gas); method: Chromatography
Temperature, K	Activity coefficient of propylbenzene	uncertainty
313.15	1.139	.04556
333.15	.939	.03756
353.15	.799	.03196
363.15	.777	.03108
313.15	1.103	.04412
333.15	.949	.03796
353.15	.779	.03116
363.15	.735	.0294

System: acetone + trihexyl(tetradecyl)phosphonium hexafluorophosphate; phases: Gas, Liquid
Fixed: Mole fraction of acetone = 0
Property: Activity coefficient of acetone (Gas); method: Chromatography
Temperature, K	Activity coefficient of acetone	uncertainty
313.15	.648	.02592
333.15	.517	.02068
353.15	.388	.01552
363.15	.371	.01484
313.15	.694	.02776
333.15	.507	.02028
353.15	.404	.01616
363.15	.381	.01524

System: butanone + trihexyl(tetradecyl)phosphonium hexafluorophosphate; phases: Gas, Liquid
Fixed: Mole fraction of butanone = 0
Property: Activity coefficient of butanone (Gas); method: Chromatography
Temperature, K	Activity coefficient of butanone	uncertainty
313.15	.735	.0294
333.15	.542	.02168
353.15	.41	.0164
363.15	.373	.01492
313.15	.677	.02708
333.15	.524	.02096
353.15	.396	.01584
363.15	.375	.015
