Measured thermophysical data. (p, rho, T, x) properties for CO2/isobutane binary mixtures at T = (280 to 440) K  and (3 to 200) MPa
Source: J. Chem. Thermodyn., 2011, 10.1016/j.jct.2011.06.012
Compound 1: carbon dioxide, CO2
Compound 2: 2-methylpropane, C4H10, purity 99.988%

System: 2-methylpropane + carbon dioxide; phases: Liquid
Property: Mass density, kg/m3 (Liquid); method: Bellows volumetry
Mole fraction of carbon dioxide	Temperature, K	Pressure, kPa	Mass density, kg/m3	uncertainty
.2482	280	200000	763.28	.76328
.2482	280	180000	755.07	.75507
.2482	280	160000	746.22	.74622
.2482	280	140000	736.43	.73643
.2482	280	120000	725.79	.72579
.2482	280	100000	713.94	.71394
.2482	280	90000	707.4	.7074
.2482	280	80000	700.46	.70046
.2482	280	70000	693.01	.69301
.2482	280	60000	684.83	.68483
.2482	280	50000	676.07	.67607
.2482	280	40000	665.95	.66595
.2482	280	30000	655.06	.65506
.2482	280	20000	641.52	.64152
.2482	280	10000	625.46	.62546
.2482	280	5000	615.96	.61596
.2482	280	3000	611.63	.61163
.2482	320	200000	740.45	.74045
.2482	320	180000	731.49	.73149
.2482	320	160000	721.58	.72158
.2482	320	140000	710.75	.71075
.2482	320	120000	698.63	.69863
.2482	320	100000	685.01	.68501
.2482	320	90000	677.43	.67743
.2482	320	80000	669.23	.66923
.2482	320	70000	660.32	.66032
.2482	320	60000	650.61	.65061
.2482	320	50000	639.69	.63969
.2482	320	40000	627.15	.62715
.2482	320	30000	611.98	.61198
.2482	320	20000	593.88	.59388
.2482	320	10000	569.21	.56921
.2482	320	5000	552.16	.55216
.2482	360	200000	720.21	.72021
.2482	360	180000	710.13	.71013
.2482	360	160000	699.29	.69929
.2482	360	140000	686.88	.68688
.2482	360	120000	673.4	.6734
.2482	360	100000	658	.658
.2482	360	90000	649.26	.64926
.2482	360	80000	639.78	.63978
.2482	360	70000	629.43	.62943
.2482	360	60000	617.73	.61773
.2482	360	50000	604.55	.60455
.2482	360	40000	588.52	.58852
.2482	360	30000	568.79	.56879
.2482	360	20000	542.86	.54286
.2482	360	10000	501.22	.50122
.2482	400	200000	698.66	.69866
.2482	400	180000	687.97	.68797
.2482	400	160000	675.97	.67597
.2482	400	140000	662.89	.66289
.2482	400	120000	647.91	.64791
.2482	400	100000	630.87	.63087
.2482	400	90000	620.93	.62093
.2482	400	80000	610.26	.61026
.2482	400	70000	598.36	.59836
.2482	400	60000	584.33	.58433
.2482	400	50000	568.35	.56835
.2482	400	40000	548.72	.54872
.2482	400	30000	523.46	.52346
.2482	400	20000	486.62	.48662
.2482	400	10000	408.28	.40828
.2482	440	200000	680.35	.68035
.2482	440	180000	668.66	.66866
.2482	440	160000	656.01	.65601
.2482	440	140000	641.8	.6418
.2482	440	120000	625.43	.62543
.2482	440	100000	606.31	.60631
.2482	440	90000	595.28	.59528
.2482	440	80000	583.24	.58324
.2482	440	70000	569.47	.56947
.2482	440	60000	553.6	.5536
.2482	440	50000	534.44	.53444
.2482	440	40000	511.07	.51107
.2482	440	30000	479.05	.47905
.2482	440	20000	428.1	.4281
.4718	280	200000	841.63	.84163
.4718	280	180000	831.97	.83197
.4718	280	160000	821.36	.82136
.4718	280	140000	810.05	.81005
.4718	280	120000	797.65	.79765
.4718	280	100000	783.73	.78373
.4718	280	90000	775.73	.77573
.4718	280	80000	767.66	.76766
.4718	280	70000	758.63	.75863
.4718	280	60000	748.54	.74854
.4718	280	50000	737.44	.73744
.4718	280	40000	725.26	.72526
.4718	280	30000	710.92	.71092
.4718	280	20000	693.75	.69375
.4718	280	10000	672.04	.67204
.4718	280	5000	658.57	.65857
.4718	280	3000	651.84	.65184
.4718	300	200000	827.43	.82743
.4718	300	180000	817	.817
.4718	300	160000	805.98	.80598
.4718	300	140000	794.03	.79403
.4718	300	120000	780.34	.78034
.4718	300	100000	764.82	.76482
.4718	300	90000	756.68	.75668
.4718	300	80000	747.72	.74772
.4718	300	70000	737.54	.73754
.4718	300	60000	726.58	.72658
.4718	300	50000	714.21	.71421
.4718	300	40000	700.1	.7001
.4718	300	30000	683.38	.68338
.4718	300	20000	662.67	.66267
.4718	300	10000	634.66	.63466
.4718	300	5000	614.91	.61491
.4718	320	200000	814.43	.81443
.4718	320	180000	803.87	.80387
.4718	320	160000	791.76	.79176
.4718	320	140000	778.96	.77896
.4718	320	120000	764.51	.76451
.4718	320	100000	748.11	.74811
.4718	320	90000	738.7	.7387
.4718	320	80000	728.73	.72873
.4718	320	70000	717.84	.71784
.4718	320	60000	705.67	.70567
.4718	320	50000	691.66	.69166
.4718	320	40000	675.36	.67536
.4718	320	30000	655.66	.65566
.4718	320	20000	630.32	.63032
.4718	320	10000	592.64	.59264
.4718	320	5000	560.46	.56046
.4718	340	200000	801.25	.80125
.4718	340	180000	790.06	.79006
.4718	340	160000	777.55	.77755
.4718	340	140000	764.19	.76419
.4718	340	120000	748.22	.74822
.4718	340	100000	730.63	.73063
.4718	340	90000	720.77	.72077
.4718	340	80000	709.95	.70995
.4718	340	70000	697.86	.69786
.4718	340	60000	684.42	.68442
.4718	340	50000	669.07	.66907
.4718	340	40000	650.8	.6508
.4718	340	30000	627.77	.62777
.4718	340	20000	596.56	.59656
.4718	340	10000	543.45	.54345
.4718	360	200000	789.12	.78912
.4718	360	180000	777.13	.77713
.4718	360	160000	763.95	.76395
.4718	360	140000	749.43	.74943
.4718	360	120000	733.04	.73304
.4718	360	100000	714.09	.71409
.4718	360	90000	703.51	.70351
.4718	360	80000	691.87	.69187
.4718	360	70000	678.79	.67879
.4718	360	60000	664.02	.66402
.4718	360	50000	646.76	.64676
.4718	360	40000	625.7	.6257
.4718	360	30000	598.86	.59886
.4718	360	20000	560.5	.5605
.4718	360	10000	481.3	.4813
.4718	380	200000	775.73	.77573
.4718	380	180000	763.2	.7632
.4718	380	160000	749.48	.74948
.4718	380	140000	734.35	.73435
.4718	380	120000	716.82	.71682
.4718	380	100000	697.01	.69701
.4718	380	90000	685.61	.68561
.4718	380	80000	672.89	.67289
.4718	380	70000	658.77	.65877
.4718	380	60000	642.83	.64283
.4718	380	50000	623.65	.62365
.4718	380	40000	600.05	.60005
.4718	380	30000	568.93	.56893
.4718	380	20000	521.68	.52168
.4718	400	200000	763.13	.76313
.4718	400	180000	749.97	.74997
.4718	400	160000	735.72	.73572
.4718	400	140000	720.03	.72003
.4718	400	120000	701.98	.70198
.4718	400	100000	680.77	.68077
.4718	400	90000	668.68	.66868
.4718	400	80000	655.36	.65536
.4718	400	70000	640.1	.6401
.4718	400	60000	622.39	.62239
.4718	400	50000	601.24	.60124
.4718	400	40000	574.86	.57486
.4718	400	30000	539.19	.53919
.4718	400	20000	481.65	.48165
.4718	420	200000	752.04	.75204
.4718	420	180000	738.5	.7385
.4718	420	160000	723.63	.72363
.4718	420	140000	707.29	.70729
.4718	420	120000	688.04	.68804
.4718	420	100000	665.6	.6656
.4718	420	90000	652.88	.65288
.4718	420	80000	638.65	.63865
.4718	420	70000	622.11	.62211
.4718	420	60000	602.9	.6029
.4718	420	50000	579.87	.57987
.4718	420	40000	550.57	.55057
.4718	420	30000	509.95	.50995
.4718	420	20000	441.54	.44154
.4718	440	200000	741.37	.74137
.4718	440	180000	726.86	.72686
.4718	440	160000	711.68	.71168
.4718	440	140000	694.6	.6946
.4718	440	120000	674.34	.67434
.4718	440	100000	650.87	.65087
.4718	440	90000	637.3	.6373
.4718	440	80000	622.24	.62224
.4718	440	70000	604.56	.60456
.4718	440	60000	584.01	.58401
.4718	440	50000	559.05	.55905
.4718	440	40000	526.82	.52682
.4718	440	30000	481.23	.48123
.4718	440	20000	402.95	.40295
.7506	280	200000	1001.91	1.00191
.7506	280	180000	989.13	.98913
.7506	280	160000	975.64	.97564
.7506	280	140000	960.61	.96061
.7506	280	120000	944.22	.94422
.7506	280	100000	925.43	.92543
.7506	280	90000	915.3	.9153
.7506	280	80000	904.12	.90412
.7506	280	70000	892.04	.89204
.7506	280	60000	878.75	.87875
.7506	280	50000	863.38	.86338
.7506	280	40000	846.38	.84638
.7506	280	30000	826.02	.82602
.7506	280	20000	800.45	.80045
.7506	280	10000	765.85	.76585
.7506	280	5000	741.3	.7413
.7506	320	200000	962.05	.96205
.7506	320	180000	947.81	.94781
.7506	320	160000	932.24	.93224
.7506	320	140000	915.09	.91509
.7506	320	120000	895.88	.89588
.7506	320	100000	873.81	.87381
.7506	320	90000	861.33	.86133
.7506	320	80000	847.76	.84776
.7506	320	70000	832.58	.83258
.7506	320	60000	815.43	.81543
.7506	320	50000	795.16	.79516
.7506	320	40000	771.26	.77126
.7506	320	30000	740.51	.74051
.7506	320	20000	697.56	.69756
.7506	320	10000	614.39	.61439
.7506	360	200000	925.27	.92527
.7506	360	180000	909.66	.90966
.7506	360	160000	892.29	.89229
.7506	360	140000	872.92	.87292
.7506	360	120000	851.1	.8511
.7506	360	100000	825.34	.82534
.7506	360	90000	810.34	.81034
.7506	360	80000	793.79	.79379
.7506	360	70000	775.21	.77521
.7506	360	60000	753.47	.75347
.7506	360	50000	727.44	.72744
.7506	360	40000	694.72	.69472
.7506	360	30000	649.75	.64975
.7506	360	20000	574.95	.57495
.7506	400	200000	890.48	.89048
.7506	400	180000	873.25	.87325
.7506	400	160000	854.07	.85407
.7506	400	140000	832.23	.83223
.7506	400	120000	807.55	.80755
.7506	400	100000	778	.778
.7506	400	90000	760.76	.76076
.7506	400	80000	741.54	.74154
.7506	400	70000	719.26	.71926
.7506	400	60000	693.37	.69337
.7506	400	50000	660.8	.6608
.7506	400	40000	618.58	.61858
.7506	400	30000	557.06	.55706
.7506	440	200000	859.57	.85957
.7506	440	180000	840.83	.84083
.7506	440	160000	819.85	.81985
.7506	440	140000	796.08	.79608
.7506	440	120000	768.56	.76856
.7506	440	100000	735.56	.73556
.7506	440	90000	716.21	.71621
.7506	440	80000	694.04	.69404
.7506	440	70000	668.37	.66837
.7506	440	60000	637.87	.63787
.7506	440	50000	599.76	.59976
.7506	440	40000	548.5	.5485
.7506	440	30000	473.55	.47355
