Measured thermophysical data. Liquid heat capacity of the solvent system (piperazine + 2-amino-2-methyl-lpropanol + water)
Source: J. Chem. Thermodyn., 2010, 10.1016/j.jct.2009.11.006
Compound 1: piperazine, C4H10N2, purity 99%
Compound 2: 2-amino-2-methyl-1-propanol, C4H11NO, purity 99%
Compound 3: water, H2O, purity 99.9%

System: piperazine + 2-amino-2-methyl-1-propanol; phases: Liquid
Fixed: Pressure, kPa = 101
Property: Molar heat capacity at constant pressure, J/K/mol (Liquid); method: Small sample (50 mg) DSC
Temperature, K	Mole fraction of piperazine	Molar heat capacity at constant pressure, J/K/mol	uncertainty
303.2	.05	238.4	1.33
308.2	.05	241	1.33
313.2	.05	243.6	1.33
318.2	.05	246.3	1.33
323.2	.05	248.9	1.33
328.2	.05	251.5	1.33
333.2	.05	254.2	1.33
338.2	.05	256.8	1.33
343.2	.05	259.5	1.33
348.2	.05	262.1	1.33
353.2	.05	264.7	1.33
303.2	.1	235.4	1.33
308.2	.1	238.2	1.33
313.2	.1	240.9	1.33
318.2	.1	243.6	1.33
323.2	.1	246.3	1.33
328.2	.1	249.1	1.33
333.2	.1	251.8	1.33
338.2	.1	254.5	1.33
343.2	.1	257.2	1.33
348.2	.1	260	1.33
353.2	.1	262.7	1.33
303.2	.15	232.6	1.33
308.2	.15	235.3	1.33
313.2	.15	238	1.33
318.2	.15	240.7	1.33
323.2	.15	243.5	1.33
328.2	.15	246.2	1.33
333.2	.15	248.9	1.33
338.2	.15	251.6	1.33
343.2	.15	254.3	1.33
348.2	.15	257.1	1.33
353.2	.15	259.8	1.33
303.2	.2	229.7	1.33
308.2	.2	232.4	1.33
313.2	.2	235.2	1.33
318.2	.2	238	1.33
323.2	.2	240.7	1.33
328.2	.2	243.5	1.33
333.2	.2	246.2	1.33
338.2	.2	250	1.33
343.2	.2	251.8	1.33
348.2	.2	254.5	1.33
353.2	.2	257.2	1.33

System: piperazine + 2-amino-2-methyl-1-propanol + water; phases: Liquid
Fixed: Pressure, kPa = 101
Property: Molar heat capacity at constant pressure, J/K/mol (Liquid); method: Small sample (50 mg) DSC
Temperature, K	Mole fraction of piperazine	Mole fraction of 2-amino-2-methyl-1-propanol	Molar heat capacity at constant pressure, J/K/mol	uncertainty
303.2	.02	.08	92.3	.37
308.2	.02	.08	92.7	.37
313.2	.02	.08	93.1	.37
318.2	.02	.08	93.5	.37
323.2	.02	.08	93.9	.37
328.2	.02	.08	94.2	.37
333.2	.02	.08	94.8	.37
338.2	.02	.08	95.2	.37
343.2	.02	.08	95.6	.37
348.2	.02	.08	96.1	.37
353.2	.02	.08	96.5	.37
303.2	.04	.06	91.1	.37
308.2	.04	.06	91.6	.37
313.2	.04	.06	92	.37
318.2	.04	.06	92.5	.37
323.2	.04	.06	93	.37
328.2	.04	.06	93.5	.37
333.2	.04	.06	93.9	.37
338.2	.04	.06	94.4	.37
343.2	.04	.06	94.9	.37
348.2	.04	.06	95.4	.37
353.2	.04	.06	95.9	.37
303.2	.06	.04	90.4	.37
308.2	.06	.04	90.9	.37
313.2	.06	.04	91.5	.37
318.2	.06	.04	92	.37
323.2	.06	.04	92.5	.37
328.2	.06	.04	93	.37
333.2	.06	.04	93.6	.37
338.2	.06	.04	94.1	.37
343.2	.06	.04	94.7	.37
348.2	.06	.04	95.2	.37
353.2	.06	.04	95.8	.37
303.2	.04	.16	107.6	.47
308.2	.04	.16	108.5	.47
313.2	.04	.16	109.4	.47
318.2	.04	.16	110.3	.47
323.2	.04	.16	111.2	.47
328.2	.04	.16	112.1	.47
333.2	.04	.16	113	.47
338.2	.04	.16	114	.47
343.2	.04	.16	114.9	.47
348.2	.04	.16	115.8	.47
353.2	.04	.16	116.8	.47
303.2	.08	.12	104.8	.47
308.2	.08	.12	105.7	.47
313.2	.08	.12	106.7	.47
318.2	.08	.12	107.7	.47
323.2	.08	.12	108.6	.47
328.2	.08	.12	109.6	.47
333.2	.08	.12	110.6	.47
338.2	.08	.12	111.6	.47
343.2	.08	.12	112.7	.47
348.2	.08	.12	113.7	.47
353.2	.08	.12	114.7	.47
303.2	.12	.08	103.4	.47
308.2	.12	.08	104.4	.47
313.2	.12	.08	105.4	.47
318.2	.12	.08	106.4	.47
323.2	.12	.08	107.3	.47
328.2	.12	.08	108.4	.47
333.2	.12	.08	109.4	.47
338.2	.12	.08	110.4	.47
343.2	.12	.08	111.4	.47
348.2	.12	.08	112.4	.47
353.2	.12	.08	113.4	.47
303.2	.16	.04	102.8	.47
308.2	.16	.04	103.8	.47
313.2	.16	.04	104.9	.47
318.2	.16	.04	106	.47
323.2	.16	.04	107.1	.47
328.2	.16	.04	108.2	.47
333.2	.16	.04	109.2	.47
338.2	.16	.04	110.3	.47
343.2	.16	.04	111.4	.47
348.2	.16	.04	112.5	.47
353.2	.16	.04	113.6	.47
303.2	.06	.24	122.7	.58
308.2	.06	.24	124	.58
313.2	.06	.24	125.4	.58
318.2	.06	.24	126.7	.58
323.2	.06	.24	128	.58
328.2	.06	.24	129.4	.58
333.2	.06	.24	130.8	.58
338.2	.06	.24	132.1	.58
343.2	.06	.24	133.5	.58
348.2	.06	.24	134.9	.58
353.2	.06	.24	136.3	.58
303.2	.12	.18	117.7	.58
308.2	.12	.18	119	.58
313.2	.12	.18	120.3	.58
318.2	.12	.18	121.8	.58
323.2	.12	.18	123.2	.58
328.2	.12	.18	124.6	.58
333.2	.12	.18	126	.58
338.2	.12	.18	127.5	.58
343.2	.12	.18	128.9	.58
348.2	.12	.18	130.3	.58
353.2	.12	.18	131.8	.58
303.2	.18	.12	115.2	.58
308.2	.18	.12	116.6	.58
313.2	.18	.12	118.1	.58
318.2	.18	.12	119.5	.58
323.2	.18	.12	121	.58
328.2	.18	.12	122.4	.58
333.2	.18	.12	123.9	.58
338.2	.18	.12	125.3	.58
343.2	.18	.12	126.8	.58
348.2	.18	.12	128.3	.58
353.2	.18	.12	129.8	.58
303.2	.24	.06	114.4	.58
308.2	.24	.06	115.9	.58
313.2	.24	.06	117.4	.58
318.2	.24	.06	118.9	.58
323.2	.24	.06	120.4	.58
328.2	.24	.06	121.9	.58
333.2	.24	.06	123.5	.58
338.2	.24	.06	125	.58
343.2	.24	.06	126.5	.58
348.2	.24	.06	128.1	.58
353.2	.24	.06	129.6	.58
303.2	.08	.32	136.5	.69
308.2	.08	.32	135.3	.69
313.2	.08	.32	140	.69
318.2	.08	.32	141.7	.69
323.2	.08	.32	143.4	.69
328.2	.08	.32	145.1	.69
333.2	.08	.32	146.9	.69
338.2	.08	.32	148.6	.69
343.2	.08	.32	150.3	.69
348.2	.08	.32	152	.69
353.2	.08	.32	153.8	.69
303.2	.16	.24	129.9	.69
308.2	.16	.24	131.7	.69
313.2	.16	.24	133.3	.69
318.2	.16	.24	135.2	.69
323.2	.16	.24	137	.69
328.2	.16	.24	138.8	.69
333.2	.16	.24	140.6	.69
338.2	.16	.24	142.4	.69
343.2	.16	.24	144.2	.69
348.2	.16	.24	145.9	.69
353.2	.16	.24	147.7	.69
303.2	.24	.16	125.7	.69
308.2	.24	.16	127.6	.69
313.2	.24	.16	129.3	.69
318.2	.24	.16	131.1	.69
323.2	.24	.16	132.8	.69
328.2	.24	.16	134.6	.69
333.2	.24	.16	136.4	.69
338.2	.24	.16	138.1	.69
343.2	.24	.16	139.9	.69
348.2	.24	.16	141.7	.69
353.2	.24	.16	143.5	.69
