Measured thermophysical data. Thermodynamic study on hydroxybenzaldehyde derivatives: 3- and  4-Hydroxybenzaldehyde isomers and 3,5-di-tert-butyl-2-hydroxybenzaldehyde
Source: J. Chem. Thermodyn., 2010, 10.1016/j.jct.2009.10.009
Compound 1: p-hydroxybenzaldehyde, C7H6O2, purity 98%
Compound 2: benzaldehyde, 3-hydroxy-, C7H6O2, purity 97%
Compound 3: 3,5-di-tert-butyl-2-hydroxybenzaldehyde, C15H21O2, purity 99%
Compound 4: carbon, C
Compound 5: carbon dioxide, CO2
Compound 6: water, H2O
Compound 7: oxygen, O2
Compound 8: hydrogen, H2

System: p-hydroxybenzaldehyde; phases: Crystal, Gas
Property: Molar enthalpy of vaporization or sublimation, kJ/mol (Crystal); method: derive from vapor pressure
Temperature, K	Molar enthalpy of vaporization or sublimation, kJ/mol	uncertainty
298.15	102.5	

System: p-hydroxybenzaldehyde; phases: Liquid, Gas
Property: Vapor or sublimation pressure, kPa (Liquid); method: Knudsen effusion method
Temperature, K	Vapor or sublimation pressure, kPa	uncertainty
324.2	.000157	.00001
326.16	.000197	.00001
328.31	.000252	.00001
330.18	.000308	.00001
332.16	.000382	.00001
334.18	.000477	.00001
336.22	.000603	.00001
338.34	.000756	.00001
340.17	.000926	.00001
341.3	.001019	.00001
324.2	.000151	.00001
326.16	.000193	.00001
328.31	.000244	.00001
330.18	.000303	.00001
332.16	.000375	.00001
334.18	.000472	.00001
336.22	.000602	.00001
338.34	.000738	.00001
340.17	.000905	.00001
341.3	.001005	.00001
324.2	.000149	.00001
326.16	.000187	.00001
328.31	.000242	.00001
330.18	.000296	.00001
332.16	.00037	.00001
334.18	.000463	.00001
336.22	.000583	.00001
338.34	.000728	.00001
340.17	.000886	.00001
341.3	.000984	.00001

System: p-hydroxybenzaldehyde; phases: Crystal, Gas
Property: Molar enthalpy of vaporization or sublimation, kJ/mol (Crystal); method: derive from vapor pressure
Temperature, K	Molar enthalpy of vaporization or sublimation, kJ/mol	uncertainty
332.75	101.8	

System: benzaldehyde, 3-hydroxy-; phases: Crystal, Gas
Property: Molar enthalpy of vaporization or sublimation, kJ/mol (Crystal); method: derive from vapor pressure
Temperature, K	Molar enthalpy of vaporization or sublimation, kJ/mol	uncertainty
298.15	100.1	

System: benzaldehyde, 3-hydroxy-; phases: Liquid, Gas
Property: Vapor or sublimation pressure, kPa (Liquid); method: Knudsen effusion method
Temperature, K	Vapor or sublimation pressure, kPa	uncertainty
312.17	.000139	.00001
314.2	.000177	.00001
316.2	.000233	.00001
318.19	.000288	.00001
320.18	.000377	.00001
322.2	.000462	.00001
324.17	.000581	.00001
326.22	.000738	.00001
328.18	.000907	.00001
330.19	.001139	.00001
312.17	.000134	.00001
314.2	.000171	.00001
316.2	.00022	.00001
318.19	.00028	.00001
320.18	.000358	.00001
322.2	.000453	.00001
324.17	.000557	.00001
326.22	.000712	.00001
328.18	.000871	.00001
330.19	.00109	.00001
312.17	.000131	.00001
314.2	.000168	.00001
316.2	.000216	.00001
318.19	.000275	.00001
320.18	.000353	.00001
322.2	.00044	.00001
324.17	.000542	.00001
326.22	.000694	.00001
328.18	.000849	.00001
330.19	.001058	.00001

System: benzaldehyde, 3-hydroxy-; phases: Crystal, Gas
Property: Molar enthalpy of vaporization or sublimation, kJ/mol (Crystal); method: derive from vapor pressure
Temperature, K	Molar enthalpy of vaporization or sublimation, kJ/mol	uncertainty
321.18	99.7	

System: 3,5-di-tert-butyl-2-hydroxybenzaldehyde; phases: Crystal, Gas
Property: Molar enthalpy of vaporization or sublimation, kJ/mol (Crystal); method: derive from vapor pressure
Temperature, K	Molar enthalpy of vaporization or sublimation, kJ/mol	uncertainty
298.15	96	

System: 3,5-di-tert-butyl-2-hydroxybenzaldehyde; phases: Liquid, Gas
Property: Vapor or sublimation pressure, kPa (Liquid); method: Knudsen effusion method
Temperature, K	Vapor or sublimation pressure, kPa	uncertainty
296.28	.000151	.00001
298.16	.000193	.00001
300.17	.000248	.00001
302.18	.000322	.00001
304.15	.000408	.00001
306.37	.000542	.00001
308.18	.000673	.00001
310.17	.000861	.00001
312.2	.001099	.00001
296.28	.000143	.00001
298.16	.00018	.00001
300.17	.000237	.00001
302.18	.000304	.00001
304.15	.000382	.00001
306.37	.000514	.00001
308.18	.000631	.00001
310.17	.000812	.00001
312.2	.001032	.00001
296.28	.00014	.00001
298.16	.000176	.00001
300.17	.000234	.00001
302.18	.0003	.00001
304.15	.000378	.00001
306.37	.000505	.00001
308.18	.00062	.00001
310.17	.000801	.00001
312.2	.001014	.00001

System: 3,5-di-tert-butyl-2-hydroxybenzaldehyde; phases: Crystal, Gas
Property: Molar enthalpy of vaporization or sublimation, kJ/mol (Crystal); method: derive from vapor pressure
Temperature, K	Molar enthalpy of vaporization or sublimation, kJ/mol	uncertainty
304.24	95.7	

Reaction: -1 p-hydroxybenzaldehyde + 7 carbon dioxide + 3 water + -7.5 oxygen
Property: Specific internal energy of reaction at constant volume, J/g
-26945.2

Reaction: -1 benzaldehyde, 3-hydroxy- + 7 carbon dioxide + 3 water + -7.5 oxygen
Property: Specific internal energy of reaction at constant volume, J/g
-26998.3

Reaction: -1 3,5-di-tert-butyl-2-hydroxybenzaldehyde + 15 carbon dioxide + 10.5 water + -19.25 oxygen
Property: Specific internal energy of reaction at constant volume, J/g
-36236

Reaction: 1 p-hydroxybenzaldehyde + -7 carbon + -3 hydrogen + -1 oxygen
Property: Molar enthalpy of reaction, kJ/mol
-320.3

Reaction: 1 p-hydroxybenzaldehyde + -7 carbon + -3 hydrogen + -1 oxygen
Property: Molar enthalpy of reaction, kJ/mol
-217.8

Reaction: 1 benzaldehyde, 3-hydroxy- + -7 carbon + -3 hydrogen + -1 oxygen
Property: Molar enthalpy of reaction, kJ/mol
-313.8

Reaction: 1 benzaldehyde, 3-hydroxy- + -7 carbon + -3 hydrogen + -1 oxygen
Property: Molar enthalpy of reaction, kJ/mol
-213.7

Reaction: -15 carbon + 1 3,5-di-tert-butyl-2-hydroxybenzaldehyde + -10.5 hydrogen + -1 oxygen
Property: Molar enthalpy of reaction, kJ/mol
-544.2

Reaction: -15 carbon + 1 3,5-di-tert-butyl-2-hydroxybenzaldehyde + -10.5 hydrogen + -1 oxygen
Property: Molar enthalpy of reaction, kJ/mol
-448.2
