Measured thermophysical data. Measurement and modelling of econazole nitrate in twelve pure organic solvents at temperatures from 278.15 K to 318.15 K
Source: J. Chem. Thermodyn., 2016, 10.1016/j.jct.2016.07.043
Compound 1: Econazole nitrate, C18H16Cl3N3O4, purity 98.5%
Compound 2: methanol, CH4O
Compound 3: ethanol, C2H6O
Compound 4: isopropanol, C3H8O
Compound 5: n-butanol, C4H10O
Compound 6: acetone, C3H6O
Compound 7: acetonitrile, C2H3N
Compound 8: ethyl acetate, C4H8O2
Compound 9: N-methylpyrrolidone, C5H9NO
Compound 10: 2-butanone, C4H8O
Compound 11: 3-methyl-1-butanol, C5H12O
Compound 12: 1,4-dioxane, C4H8O2
Compound 13: dimethylformamide, C3H7NO

System: methanol + Econazole nitrate; phases: Liquid, Crystal
Fixed: Pressure, kPa = 101.2
Property: Mole fraction of Econazole nitrate (Liquid); method: Chromatography
Temperature, K	Mole fraction of Econazole nitrate	uncertainty
278.15	.001501	
280.65	.00163	
283.15	.001813	
285.65	.001997	
288.15	.002214	
290.65	.00244	
293.15	.002664	
295.65	.002946	
298.15	.003279	
300.65	.003609	
303.15	.003972	
305.65	.004357	
308.15	.004788	
310.65	.005246	
313.15	.005773	
315.65	.006298	
318.15	.006869	

System: ethanol + Econazole nitrate; phases: Liquid, Crystal
Fixed: Pressure, kPa = 101.2
Property: Mole fraction of Econazole nitrate (Liquid); method: Chromatography
Temperature, K	Mole fraction of Econazole nitrate	uncertainty
278.15	.0005256	
280.65	.0005854	
283.15	.0006561	
285.65	.0007294	
288.15	.0008319	
290.65	.000919	
293.15	.001015	
295.65	.001123	
298.15	.001246	
300.65	.001387	
303.15	.001533	
305.65	.001695	
308.15	.001886	
310.65	.00207	
313.15	.002277	
315.65	.002511	
318.15	.002751	

System: n-butanol + Econazole nitrate; phases: Liquid, Crystal
Fixed: Pressure, kPa = 101.2
Property: Mole fraction of Econazole nitrate (Liquid); method: Chromatography
Temperature, K	Mole fraction of Econazole nitrate	uncertainty
278.15	.0003995	
280.65	.0004473	
283.15	.0004991	
285.65	.0005478	
288.15	.0006048	
290.65	.0006582	
293.15	.0007232	
295.65	.0007856	
298.15	.000865	
300.65	.0009498	
303.15	.001044	
305.65	.001135	
308.15	.001243	
310.65	.001347	
313.15	.001471	
315.65	.001598	
318.15	.001753	

System: isopropanol + Econazole nitrate; phases: Liquid, Crystal
Fixed: Pressure, kPa = 101.2
Property: Mole fraction of Econazole nitrate (Liquid); method: Chromatography
Temperature, K	Mole fraction of Econazole nitrate	uncertainty
278.15	.0001943	
280.65	.0002164	
283.15	.0002421	
285.65	.0002644	
288.15	.0002911	
290.65	.0003197	
293.15	.0003516	
295.65	.0003867	
298.15	.0004299	
300.65	.0004735	
303.15	.0005249	
305.65	.0005862	
308.15	.0006517	
310.65	.00071	
313.15	.0007758	
315.65	.0008499	
318.15	.0009228	

System: acetone + Econazole nitrate; phases: Liquid, Crystal
Fixed: Pressure, kPa = 101.2
Property: Mole fraction of Econazole nitrate (Liquid); method: Chromatography
Temperature, K	Mole fraction of Econazole nitrate	uncertainty
278.15	.0009431	
280.65	.0009876	
283.15	.001077	
285.65	.001157	
288.15	.001234	
290.65	.00132	
293.15	.001425	
295.65	.001541	
298.15	.001668	
300.65	.001781	
303.15	.001904	
305.65	.002049	
308.15	.002187	
310.65	.002319	
313.15	.002498	
315.65	.00265	
318.15	.00281	

System: acetonitrile + Econazole nitrate; phases: Liquid, Crystal
Fixed: Pressure, kPa = 101.2
Property: Mole fraction of Econazole nitrate (Liquid); method: Chromatography
Temperature, K	Mole fraction of Econazole nitrate	uncertainty
278.15	.0004033	
280.65	.0004571	
283.15	.0005222	
285.65	.000577	
288.15	.0006458	
290.65	.0007267	
293.15	.0008113	
295.65	.0009038	
298.15	.00102	
300.65	.001122	
303.15	.001262	
305.65	.001408	
308.15	.001569	
310.65	.001735	
313.15	.001926	
315.65	.002157	
318.15	.00239	

System: ethyl acetate + Econazole nitrate; phases: Liquid, Crystal
Fixed: Pressure, kPa = 101.2
Property: Mole fraction of Econazole nitrate (Liquid); method: Chromatography
Temperature, K	Mole fraction of Econazole nitrate	uncertainty
278.15	.0000815	
280.65	.00008801	
283.15	.00009592	
285.65	.0001038	
288.15	.0001119	
290.65	.0001198	
293.15	.0001286	
295.65	.0001379	
298.15	.0001478	
300.65	.0001593	
303.15	.0001709	
305.65	.0001823	
308.15	.0001952	
310.65	.0002083	
313.15	.0002233	
315.65	.0002378	
318.15	.0002526	

System: N-methylpyrrolidone + Econazole nitrate; phases: Liquid, Crystal
Fixed: Pressure, kPa = 101.2
Property: Mole fraction of Econazole nitrate (Liquid); method: Chromatography
Temperature, K	Mole fraction of Econazole nitrate	uncertainty
278.15	.04354	
280.65	.0456	
283.15	.04749	
285.65	.04958	
288.15	.05123	
290.65	.0533	
293.15	.05545	
295.65	.05779	
298.15	.06019	
300.65	.06289	
303.15	.0654	
305.65	.06799	
308.15	.07057	
310.65	.07356	
313.15	.07656	
315.65	.07988	
318.15	.08326	

System: dimethylformamide + Econazole nitrate; phases: Liquid, Crystal
Fixed: Pressure, kPa = 101.2
Property: Mole fraction of Econazole nitrate (Liquid); method: Chromatography
Temperature, K	Mole fraction of Econazole nitrate	uncertainty
278.15	.02479	
280.65	.02597	
283.15	.02803	
285.65	.0296	
288.15	.03139	
290.65	.03329	
293.15	.03522	
295.65	.03733	
298.15	.03969	
300.65	.04209	
303.15	.04436	
305.65	.04688	
308.15	.04996	
310.65	.05195	
313.15	.05467	
315.65	.05787	
318.15	.0609	

System: 1,4-dioxane + Econazole nitrate; phases: Liquid, Crystal
Fixed: Pressure, kPa = 101.2
Property: Mole fraction of Econazole nitrate (Liquid); method: Chromatography
Temperature, K	Mole fraction of Econazole nitrate	uncertainty
288.15	.0002619	
290.65	.0002889	
293.15	.0003172	
295.65	.0003561	
298.15	.0003929	
300.65	.0004384	
303.15	.0004819	
305.65	.0005378	
308.15	.0005964	
310.65	.0006578	
313.15	.0007294	
315.65	.0008014	
318.15	.0008966	

System: 2-butanone + Econazole nitrate; phases: Liquid, Crystal
Fixed: Pressure, kPa = 101.2
Property: Mole fraction of Econazole nitrate (Liquid); method: Chromatography
Temperature, K	Mole fraction of Econazole nitrate	uncertainty
278.15	.001047	
280.65	.001147	
283.15	.001275	
285.65	.00141	
288.15	.001541	
290.65	.001675	
293.15	.001831	
295.65	.001988	
298.15	.002139	
300.65	.002309	
303.15	.002474	
305.65	.002668	
308.15	.002855	
310.65	.003061	
313.15	.003281	
315.65	.0035	
318.15	.003733	

System: 3-methyl-1-butanol + Econazole nitrate; phases: Liquid, Crystal
Fixed: Pressure, kPa = 101.2
Property: Mole fraction of Econazole nitrate (Liquid); method: Chromatography
Temperature, K	Mole fraction of Econazole nitrate	uncertainty
278.15	.0006418	
280.65	.0007119	
283.15	.000773	
285.65	.0008535	
288.15	.0009283	
290.65	.001017	
293.15	.001105	
295.65	.001201	
298.15	.001295	
300.65	.001397	
303.15	.001527	
305.65	.001651	
308.15	.001773	
310.65	.001917	
313.15	.002079	
315.65	.00223	
318.15	.002407	
