Measured thermophysical data. Enthalpic pairwise self-association of L-carnitine in aqueous solutions of some alkali halides at T = 298.15 K
Source: J. Chem. Thermodyn., 2016, 10.1016/j.jct.2015.11.028
Compound 1: L-Carnitine, C7H15NO3, purity 98%
Compound 2: sodium chloride, ClNa, purity 99.5%
Compound 3: potassium chloride, ClK, purity 99.5%
Compound 4: sodium bromide, BrNa, purity 99.5%
Compound 5: water, H2O, purity 99.9%

System: water; phases: Liquid
Property: Mass density, kg/m3 (Liquid); method: Vibrating tube method
Pressure, kPa	Temperature, K	Mass density, kg/m3	uncertainty
100	298.15	997.063	.05

System: sodium chloride + water; phases: Liquid
Fixed: Pressure, kPa = 100
Fixed: Temperature, K = 298.15
Property: Mass density, kg/m3 (Liquid); method: Vibrating tube method
Molality, mol/kg of sodium chloride	Mass density, kg/m3	uncertainty
0	997.063	.05
.5	1017.097	.05
1.0004	1036.182	.05
1.4995	1054.745	.05
2.0001	1072.272	.05
2.4995	1089.162	.05
2.9998	1105.675	.05

System: potassium chloride + water; phases: Liquid
Fixed: Pressure, kPa = 100
Fixed: Temperature, K = 298.15
Property: Mass density, kg/m3 (Liquid); method: Vibrating tube method
Molality, mol/kg of potassium chloride	Mass density, kg/m3	uncertainty
0	997.063	.05
.5	1019.833	.05
.9998	1041.412	.05
1.4991	1062.026	.05
1.9998	1081.481	.05
2.4993	1100.254	.05
2.9803	1117.692	.05

System: sodium bromide + water; phases: Liquid
Fixed: Pressure, kPa = 100
Fixed: Temperature, K = 298.15
Property: Mass density, kg/m3 (Liquid); method: Vibrating tube method
Molality, mol/kg of sodium bromide	Mass density, kg/m3	uncertainty
0	997.063	.05
.5	1035.419	.05
.9999	1072.67	.05
1.5	1107.943	.05
1.9999	1142.477	.05
2.5	1175.649	.05
2.9991	1207.24	.05

System: L-Carnitine + sodium chloride + water; phases: Liquid
Fixed: Pressure, kPa = 100
Fixed: Temperature, K = 298.15
Property: Mass density, kg/m3 (Liquid); method: Vibrating tube method
Solvent: Molality, mol/kg of sodium chloride	Molality, mol/kg of L-Carnitine	Mass density, kg/m3	uncertainty
0	.8817	1023.602	.05
.5	.7636	1038.466	.05
1.0004	.5873	1051.406	.05
1.4995	.5177	1066.53	.05
2.0001	.4484	1082.589	.05
2.4995	.4031	1097.34	.05
2.9998	.3842	1112.463	.05

System: L-Carnitine + potassium chloride + water; phases: Liquid
Fixed: Pressure, kPa = 100
Fixed: Temperature, K = 298.15
Property: Mass density, kg/m3 (Liquid); method: Vibrating tube method
Solvent: Molality, mol/kg of potassium chloride	Molality, mol/kg of L-Carnitine	Mass density, kg/m3	uncertainty
0	.8817	1023.602	.05
.5	.7337	1040.772	.05
.9998	.6522	1058.487	.05
1.4991	.5498	1075.401	.05
1.9998	.502	1092.743	.05
2.4993	.449	1108.394	.05
2.9803	.393	1124.733	.05

System: L-Carnitine + sodium bromide + water; phases: Liquid
Fixed: Pressure, kPa = 100
Fixed: Temperature, K = 298.15
Property: Mass density, kg/m3 (Liquid); method: Vibrating tube method
Solvent: Molality, mol/kg of sodium bromide	Molality, mol/kg of L-Carnitine	Mass density, kg/m3	uncertainty
0	.8817	1023.602	.05
.5	.7479	1055.672	.05
.9999	.6251	1087.015	.05
1.5	.4963	1117.44	.05
1.9999	.3517	1147.648	.05
2.5	.2899	1178.513	.05
2.9991	.2915	1208.965	.05

System: L-Carnitine + water; phases: Liquid
Property: Mass density, kg/m3 (Liquid); method: Vibrating tube method
Molality, mol/kg of L-Carnitine	Pressure, kPa	Temperature, K	Mass density, kg/m3	uncertainty
.8817	100	298.15	1023.602	.05
