Measured thermophysical data. Apparent molar volumes, apparent isentropic compressibilities, and viscosity  B-coefficients of 1-ethyl-3-methylimidazolium bromide in aqueous di-potassium hydrogen phosphate and potassium di-hydrogen
Source: J. Chem. Thermodyn., 2012, 10.1016/j.jct.2012.03.032
Compound 1: 1-ethyl-3-methylimidazolium bromide, C6H11BrN2, purity 98%
Compound 2: dipotassium phosphate (K2HPO4), HK2O4P, purity 98%
Compound 3: potassium acid phosphate, H2KO4P, purity 98%
Compound 4: water, H2O, purity 99.9%

System: water + dipotassium phosphate (K2HPO4) + 1-ethyl-3-methylimidazolium bromide; phases: Liquid
Fixed: Pressure, kPa = 101
Property: Mass density, kg/m3 (Liquid); method: Vibrating tube method
Temperature, K	Molality, mol/kg of 1-ethyl-3-methylimidazolium bromide	Solvent: Mass fraction of dipotassium phosphate (K2HPO4)	Mass density, kg/m3	uncertainty
298.15	.4586	.1	1103.4	.003
298.15	.5641	.1	1107.429	.003
298.15	.6827	.1	1111.827	.003
298.15	.7994	.1	1116.064	.003
298.15	.9947	.1	1122.995	.003
298.15	1.1226	.1	1127.411	.003
298.15	1.1907	.1	1129.652	.003
298.15	1.406	.1	1136.81	.003
303.15	.4586	.1	1101.29	.003
303.15	.5641	.1	1105.259	.003
303.15	.6827	.1	1109.601	.003
303.15	.7994	.1	1113.821	.003
303.15	.9947	.1	1120.666	.003
303.15	1.1226	.1	1124.988	.003
303.15	1.1907	.1	1127.284	.003
303.15	1.406	.1	1134.318	.003
308.15	.4586	.1	1099.079	.003
308.15	.5641	.1	1103.024	.003
308.15	.6827	.1	1107.327	.003
308.15	.7994	.1	1111.494	.003
308.15	.9947	.1	1118.317	.003
308.15	1.1226	.1	1122.578	.003
308.15	1.1907	.1	1124.891	.003
308.15	1.406	.1	1131.878	.003
313.15	.4586	.1	1096.744	.003
313.15	.5641	.1	1100.664	.003
313.15	.6827	.1	1104.954	.003
313.15	.7994	.1	1109.088	.003
313.15	.9947	.1	1115.853	.003
313.15	1.1226	.1	1120.114	.003
313.15	1.1907	.1	1122.383	.003
313.15	1.406	.1	1129.312	.003
318.15	.4586	.1	1094.286	.003
318.15	.5641	.1	1098.191	.003
318.15	.6827	.1	1102.453	.003
318.15	.7994	.1	1106.557	.003
318.15	.9947	.1	1113.278	.003
318.15	1.1226	.1	1117.511	.003
318.15	1.1907	.1	1119.766	.003
318.15	1.406	.1	1126.654	.003
298.15	.4927	.15	1148.602	.003
298.15	.533	.15	1149.889	.003
298.15	.6945	.15	1154.948	.003
298.15	.8049	.15	1158.367	.003
298.15	.9307	.15	1162.212	.003
298.15	1.0904	.15	1166.949	.003
298.15	1.1965	.15	1170.111	.003
303.15	.4927	.15	1146.34	.003
303.15	.533	.15	1147.623	.003
303.15	.6945	.15	1152.7	.003
303.15	.8049	.15	1156.059	.003
303.15	.9307	.15	1159.866	.003
303.15	1.0904	.15	1164.636	.003
303.15	1.1965	.15	1167.73	.003
308.15	.4927	.15	1143.973	.003
308.15	.533	.15	1145.244	.003
308.15	.6945	.15	1150.275	.003
308.15	.8049	.15	1153.596	.003
308.15	.9307	.15	1157.397	.003
308.15	1.0904	.15	1162.075	.003
308.15	1.1965	.15	1165.169	.003
313.15	.4927	.15	1141.501	.003
313.15	.533	.15	1142.763	.003
313.15	.6945	.15	1147.776	.003
313.15	.8049	.15	1151.09	.003
313.15	.9307	.15	1154.833	.003
313.15	1.0904	.15	1159.516	.003
313.15	1.1965	.15	1162.607	.003
318.15	.4927	.15	1138.926	.003
318.15	.533	.15	1140.188	.003
318.15	.6945	.15	1145.156	.003
318.15	.8049	.15	1148.473	.003
318.15	.9307	.15	1152.169	.003
318.15	1.0904	.15	1156.814	.003
318.15	1.1965	.15	1159.886	.003
298.15	.4904	.2	1193.623	.003
298.15	.5461	.2	1195.105	.003
298.15	.5998	.2	1196.51	.003
298.15	.6485	.2	1197.788	.003
298.15	.7007	.2	1199.176	.003
298.15	.7557	.2	1200.649	.003
298.15	.82	.2	1202.345	.003
303.15	.4904	.2	1191.215	.003
303.15	.5461	.2	1192.677	.003
303.15	.5998	.2	1194.071	.003
303.15	.6485	.2	1195.347	.003
303.15	.7007	.2	1196.698	.003
303.15	.7557	.2	1198.154	.003
303.15	.82	.2	1199.851	.003
308.15	.4904	.2	1188.713	.003
308.15	.5461	.2	1190.167	.003
308.15	.5998	.2	1191.539	.003
308.15	.6485	.2	1192.826	.003
308.15	.7007	.2	1194.173	.003
308.15	.7557	.2	1195.609	.003
308.15	.82	.2	1197.293	.003
313.15	.4904	.2	1186.112	.003
313.15	.5461	.2	1187.565	.003
313.15	.5998	.2	1188.938	.003
313.15	.6485	.2	1190.202	.003
313.15	.7007	.2	1191.56	.003
313.15	.7557	.2	1192.976	.003
313.15	.82	.2	1194.665	.003
318.15	.4904	.2	1183.437	.003
318.15	.5461	.2	1184.88	.003
318.15	.5998	.2	1186.253	.003
318.15	.6485	.2	1187.506	.003
318.15	.7007	.2	1188.855	.003
318.15	.7557	.2	1190.287	.003
318.15	.82	.2	1191.948	.003

System: water + dipotassium phosphate (K2HPO4) + 1-ethyl-3-methylimidazolium bromide; phases: Liquid
Fixed: Pressure, kPa = 101
Property: Speed of sound, m/s (Liquid); method: Sing-around technique in a fixed-path interferometer
Temperature, K	Molality, mol/kg of 1-ethyl-3-methylimidazolium bromide	Solvent: Mass fraction of dipotassium phosphate (K2HPO4)	Speed of sound, m/s	uncertainty
298.15	.4586	.1	1614.19	.01
298.15	.5641	.1	1618.83	.01
298.15	.6827	.1	1624.05	.01
298.15	.7994	.1	1629.19	.01
298.15	.9947	.1	1637.79	.01
298.15	1.1226	.1	1643.42	.01
298.15	1.1907	.1	1646.41	.01
298.15	1.406	.1	1655.89	.01
303.15	.4586	.1	1621.12	.01
303.15	.5641	.1	1625.29	.01
303.15	.6827	.1	1629.98	.01
303.15	.7994	.1	1634.59	.01
303.15	.9947	.1	1642.31	.01
303.15	1.1226	.1	1647.37	.01
303.15	1.1907	.1	1650.06	.01
303.15	1.406	.1	1658.57	.01
308.15	.4586	.1	1626.2	.01
308.15	.5641	.1	1629.92	.01
308.15	.6827	.1	1634.11	.01
308.15	.7994	.1	1638.23	.01
308.15	.9947	.1	1645.13	.01
308.15	1.1226	.1	1649.65	.01
308.15	1.1907	.1	1652.06	.01
308.15	1.406	.1	1659.66	.01
313.15	.4586	.1	1631.22	.01
313.15	.5641	.1	1634.49	.01
313.15	.6827	.1	1638.16	.01
313.15	.7994	.1	1641.78	.01
313.15	.9947	.1	1647.84	.01
313.15	1.1226	.1	1651.8	.01
313.15	1.1907	.1	1653.91	.01
313.15	1.406	.1	1660.59	.01
318.15	.4586	.1	1634.98	.01
318.15	.5641	.1	1637.58	.01
318.15	.6827	.1	1640.81	.01
318.15	.7994	.1	1644.06	.01
318.15	.9947	.1	1649.2	.01
318.15	1.1226	.1	1652.66	.01
318.15	1.1907	.1	1654.48	.01
318.15	1.406	.1	1660	.01
298.15	.4927	.15	1660.97	.01
298.15	.533	.15	1662.28	.01
298.15	.6945	.15	1667.52	.01
298.15	.8049	.15	1671.09	.01
298.15	.9307	.15	1675.17	.01
298.15	1.0904	.15	1680.35	.01
298.15	1.1965	.15	1683.79	.01
303.15	.4927	.15	1665.95	.01
303.15	.533	.15	1667.09	.01
303.15	.6945	.15	1671.67	.01
303.15	.8049	.15	1674.79	.01
303.15	.9307	.15	1678.36	.01
303.15	1.0904	.15	1682.88	.01
303.15	1.1965	.15	1685.88	.01
308.15	.4927	.15	1670.1	.01
308.15	.533	.15	1671.09	.01
308.15	.6945	.15	1675.06	.01
308.15	.8049	.15	1677.77	.01
308.15	.9307	.15	1680.86	.01
308.15	1.0904	.15	1684.78	.01
308.15	1.1965	.15	1687.39	.01
313.15	.4927	.15	1673.39	.01
313.15	.533	.15	1674.24	.01
313.15	.6945	.15	1677.64	.01
313.15	.8049	.15	1679.97	.01
313.15	.9307	.15	1682.62	.01
313.15	1.0904	.15	1685.99	.01
313.15	1.1965	.15	1688.22	.01
318.15	.4927	.15	1676.34	.01
318.15	.533	.15	1677.12	.01
318.15	.6945	.15	1680.19	.01
318.15	.8049	.15	1682.34	.01
318.15	.9307	.15	1684.78	.01
318.15	1.0904	.15	1687.92	.01
318.15	1.1965	.15	1690.12	.01
298.15	.4904	.2	1707.44	.01
298.15	.5461	.2	1708.71	.01
298.15	.5998	.2	1709.89	.01
298.15	.6485	.2	1711.08	.01
298.15	.7007	.2	1712.22	.01
298.15	.7557	.2	1713.38	.01
298.15	.82	.2	1714.87	.01
303.15	.4904	.2	1711.32	.01
303.15	.5461	.2	1712.29	.01
303.15	.5998	.2	1713.24	.01
303.15	.6485	.2	1714.1	.01
303.15	.7007	.2	1715.13	.01
303.15	.7557	.2	1716.06	.01
303.15	.82	.2	1716.95	.01
308.15	.4904	.2	1714.16	.01
308.15	.5461	.2	1714.99	.01
308.15	.5998	.2	1715.73	.01
308.15	.6485	.2	1716.38	.01
308.15	.7007	.2	1717.12	.01
308.15	.7557	.2	1717.91	.01
308.15	.82	.2	1718.78	.01
313.15	.4904	.2	1716.06	.01
313.15	.5461	.2	1716.66	.01
313.15	.5998	.2	1717.2	.01
313.15	.6485	.2	1717.65	.01
313.15	.7007	.2	1718.19	.01
313.15	.7557	.2	1718.78	.01
313.15	.82	.2	1719.23	.01
318.15	.4904	.2	1717.04	.01
318.15	.5461	.2	1717.43	.01
318.15	.5998	.2	1717.78	.01
318.15	.6485	.2	1718.1	.01
318.15	.7007	.2	1718.42	.01
318.15	.7557	.2	1718.8	.01
318.15	.82	.2	1719.24	.01

System: water + dipotassium phosphate (K2HPO4) + 1-ethyl-3-methylimidazolium bromide; phases: Liquid
Fixed: Pressure, kPa = 101
Property: Viscosity, Pa*s (Liquid); method: Capillary tube (Ostwald; Ubbelohde) method
Molality, mol/kg of 1-ethyl-3-methylimidazolium bromide	Temperature, K	Solvent: Mass fraction of dipotassium phosphate (K2HPO4)	Viscosity, Pa*s	uncertainty
.4586	298.15	.1	.001281	.000006405
.5641	298.15	.1	.00131	.00000655
.6827	298.15	.1	.001349	.000006745
.7994	298.15	.1	.001399	.000006995
.9947	298.15	.1	.001458	.00000729
1.1226	298.15	.1	.0015	.0000075
1.1907	298.15	.1	.001523	.000007615
1.406	298.15	.1	.001599	.000007995
.4586	303.15	.1	.001149	.000005745
.5641	303.15	.1	.001168	.00000584
.6827	303.15	.1	.00121	.00000605
.7994	303.15	.1	.001264	.00000632
.9947	303.15	.1	.001295	.000006475
1.1226	303.15	.1	.001342	.00000671
1.1907	303.15	.1	.001358	.00000679
1.406	303.15	.1	.001425	.000007125
.4586	308.15	.1	.001029	.000005145
.5641	308.15	.1	.001054	.00000527
.6827	308.15	.1	.001088	.00000544
.7994	308.15	.1	.00112	.0000056
.9947	308.15	.1	.001166	.00000583
1.1226	308.15	.1	.001199	.000005995
1.1907	308.15	.1	.001216	.00000608
1.406	308.15	.1	.001278	.00000639
.4586	313.15	.1	.000937	.000004685
.5641	313.15	.1	.000958	.00000479
.6827	313.15	.1	.000986	.00000493
.7994	313.15	.1	.001013	.000005065
.9947	313.15	.1	.001055	.000005275
1.1226	313.15	.1	.001089	.000005445
1.1907	313.15	.1	.001097	.000005485
1.406	313.15	.1	.001152	.00000576
.4586	318.15	.1	.000852	.00000426
.5641	318.15	.1	.000875	.000004375
.6827	318.15	.1	.000901	.000004505
.7994	318.15	.1	.000925	.000004625
.9947	318.15	.1	.00096	.0000048
1.1226	318.15	.1	.000994	.00000497
1.1907	318.15	.1	.001002	.00000501
1.406	318.15	.1	.001046	.00000523
.4927	298.15	.15	.001537	.000007685
.533	298.15	.15	.001554	.00000777
.6945	298.15	.15	.001618	.00000809
.8049	298.15	.15	.001655	.000008275
.9307	298.15	.15	.001723	.000008615
1.0904	298.15	.15	.00178	.0000089
1.1965	298.15	.15	.001824	.00000912
.4927	303.15	.15	.001375	.000006875
.533	303.15	.15	.00138	.0000069
.6945	303.15	.15	.001436	.00000718
.8049	303.15	.15	.00148	.0000074
.9307	303.15	.15	.00153	.00000765
1.0904	303.15	.15	.001585	.000007925
1.1965	303.15	.15	.001624	.00000812
.4927	308.15	.15	.001227	.000006135
.533	308.15	.15	.001235	.000006175
.6945	308.15	.15	.001287	.000006435
.8049	308.15	.15	.001325	.000006625
.9307	308.15	.15	.001361	.000006805
1.0904	308.15	.15	.001413	.000007065
1.1965	308.15	.15	.001449	.000007245
.4927	313.15	.15	.001105	.000005525
.533	313.15	.15	.001117	.000005585
.6945	313.15	.15	.001163	.000005815
.8049	313.15	.15	.001197	.000005985
.9307	313.15	.15	.001232	.00000616
1.0904	313.15	.15	.00128	.0000064
1.1965	313.15	.15	.0013	.0000065
.4927	318.15	.15	.001016	.00000508
.533	318.15	.15	.001026	.00000513
.6945	318.15	.15	.001054	.00000527
.8049	318.15	.15	.001085	.000005425
.9307	318.15	.15	.001114	.00000557
1.0904	318.15	.15	.001164	.00000582
1.1965	318.15	.15	.001196	.00000598
.4904	298.15	.2	.001826	.00000913
.5461	298.15	.2	.001854	.00000927
.5998	298.15	.2	.00188	.0000094
.6485	298.15	.2	.001914	.00000957
.7007	298.15	.2	.001949	.000009745
.7557	298.15	.2	.001978	.00000989
.82	298.15	.2	.002005	.000010025
.4904	303.15	.2	.001634	.00000817
.5461	303.15	.2	.001658	.00000829
.5998	303.15	.2	.001682	.00000841
.6485	303.15	.2	.001712	.00000856
.7007	303.15	.2	.001723	.000008615
.7557	303.15	.2	.001763	.000008815
.82	303.15	.2	.001778	.00000889
.4904	308.15	.2	.001463	.000007315
.5461	308.15	.2	.001483	.000007415
.5998	308.15	.2	.001507	.000007535
.6485	308.15	.2	.001528	.00000764
.7007	308.15	.2	.001543	.000007715
.7557	308.15	.2	.001571	.000007855
.82	308.15	.2	.001604	.00000802
.4904	313.15	.2	.001325	.000006625
.5461	313.15	.2	.00134	.0000067
.5998	313.15	.2	.001361	.000006805
.6485	313.15	.2	.00138	.0000069
.7007	313.15	.2	.001394	.00000697
.7557	313.15	.2	.001414	.00000707
.82	313.15	.2	.001439	.000007195
.4904	318.15	.2	.001204	.00000602
.5461	318.15	.2	.001224	.00000612
.5998	318.15	.2	.001237	.000006185
.6485	318.15	.2	.001253	.000006265
.7007	318.15	.2	.001275	.000006375
.7557	318.15	.2	.001283	.000006415
.82	318.15	.2	.001308	.00000654

System: water + potassium acid phosphate + 1-ethyl-3-methylimidazolium bromide; phases: Liquid
Fixed: Pressure, kPa = 101
Property: Mass density, kg/m3 (Liquid); method: Vibrating tube method
Temperature, K	Molality, mol/kg of 1-ethyl-3-methylimidazolium bromide	Solvent: Mass fraction of potassium acid phosphate	Mass density, kg/m3	uncertainty
298.15	.3611	.04	1044.698	.003
298.15	.4448	.04	1048.939	.003
298.15	.5754	.04	1055.322	.003
298.15	.6441	.04	1058.732	.003
298.15	.781	.04	1065.208	.003
298.15	.9232	.04	1071.889	.003
298.15	1.0726	.04	1078.723	.003
298.15	1.3873	.04	1092.151	.003
298.15	1.6526	.04	1102.895	.003
298.15	1.9389	.04	1114.025	.003
298.15	2.2471	.04	1124.896	.003
298.15	2.5675	.04	1136.288	.003
303.15	.3611	.04	1042.976	.003
303.15	.4448	.04	1047.182	.003
303.15	.5754	.04	1053.614	.003
303.15	.6441	.04	1056.995	.003
303.15	.781	.04	1063.482	.003
303.15	.9232	.04	1069.946	.003
303.15	1.0726	.04	1076.829	.003
303.15	1.3873	.04	1090.043	.003
303.15	1.6526	.04	1100.698	.003
303.15	1.9389	.04	1111.631	.003
303.15	2.2471	.04	1122.507	.003
303.15	2.5675	.04	1133.819	.003
308.15	.3611	.04	1041.091	.003
308.15	.4448	.04	1045.245	.003
308.15	.5754	.04	1051.65	.003
308.15	.6441	.04	1055.056	.003
308.15	.781	.04	1061.41	.003
308.15	.9232	.04	1067.841	.003
308.15	1.0726	.04	1074.57	.003
308.15	1.3873	.04	1087.784	.003
308.15	1.6526	.04	1098.362	.003
308.15	1.9389	.04	1109.21	.003
308.15	2.2471	.04	1120.104	.003
308.15	2.5675	.04	1131.238	.003
313.15	.3611	.04	1038.954	.003
313.15	.4448	.04	1043.047	.003
313.15	.5754	.04	1049.392	.003
313.15	.6441	.04	1052.721	.003
313.15	.781	.04	1059.18	.003
313.15	.9232	.04	1065.59	.003
313.15	1.0726	.04	1072.271	.003
313.15	1.3873	.04	1085.396	.003
313.15	1.6526	.04	1095.899	.003
313.15	1.9389	.04	1106.677	.003
313.15	2.2471	.04	1117.395	.003
313.15	2.5675	.04	1128.554	.003
318.15	.3611	.04	1036.679	.003
318.15	.4448	.04	1040.814	.003
318.15	.5754	.04	1047.099	.003
318.15	.6441	.04	1050.409	.003
318.15	.781	.04	1056.814	.003
318.15	.9232	.04	1063.197	.003
318.15	1.0726	.04	1069.833	.003
318.15	1.3873	.04	1082.879	.003
318.15	1.6526	.04	1093.316	.003
318.15	1.9389	.04	1104.118	.003
318.15	2.2471	.04	1114.673	.003
318.15	2.5675	.04	1125.771	.003
298.15	.2991	.1	1082.021	.003
298.15	.324	.1	1083.091	.003
298.15	.3358	.1	1083.593	.003
298.15	.3572	.1	1084.509	.003
298.15	.3656	.1	1084.864	.003
298.15	.4003	.1	1086.335	.003
298.15	.4325	.1	1087.686	.003
298.15	.4665	.1	1089.108	.003
298.15	.5049	.1	1090.707	.003
298.15	.5457	.1	1092.389	.003
303.15	.2991	.1	1080.126	.003
303.15	.324	.1	1081.187	.003
303.15	.3358	.1	1081.688	.003
303.15	.3572	.1	1082.594	.003
303.15	.3656	.1	1082.95	.003
303.15	.4003	.1	1084.403	.003
303.15	.4325	.1	1085.75	.003
303.15	.4665	.1	1087.157	.003
303.15	.5049	.1	1088.743	.003
303.15	.5457	.1	1090.421	.003
308.15	.2991	.1	1078.079	.003
308.15	.324	.1	1079.132	.003
308.15	.3358	.1	1079.628	.003
308.15	.3572	.1	1080.526	.003
308.15	.3656	.1	1080.876	.003
308.15	.4003	.1	1082.323	.003
308.15	.4325	.1	1083.655	.003
308.15	.4665	.1	1085.054	.003
308.15	.5049	.1	1086.623	.003
308.15	.5457	.1	1088.284	.003
313.15	.2991	.1	1075.874	.003
313.15	.324	.1	1076.916	.003
313.15	.3358	.1	1077.409	.003
313.15	.3572	.1	1078.304	.003
313.15	.3656	.1	1078.653	.003
313.15	.4003	.1	1080.09	.003
313.15	.4325	.1	1081.413	.003
313.15	.4665	.1	1082.808	.003
313.15	.5049	.1	1084.37	.003
313.15	.5457	.1	1086.018	.003
318.15	.2991	.1	1073.542	.003
318.15	.324	.1	1074.59	.003
318.15	.3358	.1	1075.082	.003
318.15	.3572	.1	1075.969	.003
318.15	.3656	.1	1076.313	.003
318.15	.4003	.1	1077.742	.003
318.15	.4325	.1	1079.057	.003
318.15	.4665	.1	1080.434	.003
318.15	.5049	.1	1081.989	.003
318.15	.5457	.1	1083.621	.003

System: water + potassium acid phosphate + 1-ethyl-3-methylimidazolium bromide; phases: Liquid
Fixed: Pressure, kPa = 101
Property: Speed of sound, m/s (Liquid); method: Sing-around technique in a fixed-path interferometer
Temperature, K	Molality, mol/kg of 1-ethyl-3-methylimidazolium bromide	Solvent: Mass fraction of potassium acid phosphate	Speed of sound, m/s	uncertainty
298.15	.3611	.04	1548.53	.01
298.15	.4448	.04	1553.9	.01
298.15	.5754	.04	1562.14	.01
298.15	.6441	.04	1566.27	.01
298.15	.781	.04	1574.47	.01
298.15	.9232	.04	1582.9	.01
298.15	1.0726	.04	1591.6	.01
298.15	1.3873	.04	1608.21	.01
298.15	1.6526	.04	1621.58	.01
298.15	1.9389	.04	1636.06	.01
298.15	2.2471	.04	1648.8	.01
298.15	2.5675	.04	1662.45	.01
303.15	.3611	.04	1557.66	.01
303.15	.4448	.04	1562.49	.01
303.15	.5754	.04	1570.05	.01
303.15	.6441	.04	1573.82	.01
303.15	.781	.04	1581.24	.01
303.15	.9232	.04	1589.05	.01
303.15	1.0726	.04	1596.55	.01
303.15	1.3873	.04	1612.28	.01
303.15	1.6526	.04	1624.58	.01
303.15	1.9389	.04	1637.95	.01
303.15	2.2471	.04	1649.99	.01
303.15	2.5675	.04	1662.3	.01
308.15	.3611	.04	1565.4	.01
308.15	.4448	.04	1569.85	.01
308.15	.5754	.04	1576.6	.01
308.15	.6441	.04	1580	.01
308.15	.781	.04	1586.89	.01
308.15	.9232	.04	1594.04	.01
308.15	1.0726	.04	1601.21	.01
308.15	1.3873	.04	1615.33	.01
308.15	1.6526	.04	1626.64	.01
308.15	1.9389	.04	1639	.01
308.15	2.2471	.04	1649.8	.01
308.15	2.5675	.04	1661.44	.01
313.15	.3611	.04	1572.32	.01
313.15	.4448	.04	1576.44	.01
313.15	.5754	.04	1582.61	.01
313.15	.6441	.04	1585.69	.01
313.15	.781	.04	1591.78	.01
313.15	.9232	.04	1598.33	.01
313.15	1.0726	.04	1604.69	.01
313.15	1.3873	.04	1617.83	.01
313.15	1.6526	.04	1628.12	.01
313.15	1.9389	.04	1639.04	.01
313.15	2.2471	.04	1649.85	.01
313.15	2.5675	.04	1659.88	.01
318.15	.3611	.04	1577.76	.01
318.15	.4448	.04	1581.41	.01
318.15	.5754	.04	1586.85	.01
318.15	.6441	.04	1589.61	.01
318.15	.781	.04	1595.16	.01
318.15	.9232	.04	1600.97	.01
318.15	1.0726	.04	1606.63	.01
318.15	1.3873	.04	1618.61	.01
318.15	1.6526	.04	1628.14	.01
318.15	1.9389	.04	1638.08	.01
318.15	2.2471	.04	1647.77	.01
318.15	2.5675	.04	1657.69	.01
298.15	.332	.07	1564.09	.01
298.15	.413	.07	1568.77	.01
298.15	.4904	.07	1572.99	.01
298.15	.6015	.07	1579.04	.01
298.15	.6565	.07	1581.9	.01
298.15	.7169	.07	1585.19	.01
298.15	.7643	.07	1587.71	.01
298.15	.8575	.07	1592.53	.01
298.15	.9216	.07	1595.94	.01
298.15	.9868	.07	1599.27	.01
298.15	1.0687	.07	1603.34	.01
303.15	.332	.07	1572.98	.01
303.15	.413	.07	1576.99	.01
303.15	.4904	.07	1580.84	.01
303.15	.6015	.07	1586.32	.01
303.15	.6565	.07	1588.89	.01
303.15	.7169	.07	1591.9	.01
303.15	.7643	.07	1594.15	.01
303.15	.8575	.07	1598.53	.01
303.15	.9216	.07	1601.64	.01
303.15	.9868	.07	1604.72	.01
303.15	1.0687	.07	1608.39	.01
308.15	.332	.07	1580.11	.01
308.15	.413	.07	1583.89	.01
308.15	.4904	.07	1587.35	.01
308.15	.6015	.07	1592.33	.01
308.15	.6565	.07	1594.66	.01
308.15	.7169	.07	1597.39	.01
308.15	.7643	.07	1599.4	.01
308.15	.8575	.07	1603.4	.01
308.15	.9216	.07	1606.23	.01
308.15	.9868	.07	1609.04	.01
308.15	1.0687	.07	1612.35	.01
313.15	.332	.07	1586.15	.01
313.15	.413	.07	1589.55	.01
313.15	.4904	.07	1592.67	.01
313.15	.6015	.07	1597.17	.01
313.15	.6565	.07	1599.32	.01
313.15	.7169	.07	1601.73	.01
313.15	.7643	.07	1603.55	.01
313.15	.8575	.07	1607.17	.01
313.15	.9216	.07	1609.71	.01
313.15	.9868	.07	1612.32	.01
313.15	1.0687	.07	1615.29	.01
318.15	.332	.07	1590.98	.01
318.15	.413	.07	1594.01	.01
318.15	.4904	.07	1596.81	.01
318.15	.6015	.07	1600.83	.01
318.15	.6565	.07	1602.8	.01
318.15	.7169	.07	1604.99	.01
318.15	.7643	.07	1606.67	.01
318.15	.8575	.07	1609.9	.01
318.15	.9216	.07	1612.18	.01
318.15	.9868	.07	1614.55	.01
318.15	1.0687	.07	1617.24	.01
298.15	.2991	.1	1580.12	.01
298.15	.324	.1	1581.42	.01
298.15	.3358	.1	1582.04	.01
298.15	.3572	.1	1583.21	.01
298.15	.3656	.1	1583.66	.01
298.15	.4003	.1	1585.53	.01
298.15	.4325	.1	1587.28	.01
298.15	.4665	.1	1589.05	.01
298.15	.5049	.1	1591.12	.01
298.15	.5457	.1	1593.35	.01
303.15	.2991	.1	1588.44	.01
303.15	.324	.1	1589.6	.01
303.15	.3358	.1	1590.12	.01
303.15	.3572	.1	1591.17	.01
303.15	.3656	.1	1591.57	.01
303.15	.4003	.1	1593.23	.01
303.15	.4325	.1	1594.73	.01
303.15	.4665	.1	1596.35	.01
303.15	.5049	.1	1598.23	.01
303.15	.5457	.1	1600.2	.01
308.15	.2991	.1	1595.41	.01
308.15	.324	.1	1596.43	.01
308.15	.3358	.1	1596.88	.01
308.15	.3572	.1	1597.81	.01
308.15	.3656	.1	1598.13	.01
308.15	.4003	.1	1599.63	.01
308.15	.4325	.1	1600.96	.01
308.15	.4665	.1	1602.4	.01
308.15	.5049	.1	1604.13	.01
308.15	.5457	.1	1605.91	.01
313.15	.2991	.1	1601.03	.01
313.15	.324	.1	1601.98	.01
313.15	.3358	.1	1602.43	.01
313.15	.3572	.1	1603.21	.01
313.15	.3656	.1	1603.54	.01
313.15	.4003	.1	1604.84	.01
313.15	.4325	.1	1606.09	.01
313.15	.4665	.1	1607.37	.01
313.15	.5049	.1	1608.86	.01
313.15	.5457	.1	1610.51	.01
318.15	.2991	.1	1605.55	.01
318.15	.324	.1	1606.38	.01
318.15	.3358	.1	1606.79	.01
318.15	.3572	.1	1607.53	.01
318.15	.3656	.1	1607.83	.01
318.15	.4003	.1	1609.05	.01
318.15	.4325	.1	1610.17	.01
318.15	.4665	.1	1611.3	.01
318.15	.5049	.1	1612.58	.01
318.15	.5457	.1	1614.01	.01

System: water + potassium acid phosphate + 1-ethyl-3-methylimidazolium bromide; phases: Liquid
Fixed: Pressure, kPa = 101
Property: Viscosity, Pa*s (Liquid); method: Capillary tube (Ostwald; Ubbelohde) method
Molality, mol/kg of 1-ethyl-3-methylimidazolium bromide	Temperature, K	Solvent: Mass fraction of potassium acid phosphate	Viscosity, Pa*s	uncertainty
.3611	298.15	.04	.00102	.0000051
.4448	298.15	.04	.001057	.000005285
.5754	298.15	.04	.001106	.00000553
.6441	298.15	.04	.001131	.000005655
.781	298.15	.04	.001171	.000005855
.9232	298.15	.04	.001199	.000005995
1.0726	298.15	.04	.001241	.000006205
1.3873	298.15	.04	.001353	.000006765
1.6526	298.15	.04	.001437	.000007185
1.9389	298.15	.04	.001517	.000007585
2.2471	298.15	.04	.001613	.000008065
2.5675	298.15	.04	.001688	.00000844
.3611	303.15	.04	.000931	.000004655
.4448	303.15	.04	.000956	.00000478
.5754	303.15	.04	.000988	.00000494
.6441	303.15	.04	.001009	.000005045
.781	303.15	.04	.001047	.000005235
.9232	303.15	.04	.001076	.00000538
1.0726	303.15	.04	.001128	.00000564
1.3873	303.15	.04	.001213	.000006065
1.6526	303.15	.04	.001286	.00000643
1.9389	303.15	.04	.001352	.00000676
2.2471	303.15	.04	.001442	.00000721
2.5675	303.15	.04	.001506	.00000753
.3611	308.15	.04	.000834	.00000417
.4448	308.15	.04	.000867	.000004335
.5754	308.15	.04	.000896	.00000448
.6441	308.15	.04	.000906	.00000453
.781	308.15	.04	.000944	.00000472
.9232	308.15	.04	.000989	.000004945
1.0726	308.15	.04	.00103	.00000515
1.3873	308.15	.04	.001092	.00000546
1.6526	308.15	.04	.001154	.00000577
1.9389	308.15	.04	.001209	.000006045
2.2471	308.15	.04	.001291	.000006455
2.5675	308.15	.04	.001353	.000006765
.3611	313.15	.04	.00077	.00000385
.4448	313.15	.04	.000784	.00000392
.5754	313.15	.04	.000809	.000004045
.6441	313.15	.04	.000824	.00000412
.781	313.15	.04	.000854	.00000427
.9232	313.15	.04	.000886	.00000443
1.0726	313.15	.04	.00093	.00000465
1.3873	313.15	.04	.000987	.000004935
1.6526	313.15	.04	.001048	.00000524
1.9389	313.15	.04	.001099	.000005495
2.2471	313.15	.04	.001164	.00000582
2.5675	313.15	.04	.001215	.000006075
.3611	318.15	.04	.0007	.0000035
.4448	318.15	.04	.000715	.000003575
.5754	318.15	.04	.000738	.00000369
.6441	318.15	.04	.000751	.000003755
.781	318.15	.04	.000777	.000003885
.9232	318.15	.04	.000809	.000004045
1.0726	318.15	.04	.000839	.000004195
1.3873	318.15	.04	.000898	.00000449
1.6526	318.15	.04	.000955	.000004775
1.9389	318.15	.04	.000995	.000004975
2.2471	318.15	.04	.001057	.000005285
2.5675	318.15	.04	.0011	.0000055
.332	298.15	.07	.001118	.00000559
.413	298.15	.07	.001132	.00000566
.4904	298.15	.07	.001152	.00000576
.6015	298.15	.07	.001185	.000005925
.6565	298.15	.07	.001193	.000005965
.7169	298.15	.07	.001211	.000006055
.7643	298.15	.07	.001224	.00000612
.8575	298.15	.07	.00125	.00000625
.9216	298.15	.07	.001269	.000006345
.9868	298.15	.07	.001287	.000006435
1.0687	298.15	.07	.001311	.000006555
.332	303.15	.07	.000997	.000004985
.413	303.15	.07	.001016	.00000508
.4904	303.15	.07	.001031	.000005155
.6015	303.15	.07	.001055	.000005275
.6565	303.15	.07	.001071	.000005355
.7169	303.15	.07	.001082	.00000541
.7643	303.15	.07	.001096	.00000548
.8575	303.15	.07	.001118	.00000559
.9216	303.15	.07	.001131	.000005655
.9868	303.15	.07	.001148	.00000574
1.0687	303.15	.07	.001172	.00000586
.332	308.15	.07	.000896	.00000448
.413	308.15	.07	.000915	.000004575
.4904	308.15	.07	.000925	.000004625
.6015	308.15	.07	.000952	.00000476
.6565	308.15	.07	.000962	.00000481
.7169	308.15	.07	.000974	.00000487
.7643	308.15	.07	.000984	.00000492
.8575	308.15	.07	.001007	.000005035
.9216	308.15	.07	.00102	.0000051
.9868	308.15	.07	.001034	.00000517
1.0687	308.15	.07	.001046	.00000523
.332	313.15	.07	.000816	.00000408
.413	313.15	.07	.000831	.000004155
.4904	313.15	.07	.000839	.000004195
.6015	313.15	.07	.000865	.000004325
.6565	313.15	.07	.000876	.00000438
.7169	313.15	.07	.00088	.0000044
.7643	313.15	.07	.000895	.000004475
.8575	313.15	.07	.000911	.000004555
.9216	313.15	.07	.000923	.000004615
.9868	313.15	.07	.000937	.000004685
1.0687	313.15	.07	.00095	.00000475
.332	318.15	.07	.000744	.00000372
.413	318.15	.07	.00076	.0000038
.4904	318.15	.07	.000766	.00000383
.6015	318.15	.07	.00079	.00000395
.6565	318.15	.07	.000796	.00000398
.7169	318.15	.07	.000805	.000004025
.7643	318.15	.07	.000815	.000004075
.8575	318.15	.07	.000833	.000004165
.9216	318.15	.07	.000845	.000004225
.9868	318.15	.07	.000856	.00000428
1.0687	318.15	.07	.000864	.00000432
.2991	298.15	.1	.00119	.00000595
.324	298.15	.1	.001197	.000005985
.3358	298.15	.1	.001199	.000005995
.3572	298.15	.1	.001206	.00000603
.3656	298.15	.1	.001208	.00000604
.4003	298.15	.1	.00122	.0000061
.4325	298.15	.1	.00123	.00000615
.4665	298.15	.1	.00124	.0000062
.5049	298.15	.1	.00125	.00000625
.5457	298.15	.1	.00126	.0000063
.2991	303.15	.1	.001063	.000005315
.324	303.15	.1	.001071	.000005355
.3358	303.15	.1	.001076	.00000538
.3572	303.15	.1	.00108	.0000054
.3656	303.15	.1	.001083	.000005415
.4003	303.15	.1	.001089	.000005445
.4325	303.15	.1	.001097	.000005485
.4665	303.15	.1	.001105	.000005525
.5049	303.15	.1	.001115	.000005575
.5457	303.15	.1	.001128	.00000564
.2991	308.15	.1	.00096	.0000048
.324	308.15	.1	.000965	.000004825
.3358	308.15	.1	.000968	.00000484
.3572	308.15	.1	.000974	.00000487
.3656	308.15	.1	.000976	.00000488
.4003	308.15	.1	.000982	.00000491
.4325	308.15	.1	.000988	.00000494
.4665	308.15	.1	.000996	.00000498
.5049	308.15	.1	.001005	.000005025
.5457	308.15	.1	.001015	.000005075
.2991	313.15	.1	.000872	.00000436
.324	313.15	.1	.000877	.000004385
.3358	313.15	.1	.00088	.0000044
.3572	313.15	.1	.000884	.00000442
.3656	313.15	.1	.000886	.00000443
.4003	313.15	.1	.000893	.000004465
.4325	313.15	.1	.000898	.00000449
.4665	313.15	.1	.000904	.00000452
.5049	313.15	.1	.00091	.00000455
.5457	313.15	.1	.000917	.000004585
.2991	318.15	.1	.000796	.00000398
.324	318.15	.1	.0008	.000004
.3358	318.15	.1	.000803	.000004015
.3572	318.15	.1	.000807	.000004035
.3656	318.15	.1	.000808	.00000404
.4003	318.15	.1	.000815	.000004075
.4325	318.15	.1	.00082	.0000041
.4665	318.15	.1	.000826	.00000413
.5049	318.15	.1	.000831	.000004155
.5457	318.15	.1	.000835	.000004175
