Measured thermophysical data. Conductometric and fluorescence probe analysis on molecular interactions between cationic surfactants in aqueous medium of glycyl dipeptide: Concentration and temperature effect
Source: J. Chem. Thermodyn., 2017, 10.1016/j.jct.2016.10.045
Compound 1: glycylglycine, C4H8N2O3, purity 98%
Compound 2: cetyltrimethylammonium bromide, C19H42BrN, purity 98%
Compound 3: dodecyltrimethylammonium bromide, C15H34BrN, purity 98%
Compound 4: water, H2O

System: cetyltrimethylammonium bromide + glycylglycine + water; phases: Liquid
Fixed: Pressure, kPa = 100
Property: Electrical conductivity, S/m (Liquid); method: Alternating current cell with electrodes
Solvent: Molality, mol/kg of glycylglycine	Molality, mol/kg of cetyltrimethylammonium bromide	Temperature, K	Electrical conductivity, S/m	uncertainty
.001	.0001	293.15	.00088	
.001	.0002	293.15	.00127	
.001	.0003	293.15	.00176	
.001	.0004	293.15	.00229	
.001	.0005	293.15	.00284	
.001	.0006	293.15	.0035	
.001	.0007	293.15	.00426	
.001	.0008	293.15	.00495	
.001	.0009	293.15	.00536	
.001	.001	293.15	.00568	
.001	.0011	293.15	.00624	
.001	.0012	293.15	.00643	
.001	.0013	293.15	.00661	
.001	.0014	293.15	.00689	
.001	.0015	293.15	.00697	
.001	.0016	293.15	.00711	
.001	.0017	293.15	.00725	
.001	.0018	293.15	.00736	
.001	.0019	293.15	.00744	
.001	.002	293.15	.00758	
.001	.0001	298.15	.00093	
.001	.0002	298.15	.00161	
.001	.0003	298.15	.00214	
.001	.0004	298.15	.00274	
.001	.0005	298.15	.00337	
.001	.0006	298.15	.00402	
.001	.0007	298.15	.00461	
.001	.0008	298.15	.00546	
.001	.0009	298.15	.00583	
.001	.001	298.15	.00607	
.001	.0011	298.15	.00674	
.001	.0012	298.15	.00691	
.001	.0013	298.15	.00717	
.001	.0014	298.15	.00734	
.001	.0015	298.15	.00746	
.001	.0016	298.15	.00752	
.001	.0017	298.15	.00761	
.001	.0018	298.15	.00771	
.001	.0019	298.15	.00789	
.001	.002	298.15	.00796	
.001	.0001	303.15	.00102	
.001	.0002	303.15	.00191	
.001	.0003	303.15	.00254	
.001	.0004	303.15	.00324	
.001	.0005	303.15	.00387	
.001	.0006	303.15	.00442	
.001	.0007	303.15	.00511	
.001	.0008	303.15	.0057	
.001	.0009	303.15	.00612	
.001	.001	303.15	.00652	
.001	.0011	303.15	.00702	
.001	.0012	303.15	.00726	
.001	.0013	303.15	.00741	
.001	.0014	303.15	.00765	
.001	.0015	303.15	.00793	
.001	.0016	303.15	.00806	
.001	.0017	303.15	.00821	
.001	.0018	303.15	.00837	
.001	.0019	303.15	.00844	
.001	.002	303.15	.00856	
.001	.0001	308.15	.00133	
.001	.0002	308.15	.00203	
.001	.0003	308.15	.00286	
.001	.0004	308.15	.0035	
.001	.0005	308.15	.00413	
.001	.0006	308.15	.00468	
.001	.0007	308.15	.00552	
.001	.0008	308.15	.00603	
.001	.0009	308.15	.00635	
.001	.001	308.15	.00683	
.001	.0011	308.15	.00732	
.001	.0012	308.15	.00756	
.001	.0013	308.15	.00771	
.001	.0014	308.15	.00795	
.001	.0015	308.15	.00821	
.001	.0016	308.15	.00837	
.001	.0017	308.15	.00844	
.001	.0018	308.15	.00856	
.001	.0019	308.15	.00874	
.001	.002	308.15	.00896	
.001	.0001	313.15	.00151	
.001	.0002	313.15	.00233	
.001	.0003	313.15	.00314	
.001	.0004	313.15	.00387	
.001	.0005	313.15	.00462	
.001	.0006	313.15	.00522	
.001	.0007	313.15	.00596	
.001	.0008	313.15	.00647	
.001	.0009	313.15	.00686	
.001	.001	313.15	.00752	
.001	.0011	313.15	.00782	
.001	.0012	313.15	.00806	
.001	.0013	313.15	.00821	
.001	.0014	313.15	.00845	
.001	.0015	313.15	.00863	
.001	.0016	313.15	.00886	
.001	.0017	313.15	.00901	
.001	.0018	313.15	.00927	
.001	.0019	313.15	.00948	
.001	.002	313.15	.00967	
.005	.0001	293.15	.00156	
.005	.0002	293.15	.00229	
.005	.0003	293.15	.00304	
.005	.0004	293.15	.00378	
.005	.0005	293.15	.00452	
.005	.0006	293.15	.00517	
.005	.0007	293.15	.00594	
.005	.0008	293.15	.00649	
.005	.0009	293.15	.00665	
.005	.001	293.15	.00674	
.005	.0011	293.15	.0069	
.005	.0012	293.15	.00715	
.005	.0013	293.15	.00731	
.005	.0014	293.15	.00755	
.005	.0015	293.15	.00793	
.005	.0016	293.15	.00816	
.005	.0017	293.15	.00831	
.005	.0018	293.15	.00857	
.005	.0019	293.15	.00878	
.005	.002	293.15	.00897	
.005	.0001	298.15	.00164	
.005	.0002	298.15	.00269	
.005	.0003	298.15	.00366	
.005	.0004	298.15	.00477	
.005	.0005	298.15	.0055	
.005	.0006	298.15	.00652	
.005	.0007	298.15	.00711	
.005	.0008	298.15	.00772	
.005	.0009	298.15	.00803	
.005	.001	298.15	.00826	
.005	.0011	298.15	.00844	
.005	.0012	298.15	.00867	
.005	.0013	298.15	.00882	
.005	.0014	298.15	.00903	
.005	.0015	298.15	.00923	
.005	.0016	298.15	.00942	
.005	.0017	298.15	.0097	
.005	.0018	298.15	.00993	
.005	.0019	298.15	.01012	
.005	.002	298.15	.01034	
.005	.0001	303.15	.00177	
.005	.0002	303.15	.00289	
.005	.0003	303.15	.0039	
.005	.0004	303.15	.00499	
.005	.0005	303.15	.00601	
.005	.0006	303.15	.00704	
.005	.0007	303.15	.00783	
.005	.0008	303.15	.0085	
.005	.0009	303.15	.00893	
.005	.001	303.15	.00917	
.005	.0011	303.15	.00938	
.005	.0012	303.15	.00954	
.005	.0013	303.15	.00973	
.005	.0014	303.15	.00992	
.005	.0015	303.15	.01019	
.005	.0016	303.15	.01038	
.005	.0017	303.15	.01053	
.005	.0018	303.15	.01074	
.005	.0019	303.15	.0108	
.005	.002	303.15	.01093	
.005	.0001	308.15	.00183	
.005	.0002	308.15	.00298	
.005	.0003	308.15	.00421	
.005	.0004	308.15	.00522	
.005	.0005	308.15	.0062	
.005	.0006	308.15	.0073	
.005	.0007	308.15	.00809	
.005	.0008	308.15	.0089	
.005	.0009	308.15	.0097	
.005	.001	308.15	.00995	
.005	.0011	308.15	.01021	
.005	.0012	308.15	.01038	
.005	.0013	308.15	.01053	
.005	.0014	308.15	.01074	
.005	.0015	308.15	.0108	
.005	.0016	308.15	.01093	
.005	.0017	308.15	.01107	
.005	.0018	308.15	.0112	
.005	.0019	308.15	.01146	
.005	.002	308.15	.01169	
.005	.0001	313.15	.00192	
.005	.0002	313.15	.00327	
.005	.0003	313.15	.00448	
.005	.0004	313.15	.00554	
.005	.0005	313.15	.00636	
.005	.0006	313.15	.00754	
.005	.0007	313.15	.00836	
.005	.0008	313.15	.00911	
.005	.0009	313.15	.01004	
.005	.001	313.15	.01027	
.005	.0011	313.15	.01047	
.005	.0012	313.15	.01067	
.005	.0013	313.15	.01083	
.005	.0014	313.15	.01104	
.005	.0015	313.15	.01126	
.005	.0016	313.15	.01146	
.005	.0017	313.15	.01163	
.005	.0018	313.15	.0118	
.005	.0019	313.15	.012	
.005	.002	313.15	.0122	
.01	.0001	293.15	.00237	
.01	.0002	293.15	.00324	
.01	.0003	293.15	.00415	
.01	.0004	293.15	.00525	
.01	.0005	293.15	.00595	
.01	.0006	293.15	.00682	
.01	.0007	293.15	.00723	
.01	.0008	293.15	.00756	
.01	.0009	293.15	.00773	
.01	.001	293.15	.00799	
.01	.0011	293.15	.00814	
.01	.0012	293.15	.00832	
.01	.0013	293.15	.00852	
.01	.0014	293.15	.00879	
.01	.0015	293.15	.00891	
.01	.0016	293.15	.00916	
.01	.0017	293.15	.00932	
.01	.0018	293.15	.0095	
.01	.0019	293.15	.00971	
.01	.002	293.15	.00992	
.01	.0001	298.15	.00256	
.01	.0002	298.15	.00343	
.01	.0003	298.15	.00438	
.01	.0004	298.15	.00537	
.01	.0005	298.15	.00615	
.01	.0006	298.15	.00717	
.01	.0007	298.15	.00783	
.01	.0008	298.15	.00803	
.01	.0009	298.15	.00826	
.01	.001	298.15	.00844	
.01	.0011	298.15	.00867	
.01	.0012	298.15	.00882	
.01	.0013	298.15	.00903	
.01	.0014	298.15	.00923	
.01	.0015	298.15	.00942	
.01	.0016	298.15	.0096	
.01	.0017	298.15	.00983	
.01	.0018	298.15	.01002	
.01	.0019	298.15	.01024	
.01	.002	298.15	.01043	
.01	.0001	303.15	.00272	
.01	.0002	303.15	.00361	
.01	.0003	303.15	.00465	
.01	.0004	303.15	.00548	
.01	.0005	303.15	.00638	
.01	.0006	303.15	.00731	
.01	.0007	303.15	.00807	
.01	.0008	303.15	.00872	
.01	.0009	303.15	.00902	
.01	.001	303.15	.00977	
.01	.0011	303.15	.00991	
.01	.0012	303.15	.01016	
.01	.0013	303.15	.01037	
.01	.0014	303.15	.01061	
.01	.0015	303.15	.01086	
.01	.0016	303.15	.01107	
.01	.0017	303.15	.01134	
.01	.0018	303.15	.01153	
.01	.0019	303.15	.01173	
.01	.002	303.15	.01195	
.01	.0001	308.15	.00297	
.01	.0002	308.15	.00394	
.01	.0003	308.15	.00485	
.01	.0004	308.15	.00575	
.01	.0005	308.15	.00665	
.01	.0006	308.15	.0075	
.01	.0007	308.15	.0083	
.01	.0008	308.15	.0091	
.01	.0009	308.15	.00992	
.01	.001	308.15	.0103	
.01	.0011	308.15	.01059	
.01	.0012	308.15	.01094	
.01	.0013	308.15	.01122	
.01	.0014	308.15	.01152	
.01	.0015	308.15	.01179	
.01	.0016	308.15	.01201	
.01	.0017	308.15	.01226	
.01	.0018	308.15	.0125	
.01	.0019	308.15	.01275	
.01	.002	308.15	.01293	
.01	.0001	313.15	.00306	
.01	.0002	313.15	.00403	
.01	.0003	313.15	.00498	
.01	.0004	313.15	.00587	
.01	.0005	313.15	.00675	
.01	.0006	313.15	.00777	
.01	.0007	313.15	.00853	
.01	.0008	313.15	.00936	
.01	.0009	313.15	.01023	
.01	.001	313.15	.01047	
.01	.0011	313.15	.01105	
.01	.0012	313.15	.01141	
.01	.0013	313.15	.0118	
.01	.0014	313.15	.01209	
.01	.0015	313.15	.01234	
.01	.0016	313.15	.01262	
.01	.0017	313.15	.01279	
.01	.0018	313.15	.01316	
.01	.0019	313.15	.01337	
.01	.002	313.15	.01359	

System: glycylglycine + dodecyltrimethylammonium bromide + water; phases: Liquid
Fixed: Pressure, kPa = 100
Property: Electrical conductivity, S/m (Liquid); method: Alternating current cell with electrodes
Solvent: Molality, mol/kg of glycylglycine	Molality, mol/kg of dodecyltrimethylammonium bromide	Temperature, K	Electrical conductivity, S/m	uncertainty
.001	.0015	293.15	.00684	
.001	.003	293.15	.01243	
.001	.0045	293.15	.0209	
.001	.0059	293.15	.0269	
.001	.0073	293.15	.0325	
.001	.0087	293.15	.0396	
.001	.0101	293.15	.0456	
.001	.0116	293.15	.052	
.001	.013	293.15	.0565	
.001	.0144	293.15	.0617	
.001	.0157	293.15	.0659	
.001	.017	293.15	.0704	
.001	.0184	293.15	.0718	
.001	.0197	293.15	.0735	
.001	.021	293.15	.0753	
.001	.0223	293.15	.077	
.001	.0236	293.15	.0791	
.001	.0249	293.15	.0802	
.001	.0274	293.15	.0826	
.001	.0286	293.15	.0841	
.001	.0298	293.15	.0865	
.001	.0015	298.15	.00766	
.001	.003	298.15	.01392	
.001	.0045	298.15	.021	
.001	.0059	298.15	.0275	
.001	.0073	298.15	.0345	
.001	.0087	298.15	.041	
.001	.0101	298.15	.0469	
.001	.0116	298.15	.0542	
.001	.013	298.15	.059	
.001	.0144	298.15	.0645	
.001	.0157	298.15	.068	
.001	.017	298.15	.0723	
.001	.0184	298.15	.0739	
.001	.0197	298.15	.0756	
.001	.021	298.15	.0774	
.001	.0223	298.15	.0791	
.001	.0236	298.15	.0809	
.001	.0249	298.15	.0823	
.001	.0274	298.15	.0847	
.001	.0286	298.15	.0863	
.001	.0298	298.15	.0886	
.001	.0015	303.15	.00785	
.001	.003	303.15	.01458	
.001	.0045	303.15	.0212	
.001	.0059	303.15	.0283	
.001	.0073	303.15	.0361	
.001	.0087	303.15	.0426	
.001	.0101	303.15	.0495	
.001	.0116	303.15	.0557	
.001	.013	303.15	.0595	
.001	.0144	303.15	.0641	
.001	.0157	303.15	.0687	
.001	.017	303.15	.0728	
.001	.0184	303.15	.0744	
.001	.0197	303.15	.076	
.001	.021	303.15	.078	
.001	.0223	303.15	.08	
.001	.0236	303.15	.0815	
.001	.0249	303.15	.0833	
.001	.0274	303.15	.0856	
.001	.0286	303.15	.0872	
.001	.0298	303.15	.0895	
.001	.0015	308.15	.00816	
.001	.003	308.15	.01472	
.001	.0045	308.15	.0218	
.001	.0059	308.15	.0291	
.001	.0073	308.15	.0364	
.001	.0087	308.15	.0424	
.001	.0101	308.15	.0489	
.001	.0116	308.15	.0552	
.001	.013	308.15	.0599	
.001	.0144	308.15	.0661	
.001	.0157	308.15	.0705	
.001	.017	308.15	.0742	
.001	.0184	308.15	.0773	
.001	.0197	308.15	.0796	
.001	.021	308.15	.0815	
.001	.0223	308.15	.0832	
.001	.0236	308.15	.0849	
.001	.0249	308.15	.0867	
.001	.0274	308.15	.0883	
.001	.0286	308.15	.0901	
.001	.0298	308.15	.0916	
.001	.0015	313.15	.00866	
.001	.003	313.15	.01572	
.001	.0045	313.15	.0222	
.001	.0059	313.15	.0299	
.001	.0073	313.15	.0368	
.001	.0087	313.15	.0436	
.001	.0101	313.15	.0499	
.001	.0116	313.15	.0572	
.001	.013	313.15	.0628	
.001	.0144	313.15	.0681	
.001	.0157	313.15	.0726	
.001	.017	313.15	.0768	
.001	.0184	313.15	.0793	
.001	.0197	313.15	.0812	
.001	.021	313.15	.083	
.001	.0223	313.15	.0847	
.001	.0236	313.15	.0865	
.001	.0249	313.15	.0882	
.001	.0274	313.15	.0899	
.001	.0286	313.15	.0914	
.001	.0298	313.15	.0929	
.005	.0015	293.15	.00765	
.005	.003	293.15	.01432	
.005	.0045	293.15	.0211	
.005	.0059	293.15	.0289	
.005	.0073	293.15	.0365	
.005	.0087	293.15	.042	
.005	.0101	293.15	.0479	
.005	.0116	293.15	.0548	
.005	.013	293.15	.0585	
.005	.0144	293.15	.0635	
.005	.0157	293.15	.0677	
.005	.017	293.15	.0721	
.005	.0184	293.15	.074	
.005	.0197	293.15	.0755	
.005	.021	293.15	.0777	
.005	.0223	293.15	.0798	
.005	.0236	293.15	.0811	
.005	.0249	293.15	.0829	
.005	.0274	293.15	.0851	
.005	.0286	293.15	.0867	
.005	.0298	293.15	.0889	
.005	.0015	298.15	.00816	
.005	.003	298.15	.01515	
.005	.0045	298.15	.022	
.005	.0059	298.15	.0281	
.005	.0073	298.15	.037	
.005	.0087	298.15	.0441	
.005	.0101	298.15	.0505	
.005	.0116	298.15	.0564	
.005	.013	298.15	.0615	
.005	.0144	298.15	.0671	
.005	.0157	298.15	.0712	
.005	.017	298.15	.0753	
.005	.0184	298.15	.0789	
.005	.0197	298.15	.0807	
.005	.021	298.15	.0831	
.005	.0223	298.15	.0846	
.005	.0236	298.15	.0852	
.005	.0249	298.15	.0873	
.005	.0274	298.15	.0889	
.005	.0286	298.15	.0911	
.005	.0298	298.15	.0925	
.005	.0015	303.15	.00966	
.005	.003	303.15	.01772	
.005	.0045	303.15	.0242	
.005	.0059	303.15	.0319	
.005	.0073	303.15	.0401	
.005	.0087	303.15	.0476	
.005	.0101	303.15	.0555	
.005	.0116	303.15	.0616	
.005	.013	303.15	.0689	
.005	.0144	303.15	.0734	
.005	.0157	303.15	.0776	
.005	.017	303.15	.0806	
.005	.0184	303.15	.0826	
.005	.0197	303.15	.0852	
.005	.021	303.15	.0865	
.005	.0223	303.15	.0885	
.005	.0236	303.15	.0895	
.005	.0249	303.15	.0912	
.005	.0274	303.15	.0934	
.005	.0286	303.15	.0954	
.005	.0298	303.15	.0979	
.005	.0015	308.15	.01063	
.005	.003	308.15	.01916	
.005	.0045	308.15	.0279	
.005	.0059	308.15	.0345	
.005	.0073	308.15	.0442	
.005	.0087	308.15	.0535	
.005	.0101	308.15	.0618	
.005	.0116	308.15	.0692	
.005	.013	308.15	.0744	
.005	.0144	308.15	.0801	
.005	.0157	308.15	.0842	
.005	.017	308.15	.0875	
.005	.0184	308.15	.0895	
.005	.0197	308.15	.0915	
.005	.021	308.15	.0923	
.005	.0223	308.15	.0946	
.005	.0236	308.15	.0969	
.005	.0249	308.15	.0981	
.005	.0274	308.15	.1006	
.005	.0286	308.15	.1021	
.005	.0298	308.15	.1035	
.005	.0015	313.15	.01212	
.005	.003	313.15	.022	
.005	.0045	313.15	.0305	
.005	.0059	313.15	.0388	
.005	.0073	313.15	.05	
.005	.0087	313.15	.0591	
.005	.0101	313.15	.0649	
.005	.0116	313.15	.0723	
.005	.013	313.15	.0772	
.005	.0144	313.15	.0828	
.005	.0157	313.15	.0871	
.005	.017	313.15	.0911	
.005	.0184	313.15	.0931	
.005	.0197	313.15	.0948	
.005	.021	313.15	.0969	
.005	.0223	313.15	.0984	
.005	.0236	313.15	.1004	
.005	.0249	313.15	.1018	
.005	.0274	313.15	.1041	
.005	.0286	313.15	.1058	
.005	.0298	313.15	.1079	
.01	.0015	293.15	.00983	
.01	.003	293.15	.0204	
.01	.0045	293.15	.0299	
.01	.0059	293.15	.0369	
.01	.0073	293.15	.0458	
.01	.0087	293.15	.0546	
.01	.0101	293.15	.0636	
.01	.0116	293.15	.071	
.01	.013	293.15	.0757	
.01	.0144	293.15	.0817	
.01	.0157	293.15	.0859	
.01	.017	293.15	.0904	
.01	.0184	293.15	.0918	
.01	.0197	293.15	.0935	
.01	.021	293.15	.0953	
.01	.0223	293.15	.097	
.01	.0236	293.15	.0991	
.01	.0249	293.15	.1002	
.01	.0274	293.15	.1026	
.01	.0286	293.15	.1041	
.01	.0298	293.15	.1065	
.01	.0015	298.15	.01252	
.01	.003	298.15	.0225	
.01	.0045	298.15	.031	
.01	.0059	298.15	.0393	
.01	.0073	298.15	.0505	
.01	.0087	298.15	.0595	
.01	.0101	298.15	.0655	
.01	.0116	298.15	.0729	
.01	.013	298.15	.0778	
.01	.0144	298.15	.0836	
.01	.0157	298.15	.088	
.01	.017	298.15	.0923	
.01	.0184	298.15	.0939	
.01	.0197	298.15	.0956	
.01	.021	298.15	.0974	
.01	.0223	298.15	.0991	
.01	.0236	298.15	.1009	
.01	.0249	298.15	.1023	
.01	.0274	298.15	.1047	
.01	.0286	298.15	.1063	
.01	.0298	298.15	.1086	
.01	.0015	303.15	.01385	
.01	.003	303.15	.0245	
.01	.0045	303.15	.0312	
.01	.0059	303.15	.0411	
.01	.0073	303.15	.0511	
.01	.0087	303.15	.0592	
.01	.0101	303.15	.0665	
.01	.0116	303.15	.0737	
.01	.013	303.15	.0785	
.01	.0144	303.15	.0841	
.01	.0157	303.15	.0887	
.01	.017	303.15	.0928	
.01	.0184	303.15	.0944	
.01	.0197	303.15	.096	
.01	.021	303.15	.098	
.01	.0223	303.15	.1	
.01	.0236	303.15	.1015	
.01	.0249	303.15	.1033	
.01	.0274	303.15	.1063	
.01	.0286	303.15	.1072	
.01	.0298	303.15	.1095	
.01	.0015	308.15	.01126	
.01	.003	308.15	.0207	
.01	.0045	308.15	.0315	
.01	.0059	308.15	.0381	
.01	.0073	308.15	.0464	
.01	.0087	308.15	.0551	
.01	.0101	308.15	.0669	
.01	.0116	308.15	.0742	
.01	.013	308.15	.0789	
.01	.0144	308.15	.0851	
.01	.0157	308.15	.0905	
.01	.017	308.15	.0942	
.01	.0184	308.15	.0973	
.01	.0197	308.15	.0976	
.01	.021	308.15	.1015	
.01	.0223	308.15	.1032	
.01	.0236	308.15	.1032	
.01	.0249	308.15	.1067	
.01	.0274	308.15	.1083	
.01	.0286	308.15	.1113	
.01	.0298	308.15	.1116	
.01	.0015	313.15	.01166	
.01	.003	313.15	.0227	
.01	.0045	313.15	.0322	
.01	.0059	313.15	.0411	
.01	.0073	313.15	.0506	
.01	.0087	313.15	.0606	
.01	.0101	313.15	.0702	
.01	.0116	313.15	.0762	
.01	.013	313.15	.0811	
.01	.0144	313.15	.0871	
.01	.0157	313.15	.0926	
.01	.017	313.15	.0968	
.01	.0184	313.15	.0993	
.01	.0197	313.15	.1012	
.01	.021	313.15	.103	
.01	.0223	313.15	.1047	
.01	.0236	313.15	.1065	
.01	.0249	313.15	.1082	
.01	.0274	313.15	.1099	
.01	.0286	313.15	.1114	
.01	.0298	313.15	.1129	
