Measured thermophysical data. Thermal properties of some small peptides (N-acetyl-amino acid-N'-methylamides) with non-polar side groups
Source: J. Chem. Thermodyn., 2014, 10.1016/j.jct.2013.12.016
Compound 1: 2-acetamido-N-methylacetamide, C5H10N2O2
Compound 2: (S)-2-acetamido-N-methylpropanamide, C6H12N2O2
Compound 3: 2-acetamido-N-methylpropanamide, C6H12N2O2
Compound 4: 2-acetamido-N-methylbutanamide, C7H14N2O2
Compound 5: N-acetyl-N'-methylvalinamide, C8H16N2O2
Compound 6: N-acetyl-N'-methyl-DL-valinamide, C8H16N2O2
Compound 7: N-acetyl-N'-methyl-DL-norvalinamide, C8H16N2O2
Compound 8: (2S)-1-acetyl-N-methyl-2-pyrrolidinecarboxamide, C8H14N2O2
Compound 9: 1-acetyl-N-methylprolinamide, C8H14N2O2
Compound 10: (S)-2-acetamido-N,4-dimethylpentanamide, C9H18N2O2
Compound 11: N-acetyl-N'-methyl-DL-leucinamide, C9H18N2O2
Compound 12: 2-acetamido-N-methylhexanamide, C9H18N2O2
Compound 13: (2S,3S)-2-acetamido-N,3-dimethylpentanamide, C9H18N2O2
Compound 14: N-acetyl-N'-methyl-DL-isoleucinamide, C9H18N2O2

System: 2-acetamido-N-methylacetamide; phases: Crystal, Liquid, Air at 1 atmosphere
Property: Molar enthalpy of transition or fusion, kJ/mol (Crystal); method: DSC/DTA
Molar enthalpy of transition or fusion, kJ/mol	uncertainty
23.64	

System: 2-acetamido-N-methylacetamide; phases: Crystal, Liquid, Air at 1 atmosphere
Property: Triple point temperature, K (Crystal); method: DSC/DTA
Triple point temperature, K	uncertainty
430.73	

System: (S)-2-acetamido-N-methylpropanamide; phases: Crystal 1, Liquid, Air at 1 atmosphere
Property: Molar enthalpy of transition or fusion, kJ/mol (Crystal 1); method: DSC/DTA
Molar enthalpy of transition or fusion, kJ/mol	uncertainty
24.86	

System: (S)-2-acetamido-N-methylpropanamide; phases: Crystal 1, Liquid, Air at 1 atmosphere
Property: Triple point temperature, K (Crystal 1); method: DSC/DTA
Triple point temperature, K	uncertainty
454.8	

System: (S)-2-acetamido-N-methylpropanamide; phases: Crystal 2, Crystal 1, Air at 1 atmosphere
Property: Triple point temperature, K (Crystal 2); method: DSC/DTA
Triple point temperature, K	uncertainty
395.07	

System: (S)-2-acetamido-N-methylpropanamide; phases: Crystal 2, Crystal 1, Air at 1 atmosphere
Property: Molar enthalpy of transition or fusion, kJ/mol (Crystal 2); method: DSC/DTA
Molar enthalpy of transition or fusion, kJ/mol	uncertainty
5.59	

System: 2-acetamido-N-methylpropanamide; phases: Crystal 1, Liquid, Air at 1 atmosphere
Property: Triple point temperature, K (Crystal 1); method: DSC/DTA
Triple point temperature, K	uncertainty
411.9	

System: 2-acetamido-N-methylpropanamide; phases: Crystal 1, Liquid, Air at 1 atmosphere
Property: Molar enthalpy of transition or fusion, kJ/mol (Crystal 1); method: DSC/DTA
Molar enthalpy of transition or fusion, kJ/mol	uncertainty
15.91	

System: 2-acetamido-N-methylpropanamide; phases: Crystal 2, Crystal 1, Air at 1 atmosphere
Property: Triple point temperature, K (Crystal 2); method: DSC/DTA
Triple point temperature, K	uncertainty
368.43	

System: 2-acetamido-N-methylpropanamide; phases: Crystal 2, Crystal 1, Air at 1 atmosphere
Property: Molar enthalpy of transition or fusion, kJ/mol (Crystal 2); method: DSC/DTA
Molar enthalpy of transition or fusion, kJ/mol	uncertainty
7.69	

System: 2-acetamido-N-methylbutanamide; phases: Crystal, Liquid, Air at 1 atmosphere
Property: Triple point temperature, K (Crystal); method: DSC/DTA
Triple point temperature, K	uncertainty
434.83	

System: 2-acetamido-N-methylbutanamide; phases: Crystal, Liquid, Air at 1 atmosphere
Property: Molar enthalpy of transition or fusion, kJ/mol (Crystal); method: DSC/DTA
Molar enthalpy of transition or fusion, kJ/mol	uncertainty
24.71	

System: N-acetyl-N'-methylvalinamide; phases: Crystal, Liquid, Air at 1 atmosphere
Property: Triple point temperature, K (Crystal); method: DSC/DTA
Triple point temperature, K	uncertainty
531.33	

System: N-acetyl-N'-methylvalinamide; phases: Crystal, Liquid, Air at 1 atmosphere
Property: Molar enthalpy of transition or fusion, kJ/mol (Crystal); method: DSC/DTA
Molar enthalpy of transition or fusion, kJ/mol	uncertainty
34.07	

System: N-acetyl-N'-methyl-DL-valinamide; phases: Crystal, Liquid, Air at 1 atmosphere
Property: Triple point temperature, K (Crystal); method: DSC/DTA
Triple point temperature, K	uncertainty
496.72	

System: N-acetyl-N'-methyl-DL-valinamide; phases: Crystal, Liquid, Air at 1 atmosphere
Property: Molar enthalpy of transition or fusion, kJ/mol (Crystal); method: DSC/DTA
Molar enthalpy of transition or fusion, kJ/mol	uncertainty
37.23	

System: N-acetyl-N'-methyl-DL-norvalinamide; phases: Crystal, Liquid, Air at 1 atmosphere
Property: Triple point temperature, K (Crystal); method: DSC/DTA
Triple point temperature, K	uncertainty
432.29	

System: N-acetyl-N'-methyl-DL-norvalinamide; phases: Crystal, Liquid, Air at 1 atmosphere
Property: Molar enthalpy of transition or fusion, kJ/mol (Crystal); method: DSC/DTA
Molar enthalpy of transition or fusion, kJ/mol	uncertainty
26.24	

System: (2S)-1-acetyl-N-methyl-2-pyrrolidinecarboxamide; phases: Crystal, Liquid, Air at 1 atmosphere
Property: Triple point temperature, K (Crystal); method: DSC/DTA
Triple point temperature, K	uncertainty
375.85	

System: (2S)-1-acetyl-N-methyl-2-pyrrolidinecarboxamide; phases: Crystal, Liquid, Air at 1 atmosphere
Property: Molar enthalpy of transition or fusion, kJ/mol (Crystal); method: DSC/DTA
Molar enthalpy of transition or fusion, kJ/mol	uncertainty
24.94	

System: 1-acetyl-N-methylprolinamide; phases: Crystal, Liquid, Air at 1 atmosphere
Property: Triple point temperature, K (Crystal); method: DSC/DTA
Triple point temperature, K	uncertainty
378.12	

System: 1-acetyl-N-methylprolinamide; phases: Crystal, Liquid, Air at 1 atmosphere
Property: Molar enthalpy of transition or fusion, kJ/mol (Crystal); method: DSC/DTA
Molar enthalpy of transition or fusion, kJ/mol	uncertainty
26.06	

System: (S)-2-acetamido-N,4-dimethylpentanamide; phases: Crystal, Liquid, Air at 1 atmosphere
Property: Triple point temperature, K (Crystal); method: DSC/DTA
Triple point temperature, K	uncertainty
438.2	

System: (S)-2-acetamido-N,4-dimethylpentanamide; phases: Crystal, Liquid, Air at 1 atmosphere
Property: Molar enthalpy of transition or fusion, kJ/mol (Crystal); method: DSC/DTA
Molar enthalpy of transition or fusion, kJ/mol	uncertainty
23.19	

System: N-acetyl-N'-methyl-DL-leucinamide; phases: Crystal, Liquid, Air at 1 atmosphere
Property: Triple point temperature, K (Crystal); method: DSC/DTA
Triple point temperature, K	uncertainty
432.1	

System: N-acetyl-N'-methyl-DL-leucinamide; phases: Crystal, Liquid, Air at 1 atmosphere
Property: Molar enthalpy of transition or fusion, kJ/mol (Crystal); method: DSC/DTA
Molar enthalpy of transition or fusion, kJ/mol	uncertainty
27.16	

System: 2-acetamido-N-methylhexanamide; phases: Crystal, Liquid, Air at 1 atmosphere
Property: Triple point temperature, K (Crystal); method: DSC/DTA
Triple point temperature, K	uncertainty
444	

System: 2-acetamido-N-methylhexanamide; phases: Crystal, Liquid, Air at 1 atmosphere
Property: Molar enthalpy of transition or fusion, kJ/mol (Crystal); method: DSC/DTA
Molar enthalpy of transition or fusion, kJ/mol	uncertainty
34.34	

System: (2S,3S)-2-acetamido-N,3-dimethylpentanamide; phases: Crystal, Liquid, Air at 1 atmosphere
Property: Triple point temperature, K (Crystal); method: DSC/DTA
Triple point temperature, K	uncertainty
525.72	

System: (2S,3S)-2-acetamido-N,3-dimethylpentanamide; phases: Crystal, Liquid, Air at 1 atmosphere
Property: Molar enthalpy of transition or fusion, kJ/mol (Crystal); method: DSC/DTA
Molar enthalpy of transition or fusion, kJ/mol	uncertainty
38.13	

System: N-acetyl-N'-methyl-DL-isoleucinamide; phases: Crystal, Liquid, Air at 1 atmosphere
Property: Triple point temperature, K (Crystal); method: DSC/DTA
Triple point temperature, K	uncertainty
482.02	

System: N-acetyl-N'-methyl-DL-isoleucinamide; phases: Crystal, Liquid, Air at 1 atmosphere
Property: Molar enthalpy of transition or fusion, kJ/mol (Crystal); method: DSC/DTA
Molar enthalpy of transition or fusion, kJ/mol	uncertainty
27.13	
