Measured thermophysical data. Comparative study of the LLE of the quaternary and ternary systems involving benzene, n-octane, n-decane and the ionic liquid [BMpyr] [NTf2]
Source: J. Chem. Thermodyn., 2016, 10.1016/j.jct.2016.02.027
Compound 1: 1-butyl-1-methylpyrrolidinium bis(trifluoromethylsulfonyl)imide, C11H20F6N2O4S2, purity 99%
Compound 2: benzene, C6H6, purity 99.9%
Compound 3: octane, C8H18, purity 99%
Compound 4: decane, C10H22, purity 99%

System: 1-butyl-1-methylpyrrolidinium bis(trifluoromethylsulfonyl)imide; phases: Liquid
Fixed: Pressure, kPa = 101.325
Property: Mass density, kg/m3 (Liquid); method: Vibrating tube method
Temperature, K	Mass density, kg/m3	uncertainty
298.15	1394.68	3

System: benzene + octane + 1-butyl-1-methylpyrrolidinium bis(trifluoromethylsulfonyl)imide; phases: Liquid mixture 1, Liquid mixture 2
Fixed: Temperature, K = 298.15
Fixed: Pressure, kPa = 101.3
Property: Mole fraction of octane (Liquid mixture 1); method: Titration method
Mole fraction of benzene	Mole fraction of octane	uncertainty
0	.042	
.048	.038	
.095	.041	
.188	.04	
.192	.04	
.299	.039	
.29	.033	
.377	.038	
.483	.038	
.538	.036	
.585	.034	
.634	.035	
.756	.018	
.81	0	

System: benzene + octane + 1-butyl-1-methylpyrrolidinium bis(trifluoromethylsulfonyl)imide; phases: Liquid
Fixed: Pressure, kPa = 101.3
Fixed: Temperature, K = 298.15
Property: Mass density, kg/m3 (Liquid); method: Vibrating tube method
Mole fraction of octane	Mole fraction of benzene	Mass density, kg/m3	uncertainty
.042	0	1384.07	
.038	.048	1376.95	
.041	.095	1368.24	
.04	.188	1350.71	
.04	.192	1349.8	
.039	.299	1326.2	
.033	.29	1329.18	
.038	.377	1305.56	
.038	.483	1270.91	
.036	.538	1250.17	
.034	.585	1230.13	
.035	.634	1207.29	
.018	.756	1143.63	
0	.81	1117.76	

System: benzene + octane + 1-butyl-1-methylpyrrolidinium bis(trifluoromethylsulfonyl)imide; phases: Liquid mixture 2, Liquid mixture 1
Fixed: Temperature, K = 298.15
Fixed: Pressure, kPa = 101.3
Property: Mole fraction of octane (Liquid mixture 2); method: Density calibration data
Property: Mole fraction of benzene (Liquid mixture 1); method: Density calibration data
Property: Mole fraction of octane (Liquid mixture 1); method: Density calibration data
Mole fraction of benzene	Mole fraction of octane	uncertainty	Mole fraction of benzene	uncertainty	Mole fraction of octane	uncertainty
.037	.041	.007	.015	.007	.985	.007
.632	.03	.007	.612	.007	.388	.007
.7	.024	.007	.728	.007	.272	.007
.773	.014	.007	.861	.007	.139	.007
.109	.039	.007	.05	.007	.95	.007
.178	.039	.007	.09	.007	.91	.007
.286	.039	.007	.18	.007	.82	.007
.399	.043	.007	.302	.007	.698	.007
.476	.041	.007	.405	.007	.595	.007
.556	.037	.007	.506	.007	.494	.007

System: benzene + decane + 1-butyl-1-methylpyrrolidinium bis(trifluoromethylsulfonyl)imide; phases: Liquid mixture 1, Liquid mixture 2
Fixed: Temperature, K = 298.15
Fixed: Pressure, kPa = 101.3
Property: Mole fraction of decane (Liquid mixture 1); method: Titration method
Mole fraction of benzene	Mole fraction of decane	uncertainty
0	.023	
.048	.02	
.129	.023	
.335	.018	
.439	.019	
.542	.021	
.639	.032	
.75	.012	
.764	.009	
.811	0	

System: benzene + decane + 1-butyl-1-methylpyrrolidinium bis(trifluoromethylsulfonyl)imide; phases: Liquid
Fixed: Pressure, kPa = 101.3
Fixed: Temperature, K = 298.15
Property: Mass density, kg/m3 (Liquid); method: Vibrating tube method
Mole fraction of decane	Mole fraction of benzene	Mass density, kg/m3	uncertainty
.023	0	1387.66	
.02	.048	1380.17	
.023	.129	1367.33	
.018	.335	1324.49	
.019	.439	1295.13	
.021	.542	1257.66	
.032	.639	1215.99	
.012	.75	1153.85	
.009	.764	1145.6	
0	.811	1118.57	

System: benzene + decane + 1-butyl-1-methylpyrrolidinium bis(trifluoromethylsulfonyl)imide; phases: Liquid mixture 2, Liquid mixture 1
Fixed: Temperature, K = 298.15
Fixed: Pressure, kPa = 101.3
Property: Mole fraction of decane (Liquid mixture 2); method: Density calibration data
Property: Mole fraction of benzene (Liquid mixture 1); method: Density calibration data
Property: Mole fraction of decane (Liquid mixture 1); method: Density calibration data
Mole fraction of benzene	Mole fraction of decane	uncertainty	Mole fraction of benzene	uncertainty	Mole fraction of decane	uncertainty
.05	.025	.007	.026	.007	.974	.007
.172	.025	.007	.106	.007	.894	.007
.275	.024	.007	.206	.007	.794	.007
.388	.023	.007	.323	.007	.677	.007
.473	.026	.007	.423	.007	.577	.007
.547	.026	.007	.527	.007	.473	.007
.622	.024	.007	.65	.007	.35	.007
.685	.02	.007	.773	.007	.227	.007
.734	.016	.007	.863	.007	.137	.007

System: octane + 1-butyl-1-methylpyrrolidinium bis(trifluoromethylsulfonyl)imide; phases: Liquid mixture 1, Liquid mixture 2
Property: Mole fraction of octane (Liquid mixture 1); method: Titration method
Temperature, K	Pressure, kPa	Mole fraction of octane	uncertainty
298.15	101.3	.042	

System: octane + 1-butyl-1-methylpyrrolidinium bis(trifluoromethylsulfonyl)imide; phases: Liquid
Property: Mass density, kg/m3 (Liquid); method: Vibrating tube method
Mole fraction of octane	Pressure, kPa	Temperature, K	Mass density, kg/m3	uncertainty
.042	101.3	298.15	1384.07	

System: benzene + 1-butyl-1-methylpyrrolidinium bis(trifluoromethylsulfonyl)imide; phases: Liquid mixture 1, Liquid mixture 2
Property: Mole fraction of benzene (Liquid mixture 1); method: Titration method
Temperature, K	Pressure, kPa	Mole fraction of benzene	uncertainty
298.15	101.3	.81	

System: benzene + 1-butyl-1-methylpyrrolidinium bis(trifluoromethylsulfonyl)imide; phases: Liquid
Property: Mass density, kg/m3 (Liquid); method: Vibrating tube method
Mole fraction of benzene	Pressure, kPa	Temperature, K	Mass density, kg/m3	uncertainty
.81	101.3	298.15	1117.76	
.811	101.3	298.15	1118.57	

System: decane + 1-butyl-1-methylpyrrolidinium bis(trifluoromethylsulfonyl)imide; phases: Liquid mixture 1, Liquid mixture 2
Property: Mole fraction of decane (Liquid mixture 1); method: Titration method
Temperature, K	Pressure, kPa	Mole fraction of decane	uncertainty
298.15	101.3	.023	

System: decane + 1-butyl-1-methylpyrrolidinium bis(trifluoromethylsulfonyl)imide; phases: Liquid
Property: Mass density, kg/m3 (Liquid); method: Vibrating tube method
Mole fraction of decane	Pressure, kPa	Temperature, K	Mass density, kg/m3	uncertainty
.023	101.3	298.15	1387.66	
