Measured thermophysical data. Isobaric heat capacity at high pressure, density, and viscosity of (diphenyl ether + biphenyl) mixtures
Source: J. Chem. Thermodyn., 2016, 10.1016/j.jct.2015.09.028
Compound 1: diphenyl ether, C12H10O, purity 99.9%
Compound 2: biphenyl, C12H10, purity 99.9%

System: diphenyl ether; phases: Liquid
Property: Mass density, kg/m3 (Liquid); method: Vibrating tube method
Temperature, K	Pressure, kPa	Mass density, kg/m3	uncertainty
303.15	93	1065.5	.5
308.15	93	1061.2	.5
313.15	93	1056.9	.5
323.15	93	1048.2	.5
333.15	93	1039.6	.5
343.15	93	1030.9	.5
353.15	93	1022.3	.5
363.15	93	1013.7	.5
373.15	93	1005.2	.5

System: diphenyl ether; phases: Liquid
Property: Viscosity, Pa*s (Liquid); method: Concentric cylinders viscometry
Temperature, K	Pressure, kPa	Viscosity, Pa*s	uncertainty
303.15	93	.00333	.0000333
308.15	93	.00296	.0000296
313.15	93	.00265	.0000265
323.15	93	.00217	.0000217
333.15	93	.00182	.0000182
343.15	93	.00154	.0000154
353.15	93	.00133	.0000133
363.15	93	.00116	.0000116
373.15	93	.00103	.0000103

System: diphenyl ether; phases: Liquid
Property: Molar heat capacity at constant pressure, J/K/mol (Liquid); method: Flow calorimetry
Temperature, K	Pressure, kPa	Molar heat capacity at constant pressure, J/K/mol	uncertainty
313.15	100	274.3740064	5.487480128
333.15	100	286.9693392	5.739386784
353.15	100	299.0540504	5.981081008
313.15	5000	273.5229704	5.470459408
333.15	5000	285.948096	5.71896192
353.15	5000	298.0328072	5.960656144
313.15	10000	273.182556	5.46365112
333.15	10000	284.9268528	5.698537056
353.15	10000	296.8413568	5.936827136
313.15	15000	272.5017272	5.450034544
333.15	15000	284.5864384	5.691728768
353.15	15000	296.3307352	5.926614704
313.15	20000	272.1613128	5.443226256
333.15	20000	283.394988	5.66789976
353.15	20000	295.4796992	5.909593984
333.15	25000	282.7141592	5.654283184
353.15	25000	294.6286632	5.892573264

System: biphenyl + diphenyl ether; phases: Liquid
Fixed: Pressure, kPa = 93
Property: Mass density, kg/m3 (Liquid); method: Vibrating tube method
Temperature, K	Mole fraction of diphenyl ether	Mass density, kg/m3	uncertainty
308.15	.55	1043.7	.5
313.15	.55	1039.5	.5
323.15	.55	1031.1	.5
333.15	.55	1022.6	.5
343.15	.55	1014.1	.5
353.15	.55	1005.6	.5
363.15	.55	997.5	.5
373.15	.55	989.2	.5
288.15	.705	1066.7	.5
293.15	.705	1062.4	.5
298.15	.705	1058.2	.5
303.15	.705	1053.9	.5
308.15	.705	1049.7	.5
313.15	.705	1045.4	.5
323.15	.705	1037	.5
333.15	.705	1028.5	.5
343.15	.705	1020	.5
353.15	.705	1011.5	.5
363.15	.705	1003	.5
373.15	.705	994.9	.5
298.15	.85	1064.2	.5
303.15	.85	1060	.5
308.15	.85	1055.7	.5
313.15	.85	1051.3	.5
323.15	.85	1042.7	.5
333.15	.85	1034.1	.5
343.15	.85	1025.5	.5
353.15	.85	1016.9	.5
363.15	.85	1008.3	.5
373.15	.85	999.8	.5
303.15	1	1065.5	.5
308.15	1	1061.2	.5
313.15	1	1056.9	.5
323.15	1	1048.2	.5
333.15	1	1039.6	.5
343.15	1	1030.9	.5
353.15	1	1022.3	.5
363.15	1	1013.7	.5
373.15	1	1005.2	.5

System: biphenyl + diphenyl ether; phases: Liquid
Fixed: Pressure, kPa = 93
Property: Viscosity, Pa*s (Liquid); method: Concentric cylinders viscometry
Temperature, K	Mole fraction of diphenyl ether	Viscosity, Pa*s	uncertainty
308.15	.55	.00299	.0000299
313.15	.55	.0027	.000027
323.15	.55	.00215	.0000215
333.15	.55	.00179	.0000179
343.15	.55	.00152	.0000152
353.15	.55	.00131	.0000131
363.15	.55	.00114	.0000114
373.15	.55	.001	.00001
288.15	.705	.00512	.0000512
293.15	.705	.00439	.0000439
298.15	.705	.00381	.0000381
303.15	.705	.00334	.0000334
308.15	.705	.00296	.0000296
313.15	.705	.00264	.0000264
323.15	.705	.00215	.0000215
333.15	.705	.00179	.0000179
343.15	.705	.00152	.0000152
353.15	.705	.00131	.0000131
363.15	.705	.00114	.0000114
373.15	.705	.00101	.0000101
298.15	.85	.0038	.000038
303.15	.85	.00334	.0000334
308.15	.85	.00296	.0000296
313.15	.85	.00265	.0000265
323.15	.85	.00216	.0000216
333.15	.85	.00181	.0000181
343.15	.85	.00154	.0000154
353.15	.85	.00132	.0000132
363.15	.85	.00115	.0000115
373.15	.85	.00101	.0000101
303.15	1	.00333	.0000333
308.15	1	.00296	.0000296
313.15	1	.00265	.0000265
323.15	1	.00217	.0000217
333.15	1	.00182	.0000182
343.15	1	.00154	.0000154
353.15	1	.00133	.0000133
363.15	1	.00116	.0000116
373.15	1	.00103	.0000103

System: biphenyl + diphenyl ether; phases: Liquid
Property: Molar heat capacity at constant pressure, J/K/mol (Liquid); method: Flow calorimetry
Temperature, K	Pressure, kPa	Mole fraction of diphenyl ether	Molar heat capacity at constant pressure, J/K/mol	uncertainty
313.15	100	.55	273.52653466	5.4705306932
333.15	100	.55	285.75209491	5.7150418982
353.15	100	.55	295.69555058	5.9139110116
313.15	5000	.55	272.2224749	5.444449498
333.15	5000	.55	284.44803515	5.688960703
353.15	5000	.55	294.88051323	5.8976102646
313.15	10000	.55	270.75540767	5.4151081534
333.15	10000	.55	284.28502768	5.6857005536
353.15	10000	.55	294.55449829	5.8910899658
313.15	15000	.55	269.94037032	5.3988074064
333.15	15000	.55	283.95901274	5.6791802548
353.15	15000	.55	294.39149082	5.8878298164
313.15	20000	.55	269.28834044	5.3857668088
333.15	20000	.55	283.79600527	5.6759201054
353.15	20000	.55	293.25043853	5.8650087706
313.15	25000	.55	268.9623255	5.37924651
353.15	25000	.55	293.08743106	5.8617486212
293.15	100	.705	260.477131398	5.20954262796
313.15	100	.705	270.737348772	5.41474697544
333.15	100	.705	279.342692376	5.58685384752
353.15	100	.705	290.926808766	5.81853617532
293.15	5000	.705	258.491282874	5.16982565748
313.15	5000	.705	269.578937133	5.39157874266
333.15	5000	.705	278.01879336	5.5603758672
353.15	5000	.705	289.271934996	5.78543869992
293.15	10000	.705	256.339946973	5.12679893946
313.15	10000	.705	267.758575986	5.35517151972
333.15	10000	.705	276.860381721	5.53720763442
353.15	10000	.705	287.617061226	5.75234122452
293.15	15000	.705	255.181535334	5.10363070668
313.15	15000	.705	267.096626478	5.34193252956
333.15	15000	.705	275.536482705	5.5107296541
353.15	15000	.705	286.955111718	5.73910223436
293.15	20000	.705	253.857636318	5.07715272636
313.15	20000	.705	265.938214839	5.31876429678
333.15	20000	.705	274.212583689	5.48425167378
353.15	20000	.705	285.465725325	5.7093145065
293.15	25000	.705	252.699224679	5.05398449358
313.15	25000	.705	265.110777954	5.30221555908
333.15	25000	.705	273.385146804	5.46770293608
353.15	25000	.705	283.976338932	5.67952677864
313.15	100	.85	272.01561709	5.4403123418
333.15	100	.85	285.10458571	5.7020917142
353.15	100	.85	299.20039807	5.9840079614
313.15	5000	.85	270.67315877	5.4134631754
333.15	5000	.85	284.60116384	5.6920232768
353.15	5000	.85	297.85793975	5.957158795
313.15	10000	.85	270.1697369	5.403394738
333.15	10000	.85	284.26554926	5.6853109852
353.15	10000	.85	297.69013246	5.9538026492
313.15	15000	.85	269.66631503	5.3933263006
333.15	15000	.85	284.09774197	5.6819548394
353.15	15000	.85	297.35451788	5.9470903576
313.15	20000	.85	269.49850774	5.3899701548
333.15	20000	.85	283.76212739	5.6752425478
353.15	20000	.85	297.18671059	5.9437342118
313.15	25000	.85	269.33070045	5.386614009
333.15	25000	.85	283.42651281	5.6685302562
353.15	25000	.85	296.68328872	5.9336657744
313.15	100	1	274.3740064	5.487480128
333.15	100	1	286.9693392	5.739386784
353.15	100	1	299.0540504	5.981081008
313.15	5000	1	273.5229704	5.470459408
333.15	5000	1	285.948096	5.71896192
353.15	5000	1	298.0328072	5.960656144
313.15	10000	1	273.182556	5.46365112
333.15	10000	1	284.9268528	5.698537056
353.15	10000	1	296.8413568	5.936827136
313.15	15000	1	272.5017272	5.450034544
333.15	15000	1	284.5864384	5.691728768
353.15	15000	1	296.3307352	5.926614704
313.15	20000	1	272.1613128	5.443226256
333.15	20000	1	283.394988	5.66789976
353.15	20000	1	295.4796992	5.909593984
333.15	25000	1	282.7141592	5.654283184
353.15	25000	1	294.6286632	5.892573264
