Measured thermophysical data. Equilibrium solubility of sodium 2,4-diaminobenzene sulfonate in liquid mixtures (methanol + water, isopropanol + water, and 1,2-propanediol + water) from 273.15 K to 323.15 K
Source: J. Chem. Thermodyn., 2016, 10.1016/j.jct.2016.04.004
Compound 1: sodium 2,4-diaminobenzenesulfonate, C6H7N2NaO3S, purity 99.5%
Compound 2: methanol, CH4O, purity 99.8%
Compound 3: isopropanol, C3H8O, purity 99.9%
Compound 4: 1,2-propanediol, C3H8O2, purity 99.5%
Compound 5: water, H2O

System: methanol + sodium 2,4-diaminobenzenesulfonate + water; phases: Liquid, Crystal
Fixed: Pressure, kPa = 100.6
Property: Mole fraction of sodium 2,4-diaminobenzenesulfonate (Liquid); method: Chromatography
Solvent: Mass fraction of methanol	Temperature, K	Mole fraction of sodium 2,4-diaminobenzenesulfonate	uncertainty
.199	273.15	.008741	
.199	278.15	.009505	
.199	283.15	.01044	
.199	288.15	.01198	
.199	293.15	.01342	
.199	298.15	.01578	
.199	303.15	.01771	
.199	308.15	.02005	
.199	313.15	.02317	
.199	318.15	.02686	
.199	323.15	.03293	
.4	273.15	.006097	
.4	278.15	.006755	
.4	283.15	.007571	
.4	288.15	.008546	
.4	293.15	.009645	
.4	298.15	.01104	
.4	303.15	.01289	
.4	308.15	.01485	
.4	313.15	.01707	
.4	318.15	.02067	
.4	323.15	.02317	
.6	273.15	.003812	
.6	278.15	.004279	
.6	283.15	.004936	
.6	288.15	.005633	
.6	293.15	.006602	
.6	298.15	.007508	
.6	303.15	.008946	
.6	308.15	.0106	
.6	313.15	.01233	
.6	318.15	.01442	
.6	323.15	.01691	
.8	273.15	.001772	
.8	278.15	.002075	
.8	283.15	.002537	
.8	288.15	.003172	
.8	293.15	.003988	
.8	298.15	.004821	
.8	303.15	.005946	
.8	308.15	.007193	
.8	313.15	.009011	
.8	318.15	.0107	
.8	323.15	.01268	
1	273.15	.000977	
1	278.15	.001089	
1	283.15	.001452	
1	288.15	.001729	
1	293.15	.002281	
1	298.15	.002738	
1	303.15	.003176	
1	308.15	.003952	
1	313.15	.004665	
1	318.15	.005581	
1	323.15	.006609	

System: isopropanol + sodium 2,4-diaminobenzenesulfonate + water; phases: Liquid, Crystal
Fixed: Pressure, kPa = 100.6
Property: Mole fraction of sodium 2,4-diaminobenzenesulfonate (Liquid); method: Chromatography
Solvent: Mass fraction of isopropanol	Temperature, K	Mole fraction of sodium 2,4-diaminobenzenesulfonate	uncertainty
.2	273.15	.001694	
.2	278.15	.001876	
.2	283.15	.002182	
.2	288.15	.002585	
.2	293.15	.003054	
.2	298.15	.003583	
.2	303.15	.004053	
.2	308.15	.004915	
.2	313.15	.005776	
.2	318.15	.006586	
.2	323.15	.007454	
.4	273.15	.0004871	
.4	278.15	.0005642	
.4	283.15	.0006965	
.4	288.15	.0008288	
.4	293.15	.0009448	
.4	298.15	.001151	
.4	303.15	.001343	
.4	308.15	.001551	
.4	313.15	.001803	
.4	318.15	.002096	
.4	323.15	.002377	
.6	273.15	.0001804	
.6	278.15	.0002144	
.6	283.15	.0002689	
.6	288.15	.0003243	
.6	293.15	.0003817	
.6	298.15	.0004821	
.6	303.15	.0005642	
.6	308.15	.0006722	
.6	313.15	.0007965	
.6	318.15	.0009359	
.6	323.15	.001134	
.797	273.15	.00006063	
.797	278.15	.00007492	
.797	283.15	.00009501	
.797	288.15	.0001351	
.797	293.15	.0001619	
.797	298.15	.0002173	
.797	303.15	.0002813	
.797	308.15	.0003406	
.797	313.15	.0004161	
.797	318.15	.0004971	
.797	323.15	.0006003	
1	273.15	.00002195	
1	278.15	.00002781	
1	283.15	.00003513	
1	288.15	.00004429	
1	293.15	.00005571	
1	298.15	.00006992	
1	303.15	.00008757	
1	308.15	.0001094	
1	313.15	.0001364	
1	318.15	.0001698	
1	323.15	.0002108	

System: 1,2-propanediol + sodium 2,4-diaminobenzenesulfonate + water; phases: Liquid, Crystal
Fixed: Pressure, kPa = 100.6
Property: Mole fraction of sodium 2,4-diaminobenzenesulfonate (Liquid); method: Chromatography
Solvent: Mass fraction of 1,2-propanediol	Temperature, K	Mole fraction of sodium 2,4-diaminobenzenesulfonate	uncertainty
.2	273.15	.007471	
.2	278.15	.008882	
.2	283.15	.01136	
.2	288.15	.01383	
.2	293.15	.01585	
.2	298.15	.01749	
.2	303.15	.02022	
.2	308.15	.02279	
.2	313.15	.02593	
.2	318.15	.03002	
.2	323.15	.03255	
.4	273.15	.004764	
.4	278.15	.006017	
.4	283.15	.008063	
.4	288.15	.01002	
.4	293.15	.01256	
.4	298.15	.01409	
.4	303.15	.01562	
.4	308.15	.01757	
.4	313.15	.02092	
.4	318.15	.02371	
.4	323.15	.02764	
.599	273.15	.003094	
.599	278.15	.003816	
.599	283.15	.004889	
.599	288.15	.007016	
.599	293.15	.008757	
.599	298.15	.01021	
.599	303.15	.01167	
.599	308.15	.01351	
.599	313.15	.01577	
.599	318.15	.01799	
.599	323.15	.02127	
.803	273.15	.001326	
.803	278.15	.002053	
.803	283.15	.003289	
.803	288.15	.004031	
.803	293.15	.005577	
.803	298.15	.006246	
.803	303.15	.007383	
.803	308.15	.008718	
.803	313.15	.01078	
.803	318.15	.01228	
.803	323.15	.01572	
1	273.15	.0008312	
1	278.15	.001215	
1	283.15	.001448	
1	288.15	.001963	
1	293.15	.002347	
1	298.15	.002804	
1	303.15	.003595	
1	308.15	.004311	
1	313.15	.005766	
1	318.15	.007491	
1	323.15	.009629	

System: methanol + sodium 2,4-diaminobenzenesulfonate; phases: Liquid, Crystal
Property: Mole fraction of sodium 2,4-diaminobenzenesulfonate (Liquid); method: Chromatography
Temperature, K	Pressure, kPa	Mole fraction of sodium 2,4-diaminobenzenesulfonate	uncertainty
273.15	100.6	.000977	
278.15	100.6	.001089	
283.15	100.6	.001452	
288.15	100.6	.001729	
293.15	100.6	.002281	
298.15	100.6	.002738	
303.15	100.6	.003176	
308.15	100.6	.003952	
313.15	100.6	.004665	
318.15	100.6	.005581	
323.15	100.6	.006609	

System: isopropanol + sodium 2,4-diaminobenzenesulfonate; phases: Liquid, Crystal
Property: Mole fraction of sodium 2,4-diaminobenzenesulfonate (Liquid); method: Chromatography
Temperature, K	Pressure, kPa	Mole fraction of sodium 2,4-diaminobenzenesulfonate	uncertainty
273.15	100.6	.00002195	
278.15	100.6	.00002781	
283.15	100.6	.00003513	
288.15	100.6	.00004429	
293.15	100.6	.00005571	
298.15	100.6	.00006992	
303.15	100.6	.00008757	
308.15	100.6	.0001094	
313.15	100.6	.0001364	
318.15	100.6	.0001698	
323.15	100.6	.0002108	

System: 1,2-propanediol + sodium 2,4-diaminobenzenesulfonate; phases: Liquid, Crystal
Property: Mole fraction of sodium 2,4-diaminobenzenesulfonate (Liquid); method: Chromatography
Temperature, K	Pressure, kPa	Mole fraction of sodium 2,4-diaminobenzenesulfonate	uncertainty
273.15	100.6	.0008312	
278.15	100.6	.001215	
283.15	100.6	.001448	
288.15	100.6	.001963	
293.15	100.6	.002347	
298.15	100.6	.002804	
303.15	100.6	.003595	
308.15	100.6	.004311	
313.15	100.6	.005766	
318.15	100.6	.007491	
323.15	100.6	.009629	
