Measured thermophysical data. Excess thermodynamic properties of ionic liquid 1-butyl-3-methylimidazolium tetrafluoroborate and N-octyl-2-pyrrolidone from T = (298.15 to 323.15) K at atmospheric pressure
Source: J. Chem. Thermodyn., 2015, 10.1016/j.jct.2015.06.005
Compound 1: 1-butyl-3-methylimidazolium tetrafluoroborate, C8H15BF4N2, purity 99%
Compound 2: N-octyl-2-pyrrolidone, C12H23NO, purity 98%

System: N-octyl-2-pyrrolidone; phases: Liquid
Property: Mass density, kg/m3 (Liquid); method: Vibrating tube method
Temperature, K	Pressure, kPa	Mass density, kg/m3	uncertainty
298.15	100	918.45	.5
303.15	100	914.8	.5
308.15	100	911.14	.5
313.15	100	907.49	.5
318.15	100	903.83	.5
323.15	100	900.17	.5

System: N-octyl-2-pyrrolidone; phases: Liquid
Property: Refractive index (Na D-line) (Liquid); method: Standard Abbe refractometry
Temperature, K	Pressure, kPa	Refractive index (Na D-line)	uncertainty
298.15	100	1.46346	.0004
303.15	100	1.46152	.0004
308.15	100	1.45955	.0004
313.15	100	1.45761	.0004
318.15	100	1.45564	.0004
323.15	100	1.45367	.0004

System: N-octyl-2-pyrrolidone; phases: Liquid
Fixed: Frequency, MHz = 3
Property: Speed of sound, m/s (Liquid); method: Sing-around technique in a fixed-path interferometer
Temperature, K	Pressure, kPa	Speed of sound, m/s	uncertainty
298.15	100	1450.18	3
303.15	100	1432.64	3
308.15	100	1415.26	3
313.15	100	1398.02	3
318.15	100	1380.92	3
323.15	100	1363.97	3

System: N-octyl-2-pyrrolidone + 1-butyl-3-methylimidazolium tetrafluoroborate; phases: Liquid
Fixed: Pressure, kPa = 100
Property: Mass density, kg/m3 (Liquid); method: Vibrating tube method
Temperature, K	Mole fraction of 1-butyl-3-methylimidazolium tetrafluoroborate	Mass density, kg/m3	uncertainty
298.15	0	918.45	.5
298.15	.1084	945.54	.5
298.15	.196	965.52	.5
298.15	.3023	991.51	.5
298.15	.4087	1020.1	.5
298.15	.5064	1045.47	.5
298.15	.6027	1074.31	.5
298.15	.6981	1103.56	.5
298.15	.7966	1133.07	.5
298.15	.8978	1164.87	.5
298.15	1	1198.78	.5
303.15	0	914.8	.5
303.15	.1084	941.91	.5
303.15	.196	961.89	.5
303.15	.3023	987.89	.5
303.15	.4087	1016.54	.5
303.15	.5064	1041.86	.5
303.15	.6027	1070.71	.5
303.15	.6981	1099.98	.5
303.15	.7966	1129.48	.5
303.15	.8978	1161.29	.5
303.15	1	1195.18	.5
308.15	0	911.14	.5
308.15	.1084	938.28	.5
308.15	.196	958.26	.5
308.15	.3023	984.27	.5
308.15	.4087	1012.96	.5
308.15	.5064	1038.25	.5
308.15	.6027	1067.16	.5
308.15	.6981	1096.42	.5
308.15	.7966	1125.91	.5
308.15	.8978	1157.71	.5
308.15	1	1191.6	.5
313.15	0	907.49	.5
313.15	.1084	934.64	.5
313.15	.196	954.63	.5
313.15	.3023	980.66	.5
313.15	.4087	1009.39	.5
313.15	.5064	1034.65	.5
313.15	.6027	1063.63	.5
313.15	.6981	1092.9	.5
313.15	.7966	1122.36	.5
313.15	.8978	1154.16	.5
313.15	1	1188.04	.5
318.15	0	903.83	.5
318.15	.1084	931.01	.5
318.15	.196	951.01	.5
318.15	.3023	977.05	.5
318.15	.4087	1005.86	.5
318.15	.5064	1031.07	.5
318.15	.6027	1060.13	.5
318.15	.6981	1089.38	.5
318.15	.7966	1118.83	.5
318.15	.8978	1150.62	.5
318.15	1	1184.5	.5
323.15	0	900.17	.5
323.15	.1084	927.39	.5
323.15	.196	947.4	.5
323.15	.3023	973.44	.5
323.15	.4087	1002.29	.5
323.15	.5064	1027.48	.5
323.15	.6027	1056.67	.5
323.15	.6981	1085.86	.5
323.15	.7966	1115.32	.5
323.15	.8978	1147.1	.5
323.15	1	1180.98	.5

System: N-octyl-2-pyrrolidone + 1-butyl-3-methylimidazolium tetrafluoroborate; phases: Liquid
Fixed: Pressure, kPa = 100
Property: Refractive index (Na D-line) (Liquid); method: Standard Abbe refractometry
Temperature, K	Mole fraction of 1-butyl-3-methylimidazolium tetrafluoroborate	Refractive index (Na D-line)	uncertainty
298.15	0	1.46346	.0004
298.15	.1084	1.46095	.0004
298.15	.196	1.45803	.0004
298.15	.3023	1.45399	.0004
298.15	.4087	1.44986	.0004
298.15	.5064	1.44556	.0004
298.15	.6027	1.44155	.0004
298.15	.6981	1.43713	.0004
298.15	.7966	1.43209	.0004
298.15	.8978	1.42695	.0004
298.15	1	1.42058	.0004
303.15	0	1.46152	.0004
303.15	.1084	1.45882	.0004
303.15	.196	1.45622	.0004
303.15	.3023	1.45226	.0004
303.15	.4087	1.4482	.0004
303.15	.5064	1.44392	.0004
303.15	.6027	1.43996	.0004
303.15	.6981	1.43564	.0004
303.15	.7966	1.4307	.0004
303.15	.8978	1.42526	.0004
303.15	1	1.41913	.0004
308.15	0	1.45955	.0004
308.15	.1084	1.45675	.0004
308.15	.196	1.45433	.0004
308.15	.3023	1.45051	.0004
308.15	.4087	1.44653	.0004
308.15	.5064	1.4423	.0004
308.15	.6027	1.43842	.0004
308.15	.6981	1.43416	.0004
308.15	.7966	1.42923	.0004
308.15	.8978	1.42379	.0004
308.15	1	1.41764	.0004
313.15	0	1.45761	.0004
313.15	.1084	1.45482	.0004
313.15	.196	1.45243	.0004
313.15	.3023	1.44871	.0004
313.15	.4087	1.44484	.0004
313.15	.5064	1.44059	.0004
313.15	.6027	1.43681	.0004
313.15	.6981	1.43266	.0004
313.15	.7966	1.42777	.0004
313.15	.8978	1.4223	.0004
313.15	1	1.41621	.0004
318.15	0	1.45564	.0004
318.15	.1084	1.45292	.0004
318.15	.196	1.45054	.0004
318.15	.3023	1.44692	.0004
318.15	.4087	1.44312	.0004
318.15	.5064	1.43894	.0004
318.15	.6027	1.43513	.0004
318.15	.6981	1.43111	.0004
318.15	.7966	1.4263	.0004
318.15	.8978	1.4208	.0004
318.15	1	1.41472	.0004
323.15	0	1.45367	.0004
323.15	.1084	1.45088	.0004
323.15	.196	1.44862	.0004
323.15	.3023	1.44512	.0004
323.15	.4087	1.44146	.0004
323.15	.5064	1.43731	.0004
323.15	.6027	1.43346	.0004
323.15	.6981	1.42954	.0004
323.15	.7966	1.42478	.0004
323.15	.8978	1.41935	.0004
323.15	1	1.4133	.0004

System: N-octyl-2-pyrrolidone + 1-butyl-3-methylimidazolium tetrafluoroborate; phases: Liquid
Fixed: Pressure, kPa = 100
Fixed: Frequency, MHz = 3
Property: Speed of sound, m/s (Liquid); method: Sing-around technique in a fixed-path interferometer
Temperature, K	Mole fraction of 1-butyl-3-methylimidazolium tetrafluoroborate	Speed of sound, m/s	uncertainty
298.15	0	1450.18	3
298.15	.1084	1454.91	3
298.15	.196	1457.41	3
298.15	.3023	1461.31	3
298.15	.4087	1467.54	3
298.15	.5064	1473.98	3
298.15	.6027	1485.83	3
298.15	.6981	1499.89	3
298.15	.7966	1517.59	3
298.15	.8978	1539.8	3
298.15	1	1565.09	3
303.15	0	1432.64	3
303.15	.1084	1438.3	3
303.15	.196	1441.26	3
303.15	.3023	1445.32	3
303.15	.4087	1452.1	3
303.15	.5064	1459.23	3
303.15	.6027	1471.69	3
303.15	.6981	1486.01	3
303.15	.7966	1504.48	3
303.15	.8978	1527.3	3
303.15	1	1553.15	3
308.15	0	1415.26	3
308.15	.1084	1421.62	3
308.15	.196	1424.89	3
308.15	.3023	1429.44	3
308.15	.4087	1436.78	3
308.15	.5064	1444.41	3
308.15	.6027	1457.44	3
308.15	.6981	1472.33	3
308.15	.7966	1491.42	3
308.15	.8978	1514.89	3
308.15	1	1541.35	3
313.15	0	1398.02	3
313.15	.1084	1405.02	3
313.15	.196	1408.71	3
313.15	.3023	1413.73	3
313.15	.4087	1421.64	3
313.15	.5064	1429.7	3
313.15	.6027	1443.34	3
313.15	.6981	1458.81	3
313.15	.7966	1478.58	3
313.15	.8978	1502.65	3
313.15	1	1529.69	3
318.15	0	1380.92	3
318.15	.1084	1388.6	3
318.15	.196	1392.66	3
318.15	.3023	1398.17	3
318.15	.4087	1406.61	3
318.15	.5064	1415.18	3
318.15	.6027	1429.4	3
318.15	.6981	1445.47	3
318.15	.7966	1465.86	3
318.15	.8978	1490.56	3
318.15	1	1518.19	3
323.15	0	1363.97	3
323.15	.1084	1372.28	3
323.15	.196	1376.71	3
323.15	.3023	1382.73	3
323.15	.4087	1391.76	3
323.15	.5064	1400.77	3
323.15	.6027	1415.61	3
323.15	.6981	1432.24	3
323.15	.7966	1453.32	3
323.15	.8978	1478.64	3
323.15	1	1506.8	3
