Measured thermophysical data. (Vapour + liquid) equilibrium and excess Gibbs functions of ternary mixtures  containing 1-butanol or 2-butanol, n-hexane, and 1-chlorobutane at T = 298.15 K
Source: J. Chem. Thermodyn., 2009, 10.1016/j.jct.2009.04.005
Compound 1: butan-1-ol, C4H10O, purity 99.8%
Compound 2: hexane, C6H14, purity 99%
Compound 3: 1-chlorobutane, C4H9Cl, purity 99%
Compound 4: butan-2-ol, C4H10O, purity 99%

System: butan-1-ol; phases: Liquid, Gas
Property: Vapor or sublimation pressure, kPa (Liquid); method: Closed cell (Static) method
Temperature, K	Vapor or sublimation pressure, kPa	uncertainty
298.15	.91	.005

System: butan-1-ol; phases: Liquid, Gas
Property: Mass density, kg/m3 (Liquid); method: Vibrating tube method
Temperature, K	Mass density, kg/m3	uncertainty
298.15	805.802	

System: hexane; phases: Liquid, Gas
Property: Vapor or sublimation pressure, kPa (Liquid); method: Closed cell (Static) method
Temperature, K	Vapor or sublimation pressure, kPa	uncertainty
298.15	20.22	.005

System: hexane; phases: Liquid, Gas
Property: Mass density, kg/m3 (Liquid); method: Vibrating tube method
Temperature, K	Mass density, kg/m3	uncertainty
298.15	654.96	

System: 1-chlorobutane; phases: Liquid, Gas
Property: Vapor or sublimation pressure, kPa (Liquid); method: Closed cell (Static) method
Temperature, K	Vapor or sublimation pressure, kPa	uncertainty
298.15	13.515	.005

System: 1-chlorobutane; phases: Liquid, Gas
Property: Mass density, kg/m3 (Liquid); method: Vibrating tube method
Temperature, K	Mass density, kg/m3	uncertainty
298.15	880.805	

System: butan-2-ol; phases: Liquid, Gas
Property: Vapor or sublimation pressure, kPa (Liquid); method: Closed cell (Static) method
Temperature, K	Vapor or sublimation pressure, kPa	uncertainty
298.15	2.34	.005

System: butan-2-ol; phases: Liquid, Gas
Property: Mass density, kg/m3 (Liquid); method: Vibrating tube method
Temperature, K	Mass density, kg/m3	uncertainty
298.15	802.451	

System: butan-1-ol + 1-chlorobutane + hexane; phases: Liquid, Gas
Property: Mole fraction of hexane (Liquid); method: Density calibration data
Property: Mole fraction of hexane (Gas); method: Density calibration data
Property: Mole fraction of butan-1-ol (Gas); method: Density calibration data
Temperature, K	Pressure, kPa	Mole fraction of butan-1-ol	Mole fraction of hexane	uncertainty	Mole fraction of hexane	uncertainty	Mole fraction of butan-1-ol	uncertainty
298.15	6.405	.886	.033	.001	.404	.001	.121	.001
298.15	19.345	.307	.678	.001	.955	.001	.03	.001
298.15	11.105	.711	.059	.001	.324	.001	.076	.001
298.15	13.18	.673	.119	.001	.499	.001	.045	.001
298.15	15.455	.608	.204	.001	.633	.001	.028	.001
298.15	16.385	.566	.265	.001	.709	.001	.034	.001
298.15	17.395	.509	.34	.001	.764	.001	.033	.001
298.15	18.11	.449	.421	.001	.812	.001	.036	.001
298.15	18.54	.401	.485	.001	.839	.001	.037	.001
298.15	18.955	.349	.555	.001	.867	.001	.033	.001
298.15	19.275	.289	.605	.001	.868	.001	.03	.001
298.15	10.025	.827	.094	.001	.649	.001	.087	.001
298.15	19.505	.239	.705	.001	.914	.001	.031	.001
298.15	12.69	.523	.056	.001	.206	.001	.065	.001
298.15	14.89	.475	.135	.001	.4	.001	.054	.001
298.15	16.3	.433	.222	.001	.521	.001	.037	.001
298.15	17.565	.37	.332	.001	.628	.001	.019	.001
298.15	18.265	.324	.419	.001	.697	.001	.031	.001
298.15	18.905	.277	.51	.001	.756	.001	.03	.001
298.15	19.38	.233	.601	.001	.801	.001	.03	.001
298.15	19.765	.18	.702	.001	.858	.001	.029	.001
298.15	20.045	.12	.801	.001	.902	.001	.026	.001
298.15	13.21	.759	.17	.001	.758	.001	.067	.001
298.15	14.005	.306	.087	.001	.215	.001	.045	.001
298.15	14.75	.293	.112	.001	.273	.001	.047	.001
298.15	16.34	.269	.206	.001	.42	.001	.041	.001
298.15	17.15	.242	.287	.001	.499	.001	.025	.001
298.15	17.915	.224	.361	.001	.576	.001	.028	.001
298.15	18.41	.199	.427	.001	.615	.001	.028	.001
298.15	18.95	.173	.504	.001	.675	.001	.03	.001
298.15	19.25	.146	.584	.001	.724	.001	.035	.001
298.15	19.72	.113	.675	.001	.785	.001	.019	.001
298.15	20	.085	.758	.001	.818	.001	.019	.001
298.15	15.065	.701	.233	.001	.821	.001	.036	.001
298.15	14.495	.096	.092	.001	.189	.001	.07	.001
298.15	15.135	.094	.104	.001	.201	.001	.05	.001
298.15	16.39	.092	.2	.001	.343	.001	.042	.001
298.15	17.185	.086	.276	.001	.444	.001	.048	.001
298.15	17.605	.08	.327	.001	.472	.001	.042	.001
298.15	18.13	.073	.383	.001	.52	.001	.033	.001
298.15	18.65	.066	.452	.001	.578	.001	.03	.001
298.15	19.485	.031	.608	.001	.688	.001	.021	.001
298.15	19.97	.011	.736	.001	.778	.001	.01	.001
298.15	16.63	.627	.314	.001	.867	.001	.039	.001
298.15	17.515	.558	.389	.001	.89	.001	.035	.001
298.15	18.015	.512	.442	.001	.909	.001	.036	.001
298.15	18.655	.447	.517	.001	.925	.001	.031	.001
298.15	19.09	.37	.605	.001	.941	.001	.035	.001

System: butan-2-ol + 1-chlorobutane + hexane; phases: Liquid, Gas
Property: Mole fraction of hexane (Liquid); method: Density calibration data
Property: Mole fraction of hexane (Gas); method: Density calibration data
Property: Mole fraction of butan-2-ol (Gas); method: Density calibration data
Temperature, K	Pressure, kPa	Mole fraction of butan-2-ol	Mole fraction of hexane	uncertainty	Mole fraction of hexane	uncertainty	Mole fraction of butan-2-ol	uncertainty
298.15	7.075	.899	.027	.001	.315	.001	.305	.001
298.15	13.905	.663	.117	.001	.448	.001	.129	.001
298.15	15.945	.596	.207	.001	.583	.001	.094	.001
298.15	17.565	.509	.319	.001	.678	.001	.086	.001
298.15	18.295	.452	.395	.001	.731	.001	.078	.001
298.15	18.925	.394	.474	.001	.779	.001	.07	.001
298.15	19.295	.346	.546	.001	.812	.001	.069	.001
298.15	19.855	.284	.637	.001	.848	.001	.068	.001
298.15	20.045	.244	.723	.001	.892	.001	.065	.001
298.15	20.175	.203	.759	.001	.891	.001	.061	.001
298.15	13.405	.512	.057	.001	.196	.001	.12	.001
298.15	12.505	.799	.123	.001	.632	.001	.171	.001
298.15	15.585	.459	.154	.001	.388	.001	.088	.001
298.15	17.115	.408	.257	.001	.52	.001	.074	.001
298.15	18.165	.346	.354	.001	.62	.001	.059	.001
298.15	18.805	.314	.433	.001	.654	.001	.058	.001
298.15	19.335	.287	.519	.001	.736	.001	.063	.001
298.15	20.065	.185	.634	.001	.782	.001	.051	.001
298.15	14.34	.313	.051	.001	.133	.001	.096	.001
298.15	15.12	.3	.096	.001	.216	.001	.089	.001
298.15	16.605	.269	.19	.001	.368	.001	.075	.001
298.15	17.645	.245	.276	.001	.469	.001	.065	.001
298.15	14.4	.752	.181	.001	.71	.001	.145	.001
298.15	18.425	.231	.348	.001	.551	.001	.058	.001
298.15	19.13	.217	.447	.001	.636	.001	.053	.001
298.15	19.49	.158	.522	.001	.667	.001	.058	.001
298.15	20.105	.067	.668	.001	.741	.001	.034	.001
298.15	20.505	.047	.781	.001	.82	.001	.025	.001
298.15	20.615	.016	.856	.001	.868	.001	.016	.001
298.15	14.79	.105	.057	.001	.116	.001	.073	.001
298.15	15.56	.095	.105	.001	.193	.001	.074	.001
298.15	16.605	.088	.185	.001	.314	.001	.063	.001
298.15	17.365	.073	.255	.001	.383	.001	.05	.001
298.15	17.415	.61	.332	.001	.802	.001	.105	.001
298.15	18.075	.068	.329	.001	.457	.001	.053	.001
298.15	18.6	.063	.398	.001	.529	.001	.025	.001
298.15	19.145	.097	.444	.001	.558	.001	.084	.001
298.15	19.565	.058	.547	.001	.628	.001	.072	.001
298.15	20.105	.05	.654	.001	.711	.001	.043	.001
298.15	20.31	.036	.725	.001	.764	.001	.017	.001
298.15	19.165	.407	.558	.001	.877	.001	.082	.001
298.15	20.155	.202	.777	.001	.92	.001	.068	.001
298.15	20.205	.2	.721	.001	.847	.001	.063	.001
298.15	20.325	.146	.799	.001	.886	.001	.057	.001
298.15	11.945	.702	.054	.001	.266	.001	.163	.001
