Measured thermophysical data. Study on thermo physical and excess molar properties of binary systems of ionic liquids. I: [Cnmim][PF6] (n = 6, 8) and alkyl acetates
Source: J. Chem. Thermodyn., 2014, 10.1016/j.jct.2014.01.012
Compound 1: 1-methyl-3-octylimidazolium hexafluorophosphate, C12H23F6N2P
Compound 2: 1-hexyl-3-methylimidazolium hexafluorophosphate, C10H19F6N2P
Compound 3: ethyl acetate, C4H8O2, purity 99.5%
Compound 4: butyl acetate, C6H12O2, purity 99%

System: 1-methyl-3-octylimidazolium hexafluorophosphate; phases: Liquid
Fixed: Pressure, kPa = 101.325
Property: Mass density, kg/m3 (Liquid); method: Vibrating tube method
Temperature, K	Mass density, kg/m3	uncertainty
293.15	1222.808	
298.15	1218.896	
303.15	1214.965	
308.15	1211.134	
313.15	1207.326	
318.15	1203.498	
323.15	1199.667	

System: 1-methyl-3-octylimidazolium hexafluorophosphate; phases: Liquid
Fixed: Pressure, kPa = 101.325
Property: Refractive index (Na D-line) (Liquid); method: Standard Abbe refractometry
Temperature, K	Refractive index (Na D-line)	uncertainty
293.15	1.42649	
298.15	1.42512	
303.15	1.42376	
308.15	1.4224	
313.15	1.42103	
318.15	1.41967	
323.15	1.41831	

System: 1-methyl-3-octylimidazolium hexafluorophosphate; phases: Liquid
Fixed: Pressure, kPa = 101.325
Property: Speed of sound, m/s (Liquid); method: Sing-around technique in a fixed-path interferometer
Temperature, K	Speed of sound, m/s	uncertainty
293.15	1388.15	
298.15	1373.39	
303.15	1359.34	
308.15	1345.81	
313.15	1332.74	
318.15	1320.06	
323.15	1307.67	

System: 1-hexyl-3-methylimidazolium hexafluorophosphate; phases: Liquid
Fixed: Pressure, kPa = 101.325
Property: Mass density, kg/m3 (Liquid); method: Vibrating tube method
Temperature, K	Mass density, kg/m3	uncertainty
293.15	1291.383	
298.15	1287.344	
303.15	1283.29	
308.15	1279.402	
313.15	1275.485	
318.15	1271.557	
323.15	1267.633	

System: 1-hexyl-3-methylimidazolium hexafluorophosphate; phases: Liquid
Fixed: Pressure, kPa = 101.325
Property: Refractive index (Na D-line) (Liquid); method: Standard Abbe refractometry
Temperature, K	Refractive index (Na D-line)	uncertainty
293.15	1.42064	
298.15	1.41935	
303.15	1.41806	
308.15	1.41676	
313.15	1.41547	
318.15	1.41417	
323.15	1.41288	

System: 1-hexyl-3-methylimidazolium hexafluorophosphate; phases: Liquid
Fixed: Pressure, kPa = 101.325
Property: Speed of sound, m/s (Liquid); method: Sing-around technique in a fixed-path interferometer
Temperature, K	Speed of sound, m/s	uncertainty
293.15	1436.92	
298.15	1423.53	
303.15	1410.63	
308.15	1398.18	
313.15	1386.04	
318.15	1374.16	
323.15	1362.47	

System: ethyl acetate; phases: Liquid
Fixed: Pressure, kPa = 101.325
Property: Mass density, kg/m3 (Liquid); method: Vibrating tube method
Temperature, K	Mass density, kg/m3	uncertainty
293.15	900.573	
298.15	894.473	
303.15	888.347	
308.15	882.172	
313.15	875.951	
318.15	869.681	
323.15	863.358	

System: ethyl acetate; phases: Liquid
Fixed: Pressure, kPa = 101.325
Property: Refractive index (Na D-line) (Liquid); method: Standard Abbe refractometry
Temperature, K	Refractive index (Na D-line)	uncertainty
293.15	1.37237	
298.15	1.36982	
303.15	1.36727	
308.15	1.36473	
313.15	1.36219	
318.15	1.35968	
323.15	1.35732	

System: ethyl acetate; phases: Liquid
Fixed: Pressure, kPa = 101.325
Property: Speed of sound, m/s (Liquid); method: Sing-around technique in a fixed-path interferometer
Temperature, K	Speed of sound, m/s	uncertainty
293.15	1162.43	.5
298.15	1139.77	.5
303.15	1117.22	.5
308.15	1094.74	.5
313.15	1072.39	.5
318.15	1050.14	.5
323.15	1028	.5

System: butyl acetate; phases: Liquid
Fixed: Pressure, kPa = 101.325
Property: Mass density, kg/m3 (Liquid); method: Vibrating tube method
Temperature, K	Mass density, kg/m3	uncertainty
293.15	881.134	
298.15	876.004	
303.15	870.855	
308.15	865.685	
313.15	860.492	
318.15	855.275	
323.15	850.032	

System: butyl acetate; phases: Liquid
Fixed: Pressure, kPa = 101.325
Property: Refractive index (Na D-line) (Liquid); method: Standard Abbe refractometry
Temperature, K	Refractive index (Na D-line)	uncertainty
293.15	1.39428	
298.15	1.39188	
303.15	1.38948	
308.15	1.3871	
313.15	1.38469	
318.15	1.38227	
323.15	1.37984	

System: butyl acetate; phases: Liquid
Fixed: Pressure, kPa = 101.325
Property: Speed of sound, m/s (Liquid); method: Sing-around technique in a fixed-path interferometer
Temperature, K	Speed of sound, m/s	uncertainty
293.15	1211.35	.5
298.15	1190.53	.5
303.15	1169.82	.5
313.15	1128.79	.5
318.15	1108.5	.5
323.15	1088.33	.5
308.15	1149.23	.5

System: ethyl acetate + 1-hexyl-3-methylimidazolium hexafluorophosphate; phases: Liquid
Fixed: Pressure, kPa = 101
Property: Mass density, kg/m3 (Liquid); method: Vibrating tube method
Temperature, K	Mole fraction of 1-hexyl-3-methylimidazolium hexafluorophosphate	Mass density, kg/m3	uncertainty
293.15	0	900.573	
293.15	.09053	985.573	
293.15	.17512	1047.273	
293.15	.27483	1103.273	
293.15	.36383	1142.323	
293.15	.47473	1181.823	
293.15	.59594	1215.823	
293.15	.69876	1239.423	
293.15	.77818	1254.923	
293.15	.87843	1272.573	
293.15	.9562	1285.173	
293.15	1	1291.383	
298.15	0	894.473	
298.15	.09053	980.708	
298.15	.17512	1042.71	
298.15	.27483	1098.95	
298.15	.36383	1138.08	
298.15	.47473	1177.55	
298.15	.59594	1211.68	
298.15	.69876	1235.47	
298.15	.77818	1251.3	
298.15	.87843	1269.096	
298.15	.9562	1281.27	
298.15	1	1287.344	
303.15	0	888.347	
303.15	.09053	975.56	
303.15	.17512	1037.99	
303.15	.27483	1094.55	
303.15	.36383	1133.41	
303.15	.47473	1173.05	
303.15	.59594	1207.51	
303.15	.69876	1231.55	
303.15	.77818	1247.62	
303.15	.87843	1265.46	
303.15	.9562	1277.49	
303.15	1	1283.29	
308.15	0	882.172	
308.15	.09053	970.46	
308.15	.17512	1033.19	
308.15	.27483	1089.85	
308.15	.36383	1128.89	
308.15	.47473	1168.92	
308.15	.59594	1203.511	
308.15	.69876	1227.75	
308.15	.77818	1243.95	
308.15	.87843	1261.82	
308.15	.9562	1273.69	
308.15	1	1279.402	
313.15	0	875.951	
313.15	.09053	964.46	
313.15	.17512	1027.59	
313.15	.27483	1084.79	
313.15	.36383	1124.28	
313.15	.47473	1164.75	
313.15	.59594	1199.65	
313.15	.69876	1224.15	
313.15	.77818	1240.32	
313.15	.87843	1258.46	
313.15	.9562	1270.35	
313.15	1	1275.485	
318.15	0	869.681	
318.15	.09053	960.532	
318.15	.17512	1023.798	
318.15	.27483	1080.456	
318.15	.36383	1119.612	
318.15	.47473	1160.235	
318.15	.59594	1195.59	
318.15	.69876	1220.56	
318.15	.77818	1236.862	
318.15	.87843	1254.52	
318.15	.9562	1266.02	
318.15	1	1271.557	
323.15	0	863.358	
323.15	.09053	955.246	
323.15	.17512	1018.76	
323.15	.27483	1075.54	
323.15	.36383	1114.899	
323.15	.47473	1155.924	
323.15	.59594	1191.86	
323.15	.69876	1217.053	
323.15	.77818	1233.69	
323.15	.87843	1251.25	
323.15	.9562	1262.25	
323.15	1	1267.633	

System: ethyl acetate + 1-hexyl-3-methylimidazolium hexafluorophosphate; phases: Liquid
Fixed: Pressure, kPa = 101
Property: Refractive index (Na D-line) (Liquid); method: Standard Abbe refractometry
Temperature, K	Mole fraction of 1-hexyl-3-methylimidazolium hexafluorophosphate	Refractive index (Na D-line)	uncertainty
293.15	0	1.37237	
293.15	.09053	1.38737	
293.15	.17512	1.39825	
293.15	.27483	1.40432	
293.15	.36383	1.40809	
293.15	.47473	1.41069	
293.15	.59594	1.41247	
293.15	.69876	1.41456	
293.15	.77818	1.41641	
293.15	.87843	1.41817	
293.15	.9562	1.42009	
293.15	1	1.42064	
298.15	0	1.36982	
298.15	.09053	1.38598	
298.15	.17512	1.39706	
298.15	.27483	1.40351	
298.15	.36383	1.40694	
298.15	.47473	1.40989	
298.15	.59594	1.41194	
298.15	.69876	1.41432	
298.15	.77818	1.41609	
298.15	.87843	1.41813	
298.15	.9562	1.41886	
298.15	1	1.41935	
303.15	0	1.36727	
303.15	.09053	1.38515	
303.15	.17512	1.39611	
303.15	.27483	1.402	
303.15	.36383	1.40594	
303.15	.47473	1.40899	
303.15	.59594	1.41159	
303.15	.69876	1.41357	
303.15	.77818	1.41526	
303.15	.87843	1.41735	
303.15	.9562	1.41756	
303.15	1	1.41806	
308.15	0	1.36473	
308.15	.09053	1.38415	
308.15	.17512	1.39519	
308.15	.27483	1.40105	
308.15	.36383	1.40487	
308.15	.47473	1.40784	
308.15	.59594	1.41107	
308.15	.69876	1.41273	
308.15	.77818	1.41451	
308.15	.87843	1.41622	
308.15	.9562	1.41629	
308.15	1	1.41676	
313.15	0	1.36219	
313.15	.09053	1.38344	
313.15	.17512	1.39414	
313.15	.27483	1.40023	
313.15	.36383	1.40397	
313.15	.47473	1.40699	
313.15	.59594	1.40998	
313.15	.69876	1.41182	
313.15	.77818	1.41389	
313.15	.87843	1.41498	
313.15	.9562	1.41507	
313.15	1	1.41547	
318.15	0	1.35968	
318.15	.09053	1.38227	
318.15	.17512	1.39389	
318.15	.27483	1.39983	
318.15	.36383	1.40319	
318.15	.47473	1.40607	
318.15	.59594	1.4091	
318.15	.69876	1.41087	
318.15	.77818	1.41215	
318.15	.87843	1.41315	
318.15	.9562	1.41377	
318.15	1	1.41417	
323.15	0	1.35732	
323.15	.09053	1.38202	
323.15	.17512	1.39323	
323.15	.27483	1.3989	
323.15	.36383	1.40308	
323.15	.47473	1.40548	
323.15	.59594	1.4082	
323.15	.69876	1.40995	
323.15	.77818	1.41181	
323.15	.87843	1.41252	
323.15	.9562	1.41258	
323.15	1	1.41288	

System: ethyl acetate + 1-hexyl-3-methylimidazolium hexafluorophosphate; phases: Liquid
Fixed: Pressure, kPa = 101
Property: Speed of sound, m/s (Liquid); method: Sing-around technique in a fixed-path interferometer
Temperature, K	Mole fraction of 1-hexyl-3-methylimidazolium hexafluorophosphate	Speed of sound, m/s	uncertainty
293.15	0	1162.43	.5
293.15	.09053	1203.76	.5
293.15	.17512	1245.08	.5
293.15	.27483	1278.59	.5
293.15	.36383	1312.1	.5
293.15	.47473	1341.9	.5
293.15	.59594	1369.53	.5
293.15	.69876	1390.19	.5
293.15	.77818	1404.4	.5
293.15	.87843	1417.23	.5
293.15	.9562	1428.12	.5
293.15	1	1436.92	.5
298.15	0	1139.77	.5
298.15	.09053	1182.89	.5
298.15	.17512	1226.01	.5
298.15	.27483	1260.87	.5
298.15	.36383	1295.73	.5
298.15	.47473	1326.91	.5
298.15	.59594	1355.6	.5
298.15	.69876	1376.82	.5
298.15	.77818	1388.5	.5
298.15	.87843	1402.53	.5
298.15	.9562	1414.12	.5
298.15	1	1423.53	.5
303.15	0	1117.22	.5
303.15	.09053	1162.13	.5
303.15	.17512	1207.04	.5
303.15	.27483	1243.09	.5
303.15	.36383	1279.14	.5
303.15	.47473	1312.09	.5
303.15	.59594	1341.74	.5
303.15	.69876	1363.6	.5
303.15	.77818	1375.36	.5
303.15	.87843	1388.12	.5
303.15	.9562	1402.6	.5
303.15	1	1410.63	.5
308.15	0	1094.74	.5
308.15	.09053	1141.46	.5
308.15	.17512	1188.17	.5
308.15	.27483	1225.74	.5
308.15	.36383	1261.3	.5
308.15	.47473	1297.41	.5
308.15	.59594	1327.98	.5
308.15	.69876	1350.56	.5
308.15	.77818	1365	.5
308.15	.87843	1375.12	.5
308.15	.9562	1391.04	.5
308.15	1	1398.18	.5
313.15	0	1072.39	.5
313.15	.09053	1120.91	.5
313.15	.17512	1169.43	.5
313.15	.27483	1208.48	.5
313.15	.36383	1246.52	.5
313.15	.47473	1282.85	.5
313.15	.59594	1313.77	.5
313.15	.69876	1337.7	.5
313.15	.77818	1349.79	.5
313.15	.87843	1359.6	.5
313.15	.9562	1378.04	.5
313.15	1	1386.04	.5
318.15	0	1050.14	.5
318.15	.09053	1100.48	.5
318.15	.17512	1150.81	.5
318.15	.27483	1191.34	.5
318.15	.36383	1231.87	.5
318.15	.47473	1268.44	.5
318.15	.59594	1300.31	.5
318.15	.69876	1324.76	.5
318.15	.77818	1337.11	.5
318.15	.87843	1348.37	.5
318.15	.9562	1366	.5
318.15	1	1374.16	.5
323.15	0	1028	.5
323.15	.09053	1080.15	.5
323.15	.17512	1132.29	.5
323.15	.27483	1174.31	.5
323.15	.36383	1216.33	.5
323.15	.47473	1254.15	.5
323.15	.59594	1287.2	.5
323.15	.69876	1311.74	.5
323.15	.77818	1324.42	.5
323.15	.87843	1335.43	.5
323.15	.9562	1355.09	.5
323.15	1	1362.47	.5

System: butyl acetate + 1-hexyl-3-methylimidazolium hexafluorophosphate; phases: Liquid
Fixed: Pressure, kPa = 101
Property: Mass density, kg/m3 (Liquid); method: Vibrating tube method
Temperature, K	Mole fraction of 1-hexyl-3-methylimidazolium hexafluorophosphate	Mass density, kg/m3	uncertainty
293.15	0	881.134	
293.15	.0956	951.75	
293.15	.1919	1012.577	
293.15	.273	1056.816	
293.15	.3698	1103.117	
293.15	.4639	1141.871	
293.15	.5701	1179.573	
293.15	.6787	1213.072	
293.15	.7746	1239.195	
293.15	.8707	1262.734	
293.15	.9354	1277.656	
293.15	1	1291.383	
298.15	0	876.004	
298.15	.0956	947.32	
298.15	.1919	1008.36	
298.15	.273	1052.6	
298.15	.3698	1098.761	
298.15	.4639	1137.507	
298.15	.5701	1175.406	
298.15	.6787	1209.237	
298.15	.7746	1235.563	
298.15	.8707	1259.268	
298.15	.9354	1273.926	
298.15	1	1287.344	
303.15	0	870.855	
303.15	.0956	942.923	
303.15	.1919	1004.08	
303.15	.273	1048.363	
303.15	.3698	1094.298	
303.15	.4639	1133.199	
303.15	.5701	1171.254	
303.15	.6787	1205.236	
303.15	.7746	1231.689	
303.15	.8707	1255.397	
303.15	.9354	1270.132	
303.15	1	1283.29	
308.15	0	865.685	
308.15	.0956	938.4	
308.15	.1919	999.626	
308.15	.273	1043.861	
308.15	.3698	1089.956	
308.15	.4639	1128.944	
308.15	.5701	1167.432	
308.15	.6787	1201.356	
308.15	.7746	1227.887	
308.15	.8707	1251.384	
308.15	.9354	1265.979	
308.15	1	1279.402	
313.15	0	860.492	
313.15	.0956	933.877	
313.15	.1919	995.525	
313.15	.273	1039.841	
313.15	.3698	1085.952	
313.15	.4639	1124.724	
313.15	.5701	1163.392	
313.15	.6787	1197.756	
313.15	.7746	1224.587	
313.15	.8707	1248.254	
313.15	.9354	1262.679	
313.15	1	1275.485	
318.15	0	855.275	
318.15	.0956	929.385	
318.15	.1919	991.164	
318.15	.273	1035.442	
318.15	.3698	1081.668	
318.15	.4639	1120.612	
318.15	.5701	1159.18	
318.15	.6787	1193.949	
318.15	.7746	1220.999	
318.15	.8707	1244.789	
318.15	.9354	1258.893	
318.15	1	1271.557	
323.15	0	850.032	
323.15	.0956	924.824	
323.15	.1919	986.823	
323.15	.273	1031.158	
323.15	.3698	1077.598	
323.15	.4639	1116.432	
323.15	.5701	1155.279	
323.15	.6787	1190.265	
323.15	.7746	1217.392	
323.15	.8707	1241.098	
323.15	.9354	1255.097	
323.15	1	1267.633	

System: butyl acetate + 1-hexyl-3-methylimidazolium hexafluorophosphate; phases: Liquid
Fixed: Pressure, kPa = 101
Property: Refractive index (Na D-line) (Liquid); method: Standard Abbe refractometry
Temperature, K	Mole fraction of 1-hexyl-3-methylimidazolium hexafluorophosphate	Refractive index (Na D-line)	uncertainty
293.15	0	1.39428	
293.15	.0956	1.40012	
293.15	.1919	1.40555	
293.15	.273	1.40899	
293.15	.3698	1.41222	
293.15	.4639	1.41432	
293.15	.5701	1.41616	
293.15	.6787	1.41768	
293.15	.7746	1.41841	
293.15	.8707	1.41937	
293.15	.9354	1.41972	
293.15	1	1.42064	
298.15	0	1.39188	
298.15	.0956	1.39835	
298.15	.1919	1.40397	
298.15	.273	1.40746	
298.15	.3698	1.41064	
298.15	.4639	1.41299	
298.15	.5701	1.41482	
298.15	.6787	1.41633	
298.15	.7746	1.41727	
298.15	.8707	1.41819	
298.15	.9354	1.41876	
298.15	1	1.41935	
303.15	0	1.38948	
303.15	.0956	1.39654	
303.15	.1919	1.40209	
303.15	.273	1.40564	
303.15	.3698	1.40899	
303.15	.4639	1.41138	
303.15	.5701	1.41349	
303.15	.6787	1.41519	
303.15	.7746	1.41623	
303.15	.8707	1.41713	
303.15	.9354	1.41773	
303.15	1	1.41806	
308.15	0	1.3871	
308.15	.0956	1.39469	
308.15	.1919	1.40028	
308.15	.273	1.40392	
308.15	.3698	1.40735	
308.15	.4639	1.40987	
308.15	.5701	1.41215	
308.15	.6787	1.41385	
308.15	.7746	1.41512	
308.15	.8707	1.41606	
308.15	.9354	1.41651	
308.15	1	1.41676	
313.15	0	1.38469	
313.15	.0956	1.39293	
313.15	.1919	1.39856	
313.15	.273	1.40223	
313.15	.3698	1.40568	
313.15	.4639	1.40837	
313.15	.5701	1.41074	
313.15	.6787	1.41265	
313.15	.7746	1.41392	
313.15	.8707	1.41477	
313.15	.9354	1.41522	
313.15	1	1.41547	
318.15	0	1.38227	
318.15	.0956	1.39102	
318.15	.1919	1.39677	
318.15	.273	1.40049	
318.15	.3698	1.40401	
318.15	.4639	1.40682	
318.15	.5701	1.40945	
318.15	.6787	1.41139	
318.15	.7746	1.41269	
318.15	.8707	1.41373	
318.15	.9354	1.41386	
318.15	1	1.41417	
323.15	0	1.37984	
323.15	.0956	1.38925	
323.15	.1919	1.39495	
323.15	.273	1.39879	
323.15	.3698	1.40239	
323.15	.4639	1.40529	
323.15	.5701	1.40808	
323.15	.6787	1.41024	
323.15	.7746	1.41151	
323.15	.8707	1.41268	
323.15	.9354	1.41261	
323.15	1	1.41288	

System: butyl acetate + 1-hexyl-3-methylimidazolium hexafluorophosphate; phases: Liquid
Fixed: Pressure, kPa = 101
Property: Speed of sound, m/s (Liquid); method: Sing-around technique in a fixed-path interferometer
Temperature, K	Mole fraction of 1-hexyl-3-methylimidazolium hexafluorophosphate	Speed of sound, m/s	uncertainty
293.15	0	1211.35	.5
293.15	.0956	1232.01	.5
293.15	.1919	1254.57	.5
293.15	.273	1279.12	.5
293.15	.3698	1306.9	.5
293.15	.4639	1329.36	.5
293.15	.5701	1354.25	.5
293.15	.6787	1375.86	.5
293.15	.7746	1395	.5
293.15	.8707	1412	.5
293.15	.9354	1425	.5
293.15	1	1436.92	.5
298.15	0	1190.53	.5
298.15	.0956	1211.1	.5
298.15	.1919	1234.04	.5
298.15	.273	1258.89	.5
298.15	.3698	1286.74	.5
298.15	.4639	1309.46	.5
298.15	.5701	1334.84	.5
298.15	.6787	1357.23	.5
298.15	.7746	1377.56	.5
298.15	.8707	1395.88	.5
298.15	.9354	1409.21	.5
298.15	1	1423.53	.5
303.15	0	1169.82	.5
303.15	.0956	1190.1	.5
303.15	.1919	1212.62	.5
303.15	.273	1237.41	.5
303.15	.3698	1265.2	.5
303.15	.4639	1289.91	.5
303.15	.5701	1317.48	.5
303.15	.6787	1342.64	.5
303.15	.7746	1360.14	.5
303.15	.8707	1382.64	.5
303.15	.9354	1397.13	.5
303.15	1	1410.63	.5
308.15	0	1149.23	.5
308.15	.0956	1170.2	.5
308.15	.1919	1195.23	.5
308.15	.273	1223.82	.5
308.15	.3698	1252.41	.5
308.15	.4639	1282.56	.5
308.15	.5701	1309.38	.5
308.15	.6787	1335.18	.5
308.15	.7746	1354.93	.5
308.15	.8707	1369.68	.5
308.15	.9354	1384.43	.5
308.15	1	1398.18	.5
313.15	0	1128.79	.5
313.15	.0956	1150.12	.5
313.15	.1919	1176.99	.5
313.15	.273	1206.75	.5
313.15	.3698	1236.51	.5
313.15	.4639	1267.5	.5
313.15	.5701	1295.38	.5
313.15	.6787	1321.84	.5
313.15	.7746	1341.89	.5
313.15	.8707	1356.94	.5
313.15	.9354	1371.99	.5
313.15	1	1386.04	.5
318.15	0	1108.5	.5
318.15	.0956	1130.3	.5
318.15	.1919	1158.84	.5
318.15	.273	1189.79	.5
318.15	.3698	1220.74	.5
318.15	.4639	1252.48	.5
318.15	.5701	1280.69	.5
318.15	.6787	1308.55	.5
318.15	.7746	1328.95	.5
318.15	.8707	1344.36	.5
318.15	.9354	1359.76	.5
318.15	1	1374.16	.5
323.15	0	1088.33	.5
323.15	.0956	1110.4	.5
323.15	.1919	1140.79	.5
323.15	.273	1172.94	.5
323.15	.3698	1205.08	.5
323.15	.4639	1237.07	.5
323.15	.5701	1266.95	.5
323.15	.6787	1295.66	.5
323.15	.7746	1316.36	.5
323.15	.8707	1332.07	.5
323.15	.9354	1347.77	.5
323.15	1	1362.47	.5

System: ethyl acetate + 1-methyl-3-octylimidazolium hexafluorophosphate; phases: Liquid
Fixed: Pressure, kPa = 101
Property: Mass density, kg/m3 (Liquid); method: Vibrating tube method
Temperature, K	Mole fraction of 1-methyl-3-octylimidazolium hexafluorophosphate	Mass density, kg/m3	uncertainty
293.15	0	900.573	
293.15	.1056	992.13	
293.15	.2064	1052.793	
293.15	.308	1097.25	
293.15	.4094	1130.771	
293.15	.4991	1154.206	
293.15	.5916	1174.118	
293.15	.694	1192.494	
293.15	.8121	1210.202	
293.15	.8895	1220.31	
293.15	1	1222.808	
298.15	0	894.473	
298.15	.1056	987.426	
298.15	.2064	1048.496	
298.15	.308	1093.038	
298.15	.4094	1126.53	
298.15	.4991	1150	
298.15	.5916	1169.993	
298.15	.694	1188.526	
298.15	.8121	1206.482	
298.15	.8895	1216.635	
298.15	1	1218.896	
303.15	0	888.347	
303.15	.1056	982.485	
303.15	.2064	1044	
303.15	.308	1088.65	
303.15	.4094	1122.204	
303.15	.4991	1145.833	
303.15	.5916	1166.01	
303.15	.694	1184.787	
303.15	.8121	1202.873	
303.15	.8895	1212.974	
303.15	1	1214.965	
308.15	0	882.172	
308.15	.1056	977.389	
308.15	.2064	1039.34	
308.15	.308	1084.228	
308.15	.4094	1117.995	
308.15	.4991	1141.761	
308.15	.5916	1162.106	
308.15	.694	1180.991	
308.15	.8121	1199.1	
308.15	.8895	1209.167	
308.15	1	1211.134	
313.15	0	875.951	
313.15	.1056	972.526	
313.15	.2064	1034.738	
313.15	.308	1079.708	
313.15	.4094	1113.664	
313.15	.4991	1137.66	
313.15	.5916	1158.284	
313.15	.694	1177.407	
313.15	.8121	1195.571	
313.15	.8895	1205.546	
313.15	1	1207.326	
318.15	0	869.681	
318.15	.1056	967.143	
318.15	.2064	1029.937	
318.15	.308	1075.229	
318.15	.4094	1109.386	
318.15	.4991	1133.536	
318.15	.5916	1154.328	
318.15	.694	1173.669	
318.15	.8121	1192.1	
318.15	.8895	1202.106	
318.15	1	1203.498	
323.15	0	863.358	
323.15	.1056	962.069	
323.15	.2064	1025.259	
323.15	.308	1070.703	
323.15	.4094	1105.034	
323.15	.4991	1129.385	
323.15	.5916	1150.44	
323.15	.694	1170.045	
323.15	.8121	1188.555	
323.15	.8895	1198.498	
323.15	1	1199.667	

System: ethyl acetate + 1-methyl-3-octylimidazolium hexafluorophosphate; phases: Liquid
Fixed: Pressure, kPa = 101
Property: Refractive index (Na D-line) (Liquid); method: Standard Abbe refractometry
Temperature, K	Mole fraction of 1-methyl-3-octylimidazolium hexafluorophosphate	Refractive index (Na D-line)	uncertainty
293.15	0	1.37237	
293.15	.1056	1.38873	
293.15	.2064	1.40004	
293.15	.308	1.40816	
293.15	.4094	1.41301	
293.15	.4991	1.41629	
293.15	.5916	1.41842	
293.15	.694	1.4208	
293.15	.8121	1.42285	
293.15	.8895	1.42447	
293.15	1	1.42649	
298.15	0	1.36982	
298.15	.1056	1.38754	
298.15	.2064	1.39899	
298.15	.308	1.40705	
298.15	.4094	1.41196	
298.15	.4991	1.41523	
298.15	.5916	1.41771	
298.15	.694	1.41971	
298.15	.8121	1.42189	
298.15	.8895	1.42354	
298.15	1	1.42512	
303.15	0	1.36727	
303.15	.1056	1.38545	
303.15	.2064	1.39759	
303.15	.308	1.40552	
303.15	.4094	1.41088	
303.15	.4991	1.41385	
303.15	.5916	1.41655	
303.15	.694	1.41878	
303.15	.8121	1.42063	
303.15	.8895	1.42188	
303.15	1	1.42376	
308.15	0	1.36473	
308.15	.1056	1.38383	
308.15	.2064	1.39634	
308.15	.308	1.40439	
308.15	.4094	1.40952	
308.15	.4991	1.41311	
308.15	.5916	1.41557	
308.15	.694	1.41792	
308.15	.8121	1.42016	
308.15	.8895	1.42072	
308.15	1	1.4224	
313.15	0	1.36219	
313.15	.1056	1.38267	
313.15	.2064	1.39498	
313.15	.308	1.40318	
313.15	.4094	1.40842	
313.15	.4991	1.41186	
313.15	.5916	1.41447	
313.15	.694	1.41699	
313.15	.8121	1.41906	
313.15	.8895	1.41956	
313.15	1	1.42103	
318.15	0	1.35968	
318.15	.1056	1.38145	
318.15	.2064	1.39381	
318.15	.308	1.40208	
318.15	.4094	1.40767	
318.15	.4991	1.41108	
318.15	.5916	1.41348	
318.15	.694	1.41612	
318.15	.8121	1.41805	
318.15	.8895	1.41852	
318.15	1	1.41967	
323.15	0	1.35732	
323.15	.1056	1.38027	
323.15	.2064	1.39276	
323.15	.308	1.40106	
323.15	.4094	1.40658	
323.15	.4991	1.41002	
323.15	.5916	1.41266	
323.15	.694	1.41504	
323.15	.8121	1.41746	
323.15	.8895	1.41744	
323.15	1	1.41831	

System: ethyl acetate + 1-methyl-3-octylimidazolium hexafluorophosphate; phases: Liquid
Fixed: Pressure, kPa = 101
Property: Speed of sound, m/s (Liquid); method: Sing-around technique in a fixed-path interferometer
Temperature, K	Mole fraction of 1-methyl-3-octylimidazolium hexafluorophosphate	Speed of sound, m/s	uncertainty
293.15	0	1162.43	.5
293.15	.1056	1246.75	.5
293.15	.2064	1300.76	.5
293.15	.308	1323	.5
293.15	.4094	1339	.5
293.15	.4991	1348.99	.5
293.15	.5916	1356.82	.5
293.15	.694	1363.09	.5
293.15	.8121	1368.1	.5
293.15	.8895	1374.2	.5
293.15	1	1388.15	.5
298.15	0	1139.77	.5
298.15	.1056	1228.22	.5
298.15	.2064	1284.79	.5
298.15	.308	1303.4	.5
298.15	.4094	1325	.5
298.15	.4991	1335.07	.5
298.15	.5916	1342.73	.5
298.15	.694	1348.87	.5
298.15	.8121	1353.77	.5
298.15	.8895	1358.3	.5
298.15	1	1373.39	.5
303.15	0	1117.22	.5
303.15	.1056	1209.82	.5
303.15	.2064	1268.88	.5
303.15	.308	1288.24	.5
303.15	.4094	1309	.5
303.15	.4991	1320.91	.5
303.15	.5916	1328.6	.5
303.15	.694	1334.74	.5
303.15	.8121	1339.66	.5
303.15	.8895	1345.2	.5
303.15	1	1359.34	.5
308.15	0	1094.74	.5
308.15	.1056	1191.5	.5
308.15	.2064	1252.98	.5
308.15	.308	1273.5	.5
308.15	.4094	1298	.5
308.15	.4991	1306.32	.5
308.15	.5916	1314.22	.5
308.15	.694	1320.54	.5
308.15	.8121	1325.59	.5
308.15	.8895	1331.29	.5
308.15	1	1345.81	.5
313.15	0	1072.39	.5
313.15	.1056	1173.31	.5
313.15	.2064	1237.46	.5
313.15	.308	1258.28	.5
313.15	.4094	1282	.5
313.15	.4991	1292.77	.5
313.15	.5916	1300.76	.5
313.15	.694	1307.16	.5
313.15	.8121	1312.28	.5
313.15	.8895	1318.43	.5
313.15	1	1332.74	.5
318.15	0	1050.14	.5
318.15	.1056	1155.23	.5
318.15	.2064	1222.11	.5
318.15	.308	1243.51	.5
318.15	.4094	1268	.5
318.15	.4991	1279.33	.5
318.15	.5916	1287.48	.5
318.15	.694	1293.99	.5
318.15	.8121	1299.21	.5
318.15	.8895	1305.24	.5
318.15	1	1320.06	.5
323.15	0	1028	.5
323.15	.1056	1132.42	.5
323.15	.2064	1206.87	.5
323.15	.308	1229.06	.5
323.15	.4094	1250	.5
323.15	.4991	1265.9	.5
323.15	.5916	1274.25	.5
323.15	.694	1280.94	.5
323.15	.8121	1286.28	.5
323.15	.8895	1292.21	.5
323.15	1	1307.67	.5

System: butyl acetate + 1-methyl-3-octylimidazolium hexafluorophosphate; phases: Liquid
Fixed: Pressure, kPa = 101
Property: Mass density, kg/m3 (Liquid); method: Vibrating tube method
Temperature, K	Mole fraction of 1-methyl-3-octylimidazolium hexafluorophosphate	Mass density, kg/m3	uncertainty
293.15	0	881.134	
293.15	.1078	957.599	
293.15	.2016	1010.443	
293.15	.3056	1058.018	
293.15	.3855	1088.562	
293.15	.4815	1119.976	
293.15	.5918	1150.602	
293.15	.6857	1173.177	
293.15	.7784	1193.01	
293.15	.8946	1215.11	
293.15	1	1222.808	
298.15	0	876.004	
298.15	.1078	953.226	
298.15	.2016	1006.227	
298.15	.3056	1053.865	
298.15	.3855	1084.425	
298.15	.4815	1115.962	
298.15	.5918	1146.75	
298.15	.6857	1169.444	
298.15	.7784	1189.316	
298.15	.8946	1211.349	
298.15	1	1218.896	
303.15	0	870.855	
303.15	.1078	948.745	
303.15	.2016	1001.928	
303.15	.3056	1049.622	
303.15	.3855	1080.262	
303.15	.4815	1111.968	
303.15	.5918	1142.889	
303.15	.6857	1165.733	
303.15	.7784	1185.679	
303.15	.8946	1207.649	
303.15	1	1214.965	
308.15	0	865.685	
308.15	.1078	944.257	
308.15	.2016	997.643	
308.15	.3056	1045.401	
308.15	.3855	1076.132	
308.15	.4815	1107.98	
308.15	.5918	1139.124	
308.15	.6857	1162.108	
308.15	.7784	1182.135	
308.15	.8946	1204.034	
308.15	1	1211.134	
313.15	0	860.492	
313.15	.1078	939.644	
313.15	.2016	993.304	
313.15	.3056	1041.232	
313.15	.3855	1072.052	
313.15	.4815	1104.096	
313.15	.5918	1135.231	
313.15	.6857	1158.308	
313.15	.7784	1178.398	
313.15	.8946	1200.295	
313.15	1	1207.326	
318.15	0	855.275	
318.15	.1078	935.027	
318.15	.2016	988.947	
318.15	.3056	1037	
318.15	.3855	1067.9	
318.15	.4815	1100.117	
318.15	.5918	1131.328	
318.15	.6857	1154.612	
318.15	.7784	1174.845	
318.15	.8946	1196.833	
318.15	1	1203.498	
323.15	0	850.032	
323.15	.1078	930.067	
323.15	.2016	984.404	
323.15	.3056	1032.8	
323.15	.3855	1063.836	
323.15	.4815	1096.145	
323.15	.5918	1127.428	
323.15	.6857	1150.886	
323.15	.7784	1171.346	
323.15	.8946	1193.446	
323.15	1	1199.667	

System: butyl acetate + 1-methyl-3-octylimidazolium hexafluorophosphate; phases: Liquid
Fixed: Pressure, kPa = 101
Property: Refractive index (Na D-line) (Liquid); method: Standard Abbe refractometry
Temperature, K	Mole fraction of 1-methyl-3-octylimidazolium hexafluorophosphate	Refractive index (Na D-line)	uncertainty
293.15	0	1.39428	
293.15	.1078	1.40113	
293.15	.2016	1.40658	
293.15	.3056	1.41215	
293.15	.3855	1.41536	
293.15	.4815	1.41829	
293.15	.5918	1.42036	
293.15	.6857	1.42188	
293.15	.7784	1.42339	
293.15	.8946	1.42502	
293.15	1	1.42649	
298.15	0	1.39188	
298.15	.1078	1.39916	
298.15	.2016	1.40486	
298.15	.3056	1.41053	
298.15	.3855	1.41402	
298.15	.4815	1.41692	
298.15	.5918	1.41924	
298.15	.6857	1.42067	
298.15	.7784	1.42219	
298.15	.8946	1.42373	
298.15	1	1.42512	
303.15	0	1.38948	
303.15	.1078	1.39682	
303.15	.2016	1.40307	
303.15	.3056	1.40886	
303.15	.3855	1.41241	
303.15	.4815	1.41546	
303.15	.5918	1.41801	
303.15	.6857	1.41931	
303.15	.7784	1.42073	
303.15	.8946	1.42217	
303.15	1	1.42376	
308.15	0	1.3871	
308.15	.1078	1.39502	
308.15	.2016	1.40132	
308.15	.3056	1.40721	
308.15	.3855	1.41099	
308.15	.4815	1.41402	
308.15	.5918	1.41668	
308.15	.6857	1.41801	
308.15	.7784	1.41955	
308.15	.8946	1.42089	
308.15	1	1.4224	
313.15	0	1.38469	
313.15	.1078	1.39308	
313.15	.2016	1.39963	
313.15	.3056	1.40556	
313.15	.3855	1.40944	
313.15	.4815	1.41256	
313.15	.5918	1.41529	
313.15	.6857	1.41687	
313.15	.7784	1.41835	
313.15	.8946	1.41966	
313.15	1	1.42103	
318.15	0	1.38227	
318.15	.1078	1.39114	
318.15	.2016	1.39793	
318.15	.3056	1.40399	
318.15	.3855	1.40796	
318.15	.4815	1.41132	
318.15	.5918	1.41404	
318.15	.6857	1.41575	
318.15	.7784	1.41726	
318.15	.8946	1.41848	
318.15	1	1.41967	
323.15	0	1.37984	
323.15	.1078	1.38914	
323.15	.2016	1.39622	
323.15	.3056	1.40245	
323.15	.3855	1.40652	
323.15	.4815	1.41001	
323.15	.5918	1.41272	
323.15	.6857	1.41456	
323.15	.7784	1.41606	
323.15	.8946	1.41731	
323.15	1	1.41831	

System: butyl acetate + 1-methyl-3-octylimidazolium hexafluorophosphate; phases: Liquid
Fixed: Pressure, kPa = 101
Property: Speed of sound, m/s (Liquid); method: Sing-around technique in a fixed-path interferometer
Temperature, K	Mole fraction of 1-methyl-3-octylimidazolium hexafluorophosphate	Speed of sound, m/s	uncertainty
293.15	0	1211.35	.5
293.15	.1078	1231.12	.5
293.15	.2016	1251	.5
293.15	.3056	1273.21	.5
293.15	.3855	1291.58	.5
293.15	.4815	1309.41	.5
293.15	.5918	1328.19	.5
293.15	.6857	1343.57	.5
293.15	.7784	1358.43	.5
293.15	.8946	1375.12	.5
293.15	1	1388.15	.5
298.15	0	1190.53	.5
298.15	.1078	1211.63	.5
298.15	.2016	1232.72	.5
298.15	.3056	1256.89	.5
298.15	.3855	1275.05	.5
298.15	.4815	1293.44	.5
298.15	.5918	1313.27	.5
298.15	.6857	1328.85	.5
298.15	.7784	1343.7	.5
298.15	.8946	1361.59	.5
298.15	1	1373.39	.5
303.15	0	1169.82	.5
303.15	.1078	1192.17	.5
303.15	.2016	1214.52	.5
303.15	.3056	1239.67	.5
303.15	.3855	1258.82	.5
303.15	.4815	1278.63	.5
303.15	.5918	1298.6	.5
303.15	.6857	1314.74	.5
303.15	.7784	1329.61	.5
303.15	.8946	1347.08	.5
303.15	1	1359.34	.5
308.15	0	1149.23	.5
308.15	.1078	1172.84	.5
308.15	.2016	1196.44	.5
308.15	.3056	1222.62	.5
308.15	.3855	1242.8	.5
308.15	.4815	1263.45	.5
308.15	.5918	1284.05	.5
308.15	.6857	1300.75	.5
308.15	.7784	1315.77	.5
308.15	.8946	1333.45	.5
308.15	1	1345.81	.5
313.15	0	1128.79	.5
313.15	.1078	1153.65	.5
313.15	.2016	1178.51	.5
313.15	.3056	1205.72	.5
313.15	.3855	1226.93	.5
313.15	.4815	1248.43	.5
313.15	.5918	1269.74	.5
313.15	.6857	1286.8	.5
313.15	.7784	1302.11	.5
313.15	.8946	1322.07	.5
313.15	1	1332.74	.5
318.15	0	1108.5	.5
318.15	.1078	1134.6	.5
318.15	.2016	1160.7	.5
318.15	.3056	1188.95	.5
318.15	.3855	1211.2	.5
318.15	.4815	1233.56	.5
318.15	.5918	1255.53	.5
318.15	.6857	1273.08	.5
318.15	.7784	1288.74	.5
318.15	.8946	1309.46	.5
318.15	1	1320.06	.5
323.15	0	1088.33	.5
323.15	.1078	1115.66	.5
323.15	.2016	1142.99	.5
323.15	.3056	1172.3	.5
323.15	.3855	1195.6	.5
323.15	.4815	1218.84	.5
323.15	.5918	1241.61	.5
323.15	.6857	1259.4	.5
323.15	.7784	1275.49	.5
323.15	.8946	1296.12	.5
323.15	1	1307.67	.5
