Measured thermophysical data. Isobaric (vapor + liquid) equilibrium data for the binary system methanol + 2-butyl alcohol and the quaternary system methyl acetate + methanol + 2-butyl alcohol + 2-butyl acetate at P = 101.33 kPa
Source: J. Chem. Thermodyn., 2014, 10.1016/j.jct.2013.12.021
Compound 1: methanol, CH4O, purity 99.7%
Compound 2: 2-butanol, C4H10O, purity 99.7%

System: methanol; phases: Liquid, Gas
Property: Boiling temperature at pressure P, K (Liquid); method: Ebulliometric method (Recirculating still)
Pressure, kPa	Boiling temperature at pressure P, K	uncertainty
101.33	337.65	.05

System: 2-butanol; phases: Liquid, Gas
Property: Boiling temperature at pressure P, K (Liquid); method: Ebulliometric method (Recirculating still)
Pressure, kPa	Boiling temperature at pressure P, K	uncertainty
101.33	372.35	.05

System: methanol + 2-butanol; phases: Gas, Liquid
Property: Mole fraction of methanol (Gas); method: Chromatography
Mole fraction of methanol	Pressure, kPa	Mole fraction of methanol	uncertainty
0	101.33	0	.0002
.0726	101.33	.215	.0002
.1047	101.33	.2917	.0002
.1393	101.33	.3641	.0002
.1671	101.33	.4153	.0002
.2092	101.33	.4865	.0002
.2588	101.33	.5578	.0002
.2919	101.33	.6005	.0002
.3663	101.33	.6823	.0002
.4092	101.33	.7219	.0002
.4663	101.33	.7687	.0002
.4867	101.33	.7845	.0002
.5352	101.33	.8174	.0002
.5984	101.33	.8538	.0002
.6491	101.33	.8806	.0002
.7076	101.33	.9069	.0002
.7588	101.33	.9273	.0002
.8359	101.33	.9548	.0002
.8765	101.33	.9669	.0002
.9667	101.33	.9919	.0002
.9874	101.33	.997	.0002
1	101.33	1	.0002

System: methanol + 2-butanol; phases: Liquid, Gas
Property: Boiling temperature at pressure P, K (Liquid); method: Ebulliometric method (Recirculating still)
Mole fraction of methanol	Pressure, kPa	Boiling temperature at pressure P, K	uncertainty
0	101.33	372.35	.05
.0726	101.33	368.15	.05
.1047	101.33	366.35	.05
.1393	101.33	364.55	.05
.1671	101.33	363.25	.05
.2092	101.33	361.3	.05
.2588	101.33	359.3	.05
.2919	101.33	357.8	.05
.3663	101.33	354.95	.05
.4092	101.33	353.6	.05
.4663	101.33	351.7	.05
.4867	101.33	350.9	.05
.5352	101.33	349.25	.05
.5984	101.33	347.45	.05
.6491	101.33	346.05	.05
.7076	101.33	344.55	.05
.7588	101.33	343	.05
.8359	101.33	341.1	.05
.8765	101.33	340.35	.05
.9667	101.33	338.5	.05
.9874	101.33	337.95	.05
1	101.33	337.65	.05
