Measured thermophysical data. Selective extraction of toluene from n-heptane using [emim][SCN] and [bmim][SCN] ionic liquids as solvents
Source: J. Chem. Thermodyn., 2014, 10.1016/j.jct.2013.11.005
Compound 1: 1-ethyl-3-methylimidazolium thiocyanate, C7H11N3S, purity 98%
Compound 2: 1-butyl-3-methylimidazolium thiocyanate, C9H15N3S, purity 98%
Compound 3: toluene, C7H8, purity 99.5%
Compound 4: n-heptane, C7H16, purity 99.7%

System: 1-ethyl-3-methylimidazolium thiocyanate; phases: Liquid
Fixed: Pressure, kPa = 101.325
Property: Mass density, kg/m3 (Liquid); method: Vibrating tube method
Temperature, K	Mass density, kg/m3	uncertainty
293.15	1120.02	.08
298.15	1116.97	.08
303.15	1113.91	.08
313.15	1107.95	.08
323.15	1101.84	.08
333.15	1095.89	.08
343.15	1089.98	.08
353.15	1084.12	.08

System: 1-ethyl-3-methylimidazolium thiocyanate; phases: Liquid
Fixed: Pressure, kPa = 101.325
Property: Viscosity, Pa*s (Liquid); method: Falling or rolling sphere viscometry
Temperature, K	Viscosity, Pa*s	uncertainty
293.15	.02827	.0002827
298.15	.02379	.0002379
303.15	.02025	.0002025
313.15	.01513	.0001513
323.15	.01173	.0001173
333.15	.00936	.0000936
343.15	.00765	.0000765
353.15	.00638	.0000638

System: 1-ethyl-3-methylimidazolium thiocyanate; phases: Liquid, Air at 1 atmosphere
Property: Surface tension liquid-gas, N/m (Liquid); method: Pendant drop shape
Temperature, K	Surface tension liquid-gas, N/m	uncertainty
298.15	.0541	
303.15	.0536	
313.15	.0529	
323.15	.0521	

System: 1-butyl-3-methylimidazolium thiocyanate; phases: Liquid
Fixed: Pressure, kPa = 101.325
Property: Mass density, kg/m3 (Liquid); method: Vibrating tube method
Temperature, K	Mass density, kg/m3	uncertainty
293.15	1073.99	.08
298.15	1071.04	.08
303.15	1068.08	.08
313.15	1062.21	.08
323.15	1056.39	.08
333.15	1050.61	.08
343.15	1044.87	.08
353.15	1039.17	.08

System: 1-butyl-3-methylimidazolium thiocyanate; phases: Liquid
Fixed: Pressure, kPa = 101.325
Property: Viscosity, Pa*s (Liquid); method: Falling or rolling sphere viscometry
Temperature, K	Viscosity, Pa*s	uncertainty
293.15	.07608	.0007608
298.15	.05981	.0005981
303.15	.04784	.0004784
313.15	.0322	.000322
323.15	.02297	.0002297
333.15	.01712	.0001712
343.15	.0132	.000132
353.15	.0105	.000105

System: 1-butyl-3-methylimidazolium thiocyanate; phases: Liquid, Air at 1 atmosphere
Property: Surface tension liquid-gas, N/m (Liquid); method: Pendant drop shape
Temperature, K	Surface tension liquid-gas, N/m	uncertainty
298.15	.047	
303.15	.0466	
313.15	.0457	
323.15	.0448	

System: toluene + n-heptane + 1-ethyl-3-methylimidazolium thiocyanate; phases: Liquid mixture 1, Liquid mixture 2
Property: Mole fraction of n-heptane (Liquid mixture 1); method: Chromatography
Property: Mole fraction of toluene (Liquid mixture 2); method: Chromatography
Property: Mole fraction of n-heptane (Liquid mixture 2); method: Chromatography
Temperature, K	Pressure, kPa	Mole fraction of toluene	Mole fraction of n-heptane	uncertainty	Mole fraction of toluene	uncertainty	Mole fraction of n-heptane	uncertainty
313.2	101.325	0	1	.0008	0	.002	.0017	.0009
313.2	101.325	.5228	.4772	.0008	.1076	.002	.0015	.0009
313.2	101.325	.5906	.4094	.0008	.1216	.002	.0013	.0009
313.2	101.325	.6921	.3079	.0008	.1448	.002	.0011	.0009
313.2	101.325	.7739	.2261	.0008	.1692	.002	.001	.0009
313.2	101.325	.8553	.1447	.0008	.1922	.002	.0007	.0009
313.2	101.325	1	0	.0008	.2056	.002	0	.0009
313.2	101.325	.0459	.9541	.0008	.0088	.002	.0018	.0009
313.2	101.325	.0892	.9108	.0008	.0173	.002	.0018	.0009
313.2	101.325	.1838	.8162	.0008	.0365	.002	.0018	.0009
313.2	101.325	.2846	.7154	.0008	.0563	.002	.0016	.0009
313.2	101.325	.4333	.5667	.0008	.085	.002	.0015	.0009

System: toluene + n-heptane + 1-butyl-3-methylimidazolium thiocyanate; phases: Liquid mixture 1, Liquid mixture 2
Property: Mole fraction of n-heptane (Liquid mixture 1); method: Chromatography
Property: Mole fraction of toluene (Liquid mixture 2); method: Chromatography
Property: Mole fraction of n-heptane (Liquid mixture 2); method: Chromatography
Temperature, K	Pressure, kPa	Mole fraction of toluene	Mole fraction of n-heptane	uncertainty	Mole fraction of toluene	uncertainty	Mole fraction of n-heptane	uncertainty
313.2	101.325	0	1	.0008	0	.002	.0062	.0009
313.2	101.325	.5055	.4945	.0008	.1822	.002	.006	.0009
313.2	101.325	.5767	.4233	.0008	.2119	.002	.0057	.0009
313.2	101.325	.6332	.3668	.0008	.2346	.002	.0054	.0009
313.2	101.325	.7504	.2496	.0008	.2842	.002	.0046	.0009
313.2	101.325	.8442	.1558	.0008	.3383	.002	.0035	.0009
313.2	101.325	1	0	.0008	.3804	.002	0	.0009
313.2	101.325	.0393	.9607	.0008	.0137	.002	.0063	.0009
313.2	101.325	.0789	.9211	.0008	.0265	.002	.0061	.0009
313.2	101.325	.157	.843	.0008	.0533	.002	.0059	.0009
313.2	101.325	.2829	.7171	.0008	.0985	.002	.0064	.0009
313.2	101.325	.4064	.5936	.0008	.1409	.002	.0063	.0009

System: n-heptane + 1-ethyl-3-methylimidazolium thiocyanate; phases: Liquid mixture 2, Liquid mixture 1
Property: Mole fraction of n-heptane (Liquid mixture 2); method: Chromatography
Temperature, K	Pressure, kPa	Mole fraction of n-heptane	uncertainty
313.2	101.325	.0017	.0009

System: toluene + 1-ethyl-3-methylimidazolium thiocyanate; phases: Liquid mixture 2, Liquid mixture 1
Property: Mole fraction of toluene (Liquid mixture 2); method: Chromatography
Pressure, kPa	Temperature, K	Mole fraction of toluene	uncertainty
101.325	313.2	.2056	.002

System: n-heptane + 1-butyl-3-methylimidazolium thiocyanate; phases: Liquid mixture 2, Liquid mixture 1
Property: Mole fraction of n-heptane (Liquid mixture 2); method: Chromatography
Temperature, K	Pressure, kPa	Mole fraction of n-heptane	uncertainty
313.2	101.325	.0062	.0009

System: toluene + 1-butyl-3-methylimidazolium thiocyanate; phases: Liquid mixture 2, Liquid mixture 1
Property: Mole fraction of toluene (Liquid mixture 2); method: Chromatography
Pressure, kPa	Temperature, K	Mole fraction of toluene	uncertainty
101.325	313.2	.3804	.002
