Measured thermophysical data. Standard molar enthalpies of formation of monochloroacetophenone isomers
Source: J. Chem. Thermodyn., 2010, 10.1016/j.jct.2010.07.004
Compound 1: o-chloroacetophenone, C8H7ClO, purity 97%
Compound 2: ethanone, 1-(3-chlorophenyl)-, C8H7ClO, purity 98%
Compound 3: p-chloroacetophenone, C8H7ClO, purity 97%
Compound 4: hydrogen chloride, ClH
Compound 5: carbon dioxide, CO2
Compound 6: water, H2O
Compound 7: oxygen, O2
Compound 8: chlorine, diatomic, Cl2
Compound 9: hydrogen, H2
Compound 10: carbon, graphite, C

System: o-chloroacetophenone; phases: Gas
Fixed: Pressure, kPa = 101.325
Property: Molar enthalpy, kJ/mol (Gas); method: Drop calorimetry
Temperature, K	Molar enthalpy, kJ/mol	uncertainty
340	66.9	

System: ethanone, 1-(3-chlorophenyl)-; phases: Gas
Fixed: Pressure, kPa = 101.325
Property: Molar enthalpy, kJ/mol (Gas); method: Drop calorimetry
Temperature, K	Molar enthalpy, kJ/mol	uncertainty
330	69.1	

System: p-chloroacetophenone; phases: Gas
Fixed: Pressure, kPa = 101.325
Property: Molar enthalpy, kJ/mol (Gas); method: Drop calorimetry
Temperature, K	Molar enthalpy, kJ/mol	uncertainty
360	73.1	

Reaction: -1 o-chloroacetophenone + 1 hydrogen chloride + 8 carbon dioxide + 3 water + -9 oxygen
Property: Specific internal energy of reaction at constant volume, J/g
-25939.63

Reaction: -1 ethanone, 1-(3-chlorophenyl)- + 1 hydrogen chloride + 8 carbon dioxide + 3 water + -9 oxygen
Property: Specific internal energy of reaction at constant volume, J/g
-25862.5

Reaction: -1 p-chloroacetophenone + 1 hydrogen chloride + 8 carbon dioxide + 3 water + -9 oxygen
Property: Specific internal energy of reaction at constant volume, J/g
-25802.71

Reaction: 1 o-chloroacetophenone + -0.5 chlorine, diatomic + -3.5 hydrogen + -8 carbon, graphite + -0.5 oxygen
Property: Molar enthalpy of reaction, kJ/mol
-159.5

Reaction: 1 o-chloroacetophenone + -0.5 chlorine, diatomic + -3.5 hydrogen + -8 carbon, graphite + -0.5 oxygen
Property: Molar enthalpy of reaction, kJ/mol
-99.4

Reaction: 1 ethanone, 1-(3-chlorophenyl)- + -0.5 chlorine, diatomic + -3.5 hydrogen + -8 carbon, graphite + -0.5 oxygen
Property: Molar enthalpy of reaction, kJ/mol
-171.4

Reaction: 1 ethanone, 1-(3-chlorophenyl)- + -0.5 chlorine, diatomic + -3.5 hydrogen + -8 carbon, graphite + -0.5 oxygen
Property: Molar enthalpy of reaction, kJ/mol
-107.4

Reaction: 1 p-chloroacetophenone + -0.5 chlorine, diatomic + -3.5 hydrogen + -8 carbon, graphite + -0.5 oxygen
Property: Molar enthalpy of reaction, kJ/mol
-180.7

Reaction: 1 p-chloroacetophenone + -0.5 chlorine, diatomic + -3.5 hydrogen + -8 carbon, graphite + -0.5 oxygen
Property: Molar enthalpy of reaction, kJ/mol
-117.6
