Measured thermophysical data. Infinite dilution activity coefficients of volatile organic compounds  in two ionic liquids composed of the tris(pentafluoroethyl)  trifluorophosphate ([FAP]) anion and a functionalized cation
Source: J. Chem. Thermodyn., 2013, 10.1016/j.jct.2013.05.035
Compound 1: 1H-imidazolium, 3-(2-hydroxyethyl)-1-methyl-, trifluorotris(1,1,2,2,2-pentafluoroethyl)phosphate(1-), C12H11F18N2OP, purity 99%
Compound 2: 1-(2-methoxyethyl)-1-methylpyrrolidinium trifluorotris(perfluoroethyl)phosphate(V), C14H18F18NOP, purity 99%
Compound 3: heptane, C7H16, purity 99%
Compound 4: octane, C8H18, purity 99%
Compound 5: 1-octene, C8H16, purity 98%
Compound 6: cyclohexane, C6H12, purity 99%
Compound 7: methylcyclohexane, C7H14, purity 99%
Compound 8: ethylcyclohexane, C8H16, purity 99%
Compound 9: benzene, C6H6, purity 99.8%
Compound 10: toluene, C7H8, purity 99%
Compound 11: ethylbenzene, C8H10, purity 99%
Compound 12: m-xylene, C8H10, purity 99%
Compound 13: methanol, CH4O, purity 99.8%
Compound 14: ethanol, C2H6O, purity 99.9%
Compound 15: propan-1-ol, C3H8O, purity 99%
Compound 16: propan-2-ol, C3H8O, purity 99.7%
Compound 17: 2,5-dioxahexane, C4H10O2, purity 99.9%
Compound 18: diisopropyl ether, C6H14O, purity 99%
Compound 19: oxolane, C4H8O, purity 99.9%
Compound 20: methyl acetate, C3H6O2, purity 99.5%
Compound 21: ethyl acetate, C4H8O2, purity 99.7%
Compound 22: acetone, C3H6O, purity 99.9%
Compound 23: butanone, C4H8O, purity 99%
Compound 24: dimethyl carbonate, C3H6O3, purity 99%
Compound 25: dichloromethane, CH2Cl2, purity 99.5%
Compound 26: trichloromethane, CHCl3, purity 99.5%
Compound 27: 2-bromo-2-chloro-1,1,1-trifluoroethane, C2HBrClF3, purity 99%
Compound 28: tetrachloromethane, CCl4, purity 99.9%
Compound 29: nitromethane, CH3NO2, purity 99%
Compound 30: acetonitrile, C2H3N, purity 99.8%
Compound 31: thiophene, C4H4S, purity 99%
Compound 32: 2-methoxy-2-methylpropane, C5H12O, purity 99.5%

System: 1H-imidazolium, 3-(2-hydroxyethyl)-1-methyl-, trifluorotris(1,1,2,2,2-pentafluoroethyl)phosphate(1-); phases: Liquid
Fixed: Pressure, kPa = 101.325
Property: Mass density, kg/m3 (Liquid); method: Vibrating tube method
Temperature, K	Mass density, kg/m3	uncertainty
283.15	1783	.1
293.15	1770.9	.1
303.15	1759.05	.1
313.15	1747.4	.1
323.15	1735.75	.1
333.15	1724.13	.1
343.15	1712.54	.1

System: 1-(2-methoxyethyl)-1-methylpyrrolidinium trifluorotris(perfluoroethyl)phosphate(V); phases: Liquid
Fixed: Pressure, kPa = 101.325
Property: Mass density, kg/m3 (Liquid); method: Vibrating tube method
Temperature, K	Mass density, kg/m3	uncertainty
283.15	1647.62	.1
293.15	1636.38	.1
303.15	1625.29	.1
313.15	1614.22	.1
323.15	1603.21	.1
333.15	1592.25	.1
343.15	1581.35	.1

System: heptane + 1H-imidazolium, 3-(2-hydroxyethyl)-1-methyl-, trifluorotris(1,1,2,2,2-pentafluoroethyl)phosphate(1-); phases: Liquid
Fixed: Pressure, kPa = 101
Fixed: Mole fraction of heptane = 0
Property: Activity coefficient of heptane (Liquid); method: Chromatography
Temperature, K	Activity coefficient of heptane	uncertainty
318.15	61.8	3.09
323.15	57.4	2.87
333.15	50.3	2.515
343.15	44.3	2.215
353.15	39.6	1.98

System: octane + 1H-imidazolium, 3-(2-hydroxyethyl)-1-methyl-, trifluorotris(1,1,2,2,2-pentafluoroethyl)phosphate(1-); phases: Liquid
Fixed: Pressure, kPa = 101
Fixed: Mole fraction of octane = 0
Property: Activity coefficient of octane (Liquid); method: Chromatography
Temperature, K	Activity coefficient of octane	uncertainty
318.15	94.1	4.705
323.15	87.1	4.355
333.15	75.7	3.785
343.15	66.3	3.315
353.15	58.6	2.93

System: 1-octene + 1H-imidazolium, 3-(2-hydroxyethyl)-1-methyl-, trifluorotris(1,1,2,2,2-pentafluoroethyl)phosphate(1-); phases: Liquid
Fixed: Pressure, kPa = 101
Fixed: Mole fraction of 1-octene = 0
Property: Activity coefficient of 1-octene (Liquid); method: Chromatography
Temperature, K	Activity coefficient of 1-octene	uncertainty
318.15	38.5	1.925
323.15	36.6	1.83
333.15	33.1	1.655
343.15	30.1	1.505
353.15	27.6	1.38

System: cyclohexane + 1H-imidazolium, 3-(2-hydroxyethyl)-1-methyl-, trifluorotris(1,1,2,2,2-pentafluoroethyl)phosphate(1-); phases: Liquid
Fixed: Pressure, kPa = 101
Fixed: Mole fraction of cyclohexane = 0
Property: Activity coefficient of cyclohexane (Liquid); method: Chromatography
Temperature, K	Activity coefficient of cyclohexane	uncertainty
318.15	23.4	1.17
323.15	21.8	1.09
333.15	19.2	.96
343.15	17.1	.855
353.15	15.4	.77

System: methylcyclohexane + 1H-imidazolium, 3-(2-hydroxyethyl)-1-methyl-, trifluorotris(1,1,2,2,2-pentafluoroethyl)phosphate(1-); phases: Liquid
Fixed: Pressure, kPa = 101
Fixed: Mole fraction of methylcyclohexane = 0
Property: Activity coefficient of methylcyclohexane (Liquid); method: Chromatography
Temperature, K	Activity coefficient of methylcyclohexane	uncertainty
318.15	32.2	1.61
323.15	30.1	1.505
333.15	26.5	1.325
343.15	23.8	1.19
353.15	21.4	1.07

System: ethylcyclohexane + 1H-imidazolium, 3-(2-hydroxyethyl)-1-methyl-, trifluorotris(1,1,2,2,2-pentafluoroethyl)phosphate(1-); phases: Liquid
Fixed: Pressure, kPa = 101
Fixed: Mole fraction of ethylcyclohexane = 0
Property: Activity coefficient of ethylcyclohexane (Liquid); method: Chromatography
Temperature, K	Activity coefficient of ethylcyclohexane	uncertainty
318.15	49.3	2.465
323.15	46	2.3
333.15	40.1	2.005
343.15	35.5	1.775
353.15	31.5	1.575

System: benzene + 1H-imidazolium, 3-(2-hydroxyethyl)-1-methyl-, trifluorotris(1,1,2,2,2-pentafluoroethyl)phosphate(1-); phases: Liquid
Fixed: Pressure, kPa = 101
Fixed: Mole fraction of benzene = 0
Property: Activity coefficient of benzene (Liquid); method: Chromatography
Temperature, K	Activity coefficient of benzene	uncertainty
318.15	1.05	.0315
323.15	1.056	.03168
333.15	1.072	.03216
343.15	1.084	.03252
353.15	1.098	.03294

System: toluene + 1H-imidazolium, 3-(2-hydroxyethyl)-1-methyl-, trifluorotris(1,1,2,2,2-pentafluoroethyl)phosphate(1-); phases: Liquid
Fixed: Pressure, kPa = 101
Fixed: Mole fraction of toluene = 0
Property: Activity coefficient of toluene (Liquid); method: Chromatography
Temperature, K	Activity coefficient of toluene	uncertainty
318.15	1.65	.0495
323.15	1.65	.0495
333.15	1.67	.0501
343.15	1.68	.0504
353.15	1.69	.0507

System: ethylbenzene + 1H-imidazolium, 3-(2-hydroxyethyl)-1-methyl-, trifluorotris(1,1,2,2,2-pentafluoroethyl)phosphate(1-); phases: Liquid
Fixed: Pressure, kPa = 101
Fixed: Mole fraction of ethylbenzene = 0
Property: Activity coefficient of ethylbenzene (Liquid); method: Chromatography
Temperature, K	Activity coefficient of ethylbenzene	uncertainty
318.15	2.78	.0834
323.15	2.78	.0834
333.15	2.77	.0831
343.15	2.75	.0825
353.15	2.73	.0819

System: m-xylene + 1H-imidazolium, 3-(2-hydroxyethyl)-1-methyl-, trifluorotris(1,1,2,2,2-pentafluoroethyl)phosphate(1-); phases: Liquid
Fixed: Pressure, kPa = 101
Fixed: Mole fraction of m-xylene = 0
Property: Activity coefficient of m-xylene (Liquid); method: Chromatography
Temperature, K	Activity coefficient of m-xylene	uncertainty
318.15	2.66	.0798
323.15	2.66	.0798
333.15	2.66	.0798
343.15	2.65	.0795
353.15	2.65	.0795

System: methanol + 1H-imidazolium, 3-(2-hydroxyethyl)-1-methyl-, trifluorotris(1,1,2,2,2-pentafluoroethyl)phosphate(1-); phases: Liquid
Fixed: Pressure, kPa = 101
Fixed: Mole fraction of methanol = 0
Property: Activity coefficient of methanol (Liquid); method: Chromatography
Temperature, K	Activity coefficient of methanol	uncertainty
318.15	.7	.021
323.15	.696	.02088
333.15	.685	.02055
343.15	.676	.02028
353.15	.663	.01989

System: ethanol + 1H-imidazolium, 3-(2-hydroxyethyl)-1-methyl-, trifluorotris(1,1,2,2,2-pentafluoroethyl)phosphate(1-); phases: Liquid
Fixed: Pressure, kPa = 101
Fixed: Mole fraction of ethanol = 0
Property: Activity coefficient of ethanol (Liquid); method: Chromatography
Temperature, K	Activity coefficient of ethanol	uncertainty
318.15	.784	.02352
323.15	.777	.02331
333.15	.766	.02298
343.15	.752	.02256
353.15	.734	.02202

System: propan-1-ol + 1H-imidazolium, 3-(2-hydroxyethyl)-1-methyl-, trifluorotris(1,1,2,2,2-pentafluoroethyl)phosphate(1-); phases: Liquid
Fixed: Pressure, kPa = 101
Fixed: Mole fraction of propan-1-ol = 0
Property: Activity coefficient of propan-1-ol (Liquid); method: Chromatography
Temperature, K	Activity coefficient of propan-1-ol	uncertainty
318.15	1.133	.03399
323.15	1.123	.03369
333.15	1.087	.03261
343.15	1.051	.03153
353.15	1.018	.03054

System: propan-2-ol + 1H-imidazolium, 3-(2-hydroxyethyl)-1-methyl-, trifluorotris(1,1,2,2,2-pentafluoroethyl)phosphate(1-); phases: Liquid
Fixed: Pressure, kPa = 101
Fixed: Mole fraction of propan-2-ol = 0
Property: Activity coefficient of propan-2-ol (Liquid); method: Chromatography
Temperature, K	Activity coefficient of propan-2-ol	uncertainty
318.15	.811	.02433
323.15	.804	.02412
333.15	.792	.02376
343.15	.777	.02331
353.15	.763	.02289

System: 2,5-dioxahexane + 1H-imidazolium, 3-(2-hydroxyethyl)-1-methyl-, trifluorotris(1,1,2,2,2-pentafluoroethyl)phosphate(1-); phases: Liquid
Fixed: Pressure, kPa = 101
Fixed: Mole fraction of 2,5-dioxahexane = 0
Property: Activity coefficient of 2,5-dioxahexane (Liquid); method: Chromatography
Temperature, K	Activity coefficient of 2,5-dioxahexane	uncertainty
318.15	.0579	.001737
323.15	.0646	.001938
333.15	.0787	.002361
343.15	.0942	.002826
353.15	.1117	.003351

System: diisopropyl ether + 1H-imidazolium, 3-(2-hydroxyethyl)-1-methyl-, trifluorotris(1,1,2,2,2-pentafluoroethyl)phosphate(1-); phases: Liquid
Fixed: Pressure, kPa = 101
Fixed: Mole fraction of diisopropyl ether = 0
Property: Activity coefficient of diisopropyl ether (Liquid); method: Chromatography
Temperature, K	Activity coefficient of diisopropyl ether	uncertainty
318.15	1.31	.0393
323.15	1.4	.042
333.15	1.58	.0474
343.15	1.76	.0528
353.15	1.94	.0582

System: 2-methoxy-2-methylpropane + 1H-imidazolium, 3-(2-hydroxyethyl)-1-methyl-, trifluorotris(1,1,2,2,2-pentafluoroethyl)phosphate(1-); phases: Liquid
Fixed: Pressure, kPa = 101
Fixed: Mole fraction of 2-methoxy-2-methylpropane = 0
Property: Activity coefficient of 2-methoxy-2-methylpropane (Liquid); method: Chromatography
Temperature, K	Activity coefficient of 2-methoxy-2-methylpropane	uncertainty
318.15	.563	.01689
323.15	.603	.01809
333.15	.683	.02049
343.15	.763	.02289
353.15	.844	.02532

System: oxolane + 1H-imidazolium, 3-(2-hydroxyethyl)-1-methyl-, trifluorotris(1,1,2,2,2-pentafluoroethyl)phosphate(1-); phases: Liquid
Fixed: Pressure, kPa = 101
Fixed: Mole fraction of oxolane = 0
Property: Activity coefficient of oxolane (Liquid); method: Chromatography
Temperature, K	Activity coefficient of oxolane	uncertainty
318.15	.175	.00525
323.15	.186	.00558
333.15	.211	.00633
343.15	.236	.00708
353.15	.261	.00783

System: methyl acetate + 1H-imidazolium, 3-(2-hydroxyethyl)-1-methyl-, trifluorotris(1,1,2,2,2-pentafluoroethyl)phosphate(1-); phases: Liquid
Fixed: Pressure, kPa = 101
Fixed: Mole fraction of methyl acetate = 0
Property: Activity coefficient of methyl acetate (Liquid); method: Chromatography
Temperature, K	Activity coefficient of methyl acetate	uncertainty
318.15	.176	.00528
323.15	.185	.00555
333.15	.203	.00609
343.15	.221	.00663
353.15	.241	.00723

System: ethyl acetate + 1H-imidazolium, 3-(2-hydroxyethyl)-1-methyl-, trifluorotris(1,1,2,2,2-pentafluoroethyl)phosphate(1-); phases: Liquid
Fixed: Pressure, kPa = 101
Fixed: Mole fraction of ethyl acetate = 0
Property: Activity coefficient of ethyl acetate (Liquid); method: Chromatography
Temperature, K	Activity coefficient of ethyl acetate	uncertainty
318.15	.237	.00711
323.15	.251	.00753
333.15	.275	.00825
343.15	.3	.009
353.15	.324	.00972

System: acetone + 1H-imidazolium, 3-(2-hydroxyethyl)-1-methyl-, trifluorotris(1,1,2,2,2-pentafluoroethyl)phosphate(1-); phases: Liquid
Fixed: Pressure, kPa = 101
Fixed: Mole fraction of acetone = 0
Property: Activity coefficient of acetone (Liquid); method: Chromatography
Temperature, K	Activity coefficient of acetone	uncertainty
318.15	.0826	.002478
323.15	.0885	.002655
333.15	.0995	.002985
343.15	.111	.00333
353.15	.123	.00369

System: butanone + 1H-imidazolium, 3-(2-hydroxyethyl)-1-methyl-, trifluorotris(1,1,2,2,2-pentafluoroethyl)phosphate(1-); phases: Liquid
Fixed: Pressure, kPa = 101
Fixed: Mole fraction of butanone = 0
Property: Activity coefficient of butanone (Liquid); method: Chromatography
Temperature, K	Activity coefficient of butanone	uncertainty
318.15	.126	.00378
323.15	.133	.00399
333.15	.148	.00444
343.15	.164	.00492
353.15	.181	.00543

System: dimethyl carbonate + 1H-imidazolium, 3-(2-hydroxyethyl)-1-methyl-, trifluorotris(1,1,2,2,2-pentafluoroethyl)phosphate(1-); phases: Liquid
Fixed: Pressure, kPa = 101
Fixed: Mole fraction of dimethyl carbonate = 0
Property: Activity coefficient of dimethyl carbonate (Liquid); method: Chromatography
Temperature, K	Activity coefficient of dimethyl carbonate	uncertainty
318.15	.145	.00435
323.15	.152	.00456
333.15	.167	.00501
343.15	.182	.00546
353.15	.197	.00591

System: dichloromethane + 1H-imidazolium, 3-(2-hydroxyethyl)-1-methyl-, trifluorotris(1,1,2,2,2-pentafluoroethyl)phosphate(1-); phases: Liquid
Fixed: Pressure, kPa = 101
Fixed: Mole fraction of dichloromethane = 0
Property: Activity coefficient of dichloromethane (Liquid); method: Chromatography
Temperature, K	Activity coefficient of dichloromethane	uncertainty
318.15	1.49	.0447
323.15	1.47	.0441
333.15	1.43	.0429
343.15	1.39	.0417
353.15	1.36	.0408

System: trichloromethane + 1H-imidazolium, 3-(2-hydroxyethyl)-1-methyl-, trifluorotris(1,1,2,2,2-pentafluoroethyl)phosphate(1-); phases: Liquid
Fixed: Pressure, kPa = 101
Fixed: Mole fraction of trichloromethane = 0
Property: Activity coefficient of trichloromethane (Liquid); method: Chromatography
Temperature, K	Activity coefficient of trichloromethane	uncertainty
318.15	2.42	.0726
323.15	2.38	.0714
333.15	2.32	.0696
343.15	2.26	.0678
353.15	2.2	.066

System: 2-bromo-2-chloro-1,1,1-trifluoroethane + 1H-imidazolium, 3-(2-hydroxyethyl)-1-methyl-, trifluorotris(1,1,2,2,2-pentafluoroethyl)phosphate(1-); phases: Liquid
Fixed: Pressure, kPa = 101
Fixed: Mole fraction of 2-bromo-2-chloro-1,1,1-trifluoroethane = 0
Property: Activity coefficient of 2-bromo-2-chloro-1,1,1-trifluoroethane (Liquid); method: Chromatography
Temperature, K	Activity coefficient of 2-bromo-2-chloro-1,1,1-trifluoroethane	uncertainty
318.15	2.1	.063
323.15	2.1	.063
333.15	2.14	.0642
343.15	2.14	.0642
353.15	2.16	.0648

System: tetrachloromethane + 1H-imidazolium, 3-(2-hydroxyethyl)-1-methyl-, trifluorotris(1,1,2,2,2-pentafluoroethyl)phosphate(1-); phases: Liquid
Fixed: Pressure, kPa = 101
Fixed: Mole fraction of tetrachloromethane = 0
Property: Activity coefficient of tetrachloromethane (Liquid); method: Chromatography
Temperature, K	Activity coefficient of tetrachloromethane	uncertainty
318.15	6.75	.2025
323.15	6.54	.1962
333.15	6.17	.1851
343.15	5.85	.1755
353.15	5.56	.1668

System: nitromethane + 1H-imidazolium, 3-(2-hydroxyethyl)-1-methyl-, trifluorotris(1,1,2,2,2-pentafluoroethyl)phosphate(1-); phases: Liquid
Fixed: Pressure, kPa = 101
Fixed: Mole fraction of nitromethane = 0
Property: Activity coefficient of nitromethane (Liquid); method: Chromatography
Temperature, K	Activity coefficient of nitromethane	uncertainty
318.15	.326	.00978
323.15	.328	.00984
333.15	.331	.00993
343.15	.333	.00999
353.15	.336	.01008

System: acetonitrile + 1H-imidazolium, 3-(2-hydroxyethyl)-1-methyl-, trifluorotris(1,1,2,2,2-pentafluoroethyl)phosphate(1-); phases: Liquid
Fixed: Pressure, kPa = 101
Fixed: Mole fraction of acetonitrile = 0
Property: Activity coefficient of acetonitrile (Liquid); method: Chromatography
Temperature, K	Activity coefficient of acetonitrile	uncertainty
318.15	.133	.00399
323.15	.139	.00417
333.15	.148	.00444
343.15	.157	.00471
353.15	.166	.00498

System: thiophene + 1H-imidazolium, 3-(2-hydroxyethyl)-1-methyl-, trifluorotris(1,1,2,2,2-pentafluoroethyl)phosphate(1-); phases: Liquid
Fixed: Pressure, kPa = 101
Fixed: Mole fraction of thiophene = 0
Property: Activity coefficient of thiophene (Liquid); method: Chromatography
Temperature, K	Activity coefficient of thiophene	uncertainty
318.15	1.071	.03213
323.15	1.074	.03222
333.15	1.077	.03231
343.15	1.08	.0324
353.15	1.085	.03255

System: heptane + 1-(2-methoxyethyl)-1-methylpyrrolidinium trifluorotris(perfluoroethyl)phosphate(V); phases: Liquid
Fixed: Pressure, kPa = 101
Fixed: Mole fraction of heptane = 0
Property: Activity coefficient of heptane (Liquid); method: Chromatography
Temperature, K	Activity coefficient of heptane	uncertainty
318.15	17.3	.519
323.15	16.6	.498
333.15	15.3	.459
343.15	14.2	.426
353.15	13.2	.396

System: octane + 1-(2-methoxyethyl)-1-methylpyrrolidinium trifluorotris(perfluoroethyl)phosphate(V); phases: Liquid
Fixed: Pressure, kPa = 101
Fixed: Mole fraction of octane = 0
Property: Activity coefficient of octane (Liquid); method: Chromatography
Temperature, K	Activity coefficient of octane	uncertainty
318.15	25	.75
323.15	23.8	.714
333.15	21.6	.648
343.15	19.8	.594
353.15	18.1	.543

System: 1-octene + 1-(2-methoxyethyl)-1-methylpyrrolidinium trifluorotris(perfluoroethyl)phosphate(V); phases: Liquid
Fixed: Pressure, kPa = 101
Fixed: Mole fraction of 1-octene = 0
Property: Activity coefficient of 1-octene (Liquid); method: Chromatography
Temperature, K	Activity coefficient of 1-octene	uncertainty
318.15	12.3	.369
323.15	11.9	.357
333.15	11.2	.336
343.15	10.6	.318
353.15	10.1	.303

System: cyclohexane + 1-(2-methoxyethyl)-1-methylpyrrolidinium trifluorotris(perfluoroethyl)phosphate(V); phases: Liquid
Fixed: Pressure, kPa = 101
Fixed: Mole fraction of cyclohexane = 0
Property: Activity coefficient of cyclohexane (Liquid); method: Chromatography
Temperature, K	Activity coefficient of cyclohexane	uncertainty
318.15	8.13	.2439
323.15	7.82	.2346
333.15	7.27	.2181
343.15	6.79	.2037
353.15	6.37	.1911

System: methylcyclohexane + 1-(2-methoxyethyl)-1-methylpyrrolidinium trifluorotris(perfluoroethyl)phosphate(V); phases: Liquid
Fixed: Pressure, kPa = 101
Fixed: Mole fraction of methylcyclohexane = 0
Property: Activity coefficient of methylcyclohexane (Liquid); method: Chromatography
Temperature, K	Activity coefficient of methylcyclohexane	uncertainty
318.15	10.7	.321
323.15	10.2	.306
333.15	9.52	.2856
343.15	8.87	.2661
353.15	8.32	.2496

System: ethylcyclohexane + 1-(2-methoxyethyl)-1-methylpyrrolidinium trifluorotris(perfluoroethyl)phosphate(V); phases: Liquid
Fixed: Pressure, kPa = 101
Fixed: Mole fraction of ethylcyclohexane = 0
Property: Activity coefficient of ethylcyclohexane (Liquid); method: Chromatography
Temperature, K	Activity coefficient of ethylcyclohexane	uncertainty
318.15	15.7	.471
323.15	15	.45
333.15	13.7	.411
343.15	12.6	.378
353.15	11.6	.348

System: benzene + 1-(2-methoxyethyl)-1-methylpyrrolidinium trifluorotris(perfluoroethyl)phosphate(V); phases: Liquid
Fixed: Pressure, kPa = 101
Fixed: Mole fraction of benzene = 0
Property: Activity coefficient of benzene (Liquid); method: Chromatography
Temperature, K	Activity coefficient of benzene	uncertainty
318.15	.622	.01866
323.15	.63	.0189
333.15	.65	.0195
343.15	.667	.02001
353.15	.68	.0204

System: toluene + 1-(2-methoxyethyl)-1-methylpyrrolidinium trifluorotris(perfluoroethyl)phosphate(V); phases: Liquid
Fixed: Pressure, kPa = 101
Fixed: Mole fraction of toluene = 0
Property: Activity coefficient of toluene (Liquid); method: Chromatography
Temperature, K	Activity coefficient of toluene	uncertainty
318.15	.865	.02595
323.15	.877	.02631
333.15	.902	.02706
343.15	.925	.02775
353.15	.947	.02841

System: ethylbenzene + 1-(2-methoxyethyl)-1-methylpyrrolidinium trifluorotris(perfluoroethyl)phosphate(V); phases: Liquid
Fixed: Pressure, kPa = 101
Fixed: Mole fraction of ethylbenzene = 0
Property: Activity coefficient of ethylbenzene (Liquid); method: Chromatography
Temperature, K	Activity coefficient of ethylbenzene	uncertainty
318.15	1.28	.0384
323.15	1.29	.0387
333.15	1.32	.0396
343.15	1.34	.0402
353.15	1.36	.0408

System: m-xylene + 1-(2-methoxyethyl)-1-methylpyrrolidinium trifluorotris(perfluoroethyl)phosphate(V); phases: Liquid
Fixed: Pressure, kPa = 101
Fixed: Mole fraction of m-xylene = 0
Property: Activity coefficient of m-xylene (Liquid); method: Chromatography
Temperature, K	Activity coefficient of m-xylene	uncertainty
318.15	1.21	.0363
323.15	1.22	.0366
333.15	1.25	.0375
343.15	1.27	.0381
353.15	1.3	.039

System: methanol + 1-(2-methoxyethyl)-1-methylpyrrolidinium trifluorotris(perfluoroethyl)phosphate(V); phases: Liquid
Fixed: Pressure, kPa = 101
Fixed: Mole fraction of methanol = 0
Property: Activity coefficient of methanol (Liquid); method: Chromatography
Temperature, K	Activity coefficient of methanol	uncertainty
318.15	2.3	.069
323.15	2.17	.0651
333.15	1.95	.0585
343.15	1.76	.0528
353.15	1.6	.048

System: ethanol + 1-(2-methoxyethyl)-1-methylpyrrolidinium trifluorotris(perfluoroethyl)phosphate(V); phases: Liquid
Fixed: Pressure, kPa = 101
Fixed: Mole fraction of ethanol = 0
Property: Activity coefficient of ethanol (Liquid); method: Chromatography
Temperature, K	Activity coefficient of ethanol	uncertainty
318.15	2.44	.0732
323.15	2.3	.069
333.15	2.07	.0621
343.15	1.86	.0558
353.15	1.68	.0504

System: propan-1-ol + 1-(2-methoxyethyl)-1-methylpyrrolidinium trifluorotris(perfluoroethyl)phosphate(V); phases: Liquid
Fixed: Pressure, kPa = 101
Fixed: Mole fraction of propan-1-ol = 0
Property: Activity coefficient of propan-1-ol (Liquid); method: Chromatography
Temperature, K	Activity coefficient of propan-1-ol	uncertainty
318.15	3.18	.0954
323.15	2.97	.0891
333.15	2.62	.0786
343.15	2.32	.0696
353.15	2.08	.0624

System: propan-2-ol + 1-(2-methoxyethyl)-1-methylpyrrolidinium trifluorotris(perfluoroethyl)phosphate(V); phases: Liquid
Fixed: Pressure, kPa = 101
Fixed: Mole fraction of propan-2-ol = 0
Property: Activity coefficient of propan-2-ol (Liquid); method: Chromatography
Temperature, K	Activity coefficient of propan-2-ol	uncertainty
318.15	2.6	.078
323.15	2.43	.0729
333.15	2.16	.0648
343.15	1.93	.0579
353.15	1.74	.0522

System: 2,5-dioxahexane + 1-(2-methoxyethyl)-1-methylpyrrolidinium trifluorotris(perfluoroethyl)phosphate(V); phases: Liquid
Fixed: Pressure, kPa = 101
Fixed: Mole fraction of 2,5-dioxahexane = 0
Property: Activity coefficient of 2,5-dioxahexane (Liquid); method: Chromatography
Temperature, K	Activity coefficient of 2,5-dioxahexane	uncertainty
318.15	.309	.00927
323.15	.323	.00969
333.15	.349	.01047
343.15	.375	.01125
353.15	.399	.01197

System: diisopropyl ether + 1-(2-methoxyethyl)-1-methylpyrrolidinium trifluorotris(perfluoroethyl)phosphate(V); phases: Liquid
Fixed: Pressure, kPa = 101
Fixed: Mole fraction of diisopropyl ether = 0
Property: Activity coefficient of diisopropyl ether (Liquid); method: Chromatography
Temperature, K	Activity coefficient of diisopropyl ether	uncertainty
318.15	3.25	.0975
323.15	3.25	.0975
333.15	3.26	.0978
343.15	3.26	.0978
353.15	3.26	.0978

System: oxolane + 1-(2-methoxyethyl)-1-methylpyrrolidinium trifluorotris(perfluoroethyl)phosphate(V); phases: Liquid
Fixed: Pressure, kPa = 101
Fixed: Mole fraction of oxolane = 0
Property: Activity coefficient of oxolane (Liquid); method: Chromatography
Temperature, K	Activity coefficient of oxolane	uncertainty
318.15	.474	.01422
323.15	.482	.01446
333.15	.499	.01497
343.15	.515	.01545
353.15	.529	.01587

System: methyl acetate + 1-(2-methoxyethyl)-1-methylpyrrolidinium trifluorotris(perfluoroethyl)phosphate(V); phases: Liquid
Fixed: Pressure, kPa = 101
Fixed: Mole fraction of methyl acetate = 0
Property: Activity coefficient of methyl acetate (Liquid); method: Chromatography
Temperature, K	Activity coefficient of methyl acetate	uncertainty
318.15	.354	.01062
323.15	.361	.01083
333.15	.375	.01125
343.15	.389	.01167
353.15	.403	.01209

System: ethyl acetate + 1-(2-methoxyethyl)-1-methylpyrrolidinium trifluorotris(perfluoroethyl)phosphate(V); phases: Liquid
Fixed: Pressure, kPa = 101
Fixed: Mole fraction of ethyl acetate = 0
Property: Activity coefficient of ethyl acetate (Liquid); method: Chromatography
Temperature, K	Activity coefficient of ethyl acetate	uncertainty
318.15	.454	.01362
323.15	.463	.01389
333.15	.482	.01446
343.15	.498	.01494
353.15	.517	.01551

System: acetone + 1-(2-methoxyethyl)-1-methylpyrrolidinium trifluorotris(perfluoroethyl)phosphate(V); phases: Liquid
Fixed: Pressure, kPa = 101
Fixed: Mole fraction of acetone = 0
Property: Activity coefficient of acetone (Liquid); method: Chromatography
Temperature, K	Activity coefficient of acetone	uncertainty
318.15	.236	.00708
323.15	.241	.00723
333.15	.252	.00756
343.15	.262	.00786
353.15	.272	.00816

System: butanone + 1-(2-methoxyethyl)-1-methylpyrrolidinium trifluorotris(perfluoroethyl)phosphate(V); phases: Liquid
Fixed: Pressure, kPa = 101
Fixed: Mole fraction of butanone = 0
Property: Activity coefficient of butanone (Liquid); method: Chromatography
Temperature, K	Activity coefficient of butanone	uncertainty
318.15	.308	.00924
323.15	.315	.00945
333.15	.327	.00981
343.15	.339	.01017
353.15	.35	.0105

System: dimethyl carbonate + 1-(2-methoxyethyl)-1-methylpyrrolidinium trifluorotris(perfluoroethyl)phosphate(V); phases: Liquid
Fixed: Pressure, kPa = 101
Fixed: Mole fraction of dimethyl carbonate = 0
Property: Activity coefficient of dimethyl carbonate (Liquid); method: Chromatography
Temperature, K	Activity coefficient of dimethyl carbonate	uncertainty
318.15	.263	.00789
323.15	.271	.00813
333.15	.286	.00858
343.15	.301	.00903
353.15	.315	.00945

System: dichloromethane + 1-(2-methoxyethyl)-1-methylpyrrolidinium trifluorotris(perfluoroethyl)phosphate(V); phases: Liquid
Fixed: Pressure, kPa = 101
Fixed: Mole fraction of dichloromethane = 0
Property: Activity coefficient of dichloromethane (Liquid); method: Chromatography
Temperature, K	Activity coefficient of dichloromethane	uncertainty
318.15	.985	.02955
323.15	.976	.02928
333.15	.965	.02895
343.15	.954	.02862
353.15	.942	.02826

System: trichloromethane + 1-(2-methoxyethyl)-1-methylpyrrolidinium trifluorotris(perfluoroethyl)phosphate(V); phases: Liquid
Fixed: Pressure, kPa = 101
Fixed: Mole fraction of trichloromethane = 0
Property: Activity coefficient of trichloromethane (Liquid); method: Chromatography
Temperature, K	Activity coefficient of trichloromethane	uncertainty
318.15	1.357	.04071
323.15	1.353	.04059
333.15	1.349	.04047
343.15	1.34	.0402
353.15	1.33	.0399

System: 2-bromo-2-chloro-1,1,1-trifluoroethane + 1-(2-methoxyethyl)-1-methylpyrrolidinium trifluorotris(perfluoroethyl)phosphate(V); phases: Liquid
Fixed: Pressure, kPa = 101
Fixed: Mole fraction of 2-bromo-2-chloro-1,1,1-trifluoroethane = 0
Property: Activity coefficient of 2-bromo-2-chloro-1,1,1-trifluoroethane (Liquid); method: Chromatography
Temperature, K	Activity coefficient of 2-bromo-2-chloro-1,1,1-trifluoroethane	uncertainty
318.15	1.09	.0327
323.15	1.1	.033
333.15	1.15	.0345
343.15	1.18	.0354
353.15	1.21	.0363

System: tetrachloromethane + 1-(2-methoxyethyl)-1-methylpyrrolidinium trifluorotris(perfluoroethyl)phosphate(V); phases: Liquid
Fixed: Pressure, kPa = 101
Fixed: Mole fraction of tetrachloromethane = 0
Property: Activity coefficient of tetrachloromethane (Liquid); method: Chromatography
Temperature, K	Activity coefficient of tetrachloromethane	uncertainty
318.15	3.03	.0909
323.15	2.99	.0897
333.15	2.91	.0873
343.15	2.83	.0849
353.15	2.77	.0831

System: nitromethane + 1-(2-methoxyethyl)-1-methylpyrrolidinium trifluorotris(perfluoroethyl)phosphate(V); phases: Liquid
Fixed: Pressure, kPa = 101
Fixed: Mole fraction of nitromethane = 0
Property: Activity coefficient of nitromethane (Liquid); method: Chromatography
Temperature, K	Activity coefficient of nitromethane	uncertainty
318.15	.412	.01236
323.15	.41	.0123
333.15	.41	.0123
343.15	.409	.01227
353.15	.406	.01218

System: acetonitrile + 1-(2-methoxyethyl)-1-methylpyrrolidinium trifluorotris(perfluoroethyl)phosphate(V); phases: Liquid
Fixed: Pressure, kPa = 101
Fixed: Mole fraction of acetonitrile = 0
Property: Activity coefficient of acetonitrile (Liquid); method: Chromatography
Temperature, K	Activity coefficient of acetonitrile	uncertainty
318.15	.286	.00858
323.15	.289	.00867
333.15	.294	.00882
343.15	.299	.00897
353.15	.302	.00906

System: thiophene + 1-(2-methoxyethyl)-1-methylpyrrolidinium trifluorotris(perfluoroethyl)phosphate(V); phases: Liquid
Fixed: Pressure, kPa = 101
Fixed: Mole fraction of thiophene = 0
Property: Activity coefficient of thiophene (Liquid); method: Chromatography
Temperature, K	Activity coefficient of thiophene	uncertainty
318.15	.654	.01962
323.15	.662	.01986
333.15	.676	.02028
343.15	.688	.02064
353.15	.701	.02103

System: 2-methoxy-2-methylpropane + 1-(2-methoxyethyl)-1-methylpyrrolidinium trifluorotris(perfluoroethyl)phosphate(V); phases: Liquid
Fixed: Pressure, kPa = 101
Fixed: Mole fraction of 2-methoxy-2-methylpropane = 0
Property: Activity coefficient of 2-methoxy-2-methylpropane (Liquid); method: Chromatography
Temperature, K	Activity coefficient of 2-methoxy-2-methylpropane	uncertainty
318.15	1.43	.0429
323.15	1.44	.0432
333.15	1.47	.0441
343.15	1.5	.045
353.15	1.53	.0459
