Measured thermophysical data. Experimental study on the calorimetric data of cyclohexanol with alkanols (C1-C4) and  correlation with Wilson, NRTL and UNIQUAC models at 300 K
Source: J. Chem. Thermodyn., 2012, 10.1016/j.jct.2012.02.037
Compound 1: cyclohexyl alcohol, C6H12O, purity 99%
Compound 2: methanol, CH4O, purity 99.8%
Compound 3: ethanol, C2H6O, purity 99.8%
Compound 4: propyl alcohol, C3H8O, purity 99.8%
Compound 5: 2-propanol, C3H8O, purity 99.5%
Compound 6: n-butyl alcohol, C4H10O, purity 99.8%
Compound 7: butan-2-ol, C4H10O, purity 99%

System: cyclohexyl alcohol; phases: Liquid
Fixed: Pressure, kPa = 101.325
Property: Mass density, kg/m3 (Liquid); method: Vibrating tube method
Temperature, K	Mass density, kg/m3	uncertainty
303.15	941.36	.05

System: cyclohexyl alcohol; phases: Liquid
Fixed: Pressure, kPa = 101.325
Property: Refractive index (Na D-line) (Liquid); method: Standard Abbe refractometry
Temperature, K	Refractive index (Na D-line)	uncertainty
303.15	1.4632	.0002

System: methanol; phases: Liquid
Fixed: Pressure, kPa = 101.325
Property: Mass density, kg/m3 (Liquid); method: Vibrating tube method
Temperature, K	Mass density, kg/m3	uncertainty
303.15	781.87	.05

System: methanol; phases: Liquid
Fixed: Pressure, kPa = 101.325
Property: Refractive index (Na D-line) (Liquid); method: Standard Abbe refractometry
Temperature, K	Refractive index (Na D-line)	uncertainty
303.15	1.3255	.0002

System: ethanol; phases: Liquid
Fixed: Pressure, kPa = 101.325
Property: Mass density, kg/m3 (Liquid); method: Vibrating tube method
Temperature, K	Mass density, kg/m3	uncertainty
303.15	780.82	.05

System: ethanol; phases: Liquid
Fixed: Pressure, kPa = 101.325
Property: Refractive index (Na D-line) (Liquid); method: Standard Abbe refractometry
Temperature, K	Refractive index (Na D-line)	uncertainty
303.15	1.358	.0002

System: propyl alcohol; phases: Liquid
Fixed: Pressure, kPa = 101.325
Property: Mass density, kg/m3 (Liquid); method: Vibrating tube method
Temperature, K	Mass density, kg/m3	uncertainty
303.15	795.53	.05

System: propyl alcohol; phases: Liquid
Fixed: Pressure, kPa = 101.325
Property: Refractive index (Na D-line) (Liquid); method: Standard Abbe refractometry
Temperature, K	Refractive index (Na D-line)	uncertainty
303.15	1.3821	.0002

System: 2-propanol; phases: Liquid
Fixed: Pressure, kPa = 101.325
Property: Mass density, kg/m3 (Liquid); method: Vibrating tube method
Temperature, K	Mass density, kg/m3	uncertainty
303.15	776.71	.05

System: 2-propanol; phases: Liquid
Fixed: Pressure, kPa = 101.325
Property: Refractive index (Na D-line) (Liquid); method: Standard Abbe refractometry
Temperature, K	Refractive index (Na D-line)	uncertainty
303.15	1.3741	.0002

System: n-butyl alcohol; phases: Liquid
Fixed: Pressure, kPa = 101.325
Property: Mass density, kg/m3 (Liquid); method: Vibrating tube method
Temperature, K	Mass density, kg/m3	uncertainty
303.15	801.98	.05

System: n-butyl alcohol; phases: Liquid
Fixed: Pressure, kPa = 101.325
Property: Refractive index (Na D-line) (Liquid); method: Standard Abbe refractometry
Temperature, K	Refractive index (Na D-line)	uncertainty
303.15	1.3962	.0002

System: butan-2-ol; phases: Liquid
Fixed: Pressure, kPa = 101.325
Property: Mass density, kg/m3 (Liquid); method: Vibrating tube method
Temperature, K	Mass density, kg/m3	uncertainty
303.15	798.58	.05

System: butan-2-ol; phases: Liquid
Fixed: Pressure, kPa = 101.325
Property: Refractive index (Na D-line) (Liquid); method: Standard Abbe refractometry
Temperature, K	Refractive index (Na D-line)	uncertainty
303.15	1.394	.0002

System: methanol + cyclohexyl alcohol; phases: Liquid
Fixed: Temperature, K = 300
Fixed: Pressure, kPa = 101
Property: Excess molar enthalpy (molar enthalpy of mixing), kJ/mol (Liquid); method: Flow calorimetry
Mole fraction of cyclohexyl alcohol	Excess molar enthalpy (molar enthalpy of mixing), kJ/mol	uncertainty
.0742	.1041	.001041
.1422	.1539	.001539
.2234	.196	.00196
.2948	.2135	.002135
.4871	.2149	.002149
.5587	.1938	.001938
.6333	.17	.0017
.7266	.1332	.001332
.8274	.0822	.000822
.9162	.0424	.000424

System: propyl alcohol + cyclohexyl alcohol; phases: Liquid
Fixed: Temperature, K = 300
Fixed: Pressure, kPa = 101
Property: Excess molar enthalpy (molar enthalpy of mixing), kJ/mol (Liquid); method: Flow calorimetry
Mole fraction of cyclohexyl alcohol	Excess molar enthalpy (molar enthalpy of mixing), kJ/mol	uncertainty
.0808	.0244	.000244
.1568	.0445	.000445
.2326	.0631	.000631
.3085	.0731	.000731
.3888	.0843	.000843
.4614	.0946	.000946
.547	.0989	.000989
.6359	.0964	.000964
.7223	.0859	.000859
.8063	.0696	.000696
.901	.0409	.000409

System: n-butyl alcohol + cyclohexyl alcohol; phases: Liquid
Fixed: Temperature, K = 300
Fixed: Pressure, kPa = 101
Property: Excess molar enthalpy (molar enthalpy of mixing), kJ/mol (Liquid); method: Flow calorimetry
Mole fraction of cyclohexyl alcohol	Excess molar enthalpy (molar enthalpy of mixing), kJ/mol	uncertainty
.0976	.0374	.000374
.1867	.0599	.000599
.3025	.0895	.000895
.3622	.1007	.001007
.4484	.1133	.001133
.5609	.1168	.001168
.6402	.1168	.001168
.7119	.1091	.001091
.7842	.0922	.000922
.785	.0935	.000935
.8549	.0705	.000705
.8747	.0591	.000591
.9059	.0462	.000462

System: ethanol + cyclohexyl alcohol; phases: Liquid
Fixed: Temperature, K = 300
Fixed: Pressure, kPa = 101
Property: Excess molar enthalpy (molar enthalpy of mixing), kJ/mol (Liquid); method: Flow calorimetry
Mole fraction of cyclohexyl alcohol	Excess molar enthalpy (molar enthalpy of mixing), kJ/mol	uncertainty
.0883	.0686	.000686
.1688	.1182	.001182
.2501	.1468	.001468
.337	.1659	.001659
.456	.1764	.001764
.5436	.1772	.001772
.6255	.1637	.001637
.7119	.1454	.001454
.8026	.1169	.001169
.9062	.0671	.000671

System: 2-propanol + cyclohexyl alcohol; phases: Liquid
Fixed: Temperature, K = 300
Fixed: Pressure, kPa = 101
Property: Excess molar enthalpy (molar enthalpy of mixing), kJ/mol (Liquid); method: Flow calorimetry
Mole fraction of cyclohexyl alcohol	Excess molar enthalpy (molar enthalpy of mixing), kJ/mol	uncertainty
.0817	.0678	.000678
.1653	.1155	.001155
.2454	.1491	.001491
.3436	.1793	.001793
.5462	.1949	.001949
.6326	.1887	.001887
.7173	.1694	.001694
.8036	.1245	.001245
.9097	.0721	.000721

System: butan-2-ol + cyclohexyl alcohol; phases: Liquid
Fixed: Temperature, K = 300
Fixed: Pressure, kPa = 101
Property: Excess molar enthalpy (molar enthalpy of mixing), kJ/mol (Liquid); method: Flow calorimetry
Mole fraction of cyclohexyl alcohol	Excess molar enthalpy (molar enthalpy of mixing), kJ/mol	uncertainty
.0831	.0468	.000468
.0874	.0489	.000489
.1613	.0793	.000793
.1704	.0841	.000841
.2787	.1189	.001189
.3304	.1273	.001273
.4131	.1398	.001398
.5657	.1502	.001502
.6512	.1517	.001517
.7441	.1358	.001358
.7557	.1336	.001336
.8271	.1035	.001035
.8352	.0997	.000997
.9129	.0535	.000535
.9201	.0531	.000531
