Measured thermophysical data. High-pressure phase behaviour measurement of (CO2 + ethylene glycol dimethacrylate) and (CO2 + di-ethylene glycol dimethacrylate) binary mixture systems
Source: J. Chem. Thermodyn., 2011, 10.1016/j.jct.2011.05.031
Compound 1: ethylene glycol bis(methylmethacrylate), C10H14O4, purity 99%
Compound 2: Diethylene glycol dimethacrylate, C12H18O5, purity 97%
Compound 3: carbon dioxide, CO2, purity 99.999%

System: ethylene glycol bis(methylmethacrylate) + carbon dioxide; phases: Liquid, Gas
Property: Mole fraction of carbon dioxide (Liquid); method: gravimetric method
Temperature, K	Pressure, kPa	Mole fraction of carbon dioxide	uncertainty
363.2	9454	.582	
363.2	9841	.616	
363.2	11638	.681	
363.2	12930	.741	
363.2	13116	.751	
363.2	14311	.776	
363.2	14702	.797	
363.2	14757	.798	
363.2	15117	.816	
363.2	16511	.848	
363.2	16739	.865	
363.2	17317	.902	
353.2	8626	.582	
353.2	8824	.616	
353.2	10498	.681	
353.2	11606	.741	
353.2	11745	.751	
353.2	12779	.776	
353.2	13150	.797	
353.2	13217	.798	
353.2	13484	.816	
353.2	14767	.848	
353.2	15001	.865	
353.2	15619	.902	
343.2	7785	.582	
343.2	7825	.616	
343.2	9381	.681	
343.2	10159	.741	
343.2	10312	.751	
343.2	11139	.776	
343.2	11516	.797	
343.2	11614	.798	
343.2	11806	.816	
343.2	12963	.848	
343.2	13148	.865	
343.2	13744	.902	
333.2	6843	.616	
333.2	8240	.681	
333.2	8736	.741	
333.2	8882	.751	
333.2	9799	.776	
333.2	9921	.797	
333.2	10006	.798	
333.2	10101	.816	
333.2	11124	.848	
333.2	11305	.865	
333.2	11721	.902	
333.2	12024	.918	
333.2	12067	.931	
323.2	5693	.582	
323.2	5981	.616	
323.2	7167	.681	
323.2	7370	.741	
323.2	7430	.751	
323.2	8199	.776	
323.2	8356	.797	
323.2	8435	.798	
323.2	8483	.816	
323.2	9260	.848	
323.2	9409	.865	
323.2	9710	.902	
323.2	10021	.918	
323.2	10013	.931	
313.2	5003	.582	
313.2	5308	.616	
313.2	6225	.681	
313.2	6250	.741	
313.2	6948	.776	
313.2	6953	.797	
313.2	7009	.798	
313.2	7632	.848	
313.2	8149	.918	
313.2	8191	.931	

System: ethylene glycol bis(methylmethacrylate) + carbon dioxide; phases: Gas, Liquid
Property: Mole fraction of carbon dioxide (Gas); method: gravimetric method
Temperature, K	Pressure, kPa	Mole fraction of carbon dioxide	uncertainty
363.2	17503	.931	
353.2	15860	.931	
343.2	14024	.931	

System: ethylene glycol bis(methylmethacrylate) + carbon dioxide; phases: Liquid, Gas
Property: Critical temperature, K (Liquid); method: Visual observation in a stirred cell
Mole fraction of carbon dioxide	Critical temperature, K	uncertainty
.918	363.2	.05
.918	353.2	.05
.918	343.2	.05

System: ethylene glycol bis(methylmethacrylate) + carbon dioxide; phases: Liquid, Gas
Property: Critical pressure, kPa (Liquid); method: Direct measurement
Mole fraction of carbon dioxide	Critical pressure, kPa	uncertainty
.918	17598	2
.918	15921	7
.918	14036	12

System: carbon dioxide + Diethylene glycol dimethacrylate; phases: Liquid, Gas
Property: Mole fraction of carbon dioxide (Liquid); method: gravimetric method
Temperature, K	Pressure, kPa	Mole fraction of carbon dioxide	uncertainty
363.2	8784	.588	
363.2	9411	.602	
363.2	11046	.668	
363.2	12652	.706	
363.2	14247	.761	
363.2	16449	.804	
363.2	18314	.849	
353.2	7996	.588	
353.2	8500	.602	
353.2	10094	.668	
353.2	11264	.706	
353.2	12888	.761	
353.2	14606	.804	
353.2	16315	.849	
353.2	18341	.909	
343.2	7098	.588	
343.2	7466	.602	
343.2	9154	.668	
343.2	9924	.706	
343.2	11269	.761	
343.2	12629	.804	
343.2	14192	.849	
343.2	16059	.909	
333.2	6241	.588	
333.2	6493	.602	
333.2	7331	.665	
333.2	8524	.706	
333.2	9430	.761	
333.2	10762	.804	
333.2	11950	.849	
333.2	13627	.909	
323.2	5411	.588	
323.2	5631	.602	
323.2	6284	.665	
323.2	7301	.706	
323.2	8259	.761	
323.2	9020	.804	
323.2	9736	.849	
323.2	11002	.909	
323.2	11587	.938	
313.2	4579	.588	
313.2	4833	.602	
313.2	5327	.665	
313.2	6155	.706	
313.2	7361	.804	
313.2	7775	.849	
313.2	8520	.909	
313.2	8787	.938	

System: carbon dioxide + Diethylene glycol dimethacrylate; phases: Gas, Liquid
Property: Mole fraction of carbon dioxide (Gas); method: gravimetric method
Temperature, K	Pressure, kPa	Mole fraction of carbon dioxide	uncertainty
363.2	20535	.938	
363.2	20477	.947	
353.2	18818	.947	
343.2	16635	.947	
333.2	14266	.947	

System: carbon dioxide + Diethylene glycol dimethacrylate; phases: Liquid, Gas
Property: Critical temperature, K (Liquid); method: Visual observation in a stirred cell
Mole fraction of carbon dioxide	Critical temperature, K	uncertainty
.909	363.2	.05
.938	353.2	.05
.938	343.2	.05
.938	333.2	.05
.947	323.2	.05
.947	313.2	.05

System: carbon dioxide + Diethylene glycol dimethacrylate; phases: Liquid, Gas
Property: Critical pressure, kPa (Liquid); method: Direct measurement
Mole fraction of carbon dioxide	Critical pressure, kPa	uncertainty
.909	20110	33
.938	18826	4
.938	16622	3
.938	14177	6
.947	11618	2
.947	8833	6
