Measured thermophysical data. Density, dynamic viscosity, and electrical conductivity of pyridinium-based hydrophobic ionic liquids
Source: J. Chem. Thermodyn., 2013, 10.1016/j.jct.2013.06.008
Compound 1: 3-methyl-1-propylpyridinium bis(trifluoromethylsulfonyl)imide, C11H14F6N2O4S2
Compound 2: 1-hexyl-3-methylpyridinium 1,1,1-trifluoro-N-[(trifluoromethyl)sulfonyl]methanesulfonamide, C14H20F6N2O4S2
Compound 3: N-hexyl-4-methylpyridinium bis(trifluoromethylsulfonyl)imide, C14H20F6N2O4S2

System: 3-methyl-1-propylpyridinium bis(trifluoromethylsulfonyl)imide; phases: Liquid
Property: Mass density, kg/m3 (Liquid); method: Buoyancy - hydrostatic balance
Temperature, K	Pressure, kPa	Mass density, kg/m3	uncertainty
288.15	100	1459.6	1
293.15	100	1455.6	1
298.15	100	1451.4	1
303.15	100	1447.1	1
308.15	100	1442.6	1
313.15	100	1438	1
318.15	100	1433.2	1
323.15	100	1428.7	1
328.15	100	1424.5	1
333.15	100	1420.3	1
338.15	100	1416	1

System: 3-methyl-1-propylpyridinium bis(trifluoromethylsulfonyl)imide; phases: Liquid
Property: Viscosity, Pa*s (Liquid); method: Capillary tube (Ostwald; Ubbelohde) method
Pressure, kPa	Temperature, K	Viscosity, Pa*s	uncertainty
100	298.15	.05412	.0005412
100	303.15	.04346	.0004346
100	308.15	.03527	.0003527
100	313.15	.02918	.0002918
100	318.15	.02432	.0002432
100	323.15	.02087	.0002087
100	328.15	.01794	.0001794
100	333.15	.01515	.0001515
100	338.15	.0134	.000134
100	343.15	.01174	.0001174
100	348.15	.01037	.0001037
100	353.15	.00919	.0000919

System: 3-methyl-1-propylpyridinium bis(trifluoromethylsulfonyl)imide; phases: Liquid
Property: Electrical conductivity, S/m (Liquid); method: Alternating current cell with electrodes
Pressure, kPa	Temperature, K	Electrical conductivity, S/m	uncertainty
100	278.15	.1524	.001524
100	283.15	.199	.00199
100	288.15	.253	.00253
100	293.15	.318	.00318
100	298.15	.393	.00393
100	303.15	.476	.00476
100	308.15	.571	.00571
100	313.15	.671	.00671
100	318.15	.786	.00786
100	323.15	.904	.00904
100	328.15	1.036	.01036
100	333.15	1.179	.01179
100	338.15	1.329	.01329
100	343.15	1.485	.01485
100	348.15	1.65	.0165
100	353.15	1.828	.01828

System: 1-hexyl-3-methylpyridinium 1,1,1-trifluoro-N-[(trifluoromethyl)sulfonyl]methanesulfonamide; phases: Liquid
Property: Mass density, kg/m3 (Liquid); method: Buoyancy - hydrostatic balance
Temperature, K	Pressure, kPa	Mass density, kg/m3	uncertainty
283.15	100	1373.6	1
288.15	100	1369.7	1
293.15	100	1365.3	1
298.15	100	1361.5	1
303.15	100	1357	1
308.15	100	1352.9	1
313.15	100	1348.7	1
318.15	100	1344.7	1
323.15	100	1340.3	1
328.15	100	1336	1
333.15	100	1331.7	1
338.15	100	1328	1

System: 1-hexyl-3-methylpyridinium 1,1,1-trifluoro-N-[(trifluoromethyl)sulfonyl]methanesulfonamide; phases: Liquid
Property: Viscosity, Pa*s (Liquid); method: Capillary tube (Ostwald; Ubbelohde) method
Pressure, kPa	Temperature, K	Viscosity, Pa*s	uncertainty
100	298.15	.08659	.0008659
100	303.15	.06783	.0006783
100	308.15	.05423	.0005423
100	313.15	.04424	.0004424
100	318.15	.03621	.0003621
100	323.15	.02997	.0002997
100	328.15	.02508	.0002508
100	333.15	.02131	.0002131
100	338.15	.01828	.0001828
100	343.15	.01588	.0001588
100	348.15	.01371	.0001371
100	353.15	.01199	.0001199

System: 1-hexyl-3-methylpyridinium 1,1,1-trifluoro-N-[(trifluoromethyl)sulfonyl]methanesulfonamide; phases: Liquid
Property: Electrical conductivity, S/m (Liquid); method: Alternating current cell with electrodes
Pressure, kPa	Temperature, K	Electrical conductivity, S/m	uncertainty
100	278.15	.0495	.000495
100	283.15	.067	.00067
100	288.15	.0885	.000885
100	293.15	.1157	.001157
100	298.15	.148	.00148
100	303.15	.1869	.001869
100	308.15	.231	.00231
100	313.15	.283	.00283
100	318.15	.342	.00342
100	323.15	.406	.00406
100	328.15	.477	.00477
100	333.15	.553	.00553
100	338.15	.638	.00638
100	343.15	.728	.00728
100	348.15	.822	.00822
100	353.15	.92	.0092

System: N-hexyl-4-methylpyridinium bis(trifluoromethylsulfonyl)imide; phases: Liquid
Property: Mass density, kg/m3 (Liquid); method: Vibrating tube method
Pressure, kPa	Temperature, K	Mass density, kg/m3	uncertainty
100	283.15	1365.3	1
100	288.15	1360.8	1
100	293.15	1356.3	1
100	298.15	1351.8	1
100	303.15	1347.4	1
100	308.15	1342.9	1
100	313.15	1338.5	1
100	318.15	1334.1	1
100	323.15	1329.6	1
100	328.15	1325.2	1
100	333.15	1320.8	1
100	338.15	1316.5	1
100	343.15	1312.1	1
100	348.15	1307.8	1
100	353.15	1303.4	1

System: N-hexyl-4-methylpyridinium bis(trifluoromethylsulfonyl)imide; phases: Liquid
Property: Viscosity, Pa*s (Liquid); method: Concentric cylinders viscometry
Pressure, kPa	Temperature, K	Viscosity, Pa*s	uncertainty
100	283.15	.18162	.0018162
100	288.15	.13392	.0013392
100	293.15	.10107	.0010107
100	298.15	.077989	.00077989
100	303.15	.061301	.00061301
100	308.15	.049031	.00049031
100	313.15	.039755	.00039755
100	318.15	.032729	.00032729
100	323.15	.027381	.00027381
100	328.15	.023111	.00023111
100	333.15	.019709	.00019709
100	338.15	.016968	.00016968
100	343.15	.014729	.00014729
100	348.15	.012866	.00012866
100	353.15	.011324	.00011324

System: N-hexyl-4-methylpyridinium bis(trifluoromethylsulfonyl)imide; phases: Liquid
Property: Electrical conductivity, S/m (Liquid); method: Alternating current cell with electrodes
Pressure, kPa	Temperature, K	Electrical conductivity, S/m	uncertainty
100	283.15	.0839	.000839
100	288.15	.1101	.001101
100	293.15	.1447	.001447
100	298.15	.1852	.001852
100	303.15	.231	.00231
100	308.15	.283	.00283
100	313.15	.346	.00346
100	318.15	.415	.00415
100	323.15	.487	.00487
100	328.15	.571	.00571
100	333.15	.652	.00652
100	338.15	.756	.00756
100	343.15	.861	.00861
100	348.15	.968	.00968
100	353.15	1.075	.01075
