Measured thermophysical data. (Vapour + liquid) equilibria of ternary systems with ionic liquids using headspace gas chromatography
Source: J. Chem. Thermodyn., 2010, 10.1016/j.jct.2010.03.023
Compound 1: 1-octyl-3-methylimidazolium bis[(trifluoromethyl)sulfonyl]imide, C14H23F6N3O4S2
Compound 2: 1-hexyl-3-methylimidazolium bis[(trifluoromethyl)sulfonyl]imide, C12H19F6N3O4S2
Compound 3: 1-octyl-3-methylimidazolium trifluoromethanesulfonate, C13H24F3N2O3S
Compound 4: 1-butyl-3-methylimidazolium trifluoromethanesulfonate, C9H15F3N2O3S
Compound 5: ethanol, C2H6O, purity 99.9%
Compound 6: n-hexane, C6H14, purity 99.9%
Compound 7: benzene, C6H6, purity 99.9%
Compound 8: cyclohexane, C6H12, purity 99.9%
Compound 9: water, H2O

System: benzene + cyclohexane + 1-octyl-3-methylimidazolium bis[(trifluoromethyl)sulfonyl]imide; phases: Gas, Liquid
Fixed: Temperature, K = 332.5
Fixed: Mole fraction of 1-octyl-3-methylimidazolium bis[(trifluoromethyl)sulfonyl]imide = .8
Property: Mole fraction of cyclohexane (Gas); method: Chromatography
Mole fraction of cyclohexane	Mole fraction of cyclohexane	uncertainty
.0102	.206	
.0224	.361	
.0402	.507	
.0602	.619	
.08	.724	
.1018	.795	
.119	.839	
.1392	.887	
.1594	.931	
.1796	.969	
.1896	.985	

System: benzene + n-hexane + 1-hexyl-3-methylimidazolium bis[(trifluoromethyl)sulfonyl]imide; phases: Gas, Liquid
Fixed: Temperature, K = 322.8
Fixed: Mole fraction of 1-hexyl-3-methylimidazolium bis[(trifluoromethyl)sulfonyl]imide = .8
Property: Mole fraction of n-hexane (Gas); method: Chromatography
Mole fraction of n-hexane	Mole fraction of n-hexane	uncertainty
.0104	.42	
.021	.584	
.04	.739	
.06	.828	
.0814	.881	
.0996	.913	
.1198	.94	
.1406	.961	
.1592	.975	
.1808	.989	
.1896	.994	

System: benzene + n-hexane + 1-octyl-3-methylimidazolium bis[(trifluoromethyl)sulfonyl]imide; phases: Gas, Liquid
Fixed: Temperature, K = 322.8
Fixed: Mole fraction of 1-octyl-3-methylimidazolium bis[(trifluoromethyl)sulfonyl]imide = .8
Property: Mole fraction of n-hexane (Gas); method: Chromatography
Mole fraction of n-hexane	Mole fraction of n-hexane	uncertainty
.0098	.049	
.0194	.097	
.04	.2	
.0602	.301	
.0798	.399	
.1012	.506	
.12	.6	
.139	.695	
.1598	.799	
.1778	.889	
.1882	.941	

System: n-hexane + cyclohexane + 1-hexyl-3-methylimidazolium bis[(trifluoromethyl)sulfonyl]imide; phases: Gas, Liquid
Fixed: Temperature, K = 322.8
Fixed: Mole fraction of 1-hexyl-3-methylimidazolium bis[(trifluoromethyl)sulfonyl]imide = .8
Property: Mole fraction of n-hexane (Gas); method: Chromatography
Mole fraction of n-hexane	Mole fraction of n-hexane	uncertainty
.0092	.106	
.0212	.212	
.0402	.354	
.059	.47	
.0804	.59	
.0998	.677	
.1204	.764	
.139	.83	
.1596	.892	
.1788	.944	
.1898	.978	

System: n-hexane + cyclohexane + 1-octyl-3-methylimidazolium bis[(trifluoromethyl)sulfonyl]imide; phases: Gas, Liquid
Fixed: Temperature, K = 322.8
Fixed: Mole fraction of 1-octyl-3-methylimidazolium bis[(trifluoromethyl)sulfonyl]imide = .8
Property: Mole fraction of n-hexane (Gas); method: Chromatography
Mole fraction of n-hexane	Mole fraction of n-hexane	uncertainty
.0106	.119	
.0198	.202	
.0402	.352	
.0598	.464	
.0794	.571	
.098	.651	
.1188	.74	
.1392	.813	
.1602	.883	
.1806	.951	
.1886	.972	

System: ethanol + water + 1-butyl-3-methylimidazolium trifluoromethanesulfonate; phases: Gas, Liquid
Fixed: Mole fraction of 1-butyl-3-methylimidazolium trifluoromethanesulfonate = .5
Property: Mole fraction of ethanol (Gas); method: Chromatography
Temperature, K	Mole fraction of ethanol	Mole fraction of ethanol	uncertainty
314.2	.05	.208	
314.2	.099	.337	
314.2	.149	.447	
314.2	.1985	.564	
314.2	.251	.653	
314.2	.3	.737	
314.2	.3475	.816	
314.2	.399	.875	
314.2	.4485	.937	
314.2	.4735	.964	
331.7	.05	.212	
331.7	.099	.347	
331.7	.149	.45	
331.7	.1985	.569	
331.7	.251	.655	
331.7	.3	.742	
331.7	.3475	.816	
331.7	.399	.879	
331.7	.4485	.937	
331.7	.4735	.964	

System: ethanol + water + 1-octyl-3-methylimidazolium trifluoromethanesulfonate; phases: Gas, Liquid
Fixed: Mole fraction of 1-octyl-3-methylimidazolium trifluoromethanesulfonate = .8
Property: Mole fraction of ethanol (Gas); method: Chromatography
Temperature, K	Mole fraction of ethanol	Mole fraction of ethanol	uncertainty
314.3	.0114	.092	
314.3	.0198	.157	
314.3	.0414	.304	
314.3	.0618	.414	
314.3	.0808	.49	
314.3	.0956	.562	
314.3	.1192	.668	
314.3	.13	.737	
314.3	.1614	.839	
314.3	.1792	.901	
314.3	.1886	.931	
331.7	.0114	.089	
331.7	.0198	.155	
331.7	.0414	.302	
331.7	.0618	.42	
331.7	.0808	.491	
331.7	.0956	.567	
331.7	.1192	.68	
331.7	.13	.744	
331.7	.1614	.846	
331.7	.1792	.906	
331.7	.1886	.94	
