Measured thermophysical data. Low temperature heat capacity study of FePO4 and Fe3(P2O7)2
Source: J. Chem. Thermodyn., 2013, 10.1016/j.jct.2013.02.017
Compound 1: iron phosphate (FePO4), FeO4P, purity 99%
Compound 2: iron diphosphate (Fe3(P2O7)2), Fe3O14P4, purity 99%

System: iron phosphate (FePO4); phases: Crystal 2, Crystal 1, Gas
Property: Triple point temperature, K (Crystal 2); method: relaxation calorimetry - Quantum Design PPMS
Triple point temperature, K	uncertainty
25	

System: iron phosphate (FePO4); phases: Crystal 2
Fixed: Pressure, kPa = 101.325
Property: Molar heat capacity at constant pressure, J/K/mol (Crystal 2); method: relaxation calorimetry - Quantum Design PPMS
Temperature, K	Molar heat capacity at constant pressure, J/K/mol	uncertainty
1.886	.040934	5
1.997	.047821	5
2.1807	.061698	5
2.4757	.091261	5
2.7361	.12704	5
3.0283	.1804	5
3.36	.26009	5
3.7522	.38074	5
4.187	.54779	5
4.6592	.7673	5
4.8449	.86186	5
5.1803	1.0466	5
5.7699	1.3914	5
6.4139	1.8142	5
6.7975	2.084	5
7.1319	2.3092	5
7.9331	2.8653	5
8.77	3.4657	5
8.832	3.5156	5
10.049	4.4033	5
11.149	5.235	5
12.375	6.1894	5
12.937	6.6159	5
13.734	7.2602	5
14.434	7.7623	5
14.953	8.294	5
15.432	8.7191	5
15.939	9.1811	5
16.432	9.6741	5
16.947	10.227	5
17.451	10.799	5
17.836	11.202	5
18.128	11.709	5
18.448	12.08	5
18.816	12.45	5
19.22	12.731	5
19.662	13.196	5
19.989	13.49	5
20.25	13.975	5
20.641	14.429	5
20.824	14.728	5
21.099	15.097	5
21.495	15.547	5
21.706	16.039	5
21.917	16.341	5
22.105	16.682	1
22.32	17.081	1
22.514	17.476	1
22.728	17.859	1
22.919	18.383	1
23.114	18.701	1
23.357	19.344	1
23.55	19.723	1
23.758	20.247	1
23.945	20.841	1
24.146	21.416	1
24.378	21.925	1
24.608	22.611	1
24.872	23.084	1

System: iron phosphate (FePO4); phases: Crystal 2
Fixed: Pressure, kPa = 101.325
Property: Molar heat capacity at constant pressure, J/K/mol (Crystal 2); method: relaxation calorimetry - Quantum Design PPMS
Temperature, K	Molar heat capacity at constant pressure, J/K/mol	uncertainty
1	.0037825	5.1
2	.040387	5.1
3	.18004	5.1
4	.47659	5.1
5	.93866	5.1
6	1.5392	5.1
7	2.2197	5.1
8	2.9132	5.1
9	3.6354	5.1
10	4.3673	1.2
11	5.121	1.2
12	5.8974	1.2
13	6.6704	1.2
14	7.4427	1.2
15	8.3227	1.2
16	9.243	1.2
17	10.282	1.2
18	11.49	1.2
19	12.581	1.2
20	13.57	1.2

System: iron phosphate (FePO4); phases: Crystal 2
Fixed: Pressure, kPa = 101.325
Property: Molar entropy, J/K/mol (Crystal 2); method: relaxation calorimetry - Quantum Design PPMS
Temperature, K	Molar entropy, J/K/mol	uncertainty
1	.0012525	5.1
2	.011572	5.1
3	.049701	5.1
4	.13808	5.1
5	.29113	5.1
6	.51363	5.1
7	.80154	5.1
8	1.1429	5.1
9	1.5276	5.1
10	1.9484	1.2
11	2.3997	1.2
12	2.8785	1.2
13	3.381	1.2
14	3.9042	1.2
15	4.446	1.2
16	5.0124	1.2
17	5.6033	1.2
18	6.2235	1.2
19	6.8772	1.2
20	7.5455	1.2

System: iron phosphate (FePO4); phases: Crystal 2
Fixed: Pressure, kPa = 101.325
Property: Molar enthalpy, kJ/mol (Crystal 2); method: relaxation calorimetry - Quantum Design PPMS
Temperature, K	Molar enthalpy, kJ/mol	uncertainty
1	.00000093962	.0051
2	.000017765	.0051
3	.00011642	.0051
4	.00043068	.0051
5	.0011252	.0051
6	.0023546	.0051
7	.0042311	.0051
8	.0067955	.0051
9	.010068	.0051
10	.014068	.0012
11	.01881	.0012
12	.024319	.0012
13	.030602	.0012
14	.037666	.0012
15	.045524	.0012
16	.054306	.0012
17	.064057	.0012
18	.074914	.0012
19	.08701	.0012
20	.10004	.0012

System: iron phosphate (FePO4); phases: Crystal 1
Fixed: Pressure, kPa = 101.325
Property: Molar heat capacity at constant pressure, J/K/mol (Crystal 1); method: relaxation calorimetry - Quantum Design PPMS
Temperature, K	Molar heat capacity at constant pressure, J/K/mol	uncertainty
25.08	23.276	1
25.178	22.795	1
25.399	21.443	1
25.428	20.485	1
25.618	18.256	1
25.681	17.587	1
25.716	17.263	1
25.936	15.763	1
25.991	15.493	1
26.154	14.92	1
26.411	14.371	1
26.937	13.871	1
27.457	13.735	1
27.938	13.719	1
28.453	13.757	1
28.97	13.894	1
29.447	14.007	1
29.983	14.006	1
30.992	14.133	1
32.007	14.378	1
33.009	14.682	1
34.025	15.039	1
35.047	15.431	1
36.054	15.828	1
37.061	16.234	1
38.068	16.641	1
39.076	17.074	1
40.083	17.527	1
41.1	17.992	1
42.107	18.432	1
43.117	18.88	1
44.121	19.313	1
45.137	19.794	1
46.143	20.26	1
47.17	20.76	1
48.165	21.225	1
49.191	21.702	1
50.221	22.153	1
53.703	23.847	1
59.643	26.605	1
66.276	29.555	1
73.591	32.724	1
81.694	36.295	1
90.719	40.161	1
100.73	44.094	1
110.86	47.981	1
120.94	51.73	1
131.04	55.469	1
141.13	58.974	1
151.25	62.313	1
161.4	65.707	1
171.44	68.868	1
181.6	71.845	1
191.71	74.758	1
201.83	77.69	1
211.94	80.421	1
222.06	83.12	1
232.15	85.843	1
242.24	88.094	1
252.28	90.685	1
262.36	92.914	1
272.53	95.971	1
282.61	99.141	1
292.62	101.41	1
302.73	102.84	1

System: iron phosphate (FePO4); phases: Crystal 1
Fixed: Pressure, kPa = 101.325
Property: Molar heat capacity at constant pressure, J/K/mol (Crystal 1); method: relaxation calorimetry - Quantum Design PPMS
Temperature, K	Molar heat capacity at constant pressure, J/K/mol	uncertainty
25	23.115	1.2
30	14.017	1.2
35	15.412	1.2
40	17.521	1.2
45	19.757	1.2
50	22.038	1.1
55	24.346	1.1
60	26.663	1.1
65	28.973	1.1
70	31.256	1.1
75	33.495	1.1
80	35.673	1.1
85	37.771	1.1
90	39.895	1.1
95	42.033	1.1
100	44.107	1.1
110	48.062	1.1
120	51.773	1.1
130	55.279	1.1
140	58.625	1.1
150	61.849	1.1
160	64.983	1.1
170	68.05	1.1
180	71.061	1.1
190	74.021	1.1
200	76.933	1.1
210	79.792	1.1
220	82.593	1.1
230	85.331	1.1
240	88.001	1.1
250	90.597	1.1
260	93.114	1.1
270	95.551	1.1
273.15	96.301	1.1
280	97.904	1.1
290	100.17	1.1
298.15	101.96	1.1
300	102.35	1.1

System: iron phosphate (FePO4); phases: Crystal 1
Fixed: Pressure, kPa = 101.325
Property: Molar entropy, J/K/mol (Crystal 1); method: relaxation calorimetry - Quantum Design PPMS
Temperature, K	Molar entropy, J/K/mol	uncertainty
25	11.493	1.2
30	14.261	1.2
35	16.506	1.2
40	18.698	1.2
45	20.89	1.2
50	23.089	1.1
55	25.298	1.1
60	27.516	1.1
65	29.741	1.1
70	31.972	1.1
75	34.205	1.1
80	36.437	1.1
85	38.663	1.1
90	40.881	1.1
95	43.095	1.1
100	45.304	1.1
110	49.696	1.1
120	54.038	1.1
130	58.322	1.1
140	62.542	1.1
150	66.697	1.1
160	70.789	1.1
170	74.821	1.1
180	78.796	1.1
190	82.718	1.1
200	86.589	1.1
210	90.412	1.1
220	94.189	1.1
230	97.921	1.1
240	101.61	1.1
250	105.25	1.1
260	108.86	1.1
270	112.42	1.1
273.15	113.53	1.1
280	115.93	1.1
290	119.41	1.1
298.15	122.21	1.1
300	122.84	1.1

System: iron phosphate (FePO4); phases: Crystal 1
Fixed: Pressure, kPa = 101.325
Property: Molar enthalpy, kJ/mol (Crystal 1); method: relaxation calorimetry - Quantum Design PPMS
Temperature, K	Molar enthalpy, kJ/mol	uncertainty
25	.18943	.0012
30	.26485	.0012
35	.33775	.0012
40	.41996	.0012
45	.51313	.0012
50	.6176	.0011
55	.73355	.0011
60	.86107	.0011
65	1.0002	.0011
70	1.1508	.0011
75	1.3127	.0011
80	1.4856	.0011
85	1.6692	.0011
90	1.8633	.0011
95	2.0682	.0011
100	2.2835	.0011
110	2.7446	.0011
120	3.244	.0011
130	3.7794	.0011
140	4.349	.0011
150	4.9515	.0011
160	5.5857	.0011
170	6.2509	.0011
180	6.9465	.0011
190	7.672	.0011
200	8.4268	.0011
210	9.2104	.0011
220	10.022	.0011
230	10.862	.0011
240	11.729	.0011
250	12.622	.0011
260	13.54	.0011
270	14.484	.0011
273.15	14.786	.0011
280	15.451	.0011
290	16.442	.0011
298.15	17.265	.0011
300	17.454	.0011

System: iron diphosphate (Fe3(P2O7)2); phases: Crystal 2
Fixed: Pressure, kPa = 101.325
Property: Molar heat capacity at constant pressure, J/K/mol (Crystal 2); method: relaxation calorimetry - Quantum Design PPMS
Temperature, K	Molar heat capacity at constant pressure, J/K/mol	uncertainty
1.9079	.21981	5
2.0531	.28339	5
2.2365	.37994	5
2.5252	.57348	5
2.788	.78567	5
3.081	1.0715	5
3.4209	1.457	5
3.8452	1.9509	5
4.2515	2.4953	5
4.7315	3.1375	5
4.9037	3.3807	5
5.252	3.8663	5
5.4469	4.1108	5
5.8458	4.6823	5
6.0519	4.9761	5
6.4917	5.6227	5
6.7459	5.9626	5
7.2326	6.6704	5
7.5163	7.101	5
8.0523	7.8961	5
8.376	8.4025	5
8.9502	9.0837	5
9.3412	9.4416	5
9.8482	10.125	5
9.9472	10.282	5
10.285	10.78	5
10.91	11.684	5
11.391	12.48	5
11.893	13.289	5
12.316	13.985	5
12.394	14.109	5
12.892	14.924	5
13.395	15.774	5
13.666	16.217	5
13.897	16.622	5
14.395	17.483	5
14.899	18.347	5
15.183	18.865	5
15.397	19.216	5
15.897	20.109	5
16.398	21.023	5
16.873	21.933	5
16.897	21.996	5
17.399	23.016	5
17.901	24.093	5
18.379	25.404	5
18.711	26.19	5
18.738	26.258	5
18.882	26.668	5
18.953	26.84	5
19.148	27.351	5
19.346	27.912	5
19.386	28.039	5
19.516	28.499	5
19.717	29.196	5
19.845	29.604	5
19.917	29.716	5
20.109	29.666	5
20.311	29.617	5
20.351	29.635	5
20.512	29.702	5
20.714	30.021	5
20.852	30.315	5
20.916	30.416	5
21.115	30.819	5
21.317	31.334	5
21.352	31.449	5
21.516	31.853	5
21.721	32.443	5
21.854	32.788	5
21.925	33.019	5
22.128	33.612	1
22.339	34.297	1
22.54	34.997	1
22.745	35.802	1
22.859	36.259	1
22.95	36.583	1
23.073	37.001	1
23.145	37.244	1
23.35	37.457	1
23.363	37.447	1
23.542	37.413	1
23.746	37.482	1
23.87	37.702	1
23.95	37.841	1
24.087	38.176	1
24.153	38.382	1
24.272	38.71	1
24.347	38.93	1
24.476	39.348	1
24.546	39.556	1
24.677	40.012	1
24.748	40.216	1
24.878	40.713	1
24.95	40.967	1
25.078	41.386	1
25.156	41.664	1
25.28	42.045	1
25.358	42.278	1
25.479	42.535	1

System: iron diphosphate (Fe3(P2O7)2); phases: Crystal 2
Fixed: Pressure, kPa = 101.325
Property: Molar heat capacity at constant pressure, J/K/mol (Crystal 2); method: relaxation calorimetry - Quantum Design PPMS
Temperature, K	Molar heat capacity at constant pressure, J/K/mol	uncertainty
1	.037235	5.1
2	.28853	5.1
3	.99012	5.1
4	2.1562	5.1
5	3.512	5.1
6	4.9034	5.1
7	6.3316	5.1
8	7.8287	5.1
9	9.1193	5.1
10	10.353	1.2
11	11.834	1.2
12	13.466	1.2
13	15.106	1.2
14	16.798	1.2
15	18.532	1.2
16	20.292	1.2
17	22.193	1.2
18	24.371	1.2
19	26.954	1.2
20	29.66	1.2
25	41.17	1.2

System: iron diphosphate (Fe3(P2O7)2); phases: Crystal 2
Fixed: Pressure, kPa = 101.325
Property: Molar entropy, J/K/mol (Crystal 2); method: relaxation calorimetry - Quantum Design PPMS
Temperature, K	Molar entropy, J/K/mol	uncertainty
1	.012464	5.1
2	.09784	5.1
3	.32594	5.1
4	.76413	5.1
5	1.3897	5.1
6	2.1515	5.1
7	3.0151	5.1
8	3.9577	5.1
9	4.9604	5.1
10	5.9795	1.2
11	7.035	1.2
12	8.1347	1.2
13	9.2771	1.2
14	10.458	1.2
15	11.676	1.2
16	12.928	1.2
17	14.214	1.2
18	15.542	1.2
19	16.929	1.2
20	18.387	1.2
25	26.082	1.2

System: iron diphosphate (Fe3(P2O7)2); phases: Crystal 2
Fixed: Pressure, kPa = 101.325
Property: Molar enthalpy, kJ/mol (Crystal 2); method: relaxation calorimetry - Quantum Design PPMS
Temperature, K	Molar enthalpy, kJ/mol	uncertainty
1	.0000093412	.0051
2	.00014634	.0051
3	.00073215	.0051
4	.0022832	.0051
5	.0051117	.0051
6	.0093112	.0051
7	.014932	.0051
8	.022007	.0051
9	.030534	.0051
10	.040217	.0012
11	.051303	.0012
12	.063953	.0012
13	.078237	.0012
14	.094183	.0012
15	.11185	.0012
16	.13125	.0012
17	.15248	.0012
18	.17572	.0012
19	.20138	.0012
20	.22982	.0012
25	.40339	.0012

System: iron diphosphate (Fe3(P2O7)2); phases: Crystal 1
Fixed: Pressure, kPa = 101.325
Property: Molar heat capacity at constant pressure, J/K/mol (Crystal 1); method: relaxation calorimetry - Quantum Design PPMS
Temperature, K	Molar heat capacity at constant pressure, J/K/mol	uncertainty
25.559	42.589	1
25.629	42.472	1
25.694	41.99	1
25.761	41.294	1
25.897	39.532	1
25.965	38.734	1
26.104	37.671	1
26.166	37.408	1
26.302	37.219	1
26.364	37.251	1
26.501	37.348	1
26.565	37.426	1
26.7	37.641	1
26.764	37.795	1
26.899	38.095	1
26.964	38.226	1
27.102	38.505	1
27.166	38.655	1
27.303	38.785	1
27.372	38.771	1
27.505	38.434	1
27.566	38.067	1
27.72	36.896	1
27.773	36.418	1
27.975	35.041	1
28.175	34.327	1
28.217	34.251	1
28.375	34.068	1
28.532	33.963	1
28.573	33.938	1
28.713	33.88	1
28.774	33.886	1
28.976	33.886	1
29.18	33.928	1
29.216	33.943	1
29.383	33.994	1
29.578	34.077	1
29.719	34.124	1
29.786	34.145	1
30.224	34.363	1
30.727	34.745	1
31.233	35.094	1
31.738	35.514	1
32.25	35.934	1
32.759	36.291	1
33.264	36.693	1
33.767	37.121	1
34.273	37.656	1
34.782	38.198	1
35.287	38.772	1
36.017	39.674	1
36.998	40.853	1
38.007	42.118	1
39.014	43.511	1
39.085	43.52	1
40.019	44.907	1
41.026	46.314	1
42.031	47.801	1
43.04	49.141	1
44.048	50.656	1
45.062	52.139	1
46.087	53.765	1
47.115	55.255	1
48.141	56.898	1
48.222	56.869	1
49.17	58.468	1
50.177	59.921	1
53.554	65.427	1
55.936	69.239	1
59.478	75.071	1
62.325	79.657	1
66.061	85.829	1
69.409	91.349	1
73.356	97.848	1
77.267	104.31	1
81.471	111.39	1
86.002	118.73	1
90.492	126.54	1
95.712	134.6	1
100.46	142.3	1
105.87	150.33	1
110.62	157.15	1
115.68	164.83	1
120.57	171.78	1
125.69	179.03	1
130.67	186.02	1
135.85	193.25	1
140.71	199.65	1
145.82	205.89	1
150.78	211.84	1
155.92	218.37	1
160.85	224.45	1
166	230.38	1
170.9	236	1
176.1	241.71	1
181.04	246.76	1
186.17	252.47	1
191.21	257.43	1
196.3	262.54	1
201.26	267.67	1
206.35	272.36	1
206.45	272.46	1
211.8	277.98	1
216.72	281.75	1
221.84	287.01	1
226.87	290.81	1
231.96	295.66	1
236.94	300.34	1
242.04	304.27	1
247.01	309.14	1
252.13	312.36	1
257.17	316.62	1
262.13	320.57	1
267.24	324.59	1
272.2	328.42	1
277.32	332.29	1
282.36	336.71	1
287.31	340.82	1
292.44	342.78	1
297.49	342.14	1
302.43	348.65	1

System: iron diphosphate (Fe3(P2O7)2); phases: Crystal 1
Fixed: Pressure, kPa = 101.325
Property: Molar heat capacity at constant pressure, J/K/mol (Crystal 1); method: relaxation calorimetry - Quantum Design PPMS
Temperature, K	Molar heat capacity at constant pressure, J/K/mol	uncertainty
30	34.247	1.2
35	38.441	1.2
40	44.948	1.2
45	52.129	1.2
50	59.679	1.1
55	67.536	1.1
60	75.634	1.1
65	83.91	1.1
70	92.298	1.1
75	100.74	1.1
80	109.16	1.1
85	117.5	1.1
90	125.7	1.1
95	133.69	1.1
100	141.43	1.1
110	157.3	1.1
120	171.92	1.1
130	185.57	1.1
140	198.49	1.1
150	210.84	1.1
160	222.71	1.1
170	234.16	1.1
180	245.21	1.1
190	255.88	1.1
200	266.16	1.1
210	276.05	1.1
220	285.53	1.1
230	294.61	1.1
240	303.29	1.1
250	311.56	1.1
260	319.43	1.1
270	326.92	1.1
273.15	329.2	1.1
280	334.02	1.1
290	340.77	1.1
298.15	346	1.1
300	347.16	1.1

System: iron diphosphate (Fe3(P2O7)2); phases: Crystal 1
Fixed: Pressure, kPa = 101.325
Property: Molar entropy, J/K/mol (Crystal 1); method: relaxation calorimetry - Quantum Design PPMS
Temperature, K	Molar entropy, J/K/mol	uncertainty
30	32.852	1.2
35	38.418	1.2
40	43.961	1.2
45	49.666	1.2
50	55.546	1.1
55	61.6	1.1
60	67.823	1.1
65	74.202	1.1
70	80.727	1.1
75	87.383	1.1
80	94.153	1.1
85	101.02	1.1
90	107.97	1.1
95	114.98	1.1
100	122.04	1.1
110	136.27	1.1
120	150.59	1.1
130	164.9	1.1
140	179.13	1.1
150	193.25	1.1
160	207.23	1.1
170	221.08	1.1
180	234.78	1.1
190	248.33	1.1
200	261.71	1.1
210	274.94	1.1
220	288	1.1
230	300.9	1.1
240	313.62	1.1
250	326.17	1.1
260	338.55	1.1
270	350.74	1.1
273.15	354.55	1.1
280	362.76	1.1
290	374.6	1.1
298.15	384.12	1.1
300	386.26	1.1

System: iron diphosphate (Fe3(P2O7)2); phases: Crystal 1
Fixed: Pressure, kPa = 101.325
Property: Molar enthalpy, kJ/mol (Crystal 1); method: relaxation calorimetry - Quantum Design PPMS
Temperature, K	Molar enthalpy, kJ/mol	uncertainty
30	.58835	.0012
35	.76914	.0012
40	.97708	.0012
45	1.2196	.0012
50	1.499	.0011
55	1.8169	.0011
60	2.1747	.0011
65	2.5735	.0011
70	3.014	.0011
75	3.4966	.0011
80	4.0214	.0011
85	4.5881	.0011
90	5.1961	.0011
95	5.8447	.0011
100	6.5325	.0011
110	8.0273	.0011
120	9.6743	.0011
130	11.462	.0011
140	13.383	.0011
150	15.43	.0011
160	17.599	.0011
170	19.883	.0011
180	22.28	.0011
190	24.786	.0011
200	27.397	.0011
210	30.108	.0011
220	32.916	.0011
230	35.817	.0011
240	38.807	.0011
250	41.882	.0011
260	45.037	.0011
270	48.269	.0011
273.15	49.303	.0011
280	51.574	.0011
290	54.948	.0011
298.15	57.747	.0011
300	58.388	.0011
