Measured thermophysical data. Vapor pressures and vaporization enthalpy of codlemone by correlation gas chromatography
Source: J. Chem. Thermodyn., 2015, 10.1016/j.jct.2015.06.002
Compound 1: (E,E)-8,10-dodecadien-1-ol, C12H22O, purity 98%

System: (E,E)-8,10-dodecadien-1-ol; phases: Liquid, Gas
Property: Molar enthalpy of vaporization or sublimation, kJ/mol (Liquid); method: Correlation gas chromatography
Temperature, K	Molar enthalpy of vaporization or sublimation, kJ/mol	uncertainty
298.15	92.3	2.6

System: (E,E)-8,10-dodecadien-1-ol; phases: Liquid, Gas
Property: Vapor or sublimation pressure, kPa (Liquid); method: Gas chromatography
Temperature, K	Vapor or sublimation pressure, kPa	uncertainty
298.15	.000083	.000012

System: (E,E)-8,10-dodecadien-1-ol; phases: Liquid, Gas
Property: Boiling temperature at pressure P, K (Liquid); method: Gas chromatography
Pressure, kPa	Boiling temperature at pressure P, K	uncertainty
.267	389	10

System: (E,E)-8,10-dodecadien-1-ol; phases: Liquid, Gas
Property: Boiling temperature at pressure P, K (Liquid); method: Gas chromatography
Pressure, kPa	Boiling temperature at pressure P, K	uncertainty
101.325	549.1	10
