Measured thermophysical data. Application of 1-alkyl-3-methylpyridinium bis(trifluoromethylsulfonyl)imide  ionic liquids for the ethanol removal from its mixtures with alkanes
Source: J. Chem. Thermodyn., 2013, 10.1016/j.jct.2012.12.017
Compound 1: 3-methyl-1-propylpyridinium bis(trifluoromethylsulfonyl)imide, C11H14F6N2O4S2, purity 99%
Compound 2: 1-ethyl-3-methylpyridinium bis((trifluoromethyl)sulfonyl)amide, C10H12F6N2O4S2, purity 99%
Compound 3: ethanol, C2H6O, purity 99%
Compound 4: heptane, C7H16, purity 99%
Compound 5: hexane, C6H14, purity 99%

System: 3-methyl-1-propylpyridinium bis(trifluoromethylsulfonyl)imide; phases: Liquid
Fixed: Pressure, kPa = 101.325
Property: Mass density, kg/m3 (Liquid); method: Vibrating tube method
Temperature, K	Mass density, kg/m3	uncertainty
298.15	1447.94	.03

System: 3-methyl-1-propylpyridinium bis(trifluoromethylsulfonyl)imide; phases: Liquid
Fixed: Pressure, kPa = 101.325
Property: Refractive index (Na D-line) (Liquid); method: Standard Abbe refractometry
Temperature, K	Refractive index (Na D-line)	uncertainty
298.15	1.44485	.00004

System: 1-ethyl-3-methylpyridinium bis((trifluoromethyl)sulfonyl)amide; phases: Liquid
Fixed: Pressure, kPa = 101.325
Property: Mass density, kg/m3 (Liquid); method: Vibrating tube method
Temperature, K	Mass density, kg/m3	uncertainty
298.15	1488.5	.03

System: 1-ethyl-3-methylpyridinium bis((trifluoromethyl)sulfonyl)amide; phases: Liquid
Fixed: Pressure, kPa = 101.325
Property: Refractive index (Na D-line) (Liquid); method: Standard Abbe refractometry
Temperature, K	Refractive index (Na D-line)	uncertainty
298.15	1.44376	.00004

System: ethanol; phases: Liquid
Fixed: Pressure, kPa = 101.325
Property: Mass density, kg/m3 (Liquid); method: Vibrating tube method
Temperature, K	Mass density, kg/m3	uncertainty
298.15	785.2	.03

System: ethanol; phases: Liquid
Fixed: Pressure, kPa = 101.325
Property: Refractive index (Na D-line) (Liquid); method: Standard Abbe refractometry
Temperature, K	Refractive index (Na D-line)	uncertainty
298.15	1.35936	.00004

System: heptane; phases: Liquid
Fixed: Pressure, kPa = 101.325
Property: Mass density, kg/m3 (Liquid); method: Vibrating tube method
Temperature, K	Mass density, kg/m3	uncertainty
298.15	679.57	.03

System: heptane; phases: Liquid
Fixed: Pressure, kPa = 101.325
Property: Refractive index (Na D-line) (Liquid); method: Standard Abbe refractometry
Temperature, K	Refractive index (Na D-line)	uncertainty
298.15	1.38529	.00004

System: hexane; phases: Liquid
Fixed: Pressure, kPa = 101.325
Property: Mass density, kg/m3 (Liquid); method: Vibrating tube method
Temperature, K	Mass density, kg/m3	uncertainty
298.15	655.2	.03

System: hexane; phases: Liquid
Fixed: Pressure, kPa = 101.325
Property: Refractive index (Na D-line) (Liquid); method: Standard Abbe refractometry
Temperature, K	Refractive index (Na D-line)	uncertainty
298.15	1.37241	.00004

System: ethanol + heptane + 1-ethyl-3-methylpyridinium bis((trifluoromethyl)sulfonyl)amide; phases: Liquid mixture 1, Liquid mixture 2
Property: Mole fraction of heptane (Liquid mixture 1); method: Density calibration data
Property: Mole fraction of ethanol (Liquid mixture 2); method: Density calibration data
Property: Mole fraction of heptane (Liquid mixture 2); method: Density calibration data
Temperature, K	Pressure, kPa	Mole fraction of ethanol	Mole fraction of heptane	uncertainty	Mole fraction of ethanol	uncertainty	Mole fraction of heptane	uncertainty
298.15	101.3	.019	.981	.007	.153	.007	.037	.007
298.15	101.3	.042	.958	.007	.311	.007	.037	.007
298.15	101.3	.113	.887	.007	.475	.007	.042	.007
298.15	101.3	.246	.754	.007	.59	.007	.046	.007
298.15	101.3	.384	.616	.007	.641	.007	.051	.007
298.15	101.3	.481	.518	.007	.672	.007	.054	.007
298.15	101.3	.554	.444	.007	.688	.007	.057	.007
298.15	101.3	.626	.371	.007	.707	.007	.06	.007

System: ethanol + heptane + 3-methyl-1-propylpyridinium bis(trifluoromethylsulfonyl)imide; phases: Liquid mixture 2, Liquid mixture 1
Property: Mole fraction of heptane (Liquid mixture 2); method: Density calibration data
Property: Mole fraction of ethanol (Liquid mixture 1); method: Density calibration data
Property: Mole fraction of heptane (Liquid mixture 1); method: Density calibration data
Temperature, K	Pressure, kPa	Mole fraction of ethanol	Mole fraction of heptane	uncertainty	Mole fraction of ethanol	uncertainty	Mole fraction of heptane	uncertainty
298.15	101.3	.126	.056	.007	.017	.007	.983	.007
298.15	101.3	.306	.052	.007	.036	.007	.964	.007
298.15	101.3	.444	.053	.007	.08	.007	.92	.007
298.15	101.3	.519	.055	.007	.125	.007	.875	.007
298.15	101.3	.635	.064	.007	.247	.007	.752	.007
298.15	101.3	.67	.066	.007	.332	.007	.667	.007
298.15	101.3	.701	.069	.007	.429	.007	.569	.007

System: ethanol + hexane + 1-ethyl-3-methylpyridinium bis((trifluoromethyl)sulfonyl)amide; phases: Liquid mixture 2, Liquid mixture 1
Property: Mole fraction of hexane (Liquid mixture 2); method: Density calibration data
Property: Mole fraction of ethanol (Liquid mixture 1); method: Density calibration data
Property: Mole fraction of hexane (Liquid mixture 1); method: Density calibration data
Temperature, K	Pressure, kPa	Mole fraction of ethanol	Mole fraction of hexane	uncertainty	Mole fraction of ethanol	uncertainty	Mole fraction of hexane	uncertainty
298.15	101.3	.163	.057	.007	.011	.007	.989	.007
298.15	101.3	.309	.058	.007	.029	.007	.971	.007
298.15	101.3	.47	.06	.007	.073	.007	.927	.007
298.15	101.3	.571	.068	.007	.285	.007	.715	.007
298.15	101.3	.618	.072	.007	.413	.007	.586	.007
298.15	101.3	.639	.074	.007	.524	.007	.474	.007
298.15	101.3	.666	.075	.007	.573	.007	.423	.007

System: ethanol + hexane + 3-methyl-1-propylpyridinium bis(trifluoromethylsulfonyl)imide; phases: Liquid mixture 2, Liquid mixture 1
Property: Mole fraction of hexane (Liquid mixture 2); method: Density calibration data
Property: Mole fraction of ethanol (Liquid mixture 1); method: Density calibration data
Property: Mole fraction of hexane (Liquid mixture 1); method: Density calibration data
Temperature, K	Pressure, kPa	Mole fraction of ethanol	Mole fraction of hexane	uncertainty	Mole fraction of ethanol	uncertainty	Mole fraction of hexane	uncertainty
298.15	101.3	.121	.088	.007	.009	.007	.991	.007
298.15	101.3	.299	.082	.007	.027	.007	.973	.007
298.15	101.3	.432	.08	.007	.075	.007	.925	.007
298.15	101.3	.563	.081	.007	.196	.007	.804	.007
298.15	101.3	.634	.09	.007	.35	.007	.649	.007
298.15	101.3	.658	.094	.007	.433	.007	.566	.007
298.15	101.3	.689	.101	.007	.55	.007	.447	.007
298.15	101.3	.711	.108	.007	.624	.007	.369	.007

System: heptane + 1-ethyl-3-methylpyridinium bis((trifluoromethyl)sulfonyl)amide; phases: Liquid mixture 1, Liquid mixture 2
Property: Mole fraction of heptane (Liquid mixture 1); method: Density calibration data
Temperature, K	Pressure, kPa	Mole fraction of heptane	uncertainty
298.15	101.3	.042	.007

System: heptane + 3-methyl-1-propylpyridinium bis(trifluoromethylsulfonyl)imide; phases: Liquid mixture 1, Liquid mixture 2
Property: Mole fraction of heptane (Liquid mixture 1); method: Density calibration data
Temperature, K	Pressure, kPa	Mole fraction of heptane	uncertainty
298.15	101.3	.058	.007

System: hexane + 1-ethyl-3-methylpyridinium bis((trifluoromethyl)sulfonyl)amide; phases: Liquid mixture 1, Liquid mixture 2
Property: Mole fraction of hexane (Liquid mixture 1); method: Density calibration data
Temperature, K	Pressure, kPa	Mole fraction of hexane	uncertainty
298.15	101.3	.067	.007

System: hexane + 3-methyl-1-propylpyridinium bis(trifluoromethylsulfonyl)imide; phases: Liquid mixture 1, Liquid mixture 2
Property: Mole fraction of hexane (Liquid mixture 1); method: Density calibration data
Temperature, K	Pressure, kPa	Mole fraction of hexane	uncertainty
273.15	101.3	.094	.007
