Measured thermophysical data. Thermochemical study of some methoxytetralones
Source: J. Chem. Thermodyn., 2009, 10.1016/j.jct.2008.07.021
Compound 1: 5-methoxy-1-tetralone, C11H12O2, purity 99.8%
Compound 2: 6-methoxy-1-tetralone, C11H12O2, purity 99.3%
Compound 3: 7-methoxy-1-tetralone, C11H12O2, purity 99.9%
Compound 4: carbon dioxide, CO2
Compound 5: water, H2O
Compound 6: oxygen, O2

System: 5-methoxy-1-tetralone; phases: Crystal, Gas
Property: Molar enthalpy of vaporization or sublimation, kJ/mol (Crystal); method: Static calorimetry
Temperature, K	Molar enthalpy of vaporization or sublimation, kJ/mol	uncertainty
298.15	97.9	.4

System: 5-methoxy-1-tetralone; phases: Crystal, Liquid, Gas
Property: Triple point temperature, K (Crystal); method: DSC/DTA
Triple point temperature, K	uncertainty
362.52	.06

System: 5-methoxy-1-tetralone; phases: Crystal, Liquid, Gas
Property: Molar enthalpy of transition or fusion, kJ/mol (Crystal); method: DSC/DTA
Molar enthalpy of transition or fusion, kJ/mol	uncertainty
22.15	.12

System: 6-methoxy-1-tetralone; phases: Crystal, Gas
Property: Molar enthalpy of vaporization or sublimation, kJ/mol (Crystal); method: Static calorimetry
Temperature, K	Molar enthalpy of vaporization or sublimation, kJ/mol	uncertainty
298.15	104.7	.9

System: 6-methoxy-1-tetralone; phases: Crystal, Liquid, Gas
Property: Triple point temperature, K (Crystal); method: DSC/DTA
Triple point temperature, K	uncertainty
351.27	.17

System: 6-methoxy-1-tetralone; phases: Crystal, Liquid, Gas
Property: Molar enthalpy of transition or fusion, kJ/mol (Crystal); method: DSC/DTA
Molar enthalpy of transition or fusion, kJ/mol	uncertainty
22.8	.3

System: 7-methoxy-1-tetralone; phases: Crystal, Gas
Property: Molar enthalpy of vaporization or sublimation, kJ/mol (Crystal); method: Static calorimetry
Temperature, K	Molar enthalpy of vaporization or sublimation, kJ/mol	uncertainty
298.15	103.1	.9

System: 7-methoxy-1-tetralone; phases: Crystal, Liquid, Gas
Property: Triple point temperature, K (Crystal); method: DSC/DTA
Triple point temperature, K	uncertainty
334.79	.04

System: 7-methoxy-1-tetralone; phases: Crystal, Liquid, Gas
Property: Molar enthalpy of transition or fusion, kJ/mol (Crystal); method: DSC/DTA
Molar enthalpy of transition or fusion, kJ/mol	uncertainty
23.17	.1

Reaction: -1 5-methoxy-1-tetralone + 11 carbon dioxide + 6 water + -13 oxygen
Property: Specific internal energy of reaction at constant volume, J/g
-32323.7

Reaction: -1 6-methoxy-1-tetralone + 11 carbon dioxide + 6 water + -13 oxygen
Property: Specific internal energy of reaction at constant volume, J/g
-32295.1

Reaction: -1 7-methoxy-1-tetralone + 11 carbon dioxide + 6 water + -13 oxygen
Property: Specific internal energy of reaction at constant volume, J/g
-32308.3
