Measured thermophysical data. Volumetric and viscosimetric properties of N-methyl-2-pyrrolidone with .gamma.-butyrolactone and propylene carbonate
Source: J. Chem. Thermodyn., 2015, 10.1016/j.jct.2015.08.013
Compound 1: N-methyl-2-pyrrolidone, C5H9NO, purity 99%
Compound 2: .gamma.-butyrolactone, C4H6O2, purity 99%
Compound 3: propylene carbonate, C4H6O3, purity 99.5%

System: N-methyl-2-pyrrolidone; phases: Liquid
Property: Mass density, kg/m3 (Liquid); method: Vibrating tube method
Temperature, K	Pressure, kPa	Mass density, kg/m3	uncertainty
293.15	100	1032.66	.81
298.15	100	1028.17	.81
303.15	100	1023.6	.81
308.15	100	1019.49	.81
313.15	100	1014.74	.81
318.15	100	1010.2	.81
323.15	100	1005.89	.81

System: N-methyl-2-pyrrolidone; phases: Liquid
Property: Viscosity, Pa*s (Liquid); method: Capillary tube (Ostwald; Ubbelohde) method
Temperature, K	Pressure, kPa	Viscosity, Pa*s	uncertainty
298.15	100	.001677	.00001677
303.15	100	.001536	.00001536
308.15	100	.001429	.00001429
313.15	100	.001338	.00001338
318.15	100	.001248	.00001248
323.15	100	.001178	.00001178

System: propylene carbonate; phases: Liquid
Property: Viscosity, Pa*s (Liquid); method: Capillary tube (Ostwald; Ubbelohde) method
Temperature, K	Pressure, kPa	Viscosity, Pa*s	uncertainty
298.15	100	.00252	.0000252
303.15	100	.00227	.0000227
308.15	100	.00208	.0000208
313.15	100	.00191	.0000191
318.15	100	.00175	.0000175
323.15	100	.00162	.0000162

System: .gamma.-butyrolactone + N-methyl-2-pyrrolidone; phases: Liquid
Fixed: Pressure, kPa = 100
Property: Mass density, kg/m3 (Liquid); method: Vibrating tube method
Temperature, K	Mole fraction of N-methyl-2-pyrrolidone	Mass density, kg/m3	uncertainty
293.15	0	1129.2	.81
293.15	.1011	1117.01	.81
293.15	.1484	1111.57	.81
293.15	.2506	1100.29	.81
293.15	.3027	1094.76	.81
293.15	.4002	1084.79	.81
293.15	.4953	1075.51	.81
293.15	.5983	1065.98	.81
293.15	.6977	1057.25	.81
293.15	.8022	1048.51	.81
293.15	.851	1044.56	.81
293.15	.9418	1037.29	.81
293.15	1	1032.66	.81
298.15	0	1124.26	.81
298.15	.1011	1112.14	.81
298.15	.1484	1106.72	.81
298.15	.2506	1095.51	.81
298.15	.3027	1090	.81
298.15	.4002	1080.08	.81
298.15	.4953	1070.84	.81
298.15	.5983	1061.35	.81
298.15	.6977	1052.68	.81
298.15	.8022	1043.99	.81
298.15	.851	1040.04	.81
298.15	.9418	1032.8	.81
298.15	1	1028.17	.81
303.15	0	1119.33	.81
303.15	.1011	1107.27	.81
303.15	.1484	1101.88	.81
303.15	.2506	1090.7	.81
303.15	.3027	1085.22	.81
303.15	.4002	1075.32	.81
303.15	.4953	1066.12	.81
303.15	.5983	1056.67	.81
303.15	.6977	1048.03	.81
303.15	.8022	1039.38	.81
303.15	.851	1035.46	.81
303.15	.9418	1028.25	.81
303.15	1	1023.6	.81
308.15	0	1114.31	.81
308.15	.1011	1102.38	.81
308.15	.1484	1097.05	.81
308.15	.2506	1085.98	.81
308.15	.3027	1080.55	.81
308.15	.4002	1070.75	.81
308.15	.4953	1061.64	.81
308.15	.5983	1052.28	.81
308.15	.6977	1043.71	.81
308.15	.8022	1035.14	.81
308.15	.851	1031.26	.81
308.15	.9418	1024.11	.81
308.15	1	1019.49	.81
313.15	0	1109.23	.81
313.15	.1011	1097.36	.81
313.15	.1484	1092.04	.81
313.15	.2506	1081.02	.81
313.15	.3027	1075.61	.81
313.15	.4002	1065.84	.81
313.15	.4953	1056.76	.81
313.15	.5983	1047.44	.81
313.15	.6977	1038.91	.81
313.15	.8022	1030.36	.81
313.15	.851	1026.5	.81
313.15	.9418	1019.36	.81
313.15	1	1014.74	.81
318.15	0	1104.1	.81
318.15	.1011	1092.31	.81
318.15	.1484	1087.03	.81
318.15	.2506	1076.08	.81
318.15	.3027	1070.71	.81
318.15	.4002	1061.01	.81
318.15	.4953	1051.99	.81
318.15	.5983	1042.73	.81
318.15	.6977	1034.27	.81
318.15	.8022	1025.76	.81
318.15	.851	1021.91	.81
318.15	.9418	1014.8	.81
318.15	1	1010.2	.81
323.15	0	1098.88	.81
323.15	.1011	1087.72	.81
323.15	.1484	1082	.81
323.15	.2506	1071.16	.81
323.15	.3027	1065.83	.81
323.15	.4002	1056.23	.81
323.15	.4953	1047.31	.81
323.15	.5983	1038.15	.81
323.15	.6977	1029.76	.81
323.15	.8022	1021.34	.81
323.15	.851	1017.51	.81
323.15	.9418	1010.46	.81
323.15	1	1005.89	.81

System: .gamma.-butyrolactone + N-methyl-2-pyrrolidone; phases: Liquid
Fixed: Pressure, kPa = 100
Property: Viscosity, Pa*s (Liquid); method: Capillary tube (Ostwald; Ubbelohde) method
Temperature, K	Mole fraction of N-methyl-2-pyrrolidone	Viscosity, Pa*s	uncertainty
298.15	0	.00173	.0000173
298.15	.1002	.001719	.00001719
298.15	.2002	.00171	.0000171
298.15	.3078	.001701	.00001701
298.15	.3999	.001694	.00001694
298.15	.4998	.001689	.00001689
298.15	.6003	.001685	.00001685
298.15	.7002	.001682	.00001682
298.15	.8011	.001679	.00001679
298.15	.8998	.001678	.00001678
298.15	1	.001677	.00001677
303.15	0	.00163	.0000163
303.15	.1002	.001614	.00001614
303.15	.2002	.001601	.00001601
303.15	.3078	.001587	.00001587
303.15	.3999	.001577	.00001577
303.15	.4998	.001568	.00001568
303.15	.6003	.001559	.00001559
303.15	.7002	.001552	.00001552
303.15	.8011	.001546	.00001546
303.15	.8998	.001541	.00001541
303.15	1	.001536	.00001536
308.15	0	.00152	.0000152
308.15	.1002	.001504	.00001504
308.15	.2002	.00149	.0000149
308.15	.3078	.001477	.00001477
308.15	.3999	.001468	.00001468
308.15	.4998	.001458	.00001458
308.15	.6003	.00145	.0000145
308.15	.7002	.001443	.00001443
308.15	.8011	.001437	.00001437
308.15	.8998	.001433	.00001433
308.15	1	.001429	.00001429
313.15	0	.00142	.0000142
313.15	.1002	.001404	.00001404
313.15	.2002	.001391	.00001391
313.15	.3078	.001379	.00001379
313.15	.3999	.00137	.0000137
313.15	.4998	.001361	.00001361
313.15	.6003	.001354	.00001354
313.15	.7002	.001348	.00001348
313.15	.8011	.001344	.00001344
313.15	.8998	.00134	.0000134
313.15	1	.001338	.00001338
318.15	0	.00135	.0000135
318.15	.1002	.001331	.00001331
318.15	.2002	.001316	.00001316
318.15	.3078	.001302	.00001302
318.15	.3999	.001291	.00001291
318.15	.4998	.00128	.0000128
318.15	.6003	.001271	.00001271
318.15	.7002	.001263	.00001263
318.15	.8011	.001256	.00001256
318.15	.8998	.001251	.00001251
318.15	1	.001248	.00001248
323.15	0	.0013	.000013
323.15	.1002	.001278	.00001278
323.15	.2002	.001261	.00001261
323.15	.3078	.001245	.00001245
323.15	.3999	.001232	.00001232
323.15	.4998	.001219	.00001219
323.15	.6003	.001208	.00001208
323.15	.7002	.001198	.00001198
323.15	.8011	.001189	.00001189
323.15	.8998	.001182	.00001182
323.15	1	.001178	.00001178

System: propylene carbonate + N-methyl-2-pyrrolidone; phases: Liquid
Fixed: Pressure, kPa = 100
Property: Mass density, kg/m3 (Liquid); method: Vibrating tube method
Temperature, K	Mole fraction of N-methyl-2-pyrrolidone	Mass density, kg/m3	uncertainty
293.15	0	1204.81	.81
293.15	.0523	1194.07	.81
293.15	.1021	1184.1	.81
293.15	.1995	1165.18	.81
293.15	.2987	1146.67	.81
293.15	.4003	1128.44	.81
293.15	.5164	1108.38	.81
293.15	.6011	1094.3	.81
293.15	.6989	1078.57	.81
293.15	.7989	1062.97	.81
293.15	.9003	1047.58	.81
293.15	.9506	1040.04	.81
293.15	1	1032.66	.81
298.15	0	1199.02	.81
298.15	.0523	1188.38	.81
298.15	.1021	1178.51	.81
298.15	.1995	1159.73	.81
298.15	.2987	1141.4	.81
298.15	.4003	1123.3	.81
298.15	.5164	1103.36	.81
298.15	.6011	1089.39	.81
298.15	.6989	1073.78	.81
298.15	.7989	1058.3	.81
298.15	.9003	1043	.81
298.15	.9506	1035.5	.81
298.15	1	1028.17	.81
303.15	0	1194	.81
303.15	.0523	1183.42	.81
303.15	.1021	1173.58	.81
303.15	.1995	1154.87	.81
303.15	.2987	1136.58	.81
303.15	.4003	1118.52	.81
303.15	.5164	1098.63	.81
303.15	.6011	1084.68	.81
303.15	.6989	1069.12	.81
303.15	.7989	1053.68	.81
303.15	.9003	1038.41	.81
303.15	.9506	1030.92	.81
303.15	1	1023.6	.81
308.15	0	1188.57	.81
308.15	.0523	1178.1	.81
308.15	.1021	1168.35	.81
308.15	.1995	1149.78	.81
308.15	.2987	1131.63	.81
308.15	.4003	1113.71	.81
308.15	.5164	1093.99	.81
308.15	.6011	1080.16	.81
308.15	.6989	1064.71	.81
308.15	.7989	1049.38	.81
308.15	.9003	1034.2	.81
308.15	.9506	1026.76	.81
308.15	1	1019.49	.81
313.15	0	1183.11	.81
313.15	.0523	1172.69	.81
313.15	.1021	1162.99	.81
313.15	.1995	1144.5	.81
313.15	.2987	1126.42	.81
313.15	.4003	1108.58	.81
313.15	.5164	1088.95	.81
313.15	.6011	1075.18	.81
313.15	.6989	1059.78	.81
313.15	.7989	1044.52	.81
313.15	.9003	1029.43	.81
313.15	.9506	1022.03	.81
313.15	1	1014.74	.81
318.15	0	1177.55	.81
318.15	.0523	1167.21	.81
318.15	.1021	1157.58	.81
318.15	.1995	1139.21	.81
318.15	.2987	1121.25	.81
318.15	.4003	1103.52	.81
318.15	.5164	1084	.81
318.15	.6011	1070.31	.81
318.15	.6989	1054.99	.81
318.15	.7989	1039.81	.81
318.15	.9003	1024.81	.81
318.15	.9506	1017.45	.81
318.15	1	1010.2	.81
323.15	0	1171.96	.81
323.15	.0523	1161.72	.81
323.15	.1021	1152.17	.81
323.15	.1995	1133.96	.81
323.15	.2987	1116.14	.81
323.15	.4003	1098.55	.81
323.15	.5164	1079.17	.81
323.15	.6011	1065.56	.81
323.15	.6989	1050.38	.81
323.15	.7989	1035.3	.81
323.15	.9003	1020.41	.81
323.15	.9506	1013.09	.81
323.15	1	1005.89	.81

System: propylene carbonate + N-methyl-2-pyrrolidone; phases: Liquid
Fixed: Pressure, kPa = 100
Property: Viscosity, Pa*s (Liquid); method: Capillary tube (Ostwald; Ubbelohde) method
Temperature, K	Mole fraction of N-methyl-2-pyrrolidone	Viscosity, Pa*s	uncertainty
298.15	0	.00252	.0000252
298.15	.114	.002391	.00002391
298.15	.2013	.002294	.00002294
298.15	.3347	.002158	.00002158
298.15	.389	.002103	.00002103
298.15	.5	.002003	.00002003
298.15	.597	.001926	.00001926
298.15	.709	.001845	.00001845
298.15	.7891	.001796	.00001796
298.15	.8985	.001732	.00001732
298.15	1	.001677	.00001677
303.15	0	.00227	.0000227
303.15	.114	.002157	.00002157
303.15	.2013	.002076	.00002076
303.15	.3347	.001957	.00001957
303.15	.389	.001908	.00001908
303.15	.5	.001821	.00001821
303.15	.597	.001754	.00001754
303.15	.709	.001685	.00001685
303.15	.7891	.001641	.00001641
303.15	.8985	.001585	.00001585
303.15	1	.001536	.00001536
308.15	0	.00208	.0000208
308.15	.114	.001988	.00001988
308.15	.2013	.001916	.00001916
308.15	.3347	.00181	.0000181
308.15	.389	.001767	.00001767
308.15	.5	.001688	.00001688
308.15	.597	.001628	.00001628
308.15	.709	.001568	.00001568
308.15	.7891	.001527	.00001527
308.15	.8985	.001475	.00001475
308.15	1	.001429	.00001429
313.15	0	.00191	.0000191
313.15	.114	.001828	.00001828
313.15	.2013	.001765	.00001765
313.15	.3347	.001673	.00001673
313.15	.389	.001636	.00001636
313.15	.5	.001568	.00001568
313.15	.597	.001516	.00001516
313.15	.709	.001461	.00001461
313.15	.7891	.001426	.00001426
313.15	.8985	.001379	.00001379
313.15	1	.001338	.00001338
318.15	0	.00175	.0000175
318.15	.114	.001682	.00001682
318.15	.2013	.001627	.00001627
318.15	.3347	.001545	.00001545
318.15	.389	.001513	.00001513
318.15	.5	.001453	.00001453
318.15	.597	.001407	.00001407
318.15	.709	.001359	.00001359
318.15	.7891	.001328	.00001328
318.15	.8985	.001286	.00001286
318.15	1	.001248	.00001248
323.15	0	.00162	.0000162
323.15	.114	.00156	.0000156
323.15	.2013	.001513	.00001513
323.15	.3347	.001443	.00001443
323.15	.389	.001414	.00001414
323.15	.5	.001361	.00001361
323.15	.597	.00132	.0000132
323.15	.709	.001278	.00001278
323.15	.7891	.00125	.0000125
323.15	.8985	.001213	.00001213
323.15	1	.001178	.00001178
