Measured thermophysical data. Water/oil/[P6,6,6,14][NTf2] phase equilibria
Source: J. Chem. Thermodyn., 2014, 10.1016/j.jct.2014.02.012
Compound 1: n-dodecane, C12H26, purity 99%
Compound 2: water, H2O
Compound 3: trihexyl(tetradecyl)phosphonium bis[(trifluoromethyl)sulfonyl]imide, C34H68F6NO4PS2

System: n-dodecane; phases: Liquid
Fixed: Pressure, kPa = 101.325
Property: Mass density, kg/m3 (Liquid); method: Vibrating tube method
Temperature, K	Mass density, kg/m3	uncertainty
298.15	745.27	.05

System: n-dodecane; phases: Liquid
Fixed: Pressure, kPa = 101.325
Property: Viscosity, Pa*s (Liquid); method: Capillary tube (Ostwald; Ubbelohde) method
Temperature, K	Viscosity, Pa*s	uncertainty
298.15	.001356	.00001356

System: n-dodecane; phases: Liquid, Air at 1 atmosphere
Property: Surface tension liquid-gas, N/m (Liquid); method: Wilhelmy plate method
Temperature, K	Surface tension liquid-gas, N/m	uncertainty
298.15	.0249	.0001

System: water; phases: Liquid
Fixed: Pressure, kPa = 101.325
Property: Mass density, kg/m3 (Liquid); method: Vibrating tube method
Temperature, K	Mass density, kg/m3	uncertainty
298.15	997.04	.05

System: water; phases: Liquid
Fixed: Pressure, kPa = 101.325
Property: Viscosity, Pa*s (Liquid); method: Capillary tube (Ostwald; Ubbelohde) method
Temperature, K	Viscosity, Pa*s	uncertainty
298.15	.000904	.00000904

System: water; phases: Liquid, Air at 1 atmosphere
Property: Surface tension liquid-gas, N/m (Liquid); method: Wilhelmy plate method
Temperature, K	Surface tension liquid-gas, N/m	uncertainty
298.15	.072	.0001

System: trihexyl(tetradecyl)phosphonium bis[(trifluoromethyl)sulfonyl]imide; phases: Liquid
Fixed: Pressure, kPa = 101.325
Property: Mass density, kg/m3 (Liquid); method: Vibrating tube method
Temperature, K	Mass density, kg/m3	uncertainty
298.15	1065.5	.05

System: trihexyl(tetradecyl)phosphonium bis[(trifluoromethyl)sulfonyl]imide; phases: Liquid
Fixed: Pressure, kPa = 101.325
Property: Viscosity, Pa*s (Liquid); method: Capillary tube (Ostwald; Ubbelohde) method
Temperature, K	Viscosity, Pa*s	uncertainty
298.15	.3114	.003114

System: trihexyl(tetradecyl)phosphonium bis[(trifluoromethyl)sulfonyl]imide; phases: Liquid, Air at 1 atmosphere
Property: Surface tension liquid-gas, N/m (Liquid); method: Wilhelmy plate method
Temperature, K	Surface tension liquid-gas, N/m	uncertainty
298.15	.0309	.0001

System: water + trihexyl(tetradecyl)phosphonium bis[(trifluoromethyl)sulfonyl]imide; phases: Liquid mixture 1, Liquid mixture 2
Fixed: Pressure, kPa = 100
Property: Mass density, kg/m3 (Liquid mixture 1); method: Vibrating tube method
Temperature, K	Mass density, kg/m3	uncertainty
298.15	1063.86	.05
348.15	1021.17	.05

System: water + trihexyl(tetradecyl)phosphonium bis[(trifluoromethyl)sulfonyl]imide; phases: Liquid mixture 1, Liquid mixture 2
Fixed: Pressure, kPa = 100
Property: Viscosity, Pa*s (Liquid mixture 1); method: Capillary tube (Ostwald; Ubbelohde) method
Temperature, K	Viscosity, Pa*s	uncertainty
298.15	.2936	.002936
348.15	.03223	.0003223

System: water + trihexyl(tetradecyl)phosphonium bis[(trifluoromethyl)sulfonyl]imide; phases: Liquid mixture 1, Liquid mixture 2
Fixed: Pressure, kPa = 100
Property: Interfacial tension, N/m (Liquid mixture 1); method: Wilhelmy plate method
Temperature, K	Interfacial tension, N/m	uncertainty
298.15	.0271	.0001
348.15	.0256	.0001

System: water + trihexyl(tetradecyl)phosphonium bis[(trifluoromethyl)sulfonyl]imide; phases: Liquid mixture 1, Liquid mixture 2
Fixed: Pressure, kPa = 100
Property: Mole fraction of water (Liquid mixture 1); method: Chromatography
Temperature, K	Mole fraction of water	uncertainty
298.15	.072	.001
348.15	.177	.001

System: water + trihexyl(tetradecyl)phosphonium bis[(trifluoromethyl)sulfonyl]imide; phases: Liquid mixture 2, Liquid mixture 1
Fixed: Pressure, kPa = 100
Property: Mass density, kg/m3 (Liquid mixture 2); method: Vibrating tube method
Temperature, K	Mass density, kg/m3	uncertainty
298.15	997.07	.05
348.15	975.01	.05

System: water + trihexyl(tetradecyl)phosphonium bis[(trifluoromethyl)sulfonyl]imide; phases: Liquid mixture 2, Liquid mixture 1
Fixed: Pressure, kPa = 100
Property: Viscosity, Pa*s (Liquid mixture 2); method: Capillary tube (Ostwald; Ubbelohde) method
Temperature, K	Viscosity, Pa*s	uncertainty
298.15	.0009	.000009
348.15	.000391	.00000391

System: n-dodecane + trihexyl(tetradecyl)phosphonium bis[(trifluoromethyl)sulfonyl]imide; phases: Liquid mixture 1, Liquid mixture 2
Fixed: Pressure, kPa = 100
Property: Mass density, kg/m3 (Liquid mixture 1); method: Vibrating tube method
Temperature, K	Mass density, kg/m3	uncertainty
298.15	947.03	.05
348.15	872.12	.05

System: n-dodecane + trihexyl(tetradecyl)phosphonium bis[(trifluoromethyl)sulfonyl]imide; phases: Liquid mixture 1, Liquid mixture 2
Fixed: Pressure, kPa = 100
Property: Viscosity, Pa*s (Liquid mixture 1); method: Capillary tube (Ostwald; Ubbelohde) method
Temperature, K	Viscosity, Pa*s	uncertainty
298.15	.04378	.0004378
348.15	.006316	.00006316

System: n-dodecane + trihexyl(tetradecyl)phosphonium bis[(trifluoromethyl)sulfonyl]imide; phases: Liquid mixture 1, Liquid mixture 2
Fixed: Pressure, kPa = 100
Property: Interfacial tension, N/m (Liquid mixture 1); method: Wilhelmy plate method
Temperature, K	Interfacial tension, N/m	uncertainty
298.15	.0009	.0001
348.15	.0006	.0001

System: n-dodecane + trihexyl(tetradecyl)phosphonium bis[(trifluoromethyl)sulfonyl]imide; phases: Liquid mixture 1, Liquid mixture 2
Fixed: Pressure, kPa = 100
Property: Mole fraction of n-dodecane (Liquid mixture 1); method: Chromatography
Temperature, K	Mole fraction of n-dodecane	uncertainty
298.15	.653	.002
348.15	.74	.002

System: n-dodecane + trihexyl(tetradecyl)phosphonium bis[(trifluoromethyl)sulfonyl]imide; phases: Liquid mixture 2, Liquid mixture 1
Fixed: Pressure, kPa = 100
Property: Mole fraction of n-dodecane (Liquid mixture 2); method: Chromatography
Temperature, K	Mole fraction of n-dodecane	uncertainty
348.15	.997	.002

System: n-dodecane + trihexyl(tetradecyl)phosphonium bis[(trifluoromethyl)sulfonyl]imide; phases: Liquid mixture 2, Liquid mixture 1
Fixed: Pressure, kPa = 100
Property: Mass density, kg/m3 (Liquid mixture 2); method: Vibrating tube method
Temperature, K	Mass density, kg/m3	uncertainty
298.15	745.3	.05
348.15	710.19	.05

System: n-dodecane + trihexyl(tetradecyl)phosphonium bis[(trifluoromethyl)sulfonyl]imide; phases: Liquid mixture 2, Liquid mixture 1
Fixed: Pressure, kPa = 100
Property: Viscosity, Pa*s (Liquid mixture 2); method: Capillary tube (Ostwald; Ubbelohde) method
Temperature, K	Viscosity, Pa*s	uncertainty
298.15	.001355	.00001355
348.15	.000676	.00000676

System: n-dodecane + water + trihexyl(tetradecyl)phosphonium bis[(trifluoromethyl)sulfonyl]imide; phases: Liquid mixture 1, Liquid mixture 2, Liquid mixture 3
Fixed: Pressure, kPa = 100
Property: Mass density, kg/m3 (Liquid mixture 1); method: Vibrating tube method
Temperature, K	Mass density, kg/m3	uncertainty
298.15	997.08	.05
348.15	975.03	.05

System: n-dodecane + water + trihexyl(tetradecyl)phosphonium bis[(trifluoromethyl)sulfonyl]imide; phases: Liquid mixture 1, Liquid mixture 3, Liquid mixture 2
Fixed: Pressure, kPa = 100
Property: Viscosity, Pa*s (Liquid mixture 1); method: Capillary tube (Ostwald; Ubbelohde) method
Temperature, K	Viscosity, Pa*s	uncertainty
298.15	.000907	.00000907
348.15	.000394	.00000394

System: n-dodecane + water + trihexyl(tetradecyl)phosphonium bis[(trifluoromethyl)sulfonyl]imide; phases: Liquid mixture 1, Liquid mixture 2
Fixed: Pressure, kPa = 100
Property: Interfacial tension, N/m (Liquid mixture 1); method: Wilhelmy plate method
Mole fraction of trihexyl(tetradecyl)phosphonium bis[(trifluoromethyl)sulfonyl]imide	Temperature, K	Interfacial tension, N/m	uncertainty
.336	298.15	.0235	.0001
.26	348.15	.0222	.0001

System: n-dodecane + water + trihexyl(tetradecyl)phosphonium bis[(trifluoromethyl)sulfonyl]imide; phases: Liquid mixture 3, Liquid mixture 2
Fixed: Pressure, kPa = 100
Property: Interfacial tension, N/m (Liquid mixture 3); method: 298.15
Temperature, K	Mole fraction of trihexyl(tetradecyl)phosphonium bis[(trifluoromethyl)sulfonyl]imide	Interfacial tension, N/m	uncertainty
298.15	.336	.0006	.0001
348.15	.26	.0004	.0001

System: n-dodecane + water + trihexyl(tetradecyl)phosphonium bis[(trifluoromethyl)sulfonyl]imide; phases: Liquid mixture 2, Liquid mixture 1
Fixed: Pressure, kPa = 100
Property: Mole fraction of water (Liquid mixture 2); method: Chromatography
Temperature, K	Mole fraction of trihexyl(tetradecyl)phosphonium bis[(trifluoromethyl)sulfonyl]imide	Mole fraction of water	uncertainty
298.15	.928	.072	.001
298.15	.873	.071	.001
298.15	.785	.065	.001
298.15	.596	.053	.001
298.15	.519	.042	.001
298.15	.5	.041	.001
298.15	.431	.028	.001
348.15	.823	.177	.001
348.15	.774	.163	.001
348.15	.729	.149	.001
348.15	.679	.12	.001
348.15	.624	.099	.001
348.15	.542	.071	.001
348.15	.502	.059	.001
348.15	.453	.052	.001
348.15	.422	.05	.001
348.15	.282	.047	.001

System: n-dodecane + water + trihexyl(tetradecyl)phosphonium bis[(trifluoromethyl)sulfonyl]imide; phases: Liquid mixture 3, Liquid mixture 1, Liquid mixture 2
Fixed: Pressure, kPa = 100
Property: Mole fraction of trihexyl(tetradecyl)phosphonium bis[(trifluoromethyl)sulfonyl]imide (Liquid mixture 3); method: ICP optical spectroscopy
Property: Mole fraction of water (Liquid mixture 3); method: ICP optical spectroscopy
Property: Mole fraction of trihexyl(tetradecyl)phosphonium bis[(trifluoromethyl)sulfonyl]imide (Liquid mixture 1); method: ICP optical spectroscopy
Property: Mole fraction of n-dodecane (Liquid mixture 1); method: ICP optical spectroscopy
Property: Mole fraction of trihexyl(tetradecyl)phosphonium bis[(trifluoromethyl)sulfonyl]imide (Liquid mixture 2); method: ICP optical spectroscopy
Property: Mole fraction of water (Liquid mixture 2); method: ICP optical spectroscopy
Temperature, K	Mole fraction of trihexyl(tetradecyl)phosphonium bis[(trifluoromethyl)sulfonyl]imide	uncertainty	Mole fraction of water	uncertainty	Mole fraction of trihexyl(tetradecyl)phosphonium bis[(trifluoromethyl)sulfonyl]imide	uncertainty	Mole fraction of n-dodecane	uncertainty	Mole fraction of trihexyl(tetradecyl)phosphonium bis[(trifluoromethyl)sulfonyl]imide	uncertainty	Mole fraction of water	uncertainty
298.15	.00044		.00047		.0000014		0	.001	.336	.002	.024	.001
348.15	.002		.00099		.000025		0	.001	.26	.002	.042	.001

System: n-dodecane + water + trihexyl(tetradecyl)phosphonium bis[(trifluoromethyl)sulfonyl]imide; phases: Liquid mixture 3, Liquid mixture 2
Property: Mole fraction of trihexyl(tetradecyl)phosphonium bis[(trifluoromethyl)sulfonyl]imide (Liquid mixture 3); method: Chromatography
Property: Mole fraction of n-dodecane (Liquid mixture 2); method: Chromatography
Property: Mole fraction of trihexyl(tetradecyl)phosphonium bis[(trifluoromethyl)sulfonyl]imide (Liquid mixture 2); method: Chromatography
Temperature, K	Pressure, kPa	Mole fraction of n-dodecane	Mole fraction of trihexyl(tetradecyl)phosphonium bis[(trifluoromethyl)sulfonyl]imide	uncertainty	Mole fraction of n-dodecane	uncertainty	Mole fraction of trihexyl(tetradecyl)phosphonium bis[(trifluoromethyl)sulfonyl]imide	uncertainty
298.15	100	1	0	.001	.653	.002	.343	.002
348.15	100	.997	.002	.001	.74	.002	.256	.002

System: n-dodecane + water + trihexyl(tetradecyl)phosphonium bis[(trifluoromethyl)sulfonyl]imide; phases: Liquid mixture 2, Liquid mixture 1, Liquid mixture 3
Fixed: Pressure, kPa = 100
Property: Mass density, kg/m3 (Liquid mixture 2); method: Vibrating tube method
Temperature, K	Mass density, kg/m3	uncertainty
298.15	948.06	.05
348.15	874.26	.05

System: n-dodecane + water + trihexyl(tetradecyl)phosphonium bis[(trifluoromethyl)sulfonyl]imide; phases: Liquid mixture 3, Liquid mixture 2, Liquid mixture 1
Fixed: Pressure, kPa = 100
Property: Mass density, kg/m3 (Liquid mixture 3); method: Vibrating tube method
Temperature, K	Mass density, kg/m3	uncertainty
298.15	745.37	.05
348.15	710.28	.05

System: n-dodecane + water + trihexyl(tetradecyl)phosphonium bis[(trifluoromethyl)sulfonyl]imide; phases: Liquid mixture 2, Liquid mixture 3, Liquid mixture 1
Fixed: Pressure, kPa = 100
Property: Viscosity, Pa*s (Liquid mixture 2); method: Capillary tube (Ostwald; Ubbelohde) method
Temperature, K	Viscosity, Pa*s	uncertainty
298.15	.04449	.0004449
348.15	.005802	.00005802

System: n-dodecane + water + trihexyl(tetradecyl)phosphonium bis[(trifluoromethyl)sulfonyl]imide; phases: Liquid mixture 3, Liquid mixture 1, Liquid mixture 2
Fixed: Pressure, kPa = 100
Property: Viscosity, Pa*s (Liquid mixture 3); method: Capillary tube (Ostwald; Ubbelohde) method
Temperature, K	Viscosity, Pa*s	uncertainty
298.15	.001354	.00001354
348.15	.000679	.00000679

System: n-dodecane + water; phases: Liquid mixture 1, Liquid mixture 2
Fixed: Pressure, kPa = 100
Property: Mass density, kg/m3 (Liquid mixture 1); method: Vibrating tube method
Temperature, K	Mass density, kg/m3	uncertainty
298.15	745.27	.05
348.15	708.51	.05

System: n-dodecane + water; phases: Liquid mixture 2, Liquid mixture 1
Fixed: Pressure, kPa = 100
Property: Mass density, kg/m3 (Liquid mixture 2); method: Vibrating tube method
Temperature, K	Mass density, kg/m3	uncertainty
298.15	997.04	.05
348.15	974.98	.05

System: n-dodecane + water; phases: Liquid mixture 1, Liquid mixture 2
Fixed: Pressure, kPa = 100
Property: Viscosity, Pa*s (Liquid mixture 1); method: Capillary tube (Ostwald; Ubbelohde) method
Temperature, K	Viscosity, Pa*s	uncertainty
298.15	.001356	.00001356
348.15	.00066	.0000066

System: n-dodecane + water; phases: Liquid mixture 2, Liquid mixture 1
Fixed: Pressure, kPa = 100
Property: Viscosity, Pa*s (Liquid mixture 2); method: Capillary tube (Ostwald; Ubbelohde) method
Temperature, K	Viscosity, Pa*s	uncertainty
298.15	.000904	.00000904
348.15	.000389	.00000389

System: n-dodecane + water; phases: Liquid mixture 1, Liquid mixture 2
Fixed: Pressure, kPa = 100
Property: Interfacial tension, N/m (Liquid mixture 1); method: Wilhelmy plate method
Temperature, K	Interfacial tension, N/m	uncertainty
298.15	.0522	.0001
348.15	.0496	.0001
