Measured thermophysical data. Investigation of sodium 4-nitrotoluene-2-sulfonate solubility in aqueous organic solutions
Source: J. Chem. Thermodyn., 2011, 10.1016/j.jct.2011.04.004
Compound 1: water, H2O, purity 99.8%
Compound 2: methanol, CH4O, purity 99.7%
Compound 3: ethanol, C2H6O, purity 99.7%
Compound 4: 2-methoxyethanol, C3H8O2, purity 99%
Compound 5: p-nitro-o-toluenesulfonic acid, C7H7NO5S, purity 98%

System: methanol + p-nitro-o-toluenesulfonic acid + water; phases: Liquid, Crystal
Fixed: Pressure, kPa = 101
Property: Solid-liquid equilibrium temperature, K (Liquid); method: Dynamic Method
Solvent: Mole fraction of methanol	Mole fraction of p-nitro-o-toluenesulfonic acid	Solid-liquid equilibrium temperature, K	uncertainty
.2	.00479	288.85	.1
.2	.005385	292.19	.1
.2	.006108	295.19	.1
.2	.006942	298.89	.1
.2	.00805	303.09	.1
.2	.008922	306.53	.1
.2	.01006	310.25	.1
.2	.01127	313.48	.1
.2	.01251	316.99	.1
.2	.01393	320.49	.1
.2	.01566	324.19	.1
.4	.004897	289.49	.1
.4	.005525	293.39	.1
.4	.006316	297.28	.1
.4	.007209	301.59	.1
.4	.008117	305.24	.1
.4	.009106	308.75	.1
.4	.0101	312.07	.1
.4	.01124	315.58	.1
.4	.01262	319.33	.1
.4	.014	322.69	.1
.4	.01558	326.19	.1
.6	.004961	289.49	.1
.6	.005348	292.09	.1
.6	.005789	295.29	.1
.6	.006096	296.59	.1
.6	.006595	299.57	.1
.6	.006963	301.59	.1
.6	.007474	303.99	.1
.6	.007792	305.69	.1
.6	.00803	306.69	.1
.6	.008357	307.98	.1
.6	.008995	310.76	.1
.6	.01003	314.68	.1
.6	.01106	318.27	.1
.6	.0123	322.09	.1
.6	.01362	325.6	.1
.7	.005072	289.59	.1
.7	.00547	292.71	.1
.7	.006195	297.98	.1
.7	.006991	302.67	.1
.7	.007449	305.48	.1
.7	.008159	309.08	.1
.7	.008734	311.78	.1
.7	.009625	315.88	.1
.7	.01046	319.2	.1
.7	.01161	323.18	.1
.8	.005469	289.9	.1
.8	.006344	295.9	.1
.8	.006507	297.39	.1
.8	.006886	299.39	.1
.8	.007661	303.49	.1
.8	.008549	308.44	.1
.8	.009386	312.39	.1
.8	.009742	314	.1
.8	.01027	316.2	.1
.8	.01142	320.09	.1
.8	.01282	324.39	.1
1	.01587	297.49	.1
1	.01625	302.19	.1
1	.01644	304.39	.1
1	.01684	307.89	.1
1	.01734	310.89	.1
1	.01809	314.7	.1
1	.01849	316.99	.1
1	.01914	319.59	.1

System: ethanol + p-nitro-o-toluenesulfonic acid + water; phases: Liquid, Crystal
Fixed: Pressure, kPa = 101
Property: Solid-liquid equilibrium temperature, K (Liquid); method: Dynamic Method
Solvent: Mole fraction of ethanol	Mole fraction of p-nitro-o-toluenesulfonic acid	Solid-liquid equilibrium temperature, K	uncertainty
.2	.00672	295.23	.1
.2	.00788	299.73	.1
.2	.00887	303.43	.1
.2	.009924	306.53	.1
.2	.0111	309.83	.1
.2	.01241	313.33	.1
.2	.01386	316.93	.1
.2	.01587	321.02	.1
.2	.01787	325.12	.1
.2	.01993	328.92	.1
.2	.02185	332.32	.1
.2	.02388	335.92	.1
.2	.02602	339.32	.1
.4	.005432	294.29	.1
.4	.006287	299.29	.1
.4	.007362	304.11	.1
.4	.008193	307.47	.1
.4	.009092	311.38	.1
.4	.009992	314.69	.1
.4	.01098	318.29	.1
.4	.0117	320.99	.1
.4	.01267	324.03	.1
.4	.01355	326.82	.1
.4	.01467	330.13	.1
.4	.01578	333.43	.1
.4	.01719	337.09	.1
.4	.01935	341.25	.1
.6	.002972	293.4	.1
.6	.00349	298	.1
.6	.003982	302.62	.1
.6	.004392	306.75	.1
.6	.004787	309.67	.1
.6	.005294	313.07	.1
.6	.006116	316.92	.1
.6	.006726	320.68	.1
.6	.007446	324.53	.1
.6	.008224	328.07	.1
.6	.01	336.15	.1
.6	.01121	341.1	.1
.8	.001554	298.18	.1
.8	.001683	301.28	.1
.8	.001838	304.58	.1
.8	.00202	307.83	.1
.8	.002219	311.13	.1
.8	.002627	316.55	.1
.8	.00286	319.64	.1
.8	.003148	322.69	.1
.8	.003519	325.54	.1
.8	.004033	329.97	.1
.8	.004601	334.66	.1
.8	.005091	337.87	.1
.9	.001277	299.33	.1
.9	.001399	303	.1
.9	.001593	307.23	.1
.9	.00174	310.11	.1
.9	.001906	313.3	.1
.9	.002072	316.35	.1
.9	.002392	321.03	.1
.9	.002627	324.33	.1
.9	.002885	327.23	.1
.9	.0032	330.43	.1
.9	.003545	334.83	.1
.9	.003952	338.58	.1
1	.001852	294.3	.1
1	.001963	298.4	.1
1	.002045	302.84	.1
1	.002178	306.75	.1
1	.00232	311.6	.1
1	.002461	316.45	.1
1	.002595	321.3	.1
1	.002726	326.1	.1
1	.002854	330.6	.1
1	.003009	335.83	.1
1	.003122	338.03	.1

System: 2-methoxyethanol + p-nitro-o-toluenesulfonic acid + water; phases: Liquid, Crystal
Fixed: Pressure, kPa = 101
Property: Solid-liquid equilibrium temperature, K (Liquid); method: Dynamic Method
Solvent: Mole fraction of 2-methoxyethanol	Mole fraction of p-nitro-o-toluenesulfonic acid	Solid-liquid equilibrium temperature, K	uncertainty
.2	.0129	295.28	.1
.2	.0145	300.08	.1
.2	.0164	304.98	.1
.2	.01811	309.25	.1
.2	.02028	313.78	.1
.2	.02271	318.68	.1
.2	.02544	323.68	.1
.2	.02835	328.48	.1
.2	.03166	333.58	.1
.2	.03522	338.58	.1
.2	.0389	343.48	.1
.4	.02125	294.18	.1
.4	.02198	296.98	.1
.4	.02422	302.62	.1
.4	.02495	304.67	.1
.4	.02618	307.98	.1
.4	.02726	310.38	.1
.4	.0292	314.78	.1
.4	.03151	319.98	.1
.4	.03358	323.68	.1
.4	.03612	328.08	.1
.4	.03831	331.74	.1
.4	.03987	333.99	.1
.4	.04147	336.48	.1
.4	.04416	340.7	.1
.6	.03041	291.64	.1
.6	.03124	295.58	.1
.6	.03209	299.18	.1
.6	.03314	302.98	.1
.6	.03413	305.62	.1
.6	.03575	309.78	.1
.6	.03699	313.28	.1
.6	.03829	317.28	.1
.6	.04006	321.28	.1
.6	.04228	326.28	.1
.6	.04489	331.48	.1
.6	.04688	335.15	.1
.6	.04892	338.42	.1
.6	.05102	342.44	.1
.8	.04416	291	.1
.8	.04501	294.8	.1
.8	.04591	298.49	.1
.8	.0467	302.38	.1
.8	.04794	307.18	.1
.8	.04914	310.88	.1
.8	.05073	316.08	.1
.8	.05212	320.28	.1
.8	.0535	324.18	.1
.8	.05508	327.98	.1
.8	.05722	332.38	.1
.8	.05956	336.78	.1
1	.08477	297.11	.1
1	.08555	301.19	.1
1	.08648	304.8	.1
1	.08757	307.99	.1
1	.08833	310.59	.1
1	.09044	316.49	.1
1	.09203	320.8	.1
1	.09372	324.79	.1
1	.0957	328.97	.1
1	.0977	332.79	.1
