Measured thermophysical data. Experimental study of the density and derived volumetric (excess, apparent, and partial molar volumes) properties of aqueous 1-propanol mixtures at temperatures from 298K to 582K and pressures up to 40MPa
Source: J. Chem. Thermodyn., 2014, 10.1016/j.jct.2013.11.036
Compound 1: water, H2O
Compound 2: 1-propanol, C3H8O, purity 99.5%

System: 1-propanol + water; phases: Liquid
Property: Mass density, kg/m3 (Liquid); method: Constant-volume piezometry
Pressure, kPa	Temperature, K	Molality, mol/kg of 1-propanol	Mass density, kg/m3	uncertainty
7708	303.2	2.531	977.7	.58662
3334	303.2	2.531	975.9	.58554
10787	343.94	2.531	954.3	.57258
6374	343.94	2.531	952.5	.5715
2353	343.94	2.531	950.6	.57036
11768	394.81	2.531	915.6	.54936
7845	394.81	2.531	913.4	.54804
3472	394.81	2.531	911.1	.54666
10787	426.33	2.531	884.4	.53064
6865	426.33	2.531	882.1	.52926
3668	426.33	2.531	880.3	.52818
10297	472.74	2.531	832.6	.49956
6531	472.74	2.531	829.7	.49782
3668	472.74	2.531	826.7	.49602
9316	500.33	2.531	794.5	.4767
7100	500.33	2.531	792.6	.47556
4982	500.33	2.531	790	.474
11023	538.96	2.531	736.1	.44166
8649	538.96	2.531	731.3	.43878
7433	538.96	2.531	728.6	.43716
12160	577.86	2.531	656.7	.39402
11768	577.86	2.531	652.5	.3915
11717	577.86	2.531	643.6	.38616
12160	312.07	7.407	941.1	.56466
6865	312.07	7.407	938.7	.56322
2844	312.07	7.407	936.5	.5619
12690	343.48	7.407	919	.5514
6767	343.48	7.407	915.8	.54948
2942	343.48	7.407	913.7	.54822
12651	383.2	7.407	885.3	.53118
6865	383.2	7.407	881.7	.52902
3256	383.2	7.407	879.4	.52764
10375	427.06	7.407	839.8	.50388
6453	427.06	7.407	836.9	.50214
4001	427.06	7.407	834.6	.50076
10787	463.81	7.407	796.8	.47808
7355	463.81	7.407	793.5	.4761
4805	463.81	7.407	790.8	.47448
10866	504.03	7.407	741.9	.44514
9807	504.03	7.407	739.6	.44376
7669	504.03	7.407	735.5	.4413
4805	504.03	7.407	730.7	.43842
12749	543.97	7.407	673.5	.4041
10532	543.97	7.407	666.5	.3999
7335	543.97	7.407	653.7	.39222
14377	582.08	7.407	576.7	.34602
13670	582.08	7.407	567.6	.34056
12866	582.08	7.407	557.8	.33468
12239	582.08	7.407	540	.324
13631	302.13	14.377	915.8	.54948
7747	302.13	14.377	913.1	.54786
2844	302.13	14.377	910.6	.54636
14455	342.49	14.377	885.4	.53124
10199	342.49	14.377	882.7	.52962
6159	342.49	14.377	880.3	.52818
2353	342.49	14.377	877.9	.52674
13239	393.03	14.377	838.9	.50334
9885	393.03	14.377	836.6	.50196
6453	393.03	14.377	833.7	.50022
3256	393.03	14.377	830.8	.49848
12827	423.61	14.377	806.4	.48384
10042	423.61	14.377	804.1	.48246
6453	423.61	14.377	800.5	.4803
3432	423.61	14.377	797.3	.47838
13141	457.85	14.377	766.1	.45966
8198	457.85	14.377	760.4	.45624
3589	457.85	14.377	754.1	.45246
14298	501.66	14.377	706.5	.4239
10415	501.66	14.377	699.7	.41982
6943	501.66	14.377	691.7	.41502
4491	501.66	14.377	685	.411
14298	537.32	14.377	642.1	.38526
10611	537.32	14.377	628.3	.37698
9885	537.32	14.377	619.3	.37158
13729	575.95	14.377	521.1	.31266
13317	575.95	14.377	509.3	.30558
11886	575.95	14.377	475.9	.28554
11768	575.95	14.377	437.4	.26244
14220	307.99	56.348	880.4	.52824
2942	307.99	56.348	872.9	.52374
10120	347.63	56.348	843.1	.50586
3668	347.63	56.348	838	.5028
10787	410.72	56.348	780.5	.4683
3923	410.72	56.348	771.4	.46284
11278	486.26	56.348	680.2	.40812
7512	486.26	56.348	668.9	.40134
11591	536.99	56.348	573.2	.34392
11140	536.99	56.348	566.4	.33984
10160	536.99	56.348	558.4	.33504
15043	574.64	56.348	468	.2808
14509	574.64	56.348	456.5	.2739
14004	574.64	56.348	441.1	.26466
13082	574.64	56.348	409.5	.2457
11886	574.64	56.348	322.1	.19326
5000	298.15	.869	990.5	.5943
5000	303.15	.869	988.8	.59328
5000	323.15	.869	980.8	.58848
5000	348.15	.869	967.9	.58074
5000	373.15	.869	951.6	.57096
5000	398.15	.869	932	.5592
5000	423.15	.869	909.2	.54552
5000	448.15	.869	883	.5298
5000	298.15	2.465	980.7	.58842
5000	303.15	2.465	978.4	.58704
5000	323.15	2.465	968.2	.58092
5000	348.15	2.465	952.7	.57162
5000	373.15	2.465	934.2	.56052
5000	398.15	2.465	912.7	.54762
5000	423.15	2.465	888.1	.53286
5000	448.15	2.465	860.5	.5163
10000	298.15	.869	992.6	.59556
10000	303.15	.869	990.9	.59454
10000	323.15	.869	982.9	.58974
10000	348.15	.869	970	.582
10000	373.15	.869	953.9	.57234
10000	398.15	.869	934.6	.56076
10000	423.15	.869	912.1	.54726
10000	448.15	.869	886.4	.53184
10000	298.15	2.465	982.7	.58962
10000	303.15	2.465	980.5	.5883
10000	323.15	2.465	970.3	.58218
10000	348.15	2.465	954.9	.57294
10000	373.15	2.465	937	.5622
10000	398.15	2.465	915.5	.5493
10000	423.15	2.465	891.4	.53484
10000	448.15	2.465	864.4	.51864
20000	298.15	.869	996.7	.59802
20000	303.15	.869	995	.597
20000	323.15	.869	986.9	.59214
20000	348.15	.869	974.1	.58446
20000	373.15	.869	958.3	.57498
20000	398.15	.869	939.5	.5637
20000	423.15	.869	917.6	.55056
20000	448.15	.869	892.7	.53562
20000	298.15	2.465	986.6	.59196
20000	303.15	2.465	984.4	.59064
20000	323.15	2.465	974.3	.58458
20000	348.15	2.465	959.1	.57546
20000	373.15	2.465	941.3	.56478
20000	398.15	2.465	920.8	.55248
20000	423.15	2.465	897.5	.5385
20000	448.15	2.465	871.5	.5229
30000	298.15	.869	1000.6	.60036
30000	303.15	.869	998.9	.59934
30000	323.15	.869	990.8	.59448
30000	348.15	.869	978	.5868
30000	373.15	.869	962.4	.57744
30000	398.15	.869	943.9	.56634
30000	423.15	.869	922.6	.55356
30000	448.15	.869	898.3	.53898
30000	298.15	2.465	990.3	.59418
30000	303.15	2.465	988	.5928
30000	323.15	2.465	978	.5868
30000	348.15	2.465	963.1	.57786
30000	373.15	2.465	945.7	.56742
30000	398.15	2.465	925.7	.55542
30000	423.15	2.465	903.1	.54186
30000	448.15	2.465	877.9	.52674
40000	298.15	.869	1004.4	.60264
40000	303.15	.869	1002.7	.60162
40000	323.15	.869	994.5	.5967
40000	348.15	.869	981.8	.58908
40000	373.15	.869	966.3	.57978
40000	398.15	.869	948	.5688
40000	423.15	.869	927	.5562
40000	448.15	.869	903.2	.54192
40000	298.15	2.465	993.8	.59628
40000	303.15	2.465	991.6	.59496
40000	323.15	2.465	981.6	.58896
40000	348.15	2.465	966.8	.58008
40000	373.15	2.465	949.7	.56982
40000	398.15	2.465	930.1	.55806
40000	423.15	2.465	908	.5448
40000	448.15	2.465	883.5	.5301

System: 1-propanol + water; phases: Liquid
Fixed: Pressure, kPa = 101
Property: Mass density, kg/m3 (Liquid); method: Pycnometric method
Temperature, K	Molality, mol/kg of 1-propanol	Mass density, kg/m3	uncertainty
302.8	2.531	974.74	.48737
312.65	2.531	969.82	.48491
326.05	2.531	962.17	.481085
340.85	2.531	952.6	.4763
349.85	2.531	946.25	.473125
302.8	7.407	941.25	.470625
312.65	7.407	934.48	.46724
326.05	7.407	924.78	.46239
340.85	7.407	913.42	.45671
349.85	7.407	906.29	.453145
302.8	14.377	908.75	.454375
312.65	14.377	901.37	.450685
326.05	14.377	890.78	.44539
340.85	14.377	878.68	.43934
349.85	14.377	870.71	.435355
294.85	56.348	851.23	.425615
306	56.348	842.18	.42109
320.75	56.348	829.47	.414735
331.05	56.348	820.42	.41021
352.05	56.348	801.03	.400515
292.05	.869	991.42	.49571
295.15	.869	990.4	.4952
298.15	.869	989.5	.49475
308.55	.869	986.52	.49326
293.45	2.936	980.4	.4902
298.15	2.936	978.54	.48927
304.65	2.936	975.69	.487845
313.75	2.936	971.27	.485635
322.35	2.936	966.49	.483245
