Measured thermophysical data. (Vapor-liquid) equilibria and excess Gibbs free energy functions of (ethanol + glycerol), or (water + glycerol) binary mixtures at several temperatures
Source: J. Chem. Thermodyn., 2014, 10.1016/j.jct.2013.09.046
Compound 1: water, H2O
Compound 2: ethanol, C2H6O, purity 99.9%
Compound 3: glycerol, C3H8O3, purity 99%

System: water; phases: Liquid
Fixed: Pressure, kPa = 101.325
Property: Mass density, kg/m3 (Liquid); method: Vibrating tube method
Temperature, K	Mass density, kg/m3	uncertainty
293.15	998.19	.05

System: water; phases: Liquid
Fixed: Pressure, kPa = 101.325
Property: Refractive index (Na D-line) (Liquid); method: Standard Abbe refractometry
Temperature, K	Refractive index (Na D-line)	uncertainty
293.15	1.333	.00005

System: water; phases: Liquid, Gas
Property: Vapor or sublimation pressure, kPa (Liquid); method: Closed cell (Static) method
Temperature, K	Vapor or sublimation pressure, kPa	uncertainty
273.15	.593	.00593
283.15	1.21	.0121
293.15	2.328	.02328
303.15	4.251	.04251
313.15	7.41	.0741
323.15	12.4	.124
333.15	20	.2
343.15	31.215	.31215
353.15	47.296	.47296
363.15	69.771	.69771

System: ethanol; phases: Liquid
Fixed: Pressure, kPa = 101.325
Property: Mass density, kg/m3 (Liquid); method: Vibrating tube method
Temperature, K	Mass density, kg/m3	uncertainty
293.15	789.99	.05

System: ethanol; phases: Liquid
Fixed: Pressure, kPa = 101.325
Property: Refractive index (Na D-line) (Liquid); method: Standard Abbe refractometry
Temperature, K	Refractive index (Na D-line)	uncertainty
293.15	1.362	.00005

System: ethanol; phases: Liquid, Gas
Property: Vapor or sublimation pressure, kPa (Liquid); method: Closed cell (Static) method
Temperature, K	Vapor or sublimation pressure, kPa	uncertainty
273.15	1.592	.01592
283.15	3.141	.03141
293.15	5.872	.05872
303.15	10.47	.1047
313.15	17.892	.17892
323.15	29.439	.29439
333.15	46.906	.46906
343.15	72.218	.72218
353.15	108.348	1.08348

System: glycerol; phases: Liquid
Fixed: Pressure, kPa = 101.325
Property: Mass density, kg/m3 (Liquid); method: Vibrating tube method
Temperature, K	Mass density, kg/m3	uncertainty
293.15	1260.98	.05

System: glycerol; phases: Liquid
Fixed: Pressure, kPa = 101.325
Property: Refractive index (Na D-line) (Liquid); method: Standard Abbe refractometry
Temperature, K	Refractive index (Na D-line)	uncertainty
293.15	1.4725	.00005

System: glycerol; phases: Liquid, Gas
Property: Vapor or sublimation pressure, kPa (Liquid); method: Closed cell (Static) method
Temperature, K	Vapor or sublimation pressure, kPa	uncertainty
333.15	.001	.00001
343.15	.002	.00002
353.15	.006	.00006
363.15	.012	.00012

System: glycerol + ethanol; phases: Liquid, Gas
Property: Vapor or sublimation pressure, kPa (Liquid); method: Closed cell (Static) method
Temperature, K	Mole fraction of ethanol	Vapor or sublimation pressure, kPa	uncertainty
273.15	.0815	.363	.01815
273.15	.2	.738	.0369
273.15	.35	1.061	.05305
273.15	.5001	1.22	.061
273.15	.625	1.302	.0651
273.15	.75	1.429	.07145
273.15	.8	1.371	.06855
273.15	.9	1.443	.07215
273.15	1	1.592	.0796
283.15	.0815	.678	.0339
283.15	.2	1.435	.07175
283.15	.35	2.067	.10335
283.15	.5001	2.348	.1174
283.15	.625	2.518	.1259
283.15	.75	2.745	.13725
283.15	.8	2.681	.13405
283.15	.9	2.824	.1412
283.15	1	3.141	.15705
293.15	.0815	1.204	.0602
293.15	.2	2.633	.13165
293.15	.35	3.806	.1903
293.15	.5001	4.276	.2138
293.15	.625	4.592	.2296
293.15	.75	5.003	.25015
293.15	.8	4.974	.2487
293.15	.9	5.253	.26265
293.15	1	5.872	.2936
303.15	.0815	2.049	.10245
303.15	.2	4.592	.2296
303.15	.35	6.672	.3336
303.15	.5001	7.419	.37095
303.15	.625	7.956	.3978
303.15	.75	8.702	.4351
303.15	.8	8.811	.44055
303.15	.9	9.334	.4667
303.15	1	10.47	.5235
313.15	.0815	3.354	.1677
313.15	.2	7.66	.383
313.15	.35	11.195	.55975
313.15	.5001	12.335	.61675
313.15	.625	13.178	.6589
313.15	.75	14.524	.7262
313.15	.8	14.973	.74865
313.15	.9	15.924	.7962
313.15	1	17.892	.8946
323.15	.0815	5.302	.2651
323.15	.2	12.283	.61415
323.15	.35	18.07	.9035
323.15	.5001	19.742	.9871
323.15	.625	20.979	1.04895
323.15	.75	23.364	1.1682
323.15	.8	24.521	1.22605
323.15	.9	26.189	1.30945
323.15	1	29.439	1.47195
333.15	0	.001	.00005
333.15	.0815	8.124	.4062
333.15	.2	19.016	.9508
333.15	.35	28.174	1.4087
333.15	.5001	30.545	1.52725
333.15	.625	32.244	1.6122
333.15	.75	36.362	1.8181
333.15	.8	38.842	1.9421
333.15	.9	41.674	2.0837
333.15	1	46.906	2.3453
343.15	0	.002	.0001
343.15	.0815	12.103	.60515
343.15	.2	28.534	1.4267
343.15	.35	42.587	2.12935
343.15	.5001	45.845	2.29225
343.15	.625	48.033	2.40165
343.15	.75	54.935	2.74675
343.15	.8	59.706	2.9853
343.15	.9	64.37	3.2185
343.15	1	72.218	3.6109
353.15	0	.006	.0003
353.15	.0815	17.578	.8789
353.15	.2	41.63	2.0815
353.15	.35	62.607	3.13035
353.15	.5001	66.957	3.34785
353.15	.625	69.576	3.4788
353.15	.75	80.798	4.0399
353.15	.8	89.316	4.4658
353.15	.9	96.776	4.8388
353.15	1	108.348	5.4174

System: glycerol + water; phases: Liquid, Gas
Property: Vapor or sublimation pressure, kPa (Liquid); method: Closed cell (Static) method
Temperature, K	Mole fraction of water	Vapor or sublimation pressure, kPa	uncertainty
273.15	.1	.029	.00029
273.15	.2	.068	.00068
273.15	.35	.144	.00144
273.15	.4989	.22	.0022
273.15	.625	.31	.0031
273.15	.75	.432	.00432
273.15	.7999	.488	.00488
273.15	.8999	.574	.00574
273.15	1	.593	.00593
283.15	.1	.061	.00061
283.15	.2	.14	.0014
283.15	.35	.295	.00295
283.15	.4989	.457	.00457
283.15	.625	.638	.00638
283.15	.75	.879	.00879
283.15	.7999	.99	.0099
283.15	.8999	1.158	.01158
283.15	1	1.21	.0121
293.15	.1	.118	.00118
293.15	.2	.273	.00273
293.15	.35	.572	.00572
293.15	.4989	.892	.00892
293.15	.625	1.239	.01239
293.15	.75	1.688	.01688
293.15	.7999	1.892	.01892
293.15	.8999	2.206	.02206
293.15	1	2.328	.02328
303.15	.1	.218	.00218
303.15	.2	.504	.00504
303.15	.35	1.057	.01057
303.15	.4989	1.653	.01653
303.15	.625	2.283	.02283
303.15	.75	3.082	.03082
303.15	.7999	3.437	.03437
303.15	.8999	4	.04
303.15	1	4.251	.04251
313.15	.1	.387	.00387
313.15	.2	.891	.00891
313.15	.35	1.866	.01866
313.15	.4989	2.922	.02922
313.15	.625	4.015	.04015
313.15	.75	5.377	.05377
313.15	.7999	5.964	.05964
313.15	.8999	6.937	.06937
313.15	1	7.41	.0741
323.15	.1	.66	.0066
323.15	.2	1.513	.01513
323.15	.35	3.165	.03165
323.15	.4989	4.951	.04951
323.15	.625	6.774	.06774
323.15	.75	9.012	.09012
323.15	.7999	9.936	.09936
323.15	.8999	11.564	.11564
323.15	1	12.4	.124
333.15	0	.001	.00001
333.15	.1	1.086	.01086
333.15	.2	2.474	.02474
333.15	.35	5.181	.05181
333.15	.4989	8.082	.08082
333.15	.625	11.016	.11016
333.15	.75	14.57	.1457
333.15	.7999	15.964	.15964
333.15	.8999	18.606	.18606
333.15	1	20	.2
343.15	0	.002	.00002
343.15	.1	1.729	.01729
343.15	.2	3.916	.03916
343.15	.35	8.212	.08212
343.15	.4989	12.756	.12756
343.15	.625	17.328	.17328
343.15	.75	22.802	.22802
343.15	.7999	24.829	.24829
343.15	.8999	29	.29
343.15	1	31.215	.31215
353.15	0	.006	.00006
353.15	.1	2.674	.02674
353.15	.2	6.018	.06018
353.15	.35	12.641	.12641
353.15	.4989	19.533	.19533
353.15	.625	26.454	.26454
353.15	.75	34.659	.34659
353.15	.7999	37.499	.37499
353.15	.8999	43.917	.43917
353.15	1	47.296	.47296
363.15	0	.012	.00012
363.15	.1	4.027	.04027
363.15	.2	9.002	.09002
363.15	.35	18.949	.18949
363.15	.4989	29.102	.29102
363.15	.625	39.308	.39308
363.15	.75	51.305	.51305
363.15	.7999	55.155	.55155
363.15	.8999	64.798	.64798
363.15	1	69.771	.69771
