Measured thermophysical data. Physicochemical properties of binary mixtures of 1,1,3,3-tetramethylguanidine imidazolide ionic liquid with water and alcohols
Source: J. Chem. Thermodyn., 2016, 10.1016/j.jct.2016.01.012
Compound 1: methanol, CH4O, purity 99.5%
Compound 2: ethanol, C2H6O, purity 99.5%
Compound 3: 1-propanol, C3H8O, purity 99.5%
Compound 4: 1-butanol, C4H10O, purity 99.5%
Compound 5: 1,1,3,3-tetramethylguanidinium imidazolide, C8H17N5
Compound 6: water, H2O

System: methanol; phases: Liquid
Property: Refractive index (Na D-line) (Liquid); method: Standard Abbe refractometry
Pressure, kPa	Temperature, K	Refractive index (Na D-line)	uncertainty
100	298.15	1.3267	

System: ethanol; phases: Liquid
Property: Refractive index (Na D-line) (Liquid); method: Standard Abbe refractometry
Pressure, kPa	Temperature, K	Refractive index (Na D-line)	uncertainty
100	298.15	1.3598	

System: 1-propanol; phases: Liquid
Property: Refractive index (Na D-line) (Liquid); method: Standard Abbe refractometry
Pressure, kPa	Temperature, K	Refractive index (Na D-line)	uncertainty
100	298.15	1.3836	

System: 1-butanol; phases: Liquid
Property: Refractive index (Na D-line) (Liquid); method: Standard Abbe refractometry
Pressure, kPa	Temperature, K	Refractive index (Na D-line)	uncertainty
100	298.15	1.3975	

System: 1,1,3,3-tetramethylguanidinium imidazolide; phases: Liquid
Property: Refractive index (Na D-line) (Liquid); method: Standard Abbe refractometry
Pressure, kPa	Temperature, K	Refractive index (Na D-line)	uncertainty
100	298.15	1.4943	

System: 1,1,3,3-tetramethylguanidinium imidazolide; phases: Liquid
Property: Electrical conductivity, S/m (Liquid); method: Direct current cell with electrodes
Temperature, K	Pressure, kPa	Electrical conductivity, S/m	uncertainty
298.15	100	.218	

System: water; phases: Liquid
Property: Mass density, kg/m3 (Liquid); method: Vibrating tube method
Temperature, K	Pressure, kPa	Mass density, kg/m3	uncertainty
293.15	100	998.2	
298.15	100	997.05	
303.15	100	995.66	
308.15	100	994.05	
313.15	100	992.22	

System: water; phases: Liquid
Property: Viscosity, Pa*s (Liquid); method: Falling or rolling sphere viscometry
Temperature, K	Pressure, kPa	Viscosity, Pa*s	uncertainty
293.15	100	.000997	
298.15	100	.000886	
303.15	100	.000799	
308.15	100	.000726	
313.15	100	.000665	

System: water; phases: Liquid
Property: Refractive index (Na D-line) (Liquid); method: Standard Abbe refractometry
Pressure, kPa	Temperature, K	Refractive index (Na D-line)	uncertainty
100	298.15	1.3331	

System: water + 1,1,3,3-tetramethylguanidinium imidazolide; phases: Liquid
Fixed: Pressure, kPa = 100
Property: Mass density, kg/m3 (Liquid); method: Vibrating tube method
Temperature, K	Mole fraction of 1,1,3,3-tetramethylguanidinium imidazolide	Mass density, kg/m3	uncertainty
293.15	0	998.2	
293.15	.0511	1023.04	
293.15	.0991	1024.53	
293.15	.207	1025.54	
293.15	.3005	1019.92	
293.15	.3834	1015.77	
293.15	.4978	1010.24	
293.15	.6356	1005.44	
293.15	.8019	1001.45	
293.15	.8984	999.17	
293.15	1	997.25	
298.15	0	997.05	
298.15	.0511	1019.97	
298.15	.0991	1020.57	
298.15	.207	1021.21	
298.15	.3005	1015.51	
298.15	.3834	1011.35	
298.15	.4978	1005.81	
298.15	.6356	1001	
298.15	.8019	997.07	
298.15	.8984	994.72	
298.15	1	992.8	
303.15	0	995.66	
303.15	.0511	1016.67	
303.15	.0991	1016.58	
303.15	.207	1016.83	
303.15	.3005	1011.06	
303.15	.3834	1006.9	
303.15	.4978	1001.35	
303.15	.6356	996.54	
303.15	.8019	992.72	
303.15	.8984	990.26	
303.15	1	988.35	
308.15	0	994.05	
308.15	.0511	1013.28	
308.15	.0991	1012.53	
308.15	.207	1012.42	
308.15	.3005	1006.59	
308.15	.3834	1002.43	
308.15	.4978	996.88	
308.15	.6356	992.07	
308.15	.8019	988.36	
308.15	.8984	985.81	
308.15	1	983.9	
313.15	0	992.22	
313.15	.0511	1009.78	
313.15	.0991	1008.4	
313.15	.207	1007.97	
313.15	.3005	1002.09	
313.15	.3834	997.94	
313.15	.4978	992.4	
313.15	.6356	987.61	
313.15	.8019	983.97	
313.15	.8984	981.34	
313.15	1	979.46	

System: water + 1,1,3,3-tetramethylguanidinium imidazolide; phases: Liquid
Fixed: Pressure, kPa = 100
Property: Viscosity, Pa*s (Liquid); method: Falling or rolling sphere viscometry
Temperature, K	Mole fraction of 1,1,3,3-tetramethylguanidinium imidazolide	Viscosity, Pa*s	uncertainty
293.15	0	.000997	
293.15	.0511	.003157	
293.15	.0991	.005561	
293.15	.207	.010226	
293.15	.3005	.014291	
293.15	.3834	.015794	
293.15	.4978	.016032	
293.15	.6356	.014498	
293.15	.8019	.012115	
293.15	.8984	.010191	
293.15	1	.008952	
298.15	0	.000886	
298.15	.0511	.002519	
298.15	.0991	.004311	
298.15	.207	.007645	
298.15	.3005	.011071	
298.15	.3834	.012137	
298.15	.4978	.012354	
298.15	.6356	.011276	
298.15	.8019	.009561	
298.15	.8984	.008186	
298.15	1	.007287	
303.15	0	.000799	
303.15	.0511	.002148	
303.15	.0991	.003601	
303.15	.207	.006045	
303.15	.3005	.008853	
303.15	.3834	.009629	
303.15	.4978	.009809	
303.15	.6356	.009023	
303.15	.8019	.007768	
303.15	.8984	.00672	
303.15	1	.006044	
308.15	0	.000726	
308.15	.0511	.001854	
308.15	.0991	.003021	
308.15	.207	.004956	
308.15	.3005	.007201	
308.15	.3834	.007806	
308.15	.4978	.007952	
308.15	.6356	.007354	
308.15	.8019	.00642	
308.15	.8984	.005611	
308.15	1	.005097	
313.15	0	.000665	
313.15	.0511	.001617	
313.15	.0991	.002592	
313.15	.207	.004126	
313.15	.3005	.005934	
313.15	.3834	.006428	
313.15	.4978	.006542	
313.15	.6356	.00607	
313.15	.8019	.005363	
313.15	.8984	.004756	
313.15	1	.004358	

System: water + 1,1,3,3-tetramethylguanidinium imidazolide; phases: Liquid
Fixed: Pressure, kPa = 100
Fixed: Temperature, K = 298.15
Property: Refractive index (Na D-line) (Liquid); method: Standard Abbe refractometry
Mole fraction of 1,1,3,3-tetramethylguanidinium imidazolide	Refractive index (Na D-line)	uncertainty
0	1.3331	
.0511	1.3973	
.0991	1.4278	
.207	1.4589	
.3005	1.4722	
.3834	1.4787	
.4978	1.485	
.6356	1.4889	
.8019	1.4922	
.8984	1.4923	
1	1.4943	

System: water + 1,1,3,3-tetramethylguanidinium imidazolide; phases: Liquid
Fixed: Temperature, K = 298.15
Fixed: Pressure, kPa = 100
Property: Electrical conductivity, S/m (Liquid); method: Direct current cell with electrodes
Mole fraction of 1,1,3,3-tetramethylguanidinium imidazolide	Electrical conductivity, S/m	uncertainty
.002	1.524	
.003	1.879	
.0039	2.47	
.005	2.88	
.006	3.19	
.008	3.36	
.01	3.67	
.0149	3.96	
.0199	3.93	
.0299	3.72	
.0398	3.22	
.0499	2.7	
.0599	2.31	
.0699	1.968	
.0799	1.711	
.0893	1.517	
.0996	1.31	
.1495	.767	
.1994	.53	
.3504	.272	
.4989	.215	
.6512	.195	
.8447	.205	
1	.218	

System: methanol + 1,1,3,3-tetramethylguanidinium imidazolide; phases: Liquid
Fixed: Pressure, kPa = 100
Fixed: Temperature, K = 298.15
Property: Refractive index (Na D-line) (Liquid); method: Standard Abbe refractometry
Mole fraction of 1,1,3,3-tetramethylguanidinium imidazolide	Refractive index (Na D-line)	uncertainty
0	1.3267	
.0501	1.3631	
.1005	1.389	
.1957	1.4222	
.2953	1.4423	
.393	1.4577	
.5005	1.4688	
.6431	1.4791	
.7815	1.4865	
.8994	1.4915	
1	1.4943	

System: ethanol + 1,1,3,3-tetramethylguanidinium imidazolide; phases: Liquid
Fixed: Pressure, kPa = 100
Fixed: Temperature, K = 298.15
Property: Refractive index (Na D-line) (Liquid); method: Standard Abbe refractometry
Mole fraction of 1,1,3,3-tetramethylguanidinium imidazolide	Refractive index (Na D-line)	uncertainty
0	1.3598	
.0483	1.3799	
.0999	1.3983	
.2003	1.4242	
.3001	1.4405	
.3999	1.4547	
.5	1.4652	
.643	1.4762	
.7966	1.4854	
.8987	1.4903	
1	1.4943	

System: ethanol + 1,1,3,3-tetramethylguanidinium imidazolide; phases: Liquid
Fixed: Temperature, K = 298.15
Fixed: Pressure, kPa = 100
Property: Electrical conductivity, S/m (Liquid); method: Direct current cell with electrodes
Mole fraction of 1,1,3,3-tetramethylguanidinium imidazolide	Electrical conductivity, S/m	uncertainty
.01	.01314	
.0299	.0337	
.0897	.092	
.1197	.1196	
.1499	.1385	
.1797	.1595	
.2001	.166	
.2195	.1729	
.2398	.1789	
.2602	.1854	
.2996	.1985	
.3995	.213	
.5	.221	
.6467	.227	
.801	.229	
.8996	.223	
1	.218	

System: 1-propanol + 1,1,3,3-tetramethylguanidinium imidazolide; phases: Liquid
Fixed: Pressure, kPa = 100
Fixed: Temperature, K = 298.15
Property: Refractive index (Na D-line) (Liquid); method: Standard Abbe refractometry
Mole fraction of 1,1,3,3-tetramethylguanidinium imidazolide	Refractive index (Na D-line)	uncertainty
0	1.3836	
.0499	1.3969	
.0999	1.4086	
.2002	1.428	
.2996	1.4423	
.4002	1.4545	
.4988	1.4642	
.6264	1.4742	
.8001	1.4848	
.9006	1.4895	
1	1.4943	

System: 1-butanol + 1,1,3,3-tetramethylguanidinium imidazolide; phases: Liquid
Fixed: Pressure, kPa = 100
Fixed: Temperature, K = 298.15
Property: Refractive index (Na D-line) (Liquid); method: Standard Abbe refractometry
Mole fraction of 1,1,3,3-tetramethylguanidinium imidazolide	Refractive index (Na D-line)	uncertainty
0	1.3975	
.0499	1.4074	
.1004	1.4159	
.1999	1.4316	
.2997	1.4443	
.3985	1.4545	
.4997	1.4641	
.6499	1.4748	
.8002	1.4839	
.9004	1.4888	
1	1.4943	
