Measured thermophysical data. Carbon dioxide solubility in aqueous potassium salt solutions of L-proline and DL-.alpha.-aminobutyric acid at high pressures
Source: J. Chem. Thermodyn., 2015, 10.1016/j.jct.2014.12.010
Compound 1: monoethanolamine, C2H7NO, purity 99%
Compound 2: potassium Salt of sarcosine, C3H6KNO2, purity 97%
Compound 3: potassium L-prolinate, C5H8KNO2, purity 97%
Compound 4: potassium DL-.alpha.-aminobutyrate, C4H8KNO2, purity 97%
Compound 5: carbon dioxide, CO2, purity 99.99%
Compound 6: water, H2O

System: carbon dioxide + monoethanolamine + water; phases: Liquid, Gas
Fixed: Temperature, K = 313.2
Fixed: Solvent: Mass fraction of monoethanolamine = .153
Property: Mass fraction of carbon dioxide (Liquid); method: Titration method
Partial pressure, kPa of carbon dioxide	Mass fraction of carbon dioxide	uncertainty
7	.0525	.001575
7.2	.0533	.001599
14.6	.0578	.001734
19.1	.0582	.001746
32	.0628	.001884
59.9	.067	.00201
93.8	.0695	.002085
152.8	.0752	.002256
240.7	.0772	.002316
362.3	.0809	.002427
462.7	.0835	.002505
562.2	.0845	.002535
762.4	.0865	.002595
846.9	.0887	.002661
994.4	.0897	.002691

System: carbon dioxide + water + potassium Salt of sarcosine; phases: Liquid, Gas
Fixed: Temperature, K = 353.2
Fixed: Solvent: Mass fraction of potassium Salt of sarcosine = .424
Property: Mass fraction of carbon dioxide (Liquid); method: Titration method
Partial pressure, kPa of carbon dioxide	Mass fraction of carbon dioxide	uncertainty
4.8	.052	.00156
11.6	.0669	.002007
50.7	.0764	.002292
77.9	.0842	.002526
147.9	.0879	.002637
273.1	.0963	.002889
322.9	.0978	.002934
479.1	.0989	.002967
614.5	.1006	.003018
762.1	.1054	.003162
875.9	.1079	.003237
962.3	.1094	.003282

System: carbon dioxide + water + potassium L-prolinate; phases: Liquid, Gas
Property: Mass fraction of carbon dioxide (Liquid); method: Titration method
Temperature, K	Solvent: Mass fraction of potassium L-prolinate	Partial pressure, kPa of carbon dioxide	Mass fraction of carbon dioxide	uncertainty
313.2	.075	10.2	.0174	.000522
313.2	.075	67.9	.0208	.000624
313.2	.075	130.3	.0216	.000648
313.2	.075	246.5	.0222	.000666
313.2	.075	374.6	.023	.00069
313.2	.075	429	.0232	.000696
313.2	.075	532.7	.0234	.000702
313.2	.075	711.8	.0239	.000717
313.2	.075	928.6	.0244	.000732
313.2	.145	2.9	.0217	.000651
313.2	.145	20.7	.0261	.000783
313.2	.145	68.4	.0298	.000894
313.2	.145	130.6	.031	.00093
313.2	.145	230.5	.0334	.001002
313.2	.145	463.3	.0349	.001047
313.2	.145	600.5	.0359	.001077
313.2	.145	721.1	.0365	.001095
313.2	.145	837.2	.0369	.001107
313.2	.274	8.3	.0269	.000807
313.2	.274	29.7	.0308	.000924
313.2	.274	64.8	.0332	.000996
313.2	.274	179.2	.0371	.001113
313.2	.274	237.8	.0393	.001179
313.2	.274	308.3	.0409	.001227
313.2	.274	549.6	.0424	.001272
313.2	.274	708.1	.0431	.001293
313.2	.274	824.9	.0436	.001308
333.2	.075	4.2	.0132	.000396
333.2	.075	19.3	.0154	.000462
333.2	.075	57.2	.0182	.000546
333.2	.075	154.3	.0198	.000594
333.2	.075	277.6	.0205	.000615
333.2	.075	462.1	.0214	.000642
333.2	.075	549.5	.0216	.000648
333.2	.075	719.2	.022	.00066
333.2	.075	844.3	.0223	.000669
333.2	.075	927.3	.0224	.000672
333.2	.145	9.6	.021	.00063
333.2	.145	57.6	.0253	.000759
333.2	.145	88.5	.0264	.000792
333.2	.145	155.9	.0283	.000849
333.2	.145	305.7	.0298	.000894
333.2	.145	426.8	.0308	.000924
333.2	.145	517.6	.0318	.000954
333.2	.145	714.5	.0326	.000978
333.2	.145	821.2	.0331	.000993
333.2	.274	5.9	.0221	.000663
333.2	.274	16.8	.0261	.000783
333.2	.274	26	.0273	.000819
333.2	.274	159.7	.032	.00096
333.2	.274	338.3	.0345	.001035
333.2	.274	460.3	.0356	.001068
333.2	.274	577.1	.0365	.001095
333.2	.274	706.3	.0373	.001119
333.2	.274	811.3	.0379	.001137
353.2	.075	7.1	.0122	.000366
353.2	.075	16.8	.0141	.000423
353.2	.075	87.6	.0172	.000516
353.2	.075	199.4	.0185	.000555
353.2	.075	346.7	.0194	.000582
353.2	.075	422.8	.0196	.000588
353.2	.075	564.3	.02	.0006
353.2	.075	644.9	.0204	.000612
353.2	.075	751.1	.0207	.000621
353.2	.075	845.9	.0208	.000624
353.2	.145	7	.0168	.000504
353.2	.145	17	.0194	.000582
353.2	.145	65.8	.0225	.000675
353.2	.145	161	.0249	.000747
353.2	.145	340.2	.0276	.000828
353.2	.145	506.2	.0288	.000864
353.2	.145	673.2	.0298	.000894
353.2	.145	764.9	.0304	.000912
353.2	.145	867.2	.0309	.000927
353.2	.274	3	.0187	.000561
353.2	.274	24.1	.0224	.000672
353.2	.274	54.5	.0248	.000744
353.2	.274	159.7	.0279	.000837
353.2	.274	211.1	.0296	.000888
353.2	.274	384.3	.0306	.000918
353.2	.274	476.9	.0323	.000969
353.2	.274	600.1	.0344	.001032
353.2	.274	826	.0354	.001062

System: carbon dioxide + water + potassium DL-.alpha.-aminobutyrate; phases: Liquid, Gas
Property: Mass fraction of carbon dioxide (Liquid); method: Titration method
Temperature, K	Solvent: Mass fraction of potassium DL-.alpha.-aminobutyrate	Partial pressure, kPa of carbon dioxide	Mass fraction of carbon dioxide	uncertainty
313.2	.069	9.9	.0153	.000459
313.2	.069	55.2	.0186	.000558
313.2	.069	121.7	.0194	.000582
313.2	.069	241.1	.0206	.000618
313.2	.069	378.6	.0213	.000639
313.2	.069	566.2	.0224	.000672
313.2	.069	616.3	.0227	.000681
313.2	.069	828.3	.0232	.000696
313.2	.069	942.7	.0236	.000708
313.2	.134	10.7	.0231	.000693
313.2	.134	71.9	.0307	.000921
313.2	.134	134.5	.0329	.000987
313.2	.134	229.2	.0353	.001059
313.2	.134	448.1	.037	.00111
313.2	.134	606.3	.038	.00114
313.2	.134	814.8	.0392	.001176
313.2	.134	977.6	.0402	.001206
313.2	.256	22.7	.0368	.001104
313.2	.256	57.2	.0426	.001278
313.2	.256	124.3	.0507	.001521
313.2	.256	335.4	.054	.00162
313.2	.256	533.2	.0577	.001731
313.2	.256	732.7	.0604	.001812
313.2	.256	822.1	.0615	.001845
313.2	.256	914.3	.0631	.001893
333.2	.069	7.8	.0134	.000402
333.2	.069	49.7	.0172	.000516
333.2	.069	77.9	.0175	.000525
333.2	.069	107.2	.0178	.000534
333.2	.069	327.6	.0196	.000588
333.2	.069	592.1	.0209	.000627
333.2	.069	716.8	.0213	.000639
333.2	.069	922.9	.0219	.000657
333.2	.134	4.6	.0167	.000501
333.2	.134	32.1	.025	.00075
333.2	.134	97.6	.0286	.000858
333.2	.134	274.2	.0312	.000936
333.2	.134	347.2	.0331	.000993
333.2	.134	511.7	.0351	.001053
333.2	.134	638.9	.0358	.001074
333.2	.134	842.3	.0362	.001086
333.2	.134	921.4	.0366	.001098
333.2	.256	88.1	.0384	.001152
333.2	.256	173.2	.0442	.001326
333.2	.256	383.9	.0511	.001533
333.2	.256	498.6	.0527	.001581
333.2	.256	685.3	.0557	.001671
333.2	.256	767.2	.0562	.001686
333.2	.256	977.3	.0573	.001719
353.2	.069	6.5	.0111	.000333
353.2	.069	87.6	.0159	.000477
353.2	.069	188.1	.0175	.000525
353.2	.069	247.2	.018	.00054
353.2	.069	362.5	.0184	.000552
353.2	.069	438.7	.0193	.000579
353.2	.069	627.4	.0198	.000594
353.2	.069	780.1	.0202	.000606
353.2	.069	955.3	.0208	.000624
353.2	.134	8.1	.0133	.000399
353.2	.134	18.3	.0178	.000534
353.2	.134	47.8	.0224	.000672
353.2	.134	77.6	.024	.00072
353.2	.134	135.2	.0258	.000774
353.2	.134	270	.0288	.000864
353.2	.134	403.3	.0307	.000921
353.2	.134	657.9	.0323	.000969
353.2	.134	847.3	.0335	.001005
353.2	.256	74.2	.03	.0009
353.2	.256	119.3	.0351	.001053
353.2	.256	293.6	.042	.00126
353.2	.256	438.6	.0444	.001332
353.2	.256	550.9	.0469	.001407
353.2	.256	640.2	.0476	.001428
353.2	.256	790.1	.05	.0015
353.2	.256	918.3	.0515	.001545
