Measured thermophysical data. Binary and ternary LLE data of the system (ethylbenzene + styrene + 1-ethyl-3-methylimidazolium thiocyanate) and binary VLE data of the system (styrene + 1-ethyl-3-methylimidazolium thiocyanate)
Source: J. Chem. Thermodyn., 2012, 10.1016/j.jct.2011.10.021
Compound 1: 1-ethyl-3-methylimidazolium thiocyanate, C7H11N3S, purity 99%
Compound 2: cyclohexane, C6H12, purity 99%
Compound 3: styrene, C8H8, purity 99.5%
Compound 4: ethylbenzene, C8H10, purity 99%
Compound 5: pyrocatechol, 4-tert-butyl-, C10H14O2, purity 98%
Compound 6: acetone, C3H6O, purity 99.5%

System: styrene + 1-ethyl-3-methylimidazolium thiocyanate; phases: Gas, Liquid
Property: Vapor or sublimation pressure, kPa (Gas); method: Closed cell (Static) method
Mole fraction of styrene	Temperature, K	Vapor or sublimation pressure, kPa	uncertainty
.087	348.6	2.99	.01
.087	355.5	4	.01
.087	361.1	5	.01
.087	370.6	7.45	.01
.087	378.6	9.96	.01
.087	385.6	12.48	.01
.087	391.6	14.9	.01
.087	396.9	17.46	.01
.087	401.6	19.99	.01
.176	335.5	2.99	.01
.176	341.5	3.99	.01
.176	346.3	4.98	.01
.176	354.8	7.48	.01
.176	361.8	9.99	.01
.176	367.3	12.47	.01
.176	372.1	15	.01
.176	376.5	17.46	.01
.176	380.4	19.99	.01
.243	329.7	2.97	.01
.243	335.4	3.96	.01
.243	340.1	4.95	.01
.243	348.6	7.4	.01
.243	355.3	9.99	.01
.243	360.5	12.45	.01
.243	365	14.85	.01
.243	369.3	17.46	.01
.243	372.7	19.87	.01
.322	325.5	2.98	.01
.322	330.9	3.98	.01
.322	335.6	5	.01
.322	344.1	7.5	.01
.322	350.5	9.99	.01
.322	355.8	12.5	.01
.322	360.3	14.99	.01
.322	364.4	17.5	.01
.322	367.8	19.99	.01

System: ethylbenzene + styrene + 1-ethyl-3-methylimidazolium thiocyanate; phases: Liquid mixture 1, Liquid mixture 2
Property: Mole fraction of ethylbenzene (Liquid mixture 1); method: Chromatography
Property: Mole fraction of styrene (Liquid mixture 2); method: Chromatography
Property: Mole fraction of ethylbenzene (Liquid mixture 2); method: Chromatography
Temperature, K	Pressure, kPa	Mole fraction of styrene	Mole fraction of ethylbenzene	uncertainty	Mole fraction of styrene	uncertainty	Mole fraction of ethylbenzene	uncertainty
313.2	100	.9999	0	.002	.387	.002	0	.002
313.2	100	.876	.124	.002	.325	.002	.02	.002
313.2	100	.762	.238	.002	.276	.002	.038	.002
313.2	100	.66	.34	.002	.227	.002	.05	.002
313.2	100	.556	.444	.002	.185	.002	.062	.002
313.2	100	.465	.535	.002	.152	.002	.073	.002
313.2	100	.376	.624	.002	.122	.002	.083	.002
313.2	100	.283	.717	.002	.089	.002	.091	.002
313.2	100	.187	.813	.002	.056	.002	.097	.002
313.2	100	.092	.908	.002	.027	.002	.105	.002
313.2	100	0	.9999	.002	0	.002	.111	.002
333.2	100	.9999	0	.002	.367	.002	0	.002
333.2	100	.882	.118	.002	.309	.002	.019	.002
333.2	100	.77	.23	.002	.262	.002	.035	.002
333.2	100	.668	.332	.002	.219	.002	.049	.002
333.2	100	.563	.437	.002	.174	.002	.06	.002
333.2	100	.471	.529	.002	.142	.002	.07	.002
333.2	100	.38	.62	.002	.114	.002	.08	.002
333.2	100	.286	.714	.002	.085	.002	.09	.002
333.2	100	.191	.809	.002	.055	.002	.098	.002
333.2	100	.094	.906	.002	.026	.002	.105	.002
333.2	100	0	.9999	.002	0	.002	.113	.002
353.2	100	.9999	0	.002	.35	.002	0	.002
353.2	100	.886	.114	.002	.295	.002	.018	.002
353.2	100	.776	.224	.002	.25	.002	.034	.002
353.2	100	.674	.326	.002	.209	.002	.047	.002
353.2	100	.569	.431	.002	.171	.002	.06	.002
353.2	100	.478	.522	.002	.138	.002	.069	.002
353.2	100	.386	.614	.002	.112	.002	.081	.002
353.2	100	.291	.709	.002	.082	.002	.09	.002
353.2	100	.193	.807	.002	.053	.002	.098	.002
353.2	100	.095	.905	.002	.026	.002	.107	.002
353.2	100	0	.9999	.002	0	.002	.115	.002
