Measured thermophysical data. Low-temperature heat capacity and standard thermodynamic functions of .beta.-D-(-)-arabinose (C5H10O5)
Source: J. Chem. Thermodyn., 2016, 10.1016/j.jct.2015.08.031
Compound 1: .beta.-D-arabinopyranose, C5H10O5, purity 99%
Compound 2: .alpha.-alumina, Al2O3, purity 99.95%
Compound 3: copper, Cu, purity 99.9999%
Compound 4: benzoic acid, C7H6O2, purity 99.9996%

System: .beta.-D-arabinopyranose; phases: Crystal
Fixed: Pressure, kPa = 101.325
Property: Molar heat capacity at constant pressure, J/K/mol (Crystal); method: Relaxation calorimetry
Temperature, K	Molar heat capacity at constant pressure, J/K/mol	uncertainty
1.93	.00664	3
2.14	.00853	3
2.38	.01108	3
2.64	.01457	3
2.94	.01919	3
3.27	.02605	3
3.63	.03481	3
4.03	.04762	3
4.47	.06546	3
4.96	.09273	3
5.5	.13109	3
6.1	.19005	3
6.77	.27187	3
7.51	.39612	3
8.33	.58079	3
9.24	.84449	3
10.23	1.1911	3
11.32	1.6668	3
12.56	2.3111	3
13.94	3.128	3
15.46	4.1488	3
17.15	5.3998	3
19.05	6.8899	3
21.14	8.6627	1
23.47	10.625	1
26.04	12.889	1
28.89	15.446	1
32.08	18.285	1
35.6	21.309	1
39.51	24.547	1
43.83	28.169	1
48.63	31.867	1
53.96	35.899	1
59.89	40.362	1
66.46	45.028	1
73.76	50.071	1
81.9	55.023	1
90.84	61.562	1
100.82	67.63	1
110.95	74.613	1
121.05	81.123	1
131.11	87.483	1
141.2	93.47	1
151.33	99.458	1
161.42	105.84	1
171.52	111.71	1
181.62	117.85	1
191.69	123.97	1
201.79	129.39	1
211.88	135.86	1
221.99	141.54	1
232.03	147.66	1
242.11	153.65	1
252.28	159.78	1
262.36	165.45	1
272.39	171.4	1
282.55	177.62	1
292.62	182.92	1
302.65	188.73	1
2.03	.00744	3
2.26	.00959	3
2.51	.01247	3
2.78	.01653	3
3.1	.02195	3
3.43	.02956	3
3.81	.03999	3
4.23	.05477	3
4.7	.07779	3
5.22	.10896	3
5.79	.15699	3
6.42	.22561	3
7.12	.32798	3
7.9	.47939	3
8.76	.6949	3
9.72	1.0044	3
10.77	1.405	3
11.92	1.9652	3
13.23	2.6854	3
14.68	3.6102	3
16.31	4.7471	3
18.08	6.1276	3
20.08	7.7688	1
22.3	9.5316	1
24.74	11.679	1
27.46	14.033	1
30.43	16.797	1
33.81	19.73	1
37.52	22.917	1
41.64	26.309	1
46.19	30	1
51.26	34.517	1
56.88	38.09	1
63.13	42.587	1
70.07	47.586	1
77.78	52.918	1
86.34	58.006	1
95.82	64.717	1
105.87	71.221	1
116.03	77.253	1
126.07	84.204	1
136.18	90.664	1
146.26	96.399	1
156.34	102.71	1
166.44	108.82	1
176.58	114.66	1
186.66	121.01	1
196.75	126.57	1
206.8	132.11	1
216.86	138.45	1
226.98	144.9	1
237.15	150.47	1
247.24	156.9	1
257.34	162.75	1
267.38	168.46	1
277.53	174.86	1
287.61	180.21	1
297.64	185.3	1

System: .beta.-D-arabinopyranose; phases: Crystal
Fixed: Pressure, kPa = 101.325
Property: Molar heat capacity at constant pressure, J/K/mol (Crystal); method: Relaxation calorimetry
Temperature, K	Molar heat capacity at constant pressure, J/K/mol	uncertainty
.5	.00075319	3
1	.0019098	3
1.5	.0038996	3
2	.0072056	3
2.5	.012391	3
3	.020128	3
3.5	.031223	3
4	.046645	3
4.5	.067547	3
5	.095278	3
5.5	.13139	3
6	.17762	3
6.5	.23585	3
7	.30801	3
7.5	.39602	3
8	.5015	3
8.5	.62563	3
9	.76688	3
9.5	.9266	3
10	1.1049	3
11	1.5168	3
12	1.9996	3
13	2.5488	3
14	3.1582	3
15	3.8211	3
16	4.5303	3
17	5.2787	3
18	6.0594	3
19	6.8662	3
20	7.6932	3
25	11.983	1
30	16.329	1
35	20.677	1
40	25.019	1
45	29.235	1
50	33.144	1
55	36.795	1
60	40.354	1
65	43.875	1
70	47.356	1
75	50.797	1
80	54.197	1
85	57.56	1
90	60.885	1
95	64.177	1
100	67.436	1
110	73.869	1
120	80.203	1
130	86.452	1
140	92.632	1
150	98.754	1
160	104.83	1
170	110.86	1
180	116.86	1
190	122.82	1
200	128.77	1
210	134.69	1
220	140.59	1
230	146.48	1
240	152.35	1
250	158.21	1
260	164.06	1
270	169.9	1
273.15	171.74	1
280	175.73	1
290	181.55	1
298.15	186.29	1
300	187.36	1

System: .beta.-D-arabinopyranose; phases: Crystal
Fixed: Pressure, kPa = 101.325
Property: Molar entropy, J/K/mol (Crystal); method: relaxation calorimeter
Temperature, K	Molar entropy, J/K/mol	uncertainty
.5	.00070892	3
1	.0015514	3
1.5	.0026664	3
2	.0042033	3
2.5	.006327	3
3	.0092262	3
3.5	.013113	3
4	.018235	3
4.5	.024876	3
5	.033361	3
5.5	.044062	3
6	.057398	3
6.5	.073827	3
7	.093854	3
7.5	.11801	3
8	.14684	3
8.5	.18087	3
9	.22057	3
9.5	.26623	3
10	.31821	3
11	.44226	3
12	.59444	3
13	.77576	3
14	.98659	3
15	1.2268	3
16	1.4958	3
17	1.7927	3
18	2.1164	3
19	2.4655	3
20	2.8387	3
25	5.0132	1
30	7.5823	1
35	10.426	1
40	13.471	1
45	16.663	1
50	19.949	1
55	23.28	1
60	26.635	1
65	30.004	1
70	33.383	1
75	36.77	1
80	40.155	1
85	43.542	1
90	46.926	1
95	50.307	1
100	53.681	1
110	60.411	1
120	67.111	1
130	73.778	1
140	80.411	1
150	87.011	1
160	93.579	1
170	100.12	1
180	106.62	1
190	113.1	1
200	119.55	1
210	125.98	1
220	132.38	1
230	138.76	1
240	145.12	1
250	151.45	1
260	157.77	1
270	164.07	1
273.15	166.06	1
280	170.36	1
290	176.63	1
298.15	181.72	1
300	182.88	1

System: .beta.-D-arabinopyranose; phases: Crystal
Fixed: Pressure, kPa = 101.325
Property: Molar enthalpy, kJ/mol (Crystal); method: relaxation calorimeter
Temperature, K	Molar enthalpy, kJ/mol	uncertainty
.5	.00000017999	3
1	.00000082028	3
1.5	.0000022284	3
2	.0000049388	3
2.5	.0000097466	3
3	.000017754	3
3.5	.000030433	3
4	.000049697	3
4.5	.00007799	3
5	.00011838	3
5.5	.00017466	3
6	.00025146	3
6.5	.00035428	3
7	.00048963	3
7.5	.00066494	3
8	.00088856	3
8.5	.0011696	3
9	.0015172	3
9.5	.0019398	3
10	.0024469	3
11	.0037516	3
12	.0055041	3
13	.007773	3
14	.010622	3
15	.014107	3
16	.018279	3
17	.023181	3
18	.028848	3
19	.035308	3
20	.042587	3
25	.091711	1
30	.16249	1
35	.25501	1
40	.36926	1
45	.50499	1
50	.66109	1
55	.83601	1
60	1.0289	1
65	1.2395	1
70	1.4676	1
75	1.713	1
80	1.9755	1
85	2.2549	1
90	2.551	1
95	2.8637	1
100	3.1927	1
110	3.8993	1
120	4.6698	1
130	5.5031	1
140	6.3986	1
150	7.3556	1
160	8.3735	1
170	9.452	1
180	10.591	1
190	11.789	1
200	13.047	1
210	14.364	1
220	15.741	1
230	17.176	1
240	18.67	1
250	20.223	1
260	21.834	1
270	23.504	1
273.15	24.042	1
280	25.232	1
290	27.019	1
298.15	28.518	1
300	28.863	1

System: .alpha.-alumina; phases: Crystal
Fixed: Pressure, kPa = 101.325
Property: Molar heat capacity at constant pressure, J/K/mol (Crystal); method: Relaxation calorimetry
Temperature, K	Molar heat capacity at constant pressure, J/K/mol	uncertainty
1.93	.000076661	3
2.15	.000096552	3
2.39	.00013407	3
2.65	.00017852	3
2.95	.00024637	3
3.28	.00033424	3
3.64	.0004613	3
4.04	.00061488	3
4.49	.00083788	3
4.98	.0011362	3
5.523	.0015414	3
6.13	.0021602	3
6.8	.0029255	3
7.54	.0040063	3
8.36	.0053883	3
9.27	.0073245	3
10.28	.0099792	3
11.37	.013404	3
12.61	.018432	3
13.99	.025322	3
15.52	.03431	3
17.22	.046849	3
19.12	.064505	3
21.23	.088637	1
23.58	.12285	1
26.17	.17187	1
29.08	.23962	1
32.22	.33436	1
35.73	.47426	1
39.62	.67608	1
43.94	.9644	1
48.73	1.3791	1
54.06	1.9675	1
59.98	2.7886	1
66.54	3.9103	1
73.85	5.4254	1
81.95	7.4436	1
90.93	9.9906	1
100.91	13.146	1
111.18	16.785	1
121.13	20.54	1
131.17	24.482	1
141.28	28.544	1
151.4	32.541	1
161.47	36.621	1
171.56	40.51	1
181.6	44.374	1
191.67	48.135	1
201.78	51.631	1
211.87	55.13	1
221.94	58.535	1
232	61.732	1
241.98	64.627	1
252.05	67.604	1
262.17	70.275	1
272.22	72.767	1
282.18	75.277	1
292.31	77.451	1
302.29	79.631	1
297.27	78.297	1
302.27	79.34	1
307.31	80.408	1
312.34	81.4	1
317.3	82.406	1
322.32	83.312	1
327.42	84.264	1
332.46	85.091	1
337.41	85.843	1
342.44	86.734	1
347.58	87.715	1
352.67	88.65	1
357.7	89.468	1
362.73	90.243	1
367.75	90.971	1
372.77	91.843	1
377.77	92.799	1
382.79	93.266	1
387.76	94.135	1
392.76	95.036	1
397.77	95.813	1

System: copper; phases: Crystal
Fixed: Pressure, kPa = 101.325
Property: Molar heat capacity at constant pressure, J/K/mol (Crystal); method: Relaxation calorimetry
Temperature, K	Molar heat capacity at constant pressure, J/K/mol	uncertainty
1.93	.0017131	3
2.15	.0020207	3
2.39	.0023186	3
2.65	.0028086	3
2.95	.0033257	3
3.28	.0039675	3
3.64	.0049112	3
4.04	.005973	3
4.48	.0074928	3
4.97	.0094438	3
5.51	.012041	3
6.11	.015434	3
6.78	.019899	3
7.52	.025984	3
8.33	.034214	3
9.24	.04517	3
10.25	.060134	3
11.34	.080428	3
12.58	.10908	3
13.96	.14899	3
15.48	.20521	3
17.18	.28438	3
19.06	.39813	3
21.16	.55878	1
23.49	.7857	1
26.06	1.094	1
28.95	1.5143	1
32.07	2.0616	1
35.61	2.7675	1
39.52	3.6353	1
43.85	4.6624	1
48.66	5.8463	1
54.01	7.1784	1
59.94	8.6312	1
66.51	10.162	1
73.83	11.68	1
81.93	13.274	1
90.94	14.715	1
100.89	16.035	1
111.02	17.304	1
121.12	18.346	1
131.2	19.238	1
141.26	19.931	1
151.41	20.517	1
161.51	21.049	1
171.6	21.501	1
181.69	21.944	1
191.78	22.255	1
201.87	22.545	1
212	22.818	1
222.11	23.105	1
232.19	23.373	1
242.21	23.573	1
252.34	23.793	1
262.41	23.937	1
272.42	24.099	1
282.6	24.296	1
292.63	24.41	1
302.69	24.508	1
297.94	24.486	1
302.72	24.54	1
307.82	24.55	1
312.89	24.594	1
317.83	24.696	1
322.91	24.684	1
328.03	24.787	1
333.05	24.874	1
338.06	24.811	1
343.13	24.901	1
348.29	25.007	1
353.34	25.13	1
358.42	25.095	1
363.5	25.134	1
368.53	25.228	1
373.56	25.296	1
378.59	25.403	1
383.61	25.452	1
388.61	25.484	1
393.64	25.584	1
398.65	25.677	1

System: benzoic acid; phases: Crystal
Fixed: Pressure, kPa = 101.325
Property: Molar heat capacity at constant pressure, J/K/mol (Crystal); method: Relaxation calorimetry
Temperature, K	Molar heat capacity at constant pressure, J/K/mol	uncertainty
1.93	.013328	3
2.15	.018448	3
2.39	.025501	3
2.66	.033968	3
2.96	.047074	3
3.29	.065719	3
3.65	.089631	3
4.05	.12332	3
4.49	.17144	3
4.99	.23633	3
5.54	.33025	3
6.14	.4631	3
6.81	.64871	3
7.56	.90525	3
8.38	1.2528	3
9.29	1.7142	3
10.26	2.266	3
11.36	3.0207	3
12.61	3.9715	3
13.99	5.1439	3
15.52	6.537	3
17.23	8.2185	3
19.12	10.167	3
21.21	12.388	1
23.54	14.974	1
26.1	17.794	1
28.96	20.883	1
32.16	24.141	1
35.67	27.612	1
39.58	31.207	1
43.9	34.804	1
48.73	38.388	1
54.07	42.023	1
60	45.706	1
66.57	49.326	1
73.89	52.811	1
82	56.685	1
91.01	60.283	1
100.97	63.464	1
111.11	67.66	1
121.2	71.283	1
131.23	75.082	1
141.33	78.934	1
151.47	82.657	1
161.56	86.28	1
171.65	90.206	1
181.75	94.38	1
191.83	98.144	1
201.92	101.914	1
212.02	106.351	1
222.12	110.989	1
232.21	115.399	1
242.21	119.966	1
252.4	124.67	1
262.46	128.802	1
272.51	133.507	1
282.55	138.197	1
292.7	141.623	1
302.71	144.343	1
