Measured thermophysical data. Density and activity of perrhenic acid aqueous solutions at T = 298.15 K
Source: J. Chem. Thermodyn., 2015, 10.1016/j.jct.2015.01.006
Compound 1: HReO4, HO4Re, purity 98%
Compound 2: water, H2O, purity 99%

System: water + HReO4; phases: Liquid
Fixed: Temperature, K = 298.15
Fixed: Pressure, kPa = 100
Property: Mass density, kg/m3 (Liquid); method: Vibrating tube method
Molality, mol/kg of HReO4	Mass density, kg/m3	uncertainty
1.71	1316	2.632
1.58	1292.96	2.58592
1.45	1270.29	2.54058
1.31	1245.59	2.49118
1.17	1220.36	2.44072
1.03	1195.77	2.39154
.89	1169.78	2.33956
.75	1143.92	2.28784
.6	1115.28	2.23056
.46	1087.27	2.17454
.31	1057.54	2.11508
.15	1027.57	2.05514
11.82	2516.75	5.0335
8.2	2192.45	4.3849
7.95	2166.62	4.33324
7.86	2153.7	4.3074
7.65	2134.62	4.26924
7.44	2117.26	4.23452
7.42	2107.74	4.21548
7.13	2085.82	4.17164
7.05	2069.04	4.13808
6.8	2054.75	4.1095
6.5	2025.89	4.05178
6.26	1978.54	3.95708
6.06	1957.44	3.91488
5.92	1933.4	3.8668
5.66	1910.98	3.82196
5.45	1877.16	3.75432
5.23	1856.73	3.71346
4.96	1821.44	3.64288
4.72	1791.73	3.58346
4.63	1782.41	3.56482
4.29	1716.22	3.43244
4.08	1693.28	3.38656
3.78	1649.71	3.29942
3.33	1584.96	3.16992
2.38	1429.34	2.85868
1.93	1361.24	2.72248

System: water + HReO4; phases: Liquid
Fixed: Temperature, K = 298.15
Fixed: Pressure, kPa = 100
Property: (Relative) activity of water (Liquid); method: Wescor Vapro dew-point osmometer
Molality, mol/kg of HReO4	(Relative) activity of water	uncertainty
1.71	.941	.0003
1.58	.946	.0003
1.45	.951	.0003
1.31	.957	.0003
1.17	.961	.0003
1.03	.967	.0003
.89	.971	.0003
.75	.976	.0003
.6	.981	.0003
.46	.985	.0003
.31	.99	.0001
.15	.995	.0001

System: water + HReO4; phases: Liquid
Fixed: Temperature, K = 298.15
Fixed: Pressure, kPa = 100
Property: (Relative) activity of water (Liquid); method: Novasina AW-center water activity meter
Molality, mol/kg of HReO4	(Relative) activity of water	uncertainty
11.82	.339	.001
8.2	.545	.002
7.95	.568	.002
7.86	.573	.002
7.65	.584	.002
7.44	.597	.002
7.42	.599	.002
7.13	.614	.002
7.05	.626	.002
6.8	.634	.002
6.5	.653	.002
6.26	.679	.002
6.06	.691	.002
5.92	.708	.002
5.66	.716	.003
5.45	.736	.003
5.23	.748	.003
4.96	.762	.003
4.72	.777	.003
4.63	.784	.003
4.29	.805	.004
4.08	.817	.004
3.78	.833	.004
3.33	.858	.004
2.38	.912	.004
1.93	.927	.004
