Measured thermophysical data. Thermodynamic, excess and optical studies on the intermolecular interactions of binary liquid mixtures of imidazolium based ILs
Source: J. Chem. Thermodyn., 2016, 10.1016/j.jct.2016.03.029
Compound 1: 1-butyl-3-methylimidazolium bis(trifluoromethylsulfonyl)imide, C10H15F6N3O4S2, purity 99.5%
Compound 2: N-methyl-2-pyrrolidinone, C5H9NO, purity 99%

System: 1-butyl-3-methylimidazolium bis(trifluoromethylsulfonyl)imide; phases: Liquid
Property: Mass density, kg/m3 (Liquid); method: Vibrating tube method
Temperature, K	Pressure, kPa	Mass density, kg/m3	uncertainty
298.15	100	1433.72	
303.15	100	1428.92	
308.15	100	1424.13	
313.15	100	1419.36	
318.15	100	1414.61	
323.15	100	1409.88	

System: 1-butyl-3-methylimidazolium bis(trifluoromethylsulfonyl)imide; phases: Liquid
Fixed: Frequency, MHz = 3
Property: Speed of sound, m/s (Liquid); method: Sing-around technique in a fixed-path interferometer
Temperature, K	Pressure, kPa	Speed of sound, m/s	uncertainty
298.15	100	1227.86	
303.15	100	1216.77	
308.15	100	1205.8	
313.15	100	1194.95	
318.15	100	1184.23	
323.15	100	1173.61	

System: 1-butyl-3-methylimidazolium bis(trifluoromethylsulfonyl)imide; phases: Liquid
Property: Refractive index (Na D-line) (Liquid); method: Standard Abbe refractometry
Temperature, K	Pressure, kPa	Refractive index (Na D-line)	uncertainty
298.15	100	1.42671	
303.15	100	1.42522	
308.15	100	1.42373	
313.15	100	1.42225	
318.15	100	1.42076	
323.15	100	1.41923	

System: N-methyl-2-pyrrolidinone; phases: Liquid
Property: Mass density, kg/m3 (Liquid); method: Vibrating tube method
Temperature, K	Pressure, kPa	Mass density, kg/m3	uncertainty
298.15	100	1027.1	
303.15	100	1022.64	
308.15	100	1018.18	
313.15	100	1013.72	
318.15	100	1009.25	
323.15	100	1004.79	

System: N-methyl-2-pyrrolidinone; phases: Liquid
Fixed: Frequency, MHz = 3
Property: Speed of sound, m/s (Liquid); method: Sing-around technique in a fixed-path interferometer
Temperature, K	Pressure, kPa	Speed of sound, m/s	uncertainty
298.15	100	1543.82	
303.15	100	1524.32	
308.15	100	1504.96	
313.15	100	1485.74	
318.15	100	1466.67	
323.15	100	1447.76	

System: N-methyl-2-pyrrolidinone; phases: Liquid
Property: Refractive index (Na D-line) (Liquid); method: Standard Abbe refractometry
Temperature, K	Pressure, kPa	Refractive index (Na D-line)	uncertainty
298.15	100	1.46838	
303.15	100	1.46626	
308.15	100	1.46412	
313.15	100	1.46199	
318.15	100	1.45983	
323.15	100	1.45771	

System: N-methyl-2-pyrrolidinone + 1-butyl-3-methylimidazolium bis(trifluoromethylsulfonyl)imide; phases: Liquid
Fixed: Pressure, kPa = 100
Property: Mass density, kg/m3 (Liquid); method: Vibrating tube method
Temperature, K	Mole fraction of 1-butyl-3-methylimidazolium bis(trifluoromethylsulfonyl)imide	Mass density, kg/m3	uncertainty
298.15	0	1027.1	
298.15	.1051	1135.14	
298.15	.2088	1209.84	
298.15	.2926	1255.56	
298.15	.3807	1293.95	
298.15	.5019	1335.52	
298.15	.5925	1360.41	
298.15	.6982	1384.58	
298.15	.7862	1401.58	
298.15	.8895	1418.59	
298.15	1	1433.72	
303.15	0	1022.64	
303.15	.1051	1130.6	
303.15	.2088	1205.24	
303.15	.2926	1250.89	
303.15	.3807	1289.25	
303.15	.5019	1330.79	
303.15	.5925	1355.69	
303.15	.6982	1379.86	
303.15	.7862	1396.85	
303.15	.8895	1413.85	
303.15	1	1428.92	
308.15	0	1018.18	
308.15	.1051	1126.04	
308.15	.2088	1200.63	
308.15	.2926	1246.22	
308.15	.3807	1284.55	
308.15	.5019	1326.08	
308.15	.5925	1350.96	
308.15	.6982	1375.14	
308.15	.7862	1392.14	
308.15	.8895	1409.13	
308.15	1	1424.13	
313.15	0	1013.72	
313.15	.1051	1121.51	
313.15	.2088	1196.02	
313.15	.2926	1241.59	
313.15	.3807	1279.89	
313.15	.5019	1321.38	
313.15	.5925	1346.26	
313.15	.6982	1370.44	
313.15	.7862	1387.44	
313.15	.8895	1404.42	
313.15	1	1419.36	
318.15	0	1009.25	
318.15	.1051	1116.95	
318.15	.2088	1191.41	
318.15	.2926	1236.95	
318.15	.3807	1275.22	
318.15	.5019	1316.7	
318.15	.5925	1341.57	
318.15	.6982	1365.75	
318.15	.7862	1382.75	
318.15	.8895	1399.75	
318.15	1	1414.61	
323.15	0	1004.79	
323.15	.1051	1112.42	
323.15	.2088	1186.82	
323.15	.2926	1232.32	
323.15	.3807	1270.56	
323.15	.5019	1312.04	
323.15	.5925	1336.92	
323.15	.6982	1361.1	
323.15	.7862	1378.1	
323.15	.8895	1395.1	
323.15	1	1409.88	

System: N-methyl-2-pyrrolidinone + 1-butyl-3-methylimidazolium bis(trifluoromethylsulfonyl)imide; phases: Liquid
Fixed: Pressure, kPa = 100
Fixed: Frequency, MHz = 3
Property: Speed of sound, m/s (Liquid); method: Sing-around technique in a fixed-path interferometer
Temperature, K	Mole fraction of 1-butyl-3-methylimidazolium bis(trifluoromethylsulfonyl)imide	Speed of sound, m/s	uncertainty
298.15	0	1543.82	
298.15	.1051	1448.14	
298.15	.2088	1385.18	
298.15	.2926	1347.27	
298.15	.3807	1317.04	
298.15	.5019	1287.52	
298.15	.5925	1270.99	
298.15	.6982	1255.83	
298.15	.7862	1245.63	
298.15	.8895	1236.23	
298.15	1	1227.86	
303.15	0	1524.32	
303.15	.1051	1430.77	
303.15	.2088	1369.44	
303.15	.2926	1332.51	
303.15	.3807	1303.08	
303.15	.5019	1274.31	
303.15	.5925	1258.2	
303.15	.6982	1243.46	
303.15	.7862	1233.54	
303.15	.8895	1224.39	
303.15	1	1216.77	
308.15	0	1504.96	
308.15	.1051	1413.42	
308.15	.2088	1353.51	
308.15	.2926	1317.75	
308.15	.3807	1289.22	
308.15	.5019	1261.22	
308.15	.5925	1245.54	
308.15	.6982	1231.11	
308.15	.7862	1221.47	
308.15	.8895	1212.7	
308.15	1	1205.8	
313.15	0	1485.74	
313.15	.1051	1396.38	
313.15	.2088	1337.94	
313.15	.2926	1303.07	
313.15	.3807	1275.6	
313.15	.5019	1248.26	
313.15	.5925	1232.91	
313.15	.6982	1218.91	
313.15	.7862	1209.54	
313.15	.8895	1201.15	
313.15	1	1194.95	
318.15	0	1466.67	
318.15	.1051	1379.09	
318.15	.2088	1322.3	
318.15	.2926	1288.71	
318.15	.3807	1262.08	
318.15	.5019	1235.42	
318.15	.5925	1220.29	
318.15	.6982	1206.59	
318.15	.7862	1197.48	
318.15	.8895	1189.45	
318.15	1	1184.23	
323.15	0	1447.76	
323.15	.1051	1361.84	
323.15	.2088	1306.6	
323.15	.2926	1274.27	
323.15	.3807	1248.44	
323.15	.5019	1222.51	
323.15	.5925	1207.8	
323.15	.6982	1194.42	
323.15	.7862	1185.56	
323.15	.8895	1177.88	
323.15	1	1173.61	

System: N-methyl-2-pyrrolidinone + 1-butyl-3-methylimidazolium bis(trifluoromethylsulfonyl)imide; phases: Liquid
Fixed: Pressure, kPa = 100
Property: Refractive index (Na D-line) (Liquid); method: Standard Abbe refractometry
Temperature, K	Mole fraction of 1-butyl-3-methylimidazolium bis(trifluoromethylsulfonyl)imide	Refractive index (Na D-line)	uncertainty
298.15	0	1.46838	
298.15	.1051	1.45767	
298.15	.2088	1.45014	
298.15	.2926	1.44539	
298.15	.3807	1.44129	
298.15	.5019	1.4368	
298.15	.5925	1.43414	
298.15	.6982	1.43169	
298.15	.7862	1.42999	
298.15	.8895	1.4283	
298.15	1	1.42671	
303.15	0	1.46626	
303.15	.1051	1.45571	
303.15	.2088	1.4483	
303.15	.2926	1.44359	
303.15	.3807	1.43954	
303.15	.5019	1.4351	
303.15	.5925	1.43244	
303.15	.6982	1.43006	
303.15	.7862	1.42842	
303.15	.8895	1.42678	
303.15	1	1.42522	
308.15	0	1.46412	
308.15	.1051	1.45375	
308.15	.2088	1.44645	
308.15	.2926	1.44178	
308.15	.3807	1.43777	
308.15	.5019	1.43337	
308.15	.5925	1.43074	
308.15	.6982	1.42842	
308.15	.7862	1.42683	
308.15	.8895	1.42524	
308.15	1	1.42373	
313.15	0	1.46199	
313.15	.1051	1.45177	
313.15	.2088	1.44455	
313.15	.2926	1.43994	
313.15	.3807	1.43596	
313.15	.5019	1.43161	
313.15	.5925	1.42904	
313.15	.6982	1.42676	
313.15	.7862	1.42522	
313.15	.8895	1.42368	
313.15	1	1.42225	
318.15	0	1.45983	
318.15	.1051	1.44978	
318.15	.2088	1.44265	
318.15	.2926	1.43809	
318.15	.3807	1.43414	
318.15	.5019	1.42983	
318.15	.5925	1.42733	
318.15	.6982	1.42509	
318.15	.7862	1.42359	
318.15	.8895	1.4221	
318.15	1	1.42076	
323.15	0	1.45771	
323.15	.1051	1.44778	
323.15	.2088	1.4407	
323.15	.2926	1.43621	
323.15	.3807	1.43228	
323.15	.5019	1.42802	
323.15	.5925	1.42562	
323.15	.6982	1.42341	
323.15	.7862	1.42193	
323.15	.8895	1.42051	
323.15	1	1.41923	
