Measured thermophysical data. Volumetric and viscometric behaviour of pyridoxine hydrochloride in aqueous tetrabutylammonium hydrogen sulphate solutions at different temperatures
Source: J. Chem. Thermodyn., 2016, 10.1016/j.jct.2016.08.004
Compound 1: pyridoxine hydrochloride, C8H12ClNO3, purity 98%
Compound 2: tetrabutylammonium hydrogen sulfate, C16H37NO4S, purity 98.5%
Compound 3: water, H2O

System: pyridoxine hydrochloride + water + tetrabutylammonium hydrogen sulfate; phases: Liquid
Fixed: Pressure, kPa = 101
Property: Mass density, kg/m3 (Liquid); method: Vibrating tube method
Solvent: Molality, mol/kg of tetrabutylammonium hydrogen sulfate	Temperature, K	Molality, mol/kg of pyridoxine hydrochloride	Mass density, kg/m3	uncertainty
0	288.15	.0202	1000.32	
0	288.15	.0365	1001.26	
0	288.15	.0529	1002.19	
0	288.15	.0695	1003.11	
0	288.15	.0863	1003.98	
0	288.15	.1032	1004.86	
0	298.15	.0202	998.28	
0	298.15	.0365	999.22	
0	298.15	.0529	1000.15	
0	298.15	.0695	1001.07	
0	298.15	.0863	1001.99	
0	298.15	.1032	1002.9	
0	308.15	.0202	995.25	
0	308.15	.0365	996.18	
0	308.15	.0529	997.09	
0	308.15	.0695	997.99	
0	308.15	.0863	998.89	
0	308.15	.1032	999.78	
0	318.15	.0202	991.43	
0	318.15	.0365	992.35	
0	318.15	.0529	993.26	
0	318.15	.0695	994.16	
0	318.15	.0863	995.06	
0	318.15	.1032	995.96	
.005	288.15	.0202	1000.5	
.005	288.15	.0365	1001.44	
.005	288.15	.0529	1002.38	
.005	288.15	.0695	1003.29	
.005	288.15	.0863	1004.19	
.005	288.15	.1032	1005.09	
.005	298.15	.0202	998.45	
.005	298.15	.0365	999.38	
.005	298.15	.0529	1000.3	
.005	298.15	.0695	1001.22	
.005	298.15	.0863	1002.13	
.005	298.15	.1032	1003.04	
.005	308.15	.0202	995.44	
.005	308.15	.0365	996.36	
.005	308.15	.0529	997.27	
.005	308.15	.0695	998.17	
.005	308.15	.0863	999.07	
.005	308.15	.1032	999.96	
.005	318.15	.0202	991.6	
.005	318.15	.0365	992.52	
.005	318.15	.0529	993.43	
.005	318.15	.0695	994.34	
.005	318.15	.0863	995.24	
.005	318.15	.1032	996.13	
.01	288.15	.0202	1000.65	
.01	288.15	.0365	1001.59	
.01	288.15	.0529	1002.51	
.01	288.15	.0695	1003.43	
.01	288.15	.0863	1004.32	
.01	288.15	.1032	1005.21	
.01	298.15	.0202	998.6	
.01	298.15	.0365	999.52	
.01	298.15	.0529	1000.44	
.01	298.15	.0695	1001.35	
.01	298.15	.0863	1002.25	
.01	298.15	.1032	1003.15	
.01	308.15	.0202	995.59	
.01	308.15	.0365	996.5	
.01	308.15	.0529	997.41	
.01	308.15	.0695	998.31	
.01	308.15	.0863	999.21	
.01	308.15	.1032	1000.1	
.01	318.15	.0202	991.74	
.01	318.15	.0365	992.65	
.01	318.15	.0529	993.55	
.01	318.15	.0695	994.45	
.01	318.15	.0863	995.34	
.01	318.15	.1032	996.23	
.015	288.15	.0202	1000.83	
.015	288.15	.0365	1001.76	
.015	288.15	.0529	1002.68	
.015	288.15	.0695	1003.58	
.015	288.15	.0863	1004.48	
.015	288.15	.1032	1005.37	
.015	298.15	.0202	998.76	
.015	298.15	.0365	999.68	
.015	298.15	.0529	1000.58	
.015	298.15	.0695	1001.48	
.015	298.15	.0863	1002.38	
.015	298.15	.1032	1003.27	
.015	308.15	.0202	995.72	
.015	308.15	.0365	996.62	
.015	308.15	.0529	997.52	
.015	308.15	.0695	998.41	
.015	308.15	.0863	999.3	
.015	308.15	.1032	1000.19	
.015	318.15	.0202	991.91	
.015	318.15	.0365	992.81	
.015	318.15	.0529	993.7	
.015	318.15	.0695	994.59	
.015	318.15	.0863	995.48	
.015	318.15	.1032	996.37	
.02	288.15	.0202	1001	
.02	288.15	.0365	1001.92	
.02	288.15	.0529	1002.83	
.02	288.15	.0695	1003.72	
.02	288.15	.0863	1004.61	
.02	288.15	.1032	1005.49	
.02	298.15	.0202	998.86	
.02	298.15	.0365	999.76	
.02	298.15	.0529	1000.66	
.02	298.15	.0695	1001.56	
.02	298.15	.0863	1002.45	
.02	298.15	.1032	1003.35	
.02	308.15	.0202	995.82	
.02	308.15	.0365	996.71	
.02	308.15	.0529	997.6	
.02	308.15	.0695	998.49	
.02	308.15	.0863	999.37	
.02	308.15	.1032	1000.26	
.02	318.15	.0202	992.06	
.02	318.15	.0365	992.94	
.02	318.15	.0529	993.81	
.02	318.15	.0695	994.69	
.02	318.15	.0863	995.56	
.02	318.15	.1032	996.43	

System: pyridoxine hydrochloride + water + tetrabutylammonium hydrogen sulfate; phases: Liquid
Fixed: Pressure, kPa = 101
Property: Viscosity, Pa*s (Liquid); method: Capillary tube (Ostwald; Ubbelohde) method
Solvent: Molality, mol/kg of tetrabutylammonium hydrogen sulfate	Temperature, K	Molality, mol/kg of pyridoxine hydrochloride	Viscosity, Pa*s	uncertainty
0	288.15	.0202	.0011448	
0	288.15	.0365	.0011507	
0	288.15	.0529	.0011567	
0	288.15	.0695	.0011627	
0	288.15	.0863	.0011688	
0	288.15	.1032	.001175	
0	298.15	.0202	.0008984	
0	298.15	.0365	.0009043	
0	298.15	.0529	.0009103	
0	298.15	.0695	.0009163	
0	298.15	.0863	.0009224	
0	298.15	.1032	.0009286	
0	308.15	.0202	.0007266	
0	308.15	.0365	.0007312	
0	308.15	.0529	.0007358	
0	308.15	.0695	.0007404	
0	308.15	.0863	.0007451	
0	308.15	.1032	.0007498	
0	318.15	.0202	.0006009	
0	318.15	.0365	.0006048	
0	318.15	.0529	.0006087	
0	318.15	.0695	.0006127	
0	318.15	.0863	.0006168	
0	318.15	.1032	.0006209	
.005	288.15	.0202	.001148	
.005	288.15	.0365	.001154	
.005	288.15	.0529	.0011601	
.005	288.15	.0695	.0011663	
.005	288.15	.0863	.0011725	
.005	288.15	.1032	.0011788	
.005	298.15	.0202	.000901	
.005	298.15	.0365	.000908	
.005	298.15	.0529	.000914	
.005	298.15	.0695	.00092	
.005	298.15	.0863	.000926	
.005	298.15	.1032	.0009322	
.005	308.15	.0202	.0007303	
.005	308.15	.0365	.000735	
.005	308.15	.0529	.0007395	
.005	308.15	.0695	.0007441	
.005	308.15	.0863	.0007488	
.005	308.15	.1032	.0007535	
.005	318.15	.0202	.0006048	
.005	318.15	.0365	.0006087	
.005	318.15	.0529	.0006126	
.005	318.15	.0695	.0006166	
.005	318.15	.0863	.0006207	
.005	318.15	.1032	.0006246	
.01	288.15	.0202	.0011504	
.01	288.15	.0365	.0011564	
.01	288.15	.0529	.0011625	
.01	288.15	.0695	.0011687	
.01	288.15	.0863	.0011749	
.01	288.15	.1032	.0011811	
.01	298.15	.0202	.0009034	
.01	298.15	.0365	.0009104	
.01	298.15	.0529	.0009164	
.01	298.15	.0695	.0009224	
.01	298.15	.0863	.0009284	
.01	298.15	.1032	.0009346	
.01	308.15	.0202	.0007327	
.01	308.15	.0365	.0007374	
.01	308.15	.0529	.0007419	
.01	308.15	.0695	.0007465	
.01	308.15	.0863	.0007512	
.01	308.15	.1032	.000756	
.01	318.15	.0202	.0006073	
.01	318.15	.0365	.0006112	
.01	318.15	.0529	.0006151	
.01	318.15	.0695	.0006191	
.01	318.15	.0863	.0006232	
.01	318.15	.1032	.0006271	
.015	288.15	.0202	.0011531	
.015	288.15	.0365	.001159	
.015	288.15	.0529	.0011652	
.015	288.15	.0695	.0011714	
.015	288.15	.0863	.0011775	
.015	288.15	.1032	.0011837	
.015	298.15	.0202	.0009071	
.015	298.15	.0365	.0009129	
.015	298.15	.0529	.0009191	
.015	298.15	.0695	.0009251	
.015	298.15	.0863	.0009311	
.015	298.15	.1032	.0009374	
.015	308.15	.0202	.0007351	
.015	308.15	.0365	.0007398	
.015	308.15	.0529	.0007443	
.015	308.15	.0695	.0007489	
.015	308.15	.0863	.0007536	
.015	308.15	.1032	.0007584	
.015	318.15	.0202	.0006097	
.015	318.15	.0365	.0006136	
.015	318.15	.0529	.0006175	
.015	318.15	.0695	.0006215	
.015	318.15	.0863	.0006256	
.015	318.15	.1032	.0006295	
.02	288.15	.0202	.0011553	
.02	288.15	.0365	.0011612	
.02	288.15	.0529	.0011674	
.02	288.15	.0695	.0011736	
.02	288.15	.0863	.0011785	
.02	288.15	.1032	.0011859	
.02	298.15	.0202	.0009092	
.02	298.15	.0365	.0009162	
.02	298.15	.0529	.0009222	
.02	298.15	.0695	.0009282	
.02	298.15	.0863	.0009342	
.02	298.15	.1032	.0009404	
.02	308.15	.0202	.0007375	
.02	308.15	.0365	.0007422	
.02	308.15	.0529	.0007467	
.02	308.15	.0695	.0007513	
.02	308.15	.0863	.000756	
.02	308.15	.1032	.000761	
.02	318.15	.0202	.0006112	
.02	318.15	.0365	.0006161	
.02	318.15	.0529	.00062	
.02	318.15	.0695	.000624	
.02	318.15	.0863	.0006281	
.02	318.15	.1032	.000632	

System: pyridoxine hydrochloride + water; phases: Liquid
Property: Mass density, kg/m3 (Liquid); method: Vibrating tube method
Temperature, K	Molality, mol/kg of pyridoxine hydrochloride	Pressure, kPa	Mass density, kg/m3	uncertainty
288.15	.0202	101	1000.32	
288.15	.0365	101	1001.26	
288.15	.0529	101	1002.19	
288.15	.0695	101	1003.11	
288.15	.0863	101	1003.98	
288.15	.1032	101	1004.86	
298.15	.0202	101	998.28	
298.15	.0365	101	999.22	
298.15	.0529	101	1000.15	
298.15	.0695	101	1001.07	
298.15	.0863	101	1001.99	
298.15	.1032	101	1002.9	
308.15	.0202	101	995.25	
308.15	.0365	101	996.18	
308.15	.0529	101	997.09	
308.15	.0695	101	997.99	
308.15	.0863	101	998.89	
308.15	.1032	101	999.78	
318.15	.0202	101	991.43	
318.15	.0365	101	992.35	
318.15	.0529	101	993.26	
318.15	.0695	101	994.16	
318.15	.0863	101	995.06	
318.15	.1032	101	995.96	

System: pyridoxine hydrochloride + water; phases: Liquid
Property: Viscosity, Pa*s (Liquid); method: Capillary tube (Ostwald; Ubbelohde) method
Temperature, K	Molality, mol/kg of pyridoxine hydrochloride	Pressure, kPa	Viscosity, Pa*s	uncertainty
288.15	.0202	101	.0011448	
288.15	.0365	101	.0011507	
288.15	.0529	101	.0011567	
288.15	.0695	101	.0011627	
288.15	.0863	101	.0011688	
288.15	.1032	101	.001175	
298.15	.0202	101	.0008984	
298.15	.0365	101	.0009043	
298.15	.0529	101	.0009103	
298.15	.0695	101	.0009163	
298.15	.0863	101	.0009224	
298.15	.1032	101	.0009286	
308.15	.0202	101	.0007266	
308.15	.0365	101	.0007312	
308.15	.0529	101	.0007358	
308.15	.0695	101	.0007404	
308.15	.0863	101	.0007451	
308.15	.1032	101	.0007498	
318.15	.0202	101	.0006009	
318.15	.0365	101	.0006048	
318.15	.0529	101	.0006087	
318.15	.0695	101	.0006127	
318.15	.0863	101	.0006168	
318.15	.1032	101	.0006209	
