Measured thermophysical data. (Vapour + liquid) equilibria in the ternary system (acetonitrile + n-propanol + ethylene glycol) and corresponding binary systems at 101.3 kPa
Source: J. Chem. Thermodyn., 2013, 10.1016/j.jct.2013.08.011
Compound 1: acetonitrile, C2H3N, purity 99%
Compound 2: n-propanol, C3H8O, purity 99%
Compound 3: ethylene glycol, C2H6O2, purity 99%

System: acetonitrile; phases: Liquid, Gas
Property: Normal boiling temperature, K (Liquid); method: Ebulliometric method (Recirculating still)
Normal boiling temperature, K	uncertainty
354.65	

System: acetonitrile; phases: Liquid
Fixed: Pressure, kPa = 101.325
Property: Refractive index (Na D-line) (Liquid); method: Standard Abbe refractometry
Temperature, K	Refractive index (Na D-line)	uncertainty
293.15	1.3445	.0001

System: acetonitrile; phases: Liquid
Fixed: Pressure, kPa = 101.325
Property: Mass density, kg/m3 (Liquid); method: Vibrating tube method
Temperature, K	Mass density, kg/m3	uncertainty
293.15	783.4	1

System: n-propanol; phases: Liquid, Gas
Property: Normal boiling temperature, K (Liquid); method: Ebulliometric method (Recirculating still)
Normal boiling temperature, K	uncertainty
370.45	

System: n-propanol; phases: Liquid
Fixed: Pressure, kPa = 101.325
Property: Refractive index (Na D-line) (Liquid); method: Standard Abbe refractometry
Temperature, K	Refractive index (Na D-line)	uncertainty
293.15	1.3865	.0001

System: n-propanol; phases: Liquid
Fixed: Pressure, kPa = 101.325
Property: Mass density, kg/m3 (Liquid); method: Vibrating tube method
Temperature, K	Mass density, kg/m3	uncertainty
293.15	804.1	1

System: ethylene glycol; phases: Liquid, Gas
Property: Normal boiling temperature, K (Liquid); method: Ebulliometric method (Recirculating still)
Normal boiling temperature, K	uncertainty
470.63	

System: ethylene glycol; phases: Liquid
Fixed: Pressure, kPa = 101.325
Property: Refractive index (Na D-line) (Liquid); method: Standard Abbe refractometry
Temperature, K	Refractive index (Na D-line)	uncertainty
293.15	1.4324	.0001

System: ethylene glycol; phases: Liquid
Fixed: Pressure, kPa = 101.325
Property: Mass density, kg/m3 (Liquid); method: Vibrating tube method
Temperature, K	Mass density, kg/m3	uncertainty
293.15	1110.5	1

System: n-propanol + acetonitrile; phases: Liquid, Gas
Fixed: Pressure, kPa = 101.3
Property: Boiling temperature at pressure P, K (Liquid); method: Ebulliometric method (Recirculating still)
Mole fraction of acetonitrile	Boiling temperature at pressure P, K	uncertainty
.061	363.97	.01
.111	361.37	.01
.151	360.18	.01
.208	359.05	.01
.253	358.29	.01
.349	356.63	.01
.411	355.55	.01
.465	354.72	.01
.512	354.14	.01
.57	353.67	.01
.629	353.39	.01
.69	353.21	.01
.725	353.12	.01
.78	352.91	.01
.829	352.96	.01
.883	353.17	.01
.946	353.68	.01
.979	354.06	.01
.996	354.21	.01

System: n-propanol + acetonitrile; phases: Gas, Liquid
Fixed: Pressure, kPa = 101.3
Property: Mole fraction of acetonitrile (Gas); method: Chromatography
Mole fraction of acetonitrile	Mole fraction of acetonitrile	uncertainty
.061	.205	.005
.111	.32	.005
.151	.391	.005
.208	.47	.005
.253	.526	.005
.349	.594	.005
.411	.623	.005
.465	.644	.005
.512	.662	.005
.57	.683	.005
.629	.706	.005
.69	.731	.005
.725	.733	.005
.78	.748	.005
.829	.775	.005
.883	.802	.005
.946	.841	.005
.979	.902	.005
.996	.941	.005

System: acetonitrile + ethylene glycol; phases: Liquid, Gas
Fixed: Pressure, kPa = 101.3
Property: Boiling temperature at pressure P, K (Liquid); method: Ebulliometric method (Recirculating still)
Mole fraction of acetonitrile	Boiling temperature at pressure P, K	uncertainty
.031	457.27	.01
.082	439.44	.01
.131	425.62	.01
.182	414.78	.01
.232	406.09	.01
.322	394.08	.01
.383	387.83	.01
.432	383.37	.01
.483	379.44	.01
.551	374.64	.01
.619	370.49	.01
.671	367.83	.01
.731	364.94	.01
.782	362.72	.01
.839	360.28	.01
.901	358.02	.01
.931	356.96	.01
.963	355.94	.01
.992	354.95	.01

System: acetonitrile + ethylene glycol; phases: Gas, Liquid
Fixed: Pressure, kPa = 101.3
Property: Mole fraction of acetonitrile (Gas); method: Chromatography
Mole fraction of acetonitrile	Mole fraction of acetonitrile	uncertainty
.031	.351	.005
.082	.662	.005
.131	.808	.005
.182	.882	.005
.232	.923	.005
.322	.96	.005
.383	.973	.005
.432	.98	.005
.483	.985	.005
.551	.99	.005
.619	.993	.005
.671	.995	.005
.731	.996	.005
.782	.997	.005
.839	.998	.005
.901	.999	.005
.931	.999	.005
.963	1	.005
.992	1	.005

System: n-propanol + ethylene glycol; phases: Liquid, Gas
Fixed: Pressure, kPa = 101.3
Property: Boiling temperature at pressure P, K (Liquid); method: Ebulliometric method (Recirculating still)
Mole fraction of n-propanol	Boiling temperature at pressure P, K	uncertainty
.02	440.82	.01
.071	414.58	.01
.12	405.31	.01
.172	400.23	.01
.233	396.14	.01
.311	392.09	.01
.379	389.17	.01
.432	387.29	.01
.512	384.49	.01
.571	382.53	.01
.619	380.96	.01
.672	379.45	.01
.732	377.69	.01
.789	375.98	.01
.862	374.06	.01
.893	373.25	.01
.931	372.19	.01
.962	371.41	.01
.991	370.64	.01

System: n-propanol + ethylene glycol; phases: Gas, Liquid
Fixed: Pressure, kPa = 101.3
Property: Mole fraction of n-propanol (Gas); method: Chromatography
Mole fraction of n-propanol	Mole fraction of n-propanol	uncertainty
.02	.622	.005
.071	.865	.005
.12	.912	.005
.172	.931	.005
.233	.945	.005
.311	.956	.005
.379	.964	.005
.432	.968	.005
.512	.975	.005
.571	.979	.005
.619	.982	.005
.672	.985	.005
.732	.988	.005
.789	.991	.005
.862	.994	.005
.893	.996	.005
.931	.997	.005
.962	.999	.005
.991	1	.005

System: n-propanol + acetonitrile + ethylene glycol; phases: Liquid, Gas
Fixed: Pressure, kPa = 101.3
Property: Mole fraction of n-propanol (Liquid); method: Chromatography
Property: Mole fraction of acetonitrile (Gas); method: Chromatography
Property: Mole fraction of n-propanol (Gas); method: Chromatography
Temperature, K	Mole fraction of acetonitrile	Mole fraction of n-propanol	uncertainty	Mole fraction of acetonitrile	uncertainty	Mole fraction of n-propanol	uncertainty
394.17	.043	.194	.005	.129	.005	.834	.005
382.16	.24	.141	.005	.515	.005	.463	.005
380.17	.085	.416	.005	.213	.005	.771	.005
376.98	.164	.343	.005	.36	.005	.635	.005
377.81	.116	.416	.005	.276	.005	.718	.005
377.85	.125	.397	.005	.292	.005	.702	.005
376.27	.144	.402	.005	.326	.005	.67	.005
376.86	.202	.288	.005	.411	.005	.584	.005
374.54	.351	.147	.005	.638	.005	.36	.005
374.32	.306	.201	.005	.561	.005	.437	.005
373.61	.476	.055	.005	.83	.005	.164	.005
365.88	.602	.071	.005	.845	.005	.151	.005
362.59	.524	.213	.005	.707	.005	.291	.005
395.98	.186	.059	.005	.563	.005	.398	.005
381.72	.175	.223	.005	.387	.005	.596	.005
