Measured thermophysical data. Effect of N,N'-bis(2-pyridylmethylidene)-1,2-diiminoethane Schiff base (BPIE) on the thermodynamic properties of the ionic liquid 1-hexyl-3-methylimidazolium chloride in N,N-dimethylacetamide solvent at T = 298.15 K
Source: J. Chem. Thermodyn., 2015, 10.1016/j.jct.2014.09.022
Compound 1: 1-hexyl-3-methylimidazolium chloride, C10H19ClN2
Compound 2: N,N'-(ethane-1,2-diyl)bis(1-(pyridin-2-yl)methanimine), C14H14N4
Compound 3: N,N-dimethylacetamide, C4H9NO, purity 99.8%

System: N,N-dimethylacetamide; phases: Liquid
Property: Mass density, kg/m3 (Liquid); method: Vibrating tube method
Temperature, K	Pressure, kPa	Mass density, kg/m3	uncertainty
298.15	100	936.31	.5

System: N,N-dimethylacetamide; phases: Liquid
Property: Viscosity, Pa*s (Liquid); method: Capillary tube (Ostwald; Ubbelohde) method
Temperature, K	Pressure, kPa	Viscosity, Pa*s	uncertainty
298.15	100	.000989	.00000989

System: N,N-dimethylacetamide; phases: Liquid
Property: Refractive index (Na D-line) (Liquid); method: Standard Abbe refractometry
Temperature, K	Pressure, kPa	Refractive index (Na D-line)	uncertainty
298.15	100	1.4278	.008

System: N,N-dimethylacetamide + N,N'-(ethane-1,2-diyl)bis(1-(pyridin-2-yl)methanimine) + 1-hexyl-3-methylimidazolium chloride; phases: Liquid
Fixed: Temperature, K = 298.15
Fixed: Pressure, kPa = 100
Property: Mass density, kg/m3 (Liquid); method: Vibrating tube method
Molality, mol/kg of 1-hexyl-3-methylimidazolium chloride	Solvent: Molality, mol/kg of N,N'-(ethane-1,2-diyl)bis(1-(pyridin-2-yl)methanimine)	Mass density, kg/m3	uncertainty
0	0	936.31	.5
.0226	0	936.94	.5
.0468	0	937.6	.5
.06	0	937.96	.5
.0797	0	938.48	.5
.1002	0	939.02	.5
.1216	0	939.55	.5
.141	0	940.04	.5
.1621	0	940.56	.5
.1781	0	940.95	.5
.2012	0	941.49	.5
0	.0471	937.73	.5
.0207	.0471	938.32	.5
.0394	.0471	938.85	.5
.0657	.0471	939.56	.5
.0798	.0471	939.93	.5
.1044	.0471	940.57	.5
.1268	.0471	941.14	.5
.1376	.0471	941.4	.5
.1626	.0471	942.01	.5
.1798	.0471	942.41	.5
.2058	.0471	943.01	.5
0	.091	939.12	.5
.0269	.091	939.92	.5
.0422	.091	940.36	.5
.0637	.091	940.96	.5
.08	.091	941.41	.5
.1027	.091	942.01	.5
.1214	.091	942.5	.5
.1392	.091	942.96	.5
.1572	.091	943.38	.5
.1842	.091	944.03	.5
.2005	.091	944.4	.5
0	.1327	940.31	.5
.0208	.1327	940.93	.5
.0401	.1327	941.49	.5
.0653	.1327	942.19	.5
.0876	.1327	942.77	.5
.1033	.1327	943.18	.5
.1241	.1327	943.71	.5
.1403	.1327	944.09	.5
.1613	.1327	944.57	.5
.1802	.1327	945	.5
.1999	.1327	945.42	.5
0	.1768	941.81	.5
.028	.1768	942.66	.5
.0451	.1768	943.15	.5
.0653	.1768	943.71	.5
.0803	.1768	944.11	.5
.1061	.1768	944.79	.5
.1248	.1768	945.26	.5
.1419	.1768	945.67	.5
.1598	.1768	946.12	.5
.1879	.1768	946.72	.5
.2079	.1768	947.15	.5

System: N,N-dimethylacetamide + N,N'-(ethane-1,2-diyl)bis(1-(pyridin-2-yl)methanimine) + 1-hexyl-3-methylimidazolium chloride; phases: Liquid
Fixed: Temperature, K = 298.15
Fixed: Pressure, kPa = 100
Property: Viscosity, Pa*s (Liquid); method: Capillary tube (Ostwald; Ubbelohde) method
Molality, mol/kg of 1-hexyl-3-methylimidazolium chloride	Solvent: Molality, mol/kg of N,N'-(ethane-1,2-diyl)bis(1-(pyridin-2-yl)methanimine)	Viscosity, Pa*s	uncertainty
0	0	.000989	.00000989
.0226	0	.001029	.00001029
.0468	0	.001042	.00001042
.06	0	.001057	.00001057
.0797	0	.001072	.00001072
.1002	0	.001087	.00001087
.1216	0	.001106	.00001106
.141	0	.001123	.00001123
.1621	0	.001129	.00001129
.1781	0	.001137	.00001137
.2012	0	.001142	.00001142
0	.0471	.001035	.00001035
.0207	.0471	.001048	.00001048
.0394	.0471	.001061	.00001061
.0657	.0471	.001069	.00001069
.0798	.0471	.001092	.00001092
.1044	.0471	.0011	.000011
.1268	.0471	.001115	.00001115
.1376	.0471	.00113	.0000113
.1626	.0471	.001142	.00001142
.1798	.0471	.00115	.0000115
.2058	.0471	.001171	.00001171
0	.091	.001069	.00001069
.0269	.091	.001084	.00001084
.0422	.091	.001091	.00001091
.0637	.091	.001098	.00001098
.08	.091	.001114	.00001114
.1027	.091	.001132	.00001132
.1214	.091	.001146	.00001146
.1392	.091	.001161	.00001161
.1572	.091	.001172	.00001172
.1842	.091	.001184	.00001184
.2005	.091	.001197	.00001197
0	.1327	.001082	.00001082
.0208	.1327	.001101	.00001101
.0401	.1327	.001116	.00001116
.0653	.1327	.001124	.00001124
.0876	.1327	.001136	.00001136
.1033	.1327	.001148	.00001148
.1241	.1327	.001166	.00001166
.1403	.1327	.001173	.00001173
.1613	.1327	.001182	.00001182
.1802	.1327	.001197	.00001197
.1999	.1327	.001218	.00001218
0	.1768	.0011	.000011
.028	.1768	.001122	.00001122
.0451	.1768	.001132	.00001132
.0653	.1768	.001141	.00001141
.0803	.1768	.001148	.00001148
.1061	.1768	.001166	.00001166
.1248	.1768	.001178	.00001178
.1419	.1768	.001192	.00001192
.1598	.1768	.001204	.00001204
.1879	.1768	.001217	.00001217
.2079	.1768	.001234	.00001234

System: N,N-dimethylacetamide + N,N'-(ethane-1,2-diyl)bis(1-(pyridin-2-yl)methanimine) + 1-hexyl-3-methylimidazolium chloride; phases: Liquid
Fixed: Temperature, K = 298.15
Fixed: Pressure, kPa = 100
Property: Refractive index (Na D-line) (Liquid); method: Standard Abbe refractometry
Molality, mol/kg of 1-hexyl-3-methylimidazolium chloride	Solvent: Molality, mol/kg of N,N'-(ethane-1,2-diyl)bis(1-(pyridin-2-yl)methanimine)	Refractive index (Na D-line)	uncertainty
0	0	1.4278	.008
.0226	0	1.4283	.008
.0468	0	1.429	.008
.06	0	1.4295	.008
.0797	0	1.4297	.008
.1002	0	1.43	.008
.1216	0	1.4303	.008
.141	0	1.4307	.008
.1621	0	1.431	.008
.1781	0	1.4312	.008
.2012	0	1.432	.008
0	.0471	1.4291	.008
.0207	.0471	1.4296	.008
.0394	.0471	1.4299	.008
.0657	.0471	1.4303	.008
.0798	.0471	1.4311	.008
.1044	.0471	1.4315	.008
.1268	.0471	1.4318	.008
.1376	.0471	1.4323	.008
.1626	.0471	1.4326	.008
.1798	.0471	1.433	.008
.2058	.0471	1.4334	.008
0	.091	1.43	.008
.0269	.091	1.4303	.008
.0422	.091	1.4308	.008
.0637	.091	1.4319	.008
.08	.091	1.4323	.008
.1027	.091	1.4326	.008
.1214	.091	1.433	.008
.1392	.091	1.4338	.008
.1572	.091	1.4343	.008
.1842	.091	1.4348	.008
.2005	.091	1.4351	.008
0	.1327	1.4317	.008
.0208	.1327	1.4323	.008
.0401	.1327	1.4333	.008
.0653	.1327	1.4336	.008
.0876	.1327	1.4343	.008
.1033	.1327	1.4346	.008
.1241	.1327	1.4354	.008
.1403	.1327	1.4359	.008
.1613	.1327	1.4361	.008
.1802	.1327	1.4365	.008
.1999	.1327	1.4369	.008
0	.1768	1.433	.008
.028	.1768	1.4337	.008
.0451	.1768	1.4342	.008
.0653	.1768	1.4346	.008
.0803	.1768	1.4352	.008
.1061	.1768	1.4355	.008
.1248	.1768	1.4359	.008
.1419	.1768	1.4363	.008
.1598	.1768	1.4367	.008
.1879	.1768	1.4369	.008
.2079	.1768	1.4375	.008

System: N,N-dimethylacetamide + 1-hexyl-3-methylimidazolium chloride; phases: Liquid
Property: Mass density, kg/m3 (Liquid); method: Vibrating tube method
Molality, mol/kg of 1-hexyl-3-methylimidazolium chloride	Temperature, K	Pressure, kPa	Mass density, kg/m3	uncertainty
.0226	298.15	100	936.94	.5
.0468	298.15	100	937.6	.5
.06	298.15	100	937.96	.5
.0797	298.15	100	938.48	.5
.1002	298.15	100	939.02	.5
.1216	298.15	100	939.55	.5
.141	298.15	100	940.04	.5
.1621	298.15	100	940.56	.5
.1781	298.15	100	940.95	.5
.2012	298.15	100	941.49	.5

System: N,N-dimethylacetamide + 1-hexyl-3-methylimidazolium chloride; phases: Liquid
Property: Viscosity, Pa*s (Liquid); method: Capillary tube (Ostwald; Ubbelohde) method
Molality, mol/kg of 1-hexyl-3-methylimidazolium chloride	Temperature, K	Pressure, kPa	Viscosity, Pa*s	uncertainty
.0226	298.15	100	.001029	.00001029
.0468	298.15	100	.001042	.00001042
.06	298.15	100	.001057	.00001057
.0797	298.15	100	.001072	.00001072
.1002	298.15	100	.001087	.00001087
.1216	298.15	100	.001106	.00001106
.141	298.15	100	.001123	.00001123
.1621	298.15	100	.001129	.00001129
.1781	298.15	100	.001137	.00001137
.2012	298.15	100	.001142	.00001142

System: N,N-dimethylacetamide + 1-hexyl-3-methylimidazolium chloride; phases: Liquid
Property: Refractive index (Na D-line) (Liquid); method: Standard Abbe refractometry
Molality, mol/kg of 1-hexyl-3-methylimidazolium chloride	Temperature, K	Pressure, kPa	Refractive index (Na D-line)	uncertainty
.0226	298.15	100	1.4283	.008
.0468	298.15	100	1.429	.008
.06	298.15	100	1.4295	.008
.0797	298.15	100	1.4297	.008
.1002	298.15	100	1.43	.008
.1216	298.15	100	1.4303	.008
.141	298.15	100	1.4307	.008
.1621	298.15	100	1.431	.008
.1781	298.15	100	1.4312	.008
.2012	298.15	100	1.432	.008

System: N,N-dimethylacetamide + N,N'-(ethane-1,2-diyl)bis(1-(pyridin-2-yl)methanimine); phases: Liquid
Property: Mass density, kg/m3 (Liquid); method: Vibrating tube method
Molality, mol/kg of N,N'-(ethane-1,2-diyl)bis(1-(pyridin-2-yl)methanimine)	Temperature, K	Pressure, kPa	Mass density, kg/m3	uncertainty
.0471	298.15	100	937.73	.5
.091	298.15	100	939.12	.5
.1327	298.15	100	940.31	.5
.1768	298.15	100	941.81	.5

System: N,N-dimethylacetamide + N,N'-(ethane-1,2-diyl)bis(1-(pyridin-2-yl)methanimine); phases: Liquid
Property: Viscosity, Pa*s (Liquid); method: Capillary tube (Ostwald; Ubbelohde) method
Molality, mol/kg of N,N'-(ethane-1,2-diyl)bis(1-(pyridin-2-yl)methanimine)	Temperature, K	Pressure, kPa	Viscosity, Pa*s	uncertainty
.0471	298.15	100	.001035	.00001035
.091	298.15	100	.001069	.00001069
.1327	298.15	100	.001082	.00001082
.1768	298.15	100	.0011	.000011

System: N,N-dimethylacetamide + N,N'-(ethane-1,2-diyl)bis(1-(pyridin-2-yl)methanimine); phases: Liquid
Property: Refractive index (Na D-line) (Liquid); method: Standard Abbe refractometry
Molality, mol/kg of N,N'-(ethane-1,2-diyl)bis(1-(pyridin-2-yl)methanimine)	Temperature, K	Pressure, kPa	Refractive index (Na D-line)	uncertainty
.0471	298.15	100	1.4291	.008
.091	298.15	100	1.43	.008
.1327	298.15	100	1.4317	.008
.1768	298.15	100	1.433	.008
