Measured thermophysical data. Enthalpy of sublimation of natural aromatic amino acids determined by Knudsen's effusion mass spectrometric method
Source: J. Chem. Thermodyn., 2014, 10.1016/j.jct.2014.02.003
Compound 1: benzoic acid, C7H6O2, purity 99.5%
Compound 2: L-phenylalanine, C9H11NO2, purity 99%
Compound 3: L-tyrosine, C9H11NO3, purity 99%
Compound 4: L-tryptophan, C11H12N2O2, purity 99%

System: benzoic acid; phases: Crystal, Gas
Property: Molar enthalpy of vaporization or sublimation, kJ/mol (Crystal); method: Knudsen effusion method coupled with mass spectrometer, from logarithm of peak intensity
Temperature, K	Molar enthalpy of vaporization or sublimation, kJ/mol	uncertainty
308.21	90.8	1.9

System: L-phenylalanine; phases: Crystal, Gas
Property: Molar enthalpy of vaporization or sublimation, kJ/mol (Crystal); method: Knudsen effusion method coupled with mass spectrometer, from logarithm of peak intensity
Temperature, K	Molar enthalpy of vaporization or sublimation, kJ/mol	uncertainty
418.15	158.3	2

System: L-tyrosine; phases: Crystal, Gas
Property: Molar enthalpy of vaporization or sublimation, kJ/mol (Crystal); method: Knudsen effusion method coupled with mass spectrometer, from logarithm of peak intensity
Temperature, K	Molar enthalpy of vaporization or sublimation, kJ/mol	uncertainty
471.15	200	1.8

System: L-tryptophan; phases: Crystal, Gas
Property: Molar enthalpy of vaporization or sublimation, kJ/mol (Crystal); method: Knudsen effusion method coupled with mass spectrometer, from logarithm of peak intensity
Temperature, K	Molar enthalpy of vaporization or sublimation, kJ/mol	uncertainty
450.15	184.4	2.3
