Measured thermophysical data. Volumetric and compressibility studies on tri-n-butyl phosphate (TBP)-phase modifier (1-octanol, 1-decanol and isodecanol) interactions from T = (298.15 to 323.15) K
Source: J. Chem. Thermodyn., 2014, 10.1016/j.jct.2013.10.018
Compound 1: tributyl phosphate, C12H27O4P, purity 99%
Compound 2: 1-octanol, C8H18O, purity 98.9%
Compound 3: 1-decanol, C10H22O, purity 99%

System: tributyl phosphate; phases: Liquid
Fixed: Pressure, kPa = 101.325
Property: Mass density, kg/m3 (Liquid); method: Vibrating tube method
Temperature, K	Mass density, kg/m3	uncertainty
298.15	972.77	.05
303.15	968.46	.05
308.15	964.15	.05
313.15	959.84	.05
318.15	955.52	.05
323.15	951.2	.05

System: tributyl phosphate; phases: Liquid
Fixed: Pressure, kPa = 101.325
Property: Speed of sound, m/s (Liquid); method: Sing-around technique in a fixed-path interferometer
Temperature, K	Speed of sound, m/s	uncertainty
298.15	1265	1.1
303.15	1248	1.1
308.15	1231	1.1
313.15	1214	1.1
318.15	1198	1.1
323.15	1181	1.1

System: 1-octanol; phases: Liquid
Fixed: Pressure, kPa = 101.325
Property: Mass density, kg/m3 (Liquid); method: Vibrating tube method
Temperature, K	Mass density, kg/m3	uncertainty
298.15	821.74	.05
303.15	818.26	.05
308.15	814.76	.05
313.15	811.24	.05
318.15	807.69	.05
323.15	804.12	.05

System: 1-octanol; phases: Liquid
Fixed: Pressure, kPa = 101.325
Property: Speed of sound, m/s (Liquid); method: Sing-around technique in a fixed-path interferometer
Temperature, K	Speed of sound, m/s	uncertainty
298.15	1349	1.1
303.15	1332	1.1
308.15	1315	1.1
313.15	1299	1.1
318.15	1282	1.1
323.15	1265	1.1

System: 1-decanol; phases: Liquid
Fixed: Pressure, kPa = 101.325
Property: Mass density, kg/m3 (Liquid); method: Vibrating tube method
Temperature, K	Mass density, kg/m3	uncertainty
298.15	826.36	.05
303.15	822.88	.05
308.15	819.43	.05
313.15	815.97	.05
318.15	812.49	.05
323.15	809.03	.05

System: 1-decanol; phases: Liquid
Fixed: Pressure, kPa = 101.325
Property: Speed of sound, m/s (Liquid); method: Sing-around technique in a fixed-path interferometer
Temperature, K	Speed of sound, m/s	uncertainty
298.15	1380	1.1
303.15	1363	1.1
308.15	1346	1.1
313.15	1329	1.1
318.15	1312	1.1
323.15	1296	1.1

System: 1-octanol + tributyl phosphate; phases: Liquid
Fixed: Pressure, kPa = 101
Property: Mass density, kg/m3 (Liquid); method: Vibrating tube method
Temperature, K	Mole fraction of tributyl phosphate	Mass density, kg/m3	uncertainty
298.15	.016	825.66	.05
298.15	.032	829.43	.05
298.15	.049	833.45	.05
298.15	.1	844.7	.05
298.15	.2	864.91	.05
298.15	.301	883.29	.05
298.15	.398	899.38	.05
298.15	.502	914.86	.05
298.15	.602	928.59	.05
298.15	.704	941.3	.05
298.15	.803	952.67	.05
298.15	.9	962.97	.05
298.15	.919	964.88	.05
298.15	.946	967.61	.05
298.15	.971	970.09	.05
303.15	.016	822.16	.05
303.15	.032	825.92	.05
303.15	.049	829.91	.05
303.15	.1	841.09	.05
303.15	.2	861.18	.05
303.15	.301	879.45	.05
303.15	.398	895.45	.05
303.15	.502	910.85	.05
303.15	.602	924.51	.05
303.15	.704	937.15	.05
303.15	.803	948.47	.05
303.15	.9	958.71	.05
303.15	.919	960.61	.05
303.15	.946	963.32	.05
303.15	.971	965.79	.05
308.15	.016	818.64	.05
308.15	.032	822.38	.05
308.15	.049	826.35	.05
308.15	.1	837.47	.05
308.15	.2	857.44	.05
308.15	.301	875.61	.05
308.15	.398	891.51	.05
308.15	.502	906.83	.05
308.15	.602	920.42	.05
308.15	.704	932.99	.05
308.15	.803	944.26	.05
308.15	.9	954.45	.05
308.15	.919	956.34	.05
308.15	.946	959.03	.05
308.15	.971	961.49	.05
313.15	.016	815.1	.05
313.15	.032	818.82	.05
313.15	.049	822.77	.05
313.15	.1	833.83	.05
313.15	.2	853.68	.05
313.15	.301	871.75	.05
313.15	.398	887.57	.05
313.15	.502	902.81	.05
313.15	.602	916.33	.05
313.15	.704	928.84	.05
313.15	.803	940.04	.05
313.15	.9	950.19	.05
313.15	.919	952.06	.05
313.15	.946	954.75	.05
313.15	.971	957.19	.05
318.15	.016	811.54	.05
318.15	.032	815.24	.05
318.15	.049	819.16	.05
318.15	.1	830.17	.05
318.15	.2	849.91	.05
318.15	.301	867.88	.05
318.15	.398	883.61	.05
318.15	.502	898.78	.05
318.15	.602	912.23	.05
318.15	.704	924.68	.05
318.15	.803	935.82	.05
318.15	.9	945.92	.05
318.15	.919	947.78	.05
318.15	.946	950.45	.05
318.15	.971	952.88	.05
323.15	.016	807.94	.05
323.15	.032	811.63	.05
323.15	.049	815.54	.05
323.15	.1	826.49	.05
323.15	.2	846.12	.05
323.15	.301	864	.05
323.15	.398	879.65	.05
323.15	.502	894.74	.05
323.15	.602	908.12	.05
323.15	.704	920.51	.05
323.15	.803	931.6	.05
323.15	.9	941.65	.05
323.15	.919	943.5	.05
323.15	.946	946.15	.05
323.15	.971	948.58	.05
298.15	1	972.77	.05
303.15	1	968.46	.05
308.15	1	964.15	.05
313.15	1	959.84	.05
318.15	1	955.52	.05
323.15	1	951.2	.05
298.15	0	821.74	.05
303.15	0	818.26	.05
308.15	0	814.76	.05
313.15	0	811.24	.05
318.15	0	807.69	.05
323.15	0	804.12	.05

System: 1-octanol + tributyl phosphate; phases: Liquid
Fixed: Pressure, kPa = 101
Property: Speed of sound, m/s (Liquid); method: Sing-around technique in a fixed-path interferometer
Temperature, K	Mole fraction of tributyl phosphate	Speed of sound, m/s	uncertainty
298.15	0	1349	1.1
298.15	.016	1344	1.1
298.15	.032	1341	1.1
298.15	.049	1337	1.1
298.15	.1	1328	1.1
298.15	.2	1312	1.1
298.15	.301	1300	1.1
298.15	.398	1291	1.1
298.15	.502	1283	1.1
298.15	.602	1277	1.1
298.15	.704	1273	1.1
298.15	.803	1269	1.1
298.15	.9	1267	1.1
298.15	.919	1267	1.1
298.15	.946	1266	1.1
298.15	.971	1266	1.1
298.15	1	1265	1.1
303.15	0	1332	1.1
303.15	.016	1327	1.1
303.15	.032	1324	1.1
303.15	.049	1320	1.1
303.15	.1	1311	1.1
303.15	.2	1295	1.1
303.15	.301	1283	1.1
303.15	.398	1274	1.1
303.15	.502	1266	1.1
303.15	.602	1260	1.1
303.15	.704	1256	1.1
303.15	.803	1252	1.1
303.15	.9	1250	1.1
303.15	.919	1250	1.1
303.15	.946	1249	1.1
303.15	.971	1249	1.1
303.15	1	1248	1.1
308.15	0	1315	1.1
308.15	.016	1310	1.1
308.15	.032	1307	1.1
308.15	.049	1303	1.1
308.15	.1	1294	1.1
308.15	.2	1278	1.1
308.15	.301	1266	1.1
308.15	.398	1257	1.1
308.15	.502	1249	1.1
308.15	.602	1243	1.1
308.15	.704	1239	1.1
308.15	.803	1236	1.1
308.15	.9	1233	1.1
308.15	.919	1233	1.1
308.15	.946	1232	1.1
308.15	.971	1232	1.1
308.15	1	1231	1.1
313.15	0	1299	1.1
313.15	.016	1293	1.1
313.15	.032	1290	1.1
313.15	.049	1286	1.1
313.15	.1	1277	1.1
313.15	.2	1262	1.1
313.15	.301	1249	1.1
313.15	.398	1240	1.1
313.15	.502	1232	1.1
313.15	.602	1226	1.1
313.15	.704	1222	1.1
313.15	.803	1219	1.1
313.15	.9	1216	1.1
313.15	.919	1216	1.1
313.15	.946	1215	1.1
313.15	.971	1215	1.1
313.15	1	1214	1.1
318.15	0	1282	1.1
318.15	.016	1277	1.1
318.15	.032	1273	1.1
318.15	.049	1270	1.1
318.15	.1	1260	1.1
318.15	.2	1245	1.1
318.15	.301	1233	1.1
318.15	.398	1223	1.1
318.15	.502	1216	1.1
318.15	.602	1210	1.1
318.15	.704	1206	1.1
318.15	.803	1202	1.1
318.15	.9	1200	1.1
318.15	.919	1199	1.1
318.15	.946	1199	1.1
318.15	.971	1198	1.1
318.15	1	1198	1.1
323.15	0	1265	1.1
323.15	.016	1260	1.1
323.15	.032	1257	1.1
323.15	.049	1253	1.1
323.15	.1	1244	1.1
323.15	.2	1229	1.1
323.15	.301	1216	1.1
323.15	.398	1207	1.1
323.15	.502	1199	1.1
323.15	.602	1194	1.1
323.15	.704	1188	1.1
323.15	.803	1186	1.1
323.15	.9	1183	1.1
323.15	.919	1183	1.1
323.15	.946	1182	1.1
323.15	.971	1182	1.1
323.15	1	1181	1.1

System: 1-decanol + tributyl phosphate; phases: Liquid
Fixed: Pressure, kPa = 101
Property: Mass density, kg/m3 (Liquid); method: Vibrating tube method
Temperature, K	Mole fraction of tributyl phosphate	Mass density, kg/m3	uncertainty
298.15	.019	829.97	.05
298.15	.04	833.94	.05
298.15	.063	838.11	.05
298.15	.099	844.9	.05
298.15	.2	862.8	.05
298.15	.292	877.97	.05
298.15	.398	894.53	.05
298.15	.501	909.53	.05
298.15	.599	923.45	.05
298.15	.703	937.13	.05
298.15	.803	949.69	.05
298.15	.904	961.91	.05
298.15	.92	963.71	.05
298.15	.946	966.71	.05
298.15	.973	969.8	.05
303.15	.019	826.54	.05
303.15	.04	830.48	.05
303.15	.063	834.63	.05
303.15	.099	841.37	.05
303.15	.2	859.15	.05
303.15	.292	874.23	.05
303.15	.398	890.68	.05
303.15	.501	905.61	.05
303.15	.599	919.44	.05
303.15	.703	933.04	.05
303.15	.803	945.53	.05
303.15	.904	957.67	.05
303.15	.92	959.45	.05
303.15	.946	962.44	.05
303.15	.973	965.51	.05
308.15	.019	823.09	.05
308.15	.04	827.02	.05
308.15	.063	831.14	.05
308.15	.099	837.84	.05
308.15	.2	855.5	.05
308.15	.292	870.47	.05
308.15	.398	886.82	.05
308.15	.501	901.68	.05
308.15	.599	915.41	.05
308.15	.703	928.94	.05
308.15	.803	941.36	.05
308.15	.904	953.42	.05
308.15	.92	955.2	.05
308.15	.946	958.17	.05
308.15	.973	961.22	.05
313.15	.019	819.63	.05
313.15	.04	823.54	.05
313.15	.063	827.64	.05
313.15	.099	834.29	.05
313.15	.2	851.83	.05
313.15	.292	866.71	.05
313.15	.398	882.96	.05
313.15	.501	897.74	.05
313.15	.599	911.39	.05
313.15	.703	924.84	.05
313.15	.803	937.19	.05
313.15	.904	949.17	.05
313.15	.92	950.94	.05
313.15	.946	953.89	.05
313.15	.973	956.92	.05
318.15	.019	816.14	.05
318.15	.04	820.04	.05
318.15	.063	824.12	.05
318.15	.099	830.73	.05
318.15	.2	848.15	.05
318.15	.292	862.93	.05
318.15	.398	879.09	.05
318.15	.501	893.8	.05
318.15	.599	907.35	.05
318.15	.703	920.73	.05
318.15	.803	933.01	.05
318.15	.904	944.91	.05
318.15	.92	946.68	.05
318.15	.946	949.62	.05
318.15	.973	952.63	.05
323.15	.019	812.64	.05
323.15	.04	816.52	.05
323.15	.063	820.57	.05
323.15	.099	827.14	.05
323.15	.2	844.46	.05
323.15	.292	859.14	.05
323.15	.398	875.2	.05
323.15	.501	889.85	.05
323.15	.599	903.31	.05
323.15	.703	916.62	.05
323.15	.803	928.83	.05
323.15	.904	940.66	.05
323.15	.92	942.42	.05
323.15	.946	945.33	.05
323.15	.973	948.33	.05
298.15	1	972.77	.05
303.15	1	968.46	.05
308.15	1	964.15	.05
313.15	1	959.84	.05
318.15	1	955.52	.05
323.15	1	951.2	.05
298.15	0	826.36	.05
303.15	0	822.88	.05
308.15	0	819.43	.05
313.15	0	815.97	.05
318.15	0	812.49	.05
323.15	0	809.03	.05

System: 1-decanol + tributyl phosphate; phases: Liquid
Fixed: Pressure, kPa = 101
Property: Speed of sound, m/s (Liquid); method: Sing-around technique in a fixed-path interferometer
Temperature, K	Mole fraction of tributyl phosphate	Speed of sound, m/s	uncertainty
298.15	0	1380	1.1
298.15	.019	1375	1.1
298.15	.04	1370	1.1
298.15	.063	1365	1.1
298.15	.099	1358	1.1
298.15	.2	1340	1.1
298.15	.292	1325	1.1
298.15	.398	1311	1.1
298.15	.501	1298	1.1
298.15	.599	1289	1.1
298.15	.703	1281	1.1
298.15	.803	1274	1.1
298.15	.904	1269	1.1
298.15	.92	1268	1.1
298.15	.946	1267	1.1
298.15	.973	1266	1.1
298.15	1	1265	1.1
303.15	0	1363	1.1
303.15	.019	1358	1.1
303.15	.04	1353	1.1
303.15	.063	1348	1.1
303.15	.099	1341	1.1
303.15	.2	1323	1.1
303.15	.292	1308	1.1
303.15	.398	1294	1.1
303.15	.501	1281	1.1
303.15	.599	1273	1.1
303.15	.703	1264	1.1
303.15	.803	1257	1.1
303.15	.904	1252	1.1
303.15	.92	1251	1.1
303.15	.946	1250	1.1
303.15	.973	1249	1.1
303.15	1	1248	1.1
308.15	0	1346	1.1
308.15	.019	1341	1.1
308.15	.04	1336	1.1
308.15	.063	1331	1.1
308.15	.099	1324	1.1
308.15	.2	1306	1.1
308.15	.292	1292	1.1
308.15	.398	1277	1.1
308.15	.501	1264	1.1
308.15	.599	1256	1.1
308.15	.703	1247	1.1
308.15	.803	1241	1.1
308.15	.904	1236	1.1
308.15	.92	1234	1.1
308.15	.946	1233	1.1
308.15	.973	1232	1.1
308.15	1	1231	1.1
313.15	0	1329	1.1
313.15	.019	1324	1.1
313.15	.04	1319	1.1
313.15	.063	1314	1.1
313.15	.099	1307	1.1
313.15	.2	1289	1.1
313.15	.292	1275	1.1
313.15	.398	1260	1.1
313.15	.501	1248	1.1
313.15	.599	1239	1.1
313.15	.703	1231	1.1
313.15	.803	1224	1.1
313.15	.904	1219	1.1
313.15	.92	1218	1.1
313.15	.946	1216	1.1
313.15	.973	1215	1.1
313.15	1	1214	1.1
318.15	0	1312	1.1
318.15	.019	1307	1.1
318.15	.04	1303	1.1
318.15	.063	1298	1.1
318.15	.099	1291	1.1
318.15	.2	1273	1.1
318.15	.292	1258	1.1
318.15	.398	1244	1.1
318.15	.501	1231	1.1
318.15	.599	1223	1.1
318.15	.703	1214	1.1
318.15	.803	1207	1.1
318.15	.904	1202	1.1
318.15	.92	1201	1.1
318.15	.946	1200	1.1
318.15	.973	1199	1.1
318.15	1	1198	1.1
323.15	0	1296	1.1
323.15	.019	1291	1.1
323.15	.04	1286	1.1
323.15	.063	1281	1.1
323.15	.099	1274	1.1
323.15	.2	1256	1.1
323.15	.292	1242	1.1
323.15	.398	1227	1.1
323.15	.501	1215	1.1
323.15	.599	1206	1.1
323.15	.703	1198	1.1
323.15	.803	1191	1.1
323.15	.904	1186	1.1
323.15	.92	1185	1.1
323.15	.946	1183	1.1
323.15	.973	1182	1.1
323.15	1	1181	1.1
