Measured thermophysical data. Experimental thermochemical study of two chlorodinitroaniline isomers
Source: J. Chem. Thermodyn., 2010, 10.1016/j.jct.2009.11.003
Compound 1: benzenamine, 2-chloro-4,6-dinitro-, C6H4ClN3O4
Compound 2: 4-chloro-2,6-dinitroaniline, C6H4ClN3O4
Compound 3: hydrogen chloride, ClH
Compound 4: carbon dioxide, CO2
Compound 5: nitrogen, N2
Compound 6: water, H2O
Compound 7: oxygen, O2
Compound 8: carbon, graphite, C
Compound 9: hydrogen, H2
Compound 10: chlorine, diatomic, Cl2

System: benzenamine, 2-chloro-4,6-dinitro-; phases: Crystal, Gas
Property: Vapor or sublimation pressure, kPa (Crystal); method: Knudsen effusion method
Temperature, K	Vapor or sublimation pressure, kPa	uncertainty
358.101	.000105	
360.15	.00013	
362.16	.000164	
364.121	.000197	
366.173	.000246	
368.165	.000302	
370.105	.000361	
372.08	.000455	
374.144	.00055	
376.248	.000684	
378.137	.000816	
380.159	.000996	
358.101	.000103	
360.15	.000133	
362.16	.000161	
364.121	.000202	
366.173	.000248	
368.165	.000297	
370.105	.000368	
372.08	.00044	
374.144	.00055	
376.248	.000662	
378.137	.000824	
380.159	.000971	
358.101	.00011	
360.15	.000128	
362.16	.000173	
364.121	.000198	
366.173	.00024	
368.165	.000296	
370.105	.000368	
372.08	.000426	
374.144	.000536	
376.248	.000663	
378.137	.000797	
380.159	.000963	

System: benzenamine, 2-chloro-4,6-dinitro-; phases: Crystal, Gas
Property: Molar enthalpy of vaporization or sublimation, kJ/mol (Crystal); method: Static calorimetry
Temperature, K	Molar enthalpy of vaporization or sublimation, kJ/mol	uncertainty
369.13	114.2	
298.15	115	

System: 4-chloro-2,6-dinitroaniline; phases: Crystal, Gas
Property: Vapor or sublimation pressure, kPa (Crystal); method: Knudsen effusion method
Temperature, K	Vapor or sublimation pressure, kPa	uncertainty
335.123	.0000767	
338.185	.00011	
341.171	.00015	
344.165	.000207	
347.182	.000287	
350.123	.000388	
353.117	.00052	
356.169	.000715	
359.159	.000964	
335.123	.0000772	
338.185	.000108	
341.171	.000145	
344.165	.000202	
347.182	.000284	
350.123	.000386	
353.117	.000532	
356.169	.000702	
359.159	.000935	
335.123	.0000784	
338.185	.000106	
341.171	.000146	
344.165	.000201	
347.182	.000277	
350.123	.000386	
353.117	.000527	
356.169	.00071	
359.159	.000922	

System: 4-chloro-2,6-dinitroaniline; phases: Crystal, Gas
Property: Molar enthalpy of vaporization or sublimation, kJ/mol (Crystal); method: Static calorimetry
Temperature, K	Molar enthalpy of vaporization or sublimation, kJ/mol	uncertainty
347.1	104.7	
298.15	105.2	

Reaction: -1 benzenamine, 2-chloro-4,6-dinitro- + 1 hydrogen chloride + 6 carbon dioxide + 1.5 nitrogen + 1.5 water + -4.75 oxygen
Property: Specific internal energy of reaction at constant volume, J/g
-13155.2

Reaction: -1 4-chloro-2,6-dinitroaniline + 1 hydrogen chloride + 6 carbon dioxide + 1.5 nitrogen + 1.5 water + -4.75 oxygen
Property: Specific internal energy of reaction at constant volume, J/g
-13265.7

Reaction: 1 benzenamine, 2-chloro-4,6-dinitro- + -0.5 chlorine, diatomic + -2 hydrogen + -1.5 nitrogen + -6 carbon, graphite + -2 oxygen
Property: Molar enthalpy of reaction, kJ/mol
14

Reaction: 1 4-chloro-2,6-dinitroaniline + -0.5 chlorine, diatomic + -2 hydrogen + -1.5 nitrogen + -6 carbon, graphite + -2 oxygen
Property: Molar enthalpy of reaction, kJ/mol
28.3
