Measured thermophysical data. The influence of the halogen atoms and acetyl group on vapour pressures and related properties of the p-haloacetophenones
Source: J. Chem. Thermodyn., 2016, 10.1016/j.jct.2015.09.004
Compound 1: p-fluoroacetophenone, C8H7FO
Compound 2: p-chloroacetophenone, C8H7ClO
Compound 3: 4'-bromoacetophenone, C8H7BrO
Compound 4: para-iodoacetophenone, C8H7IO

System: p-fluoroacetophenone; phases: Crystal, Liquid, Air at 1 atmosphere
Property: Normal melting temperature, K (Crystal); method: DSC/DTA
Normal melting temperature, K	uncertainty
269	.1

System: p-fluoroacetophenone; phases: Crystal, Liquid, Air at 1 atmosphere
Property: Molar enthalpy of transition or fusion, kJ/mol (Crystal); method: DSC
Molar enthalpy of transition or fusion, kJ/mol	uncertainty
14.2	.1

System: p-fluoroacetophenone; phases: Liquid, Gas
Property: Vapor or sublimation pressure, kPa (Liquid); method: Closed cell (Static) method
Temperature, K	Vapor or sublimation pressure, kPa	uncertainty
255.13	.00086	.00000215
256.87	.00104	.0000026
258.79	.00128	.0000032
260.76	.00157	.000003925
262.72	.00193	.000004825
264.7	.00233	.000005825
266.63	.00285	.000007125
268.62	.00348	.0000087
270.62	.00417	.000010425
272.54	.00501	.000012525
274.51	.00603	.000015075
276.49	.00725	.000018125
278.49	.00865	.000021625
280.5	.01035	.000025875
282.42	.01227	.000030675
284.44	.01455	.000036375
286.42	.01723	.000043075
288.39	.02022	.00005055
290.38	.02379	.000059475
292.34	.02795	.000069875
294.31	.03279	.000081975
296.34	.03807	.000095175
298.27	.04465	.000111625
300.3	.05171	.000129275
302.24	.06005	.000150125
304.2	.06895	.000172375
306.15	.07985	.000199625
308.16	.09146	.00022865
310.15	.1056	.000264

System: p-chloroacetophenone; phases: Crystal, Liquid, Air at 1 atmosphere
Property: Normal melting temperature, K (Crystal); method: DSC/DTA
Normal melting temperature, K	uncertainty
290.3	.2

System: p-chloroacetophenone; phases: Crystal, Liquid, Air at 1 atmosphere
Property: Molar enthalpy of transition or fusion, kJ/mol (Crystal); method: DSC
Molar enthalpy of transition or fusion, kJ/mol	uncertainty
15.3	.2

System: p-chloroacetophenone; phases: Liquid, Gas
Property: Vapor or sublimation pressure, kPa (Liquid); method: Closed cell (Static) method
Temperature, K	Vapor or sublimation pressure, kPa	uncertainty
271.56	.00065	.000001625
273.59	.00081	.000002025
275.52	.00098	.00000245
277.47	.00118	.00000295
279.48	.00144	.0000036
281.51	.00176	.0000044
283.42	.0021	.00000525
285.45	.00256	.0000064
287.39	.00305	.000007625
289.34	.00364	.0000091
291.32	.00437	.000010925
293.32	.00519	.000012975
295.29	.00616	.0000154
297.26	.00729	.000018225
299.24	.00863	.000021575
301.19	.01012	.0000253
303.21	.01198	.00002995
305.16	.01396	.0000349
307.18	.01629	.000040725
309.12	.01902	.00004755
311.1	.02236	.0000559
313.1	.02596	.0000649
315.07	.03015	.000075375
317.04	.03486	.00008715
319.07	.04049	.000101225
321	.04613	.000115325
323.09	.05334	.00013335
325.1	.0612	.000153
327.08	.06999	.000174975
329.05	.07991	.000199775
331.04	.09133	.000228325
333	.1037	.00025925
334.98	.1174	.0002935

System: 4'-bromoacetophenone; phases: Crystal, Liquid, Air at 1 atmosphere
Property: Normal melting temperature, K (Crystal); method: DSC/DTA
Normal melting temperature, K	uncertainty
324.2	.1

System: 4'-bromoacetophenone; phases: Crystal, Liquid, Air at 1 atmosphere
Property: Molar enthalpy of transition or fusion, kJ/mol (Crystal); method: DSC
Molar enthalpy of transition or fusion, kJ/mol	uncertainty
19.1	.2

System: 4'-bromoacetophenone; phases: Crystal, Gas
Property: Vapor or sublimation pressure, kPa (Crystal); method: Closed cell (Static) method
Temperature, K	Vapor or sublimation pressure, kPa	uncertainty
295.3	.00115	.000002875
297.26	.00142	.00000355
299.2	.00175	.000004375
301.22	.00219	.000005475
303.17	.00269	.000006725
305.12	.00341	.000008525
307.11	.00418	.00001045
309.13	.00512	.0000128
311.05	.00632	.0000158
313.08	.00777	.000019425
315.05	.00949	.000023725
317.04	.01155	.000028875
319.04	.0141	.00003525

System: 4'-bromoacetophenone; phases: Liquid, Gas
Property: Vapor or sublimation pressure, kPa (Liquid); method: Closed cell (Static) method
Temperature, K	Vapor or sublimation pressure, kPa	uncertainty
305.14	.00501	.000012525
307.13	.00591	.000014775
309.14	.00699	.000017475
311.08	.0082	.0000205
312.97	.00953	.000023825
315.06	.01125	.000028125
317.08	.01318	.00003295
319.06	.01542	.00003855
321.03	.01778	.00004445
322.97	.02065	.000051625
324.98	.02389	.000059725
327.07	.02782	.00006955
328.92	.03179	.000079475
331.01	.03679	.000091975
333	.04238	.00010595
334.94	.04849	.000121225
336.95	.05561	.000139025
338.92	.06344	.0001586
340.91	.07228	.0001807
342.92	.08249	.000206225
344.85	.09385	.000234625
346.83	.1056	.000264
348.79	.1197	.00029925
350.66	.1346	.0003365
352.73	.1529	.00038225
354.58	.1698	.0004245
356.66	.1927	.00048175
358.51	.2158	.0005395
360.62	.2427	.00060675
362.46	.27	.000675
364.54	.3031	.00075775
366.57	.3388	.000847
368.54	.3774	.0009435
370.53	.4201	.00105025
372.5	.4659	.00116475
374.46	.5142	.0012855
376.43	.5712	.001428
378.39	.6312	.001578

System: para-iodoacetophenone; phases: Crystal, Liquid, Air at 1 atmosphere
Property: Normal melting temperature, K (Crystal); method: DSC/DTA
Normal melting temperature, K	uncertainty
357.6	.1

System: para-iodoacetophenone; phases: Crystal, Liquid, Air at 1 atmosphere
Property: Molar enthalpy of transition or fusion, kJ/mol (Crystal); method: DSC
Molar enthalpy of transition or fusion, kJ/mol	uncertainty
23.5	.1

System: para-iodoacetophenone; phases: Crystal, Gas
Property: Vapor or sublimation pressure, kPa (Crystal); method: Closed cell (Static) method
Temperature, K	Vapor or sublimation pressure, kPa	uncertainty
313.07	.00086	.00000215
315.1	.00108	.0000027
317.07	.00134	.00000335
319.04	.00166	.00000415
321.02	.00205	.000005125
323.02	.00253	.000006325
325.06	.00313	.000007825
326.98	.00382	.00000955
329.06	.00477	.000011925
330.99	.00578	.00001445
333.01	.0071	.00001775
334.95	.00856	.0000214
336.96	.01043	.000026075
338.87	.01256	.0000314
340.91	.01528	.0000382
342.83	.01834	.00004585
344.76	.02192	.0000548
346.73	.02634	.00006585
348.73	.03176	.0000794
350.71	.03795	.000094875
352.75	.04537	.000113425

System: para-iodoacetophenone; phases: Liquid, Gas
Property: Vapor or sublimation pressure, kPa (Liquid); method: Closed cell (Static) method
Temperature, K	Vapor or sublimation pressure, kPa	uncertainty
348.73	.03831	.000095775
350.7	.04337	.000108425
352.69	.04939	.000123475
354.68	.05596	.0001399
356.62	.06332	.0001583
358.92	.07293	.000182325
360.65	.08166	.00020415
362.51	.09128	.0002282
364.59	.1048	.000262
366.58	.1171	.00029275
368.51	.131	.0003275
370.52	.1458	.0003645
372.41	.1634	.0004085
374.48	.1829	.00045725
376.36	.2045	.00051125
378.41	.2281	.00057025
380.39	.2553	.00063825
382.37	.2831	.00070775
384.3	.3146	.0007865
386.31	.3478	.0008695
388.27	.3882	.0009705
389.83	.42	.00105
392.22	.4723	.00118075
394.17	.5188	.001297
396.15	.5726	.0014315
398.12	.6279	.00156975
399.98	.6883	.00172075
402.04	.7599	.00189975
