Measured thermophysical data. Measurement and correlation of density and viscosity of n-hexadecane with three fatty acid ethyl esters
Source: J. Chem. Thermodyn., 2016, 10.1016/j.jct.2016.01.021
Compound 1: n-hexadecane, C16H34, purity 99%
Compound 2: ethyl caprylate, C10H20O2, purity 99%
Compound 3: ethyl caprate, C12H24O2, purity 99%
Compound 4: ethyl laurate, C14H28O2, purity 99%

System: n-hexadecane; phases: Liquid
Property: Mass density, kg/m3 (Liquid); method: Vibrating tube method
Temperature, K	Pressure, kPa	Mass density, kg/m3	uncertainty
298.15	100	769.92	
303.15	100	766.51	
308.15	100	763.06	
313.15	100	759.6	
318.15	100	756.14	
323.15	100	752.68	

System: n-hexadecane; phases: Liquid
Property: Viscosity, Pa*s (Liquid); method: Capillary tube (Ostwald; Ubbelohde) method
Temperature, K	Pressure, kPa	Viscosity, Pa*s	uncertainty
298.15	100	.003085	
303.15	100	.002756	
308.15	100	.002478	
313.15	100	.002239	
318.15	100	.002034	
323.15	100	.001857	

System: ethyl caprylate; phases: Liquid
Property: Mass density, kg/m3 (Liquid); method: Vibrating tube method
Temperature, K	Pressure, kPa	Mass density, kg/m3	uncertainty
298.15	100	862.64	
303.15	100	858.34	
308.15	100	854.04	
313.15	100	849.72	
318.15	100	845.39	
323.15	100	841.06	

System: ethyl caprylate; phases: Liquid
Property: Viscosity, Pa*s (Liquid); method: Capillary tube (Ostwald; Ubbelohde) method
Temperature, K	Pressure, kPa	Viscosity, Pa*s	uncertainty
298.15	100	.001428	
303.15	100	.001313	
308.15	100	.001211	
313.15	100	.001121	
318.15	100	.001042	
323.15	100	.000971	

System: ethyl caprate; phases: Liquid
Property: Mass density, kg/m3 (Liquid); method: Vibrating tube method
Temperature, K	Pressure, kPa	Mass density, kg/m3	uncertainty
298.15	100	860.05	
303.15	100	855.99	
308.15	100	851.92	
313.15	100	847.85	
318.15	100	843.77	
323.15	100	839.69	

System: ethyl caprate; phases: Liquid
Property: Viscosity, Pa*s (Liquid); method: Capillary tube (Ostwald; Ubbelohde) method
Temperature, K	Pressure, kPa	Viscosity, Pa*s	uncertainty
298.15	100	.002115	
303.15	100	.001919	
308.15	100	.00175	
313.15	100	.001603	
318.15	100	.001474	
323.15	100	.001362	

System: ethyl laurate; phases: Liquid
Property: Mass density, kg/m3 (Liquid); method: Vibrating tube method
Temperature, K	Pressure, kPa	Mass density, kg/m3	uncertainty
298.15	100	858.19	
303.15	100	854.3	
308.15	100	850.4	
313.15	100	846.5	
318.15	100	842.6	
323.15	100	838.7	

System: ethyl laurate; phases: Liquid
Property: Viscosity, Pa*s (Liquid); method: Capillary tube (Ostwald; Ubbelohde) method
Temperature, K	Pressure, kPa	Viscosity, Pa*s	uncertainty
298.15	100	.003015	
303.15	100	.002704	
308.15	100	.002439	
313.15	100	.002213	
318.15	100	.002016	
323.15	100	.001846	

System: ethyl caprylate + n-hexadecane; phases: Liquid
Fixed: Pressure, kPa = 100
Property: Mass density, kg/m3 (Liquid); method: Vibrating tube method
Temperature, K	Mole fraction of n-hexadecane	Mass density, kg/m3	uncertainty
298.15	0	862.64	
298.15	.1	848.72	
298.15	.2	836.2	
298.15	.3	824.94	
298.15	.4	814.77	
298.15	.4999	805.52	
298.15	.6	797.09	
298.15	.7	789.38	
298.15	.8	782.33	
298.15	.9	775.88	
298.15	1	769.92	
303.15	0	858.34	
303.15	.1	844.55	
303.15	.2	832.14	
303.15	.3	820.97	
303.15	.4	810.9	
303.15	.4999	801.74	
303.15	.6	793.39	
303.15	.7	785.75	
303.15	.8	778.76	
303.15	.9	772.36	
303.15	1	766.51	
308.15	0	854.04	
308.15	.1	840.37	
308.15	.2	828.07	
308.15	.3	817.01	
308.15	.4	807.03	
308.15	.4999	797.95	
308.15	.6	789.68	
308.15	.7	782.11	
308.15	.8	775.18	
308.15	.9	768.84	
308.15	1	763.06	
313.15	0	849.72	
313.15	.1	836.18	
313.15	.2	824	
313.15	.3	813.04	
313.15	.4	803.16	
313.15	.4999	794.16	
313.15	.6	785.97	
313.15	.7	778.47	
313.15	.8	771.61	
313.15	.9	765.33	
313.15	1	759.6	
318.15	0	845.39	
318.15	.1	831.98	
318.15	.2	819.92	
318.15	.3	809.06	
318.15	.4	799.27	
318.15	.4999	790.37	
318.15	.6	782.25	
318.15	.7	774.83	
318.15	.8	768.04	
318.15	.9	761.81	
318.15	1	756.14	
323.15	0	841.06	
323.15	.1	827.77	
323.15	.2	815.83	
323.15	.3	805.08	
323.15	.4	795.39	
323.15	.4999	786.56	
323.15	.6	778.53	
323.15	.7	771.18	
323.15	.8	764.46	
323.15	.9	758.3	
323.15	1	752.68	

System: ethyl caprylate + n-hexadecane; phases: Liquid
Fixed: Pressure, kPa = 100
Property: Viscosity, Pa*s (Liquid); method: Capillary tube (Ostwald; Ubbelohde) method
Temperature, K	Mole fraction of n-hexadecane	Viscosity, Pa*s	uncertainty
298.15	0	.001428	
298.15	.1	.001539	
298.15	.2	.001651	
298.15	.3	.001776	
298.15	.4	.001916	
298.15	.4999	.002065	
298.15	.6	.002229	
298.15	.7	.002408	
298.15	.8	.002608	
298.15	.9	.00284	
298.15	1	.003085	
303.15	0	.001313	
303.15	.1	.001407	
303.15	.2	.001513	
303.15	.3	.001623	
303.15	.4	.001744	
303.15	.4999	.001875	
303.15	.6	.002019	
303.15	.7	.002175	
303.15	.8	.002348	
303.15	.9	.002543	
303.15	1	.002756	
308.15	0	.001211	
308.15	.1	.001296	
308.15	.2	.001387	
308.15	.3	.00149	
308.15	.4	.001596	
308.15	.4999	.001712	
308.15	.6	.001837	
308.15	.7	.001974	
308.15	.8	.002124	
308.15	.9	.002291	
308.15	1	.002478	
313.15	0	.001121	
313.15	.1	.001197	
313.15	.2	.001279	
313.15	.3	.001371	
313.15	.4	.001467	
313.15	.4999	.00157	
313.15	.6	.00168	
313.15	.7	.001801	
313.15	.8	.001933	
313.15	.9	.002083	
313.15	1	.002239	
318.15	0	.001042	
318.15	.1	.00111	
318.15	.2	.001185	
318.15	.3	.001267	
318.15	.4	.001351	
318.15	.4999	.001444	
318.15	.6	.001543	
318.15	.7	.00165	
318.15	.8	.001766	
318.15	.9	.001897	
318.15	1	.002034	
323.15	0	.000971	
323.15	.1	.001034	
323.15	.2	.001101	
323.15	.3	.001172	
323.15	.4	.001251	
323.15	.4999	.001334	
323.15	.6	.001422	
323.15	.7	.001517	
323.15	.8	.00162	
323.15	.9	.001736	
323.15	1	.001857	

System: ethyl caprate + n-hexadecane; phases: Liquid
Fixed: Pressure, kPa = 100
Property: Mass density, kg/m3 (Liquid); method: Vibrating tube method
Temperature, K	Mole fraction of n-hexadecane	Mass density, kg/m3	uncertainty
298.15	0	860.05	
298.15	.1	848.4	
298.15	.2	837.44	
298.15	.3	827.17	
298.15	.4	817.5	
298.15	.5	808.41	
298.15	.6	799.81	
298.15	.7	791.69	
298.15	.8	783.98	
298.15	.9	776.78	
298.15	1	769.92	
303.15	0	855.99	
303.15	.1	844.41	
303.15	.2	833.53	
303.15	.3	823.32	
303.15	.4	813.71	
303.15	.5	804.69	
303.15	.6	796.15	
303.15	.7	788.08	
303.15	.8	780.42	
303.15	.9	773.27	
303.15	1	766.51	
308.15	0	851.92	
308.15	.1	840.42	
308.15	.2	829.61	
308.15	.3	819.48	
308.15	.4	809.93	
308.15	.5	800.96	
308.15	.6	792.49	
308.15	.7	784.47	
308.15	.8	776.87	
308.15	.9	769.76	
308.15	1	763.06	
313.15	0	847.85	
313.15	.1	836.43	
313.15	.2	825.69	
313.15	.3	815.62	
313.15	.4	806.15	
313.15	.5	797.24	
313.15	.6	788.82	
313.15	.7	780.86	
313.15	.8	773.31	
313.15	.9	766.26	
313.15	1	759.6	
318.15	0	843.77	
318.15	.1	832.43	
318.15	.2	821.76	
318.15	.3	811.77	
318.15	.4	802.35	
318.15	.5	793.51	
318.15	.6	785.15	
318.15	.7	777.25	
318.15	.8	769.76	
318.15	.9	762.74	
318.15	1	756.14	
323.15	0	839.69	
323.15	.1	828.42	
323.15	.2	817.83	
323.15	.3	807.9	
323.15	.4	798.56	
323.15	.5	789.78	
323.15	.6	781.48	
323.15	.7	773.64	
323.15	.8	766.2	
323.15	.9	759.24	
323.15	1	752.68	

System: ethyl caprate + n-hexadecane; phases: Liquid
Fixed: Pressure, kPa = 100
Property: Viscosity, Pa*s (Liquid); method: Capillary tube (Ostwald; Ubbelohde) method
Temperature, K	Mole fraction of n-hexadecane	Viscosity, Pa*s	uncertainty
298.15	0	.002115	
298.15	.1	.002169	
298.15	.2	.00223	
298.15	.3	.002298	
298.15	.4	.002374	
298.15	.5	.00246	
298.15	.6	.002556	
298.15	.7	.002664	
298.15	.8	.002785	
298.15	.9	.002923	
298.15	1	.003085	
303.15	0	.001919	
303.15	.1	.001966	
303.15	.2	.002019	
303.15	.3	.002079	
303.15	.4	.002144	
303.15	.5	.002219	
303.15	.6	.002303	
303.15	.7	.002396	
303.15	.8	.002501	
303.15	.9	.002618	
303.15	1	.002756	
308.15	0	.00175	
308.15	.1	.00179	
308.15	.2	.001837	
308.15	.3	.00189	
308.15	.4	.001948	
308.15	.5	.002013	
308.15	.6	.002086	
308.15	.7	.002167	
308.15	.8	.002257	
308.15	.9	.002358	
308.15	1	.002478	
313.15	0	.001603	
313.15	.1	.001639	
313.15	.2	.00168	
313.15	.3	.001726	
313.15	.4	.001777	
313.15	.5	.001835	
313.15	.6	.001899	
313.15	.7	.00197	
313.15	.8	.002049	
313.15	.9	.002137	
313.15	1	.002239	
318.15	0	.001474	
318.15	.1	.001506	
318.15	.2	.001544	
318.15	.3	.001585	
318.15	.4	.00163	
318.15	.5	.00168	
318.15	.6	.001737	
318.15	.7	.001799	
318.15	.8	.001869	
318.15	.9	.001947	
318.15	1	.002034	
323.15	0	.001362	
323.15	.1	.00139	
323.15	.2	.001423	
323.15	.3	.00146	
323.15	.4	.001501	
323.15	.5	.001546	
323.15	.6	.001595	
323.15	.7	.001651	
323.15	.8	.001712	
323.15	.9	.001779	
323.15	1	.001857	

System: ethyl laurate + n-hexadecane; phases: Liquid
Fixed: Pressure, kPa = 100
Property: Mass density, kg/m3 (Liquid); method: Vibrating tube method
Temperature, K	Mole fraction of n-hexadecane	Mass density, kg/m3	uncertainty
298.15	0	858.19	
298.15	.1	848.2	
298.15	.2	838.49	
298.15	.3	829.03	
298.15	.4	819.83	
298.15	.5	810.88	
298.15	.6	802.18	
298.15	.7	793.76	
298.15	.7999	785.59	
298.15	.9	777.65	
298.15	1	769.92	
303.15	0	854.3	
303.15	.1	844.34	
303.15	.2	834.69	
303.15	.3	825.27	
303.15	.4	816.11	
303.15	.5	807.21	
303.15	.6	798.55	
303.15	.7	790.18	
303.15	.7999	782.04	
303.15	.9	774.14	
303.15	1	766.51	
308.15	0	850.4	
308.15	.1	840.49	
308.15	.2	830.88	
308.15	.3	821.51	
308.15	.4	812.4	
308.15	.5	803.54	
308.15	.6	794.93	
308.15	.7	786.59	
308.15	.7999	778.5	
308.15	.9	770.64	
308.15	1	763.06	
313.15	0	846.5	
313.15	.1	836.63	
313.15	.2	827.07	
313.15	.3	817.75	
313.15	.4	808.68	
313.15	.5	799.87	
313.15	.6	791.3	
313.15	.7	783.01	
313.15	.7999	774.96	
313.15	.9	767.14	
313.15	1	759.6	
318.15	0	842.6	
318.15	.1	832.77	
318.15	.2	823.26	
318.15	.3	813.99	
318.15	.4	804.97	
318.15	.5	796.19	
318.15	.6	787.68	
318.15	.7	779.43	
318.15	.7999	771.42	
318.15	.9	763.64	
318.15	1	756.14	
323.15	0	838.7	
323.15	.1	828.91	
323.15	.2	819.45	
323.15	.3	810.22	
323.15	.4	801.25	
323.15	.5	792.52	
323.15	.6	784.05	
323.15	.7	775.84	
323.15	.7999	767.88	
323.15	.9	760.14	
323.15	1	752.68	

System: ethyl laurate + n-hexadecane; phases: Liquid
Fixed: Pressure, kPa = 100
Property: Viscosity, Pa*s (Liquid); method: Capillary tube (Ostwald; Ubbelohde) method
Temperature, K	Mole fraction of n-hexadecane	Viscosity, Pa*s	uncertainty
298.15	0	.003015	
298.15	.1	.002977	
298.15	.2	.002954	
298.15	.3	.002935	
298.15	.4	.002925	
298.15	.5	.002923	
298.15	.6	.002933	
298.15	.7	.002952	
298.15	.7999	.00298	
298.15	.9	.003024	
298.15	1	.003085	
303.15	0	.002704	
303.15	.1	.002673	
303.15	.2	.00265	
303.15	.3	.002632	
303.15	.4	.002624	
303.15	.5	.002623	
303.15	.6	.002629	
303.15	.7	.002645	
303.15	.7999	.002668	
303.15	.9	.002706	
303.15	1	.002756	
308.15	0	.002439	
308.15	.1	.002412	
308.15	.2	.002392	
308.15	.3	.002377	
308.15	.4	.002368	
308.15	.5	.002367	
308.15	.6	.002372	
308.15	.7	.002384	
308.15	.7999	.002403	
308.15	.9	.002433	
308.15	1	.002478	
313.15	0	.002213	
313.15	.1	.002188	
313.15	.2	.002169	
313.15	.3	.002155	
313.15	.4	.002149	
313.15	.5	.002146	
313.15	.6	.00215	
313.15	.7	.00216	
313.15	.7999	.002179	
313.15	.9	.002203	
313.15	1	.002239	
318.15	0	.002016	
318.15	.1	.001996	
318.15	.2	.001978	
318.15	.3	.001966	
318.15	.4	.001959	
318.15	.5	.001957	
318.15	.6	.001959	
318.15	.7	.001967	
318.15	.7999	.001981	
318.15	.9	.002003	
318.15	1	.002034	
323.15	0	.001846	
323.15	.1	.001832	
323.15	.2	.001813	
323.15	.3	.001801	
323.15	.4	.001795	
323.15	.5	.001793	
323.15	.6	.001795	
323.15	.7	.0018	
323.15	.7999	.001813	
323.15	.9	.001833	
323.15	1	.001857	
