Measured thermophysical data. Low pressure carbon dioxide solubility in pure electrolyte solvents for lithium-ion batteries as a function of temperature. Measurement and prediction
Source: J. Chem. Thermodyn., 2012, 10.1016/j.jct.2012.01.027
Compound 1: 1,3-dioxolan-2-one, C3H4O3, purity 99.99%
Compound 2: 1,3-dioxolan-2-one, 4-methyl-, C4H6O3, purity 99.99%
Compound 3: dimethyl carbonate, C3H6O3, purity 99.99%
Compound 4: ethyl methyl carbonate, C4H8O3, purity 99.99%
Compound 5: carbonic acid, diethyl ester, C5H10O3, purity 99.99%
Compound 6: butanoic acid, 4-hydroxy-, .gamma.-lactone, C4H6O2, purity 99.99%
Compound 7: ethyl ethanoate, C4H8O2, purity 99.99%
Compound 8: propionic acid, methyl ester, C4H8O2, purity 99.99%
Compound 9: carbon dioxide, CO2, purity 99.995%

System: 1,3-dioxolan-2-one + carbon dioxide; phases: Liquid, Gas
Fixed: Pressure, kPa = 101
Property: Mole fraction of carbon dioxide (Liquid); method: Titration method
Temperature, K	Mole fraction of carbon dioxide	uncertainty
298.15	.00573	.000005
353.15	.00274	.000005

System: 1,3-dioxolan-2-one, 4-methyl- + carbon dioxide; phases: Liquid, Gas
Fixed: Pressure, kPa = 101
Property: Mole fraction of carbon dioxide (Liquid); method: Titration method
Temperature, K	Mole fraction of carbon dioxide	uncertainty
283.15	.01496	.000005
298.15	.01088	.000005
333.15	.00598	.000005
353.15	.00461	.000005

System: carbon dioxide + dimethyl carbonate; phases: Liquid, Gas
Fixed: Pressure, kPa = 101
Property: Mole fraction of carbon dioxide (Liquid); method: Titration method
Temperature, K	Mole fraction of carbon dioxide	uncertainty
283.15	.01946	.000005
298.15	.01361	.000005
316.15	.00913	.000005
333.15	.0069	.000005
353.15	.00504	.000005

System: carbon dioxide + ethyl methyl carbonate; phases: Liquid, Gas
Fixed: Pressure, kPa = 101
Property: Mole fraction of carbon dioxide (Liquid); method: Titration method
Temperature, K	Mole fraction of carbon dioxide	uncertainty
283.15	.02263	.000005
298.15	.01696	.000005
313.15	.01385	.000005
333.15	.00912	.000005
353.15	.00745	.000005

System: carbonic acid, diethyl ester + carbon dioxide; phases: Liquid, Gas
Fixed: Pressure, kPa = 101
Property: Mole fraction of carbon dioxide (Liquid); method: Titration method
Temperature, K	Mole fraction of carbon dioxide	uncertainty
283.15	.02128	.000005
298.15	.01652	.000005
316.15	.01252	.000005
333.15	.01002	.000005
353.15	.0079	.000005

System: butanoic acid, 4-hydroxy-, .gamma.-lactone + carbon dioxide; phases: Liquid, Gas
Fixed: Pressure, kPa = 101
Property: Mole fraction of carbon dioxide (Liquid); method: Titration method
Temperature, K	Mole fraction of carbon dioxide	uncertainty
283.15	.01167	.000005
298.15	.00862	.000005
313.15	.00635	.000005
333.15	.00454	.000005
353.15	.00344	.000005

System: carbon dioxide + ethyl ethanoate; phases: Liquid, Gas
Fixed: Pressure, kPa = 101
Property: Mole fraction of carbon dioxide (Liquid); method: Titration method
Temperature, K	Mole fraction of carbon dioxide	uncertainty
283.15	.02864	.000005
298.15	.01977	.000005
313.15	.0149	.000005
333.15	.01086	.000005

System: carbon dioxide + propionic acid, methyl ester; phases: Liquid, Gas
Fixed: Pressure, kPa = 101
Property: Mole fraction of carbon dioxide (Liquid); method: Titration method
Temperature, K	Mole fraction of carbon dioxide	uncertainty
283.15	.0307	.000005
298.15	.0214	.000005
313.15	.01536	.000005
333.15	.01001	.000005
