Measured thermophysical data. Measurement of activity coefficients at infinite dilution of organic solutes in the ionic liquid 1-ethyl-3-methylimidazolium 2-(2-methoxyethoxy) ethylsulfate at T = (308.15, 313.15, 323.15 and 333.15) K using gas + liquid chromatography
Source: J. Chem. Thermodyn., 2014, 10.1016/j.jct.2013.10.017
Compound 1: 1-ethyl-3-methylimidazolium 2-(2-methoxyethoxy) ethylsulfate, C11H22N2O6S, purity 98%
Compound 2: pentane, C5H12, purity 99%
Compound 3: hexane, C6H14, purity 99%
Compound 4: heptane, C7H16, purity 99%
Compound 5: octane, C8H18, purity 99%
Compound 6: nonane, C9H20, purity 99%
Compound 7: cyclopentane, C5H10, purity 99%
Compound 8: cyclohexane, C6H12, purity 99%
Compound 9: cycloheptane, C7H14, purity 98%
Compound 10: cyclooctane, C8H16, purity 99%
Compound 11: methylcyclohexane, C7H14, purity 99%
Compound 12: 1-pentene, C5H10, purity 98%
Compound 13: 1-hexene, C6H12, purity 99%
Compound 14: 1-heptene, C7H14, purity 90%
Compound 15: 1-octene, C8H16, purity 97%
Compound 16: 1-nonene, C9H18, purity 99%
Compound 17: 1-pentyne, C5H8, purity 99%
Compound 18: 1-hexyne, C6H10, purity 97%
Compound 19: 1-heptyne, C7H12, purity 98%
Compound 20: 1-octyne, C8H14, purity 98%
Compound 21: 1-nonyne, C9H16, purity 99%
Compound 22: benzene, C6H6, purity 99%
Compound 23: toluene, C7H8, purity 99%
Compound 24: ethylbenzene, C8H10, purity 99%
Compound 25: methanol, CH4O, purity 99%
Compound 26: ethanol, C2H6O, purity 99%
Compound 27: 1-propanol, C3H8O, purity 99%
Compound 28: acetone, C3H6O, purity 99%
Compound 29: 2-butanone, C4H8O, purity 99%

System: 1-ethyl-3-methylimidazolium 2-(2-methoxyethoxy) ethylsulfate; phases: Liquid
Fixed: Pressure, kPa = 101.325
Property: Mass density, kg/m3 (Liquid); method: Vibrating tube method
Temperature, K	Mass density, kg/m3	uncertainty
308.2	1230.4	.03
313.2	1226.21	.03
323.2	1219.6	.03
333.2	1213.66	.03

System: 1-ethyl-3-methylimidazolium 2-(2-methoxyethoxy) ethylsulfate; phases: Liquid
Fixed: Pressure, kPa = 101.325
Property: Refractive index (Na D-line) (Liquid); method: Standard Abbe refractometry
Temperature, K	Refractive index (Na D-line)	uncertainty
308.2	1.47929	.00002
313.2	1.47565	.00002
323.2	1.47281	.00002
333.2	1.46995	.00002

System: pentane + 1-ethyl-3-methylimidazolium 2-(2-methoxyethoxy) ethylsulfate; phases: Liquid
Fixed: Pressure, kPa = 100
Fixed: Mole fraction of pentane = 0
Property: Activity coefficient of pentane (Liquid); method: Chromatography
Temperature, K	Activity coefficient of pentane	uncertainty
308.15	65.8	3.9
313.15	65.6	3.4
323.15	60.8	2.1
333.15	59	4.7

System: hexane + 1-ethyl-3-methylimidazolium 2-(2-methoxyethoxy) ethylsulfate; phases: Liquid
Fixed: Pressure, kPa = 100
Fixed: Mole fraction of hexane = 0
Property: Activity coefficient of hexane (Liquid); method: Chromatography
Temperature, K	Activity coefficient of hexane	uncertainty
308.15	103	3.5
313.15	102	3.6
323.15	94	4.1
333.15	85.7	6.8

System: heptane + 1-ethyl-3-methylimidazolium 2-(2-methoxyethoxy) ethylsulfate; phases: Liquid
Fixed: Pressure, kPa = 100
Fixed: Mole fraction of heptane = 0
Property: Activity coefficient of heptane (Liquid); method: Chromatography
Temperature, K	Activity coefficient of heptane	uncertainty
308.15	158.1	4.8
313.15	157.6	6
323.15	146.6	4.7
333.15	138.8	4.1

System: octane + 1-ethyl-3-methylimidazolium 2-(2-methoxyethoxy) ethylsulfate; phases: Liquid
Fixed: Pressure, kPa = 100
Fixed: Mole fraction of octane = 0
Property: Activity coefficient of octane (Liquid); method: Chromatography
Temperature, K	Activity coefficient of octane	uncertainty
308.15	215.2	6.8
313.15	216.2	6.8
323.15	212.2	7.5
333.15	201.5	7.9

System: nonane + 1-ethyl-3-methylimidazolium 2-(2-methoxyethoxy) ethylsulfate; phases: Liquid
Fixed: Pressure, kPa = 100
Fixed: Mole fraction of nonane = 0
Property: Activity coefficient of nonane (Liquid); method: Chromatography
Temperature, K	Activity coefficient of nonane	uncertainty
308.15	291.7	12.7
313.15	302.6	9.3
323.15	288.4	17.7
333.15	280.9	8.5

System: cyclopentane + 1-ethyl-3-methylimidazolium 2-(2-methoxyethoxy) ethylsulfate; phases: Liquid
Fixed: Pressure, kPa = 100
Fixed: Mole fraction of cyclopentane = 0
Property: Activity coefficient of cyclopentane (Liquid); method: Chromatography
Temperature, K	Activity coefficient of cyclopentane	uncertainty
308.15	27.1	1
313.15	26	1.2
323.15	24.1	1.8
333.15	22.8	1.2

System: cyclohexane + 1-ethyl-3-methylimidazolium 2-(2-methoxyethoxy) ethylsulfate; phases: Liquid
Fixed: Pressure, kPa = 100
Fixed: Mole fraction of cyclohexane = 0
Property: Activity coefficient of cyclohexane (Liquid); method: Chromatography
Temperature, K	Activity coefficient of cyclohexane	uncertainty
308.15	45.4	1.5
313.15	45	2.5
323.15	41.5	2.9
333.15	38.8	3.9

System: cycloheptane + 1-ethyl-3-methylimidazolium 2-(2-methoxyethoxy) ethylsulfate; phases: Liquid
Fixed: Pressure, kPa = 100
Fixed: Mole fraction of cycloheptane = 0
Property: Activity coefficient of cycloheptane (Liquid); method: Chromatography
Temperature, K	Activity coefficient of cycloheptane	uncertainty
308.15	60.3	2.1
313.15	58.7	2.5
323.15	54.1	3.4
333.15	50.6	4.7

System: cyclooctane + 1-ethyl-3-methylimidazolium 2-(2-methoxyethoxy) ethylsulfate; phases: Liquid
Fixed: Pressure, kPa = 100
Fixed: Mole fraction of cyclooctane = 0
Property: Activity coefficient of cyclooctane (Liquid); method: Chromatography
Temperature, K	Activity coefficient of cyclooctane	uncertainty
308.15	82.6	2.5
313.15	79.8	2.5
323.15	73.4	3.6
333.15	68.2	5.8

System: methylcyclohexane + 1-ethyl-3-methylimidazolium 2-(2-methoxyethoxy) ethylsulfate; phases: Liquid
Fixed: Pressure, kPa = 100
Fixed: Mole fraction of methylcyclohexane = 0
Property: Activity coefficient of methylcyclohexane (Liquid); method: Chromatography
Temperature, K	Activity coefficient of methylcyclohexane	uncertainty
308.15	71.9	2.2
313.15	70.6	2.4
323.15	65.8	3.5
333.15	62.3	5.3

System: 1-pentene + 1-ethyl-3-methylimidazolium 2-(2-methoxyethoxy) ethylsulfate; phases: Liquid
Fixed: Pressure, kPa = 100
Fixed: Mole fraction of 1-pentene = 0
Property: Activity coefficient of 1-pentene (Liquid); method: Chromatography
Temperature, K	Activity coefficient of 1-pentene	uncertainty
308.15	26.1	2.2
313.15	26.5	1.2
323.15	26.3	1.8
333.15	25.4	1.8

System: 1-hexene + 1-ethyl-3-methylimidazolium 2-(2-methoxyethoxy) ethylsulfate; phases: Liquid
Fixed: Pressure, kPa = 100
Fixed: Mole fraction of 1-hexene = 0
Property: Activity coefficient of 1-hexene (Liquid); method: Chromatography
Temperature, K	Activity coefficient of 1-hexene	uncertainty
308.15	45.6	1.9
313.15	44.7	1.6
323.15	43.4	3.8
333.15	40.3	2.9

System: 1-heptene + 1-ethyl-3-methylimidazolium 2-(2-methoxyethoxy) ethylsulfate; phases: Liquid
Fixed: Pressure, kPa = 100
Fixed: Mole fraction of 1-heptene = 0
Property: Activity coefficient of 1-heptene (Liquid); method: Chromatography
Temperature, K	Activity coefficient of 1-heptene	uncertainty
308.15	71.3	4.1
313.15	71.7	2.2
323.15	68.6	4.2
333.15	65.6	5.7

System: 1-octene + 1-ethyl-3-methylimidazolium 2-(2-methoxyethoxy) ethylsulfate; phases: Liquid
Fixed: Pressure, kPa = 100
Fixed: Mole fraction of 1-octene = 0
Property: Activity coefficient of 1-octene (Liquid); method: Chromatography
Temperature, K	Activity coefficient of 1-octene	uncertainty
308.15	113.5	4.1
313.15	113.3	4.8
323.15	107.4	4.3
333.15	101	7.3

System: 1-nonene + 1-ethyl-3-methylimidazolium 2-(2-methoxyethoxy) ethylsulfate; phases: Liquid
Fixed: Pressure, kPa = 100
Fixed: Mole fraction of 1-nonene = 0
Property: Activity coefficient of 1-nonene (Liquid); method: Chromatography
Temperature, K	Activity coefficient of 1-nonene	uncertainty
308.15	167.8	5.1
313.15	167.9	7.2
323.15	159.9	4.7
333.15	149.4	7.4

System: 1-pentyne + 1-ethyl-3-methylimidazolium 2-(2-methoxyethoxy) ethylsulfate; phases: Liquid
Fixed: Pressure, kPa = 100
Fixed: Mole fraction of 1-pentyne = 0
Property: Activity coefficient of 1-pentyne (Liquid); method: Chromatography
Temperature, K	Activity coefficient of 1-pentyne	uncertainty
308.15	3.62	.15
313.15	3.74	.22
323.15	3.98	.38
333.15	4.13	.38

System: 1-hexyne + 1-ethyl-3-methylimidazolium 2-(2-methoxyethoxy) ethylsulfate; phases: Liquid
Fixed: Pressure, kPa = 100
Fixed: Mole fraction of 1-hexyne = 0
Property: Activity coefficient of 1-hexyne (Liquid); method: Chromatography
Temperature, K	Activity coefficient of 1-hexyne	uncertainty
308.15	6.05	.25
313.15	6.22	.32
323.15	6.49	.52
333.15	6.73	.61

System: 1-heptyne + 1-ethyl-3-methylimidazolium 2-(2-methoxyethoxy) ethylsulfate; phases: Liquid
Fixed: Pressure, kPa = 100
Fixed: Mole fraction of 1-heptyne = 0
Property: Activity coefficient of 1-heptyne (Liquid); method: Chromatography
Temperature, K	Activity coefficient of 1-heptyne	uncertainty
308.15	9.61	.36
313.15	9.76	.46
323.15	10.05	.76
333.15	10.35	.95

System: 1-octyne + 1-ethyl-3-methylimidazolium 2-(2-methoxyethoxy) ethylsulfate; phases: Liquid
Fixed: Pressure, kPa = 100
Fixed: Mole fraction of 1-octyne = 0
Property: Activity coefficient of 1-octyne (Liquid); method: Chromatography
Temperature, K	Activity coefficient of 1-octyne	uncertainty
308.15	16.4	.5
313.15	16.7	.7
323.15	17.1	1.2
333.15	17.4	1.6

System: 1-nonyne + 1-ethyl-3-methylimidazolium 2-(2-methoxyethoxy) ethylsulfate; phases: Liquid
Fixed: Pressure, kPa = 100
Fixed: Mole fraction of 1-nonyne = 0
Property: Activity coefficient of 1-nonyne (Liquid); method: Chromatography
Temperature, K	Activity coefficient of 1-nonyne	uncertainty
308.15	23.9	.7
313.15	24.7	.8
323.15	25.7	1.7
333.15	26.4	2.2

System: benzene + 1-ethyl-3-methylimidazolium 2-(2-methoxyethoxy) ethylsulfate; phases: Liquid
Fixed: Pressure, kPa = 100
Fixed: Mole fraction of benzene = 0
Property: Activity coefficient of benzene (Liquid); method: Chromatography
Temperature, K	Activity coefficient of benzene	uncertainty
308.15	2.31	.09
313.15	2.33	.13
323.15	2.41	.16
333.15	2.48	.2

System: toluene + 1-ethyl-3-methylimidazolium 2-(2-methoxyethoxy) ethylsulfate; phases: Liquid
Fixed: Pressure, kPa = 100
Fixed: Mole fraction of toluene = 0
Property: Activity coefficient of toluene (Liquid); method: Chromatography
Temperature, K	Activity coefficient of toluene	uncertainty
308.15	4.43	.16
313.15	4.45	.23
323.15	4.51	.3
333.15	4.62	.42

System: ethylbenzene + 1-ethyl-3-methylimidazolium 2-(2-methoxyethoxy) ethylsulfate; phases: Liquid
Fixed: Pressure, kPa = 100
Fixed: Mole fraction of ethylbenzene = 0
Property: Activity coefficient of ethylbenzene (Liquid); method: Chromatography
Temperature, K	Activity coefficient of ethylbenzene	uncertainty
308.15	8.04	.27
313.15	8.04	.39
323.15	8.06	.55
333.15	8.17	.69

System: methanol + 1-ethyl-3-methylimidazolium 2-(2-methoxyethoxy) ethylsulfate; phases: Liquid
Fixed: Pressure, kPa = 100
Fixed: Mole fraction of methanol = 0
Property: Activity coefficient of methanol (Liquid); method: Chromatography
Temperature, K	Activity coefficient of methanol	uncertainty
308.15	.39	.012
313.15	.392	.012
323.15	.374	.02
333.15	.369	.011

System: ethanol + 1-ethyl-3-methylimidazolium 2-(2-methoxyethoxy) ethylsulfate; phases: Liquid
Fixed: Pressure, kPa = 100
Fixed: Mole fraction of ethanol = 0
Property: Activity coefficient of ethanol (Liquid); method: Chromatography
Temperature, K	Activity coefficient of ethanol	uncertainty
308.15	.719	.025
313.15	.705	.025
323.15	.664	.021
333.15	.666	.02

System: 1-propanol + 1-ethyl-3-methylimidazolium 2-(2-methoxyethoxy) ethylsulfate; phases: Liquid
Fixed: Pressure, kPa = 100
Fixed: Mole fraction of 1-propanol = 0
Property: Activity coefficient of 1-propanol (Liquid); method: Chromatography
Temperature, K	Activity coefficient of 1-propanol	uncertainty
308.15	1.006	.047
313.15	.989	.053
323.15	.942	.052
333.15	.913	.06

System: acetone + 1-ethyl-3-methylimidazolium 2-(2-methoxyethoxy) ethylsulfate; phases: Liquid
Fixed: Pressure, kPa = 100
Fixed: Mole fraction of acetone = 0
Property: Activity coefficient of acetone (Liquid); method: Chromatography
Temperature, K	Activity coefficient of acetone	uncertainty
308.15	1.42	.06
313.15	1.46	.06
323.15	1.47	.1
333.15	1.51	.12

System: 2-butanone + 1-ethyl-3-methylimidazolium 2-(2-methoxyethoxy) ethylsulfate; phases: Liquid
Fixed: Pressure, kPa = 100
Fixed: Mole fraction of 2-butanone = 0
Property: Activity coefficient of 2-butanone (Liquid); method: Chromatography
Temperature, K	Activity coefficient of 2-butanone	uncertainty
308.15	2.33	.1
313.15	2.34	.11
323.15	2.37	.16
333.15	2.42	.2
