Measured thermophysical data. Excess parameter studies on the binary mixtures of toluene with ketones at different temperatures
Source: J. Chem. Thermodyn., 2010, 10.1016/j.jct.2009.12.008
Compound 1: toluene, C7H8, purity 99.7%
Compound 2: propanone, C3H6O, purity 99.5%
Compound 3: ethyl methyl ketone, C4H8O, purity 99.5%
Compound 4: acetophenone, C8H8O, purity 99.5%

System: toluene; phases: Liquid
Fixed: Pressure, kPa = 101.325
Property: Mass density, kg/m3 (Liquid); method: Pycnometric method
Temperature, K	Mass density, kg/m3	uncertainty
298.15	860.9	.8609
303.15	856	.856
308.15	851.6	.8516

System: toluene; phases: Liquid
Fixed: Pressure, kPa = 101.325
Property: Viscosity, Pa*s (Liquid); method: Capillary tube (Ostwald; Ubbelohde) method
Temperature, K	Viscosity, Pa*s	uncertainty
298.15	.0005635	.0000050715
303.15	.0005344	.0000048096
308.15	.0005091	.0000045819

System: toluene; phases: Liquid
Fixed: Pressure, kPa = 101.325
Property: Speed of sound, m/s (Liquid); method: Linear variable-path acoustic interferometer
Temperature, K	Speed of sound, m/s	uncertainty
298.15	1299.8	.12998
303.15	1279.5	.12795
308.15	1260.7	.12607

System: propanone; phases: Liquid
Fixed: Pressure, kPa = 101.325
Property: Mass density, kg/m3 (Liquid); method: Pycnometric method
Temperature, K	Mass density, kg/m3	uncertainty
298.15	784.3	.7843
303.15	779	.779
308.15	773.5	.7735

System: propanone; phases: Liquid
Fixed: Pressure, kPa = 101.325
Property: Viscosity, Pa*s (Liquid); method: Capillary tube (Ostwald; Ubbelohde) method
Temperature, K	Viscosity, Pa*s	uncertainty
298.15	.0003027	.0000027243
303.15	.0002918	.0000026262
308.15	.0002809	.0000025281

System: propanone; phases: Liquid
Fixed: Pressure, kPa = 101.325
Property: Speed of sound, m/s (Liquid); method: Linear variable-path acoustic interferometer
Temperature, K	Speed of sound, m/s	uncertainty
298.15	1162	.1162
303.15	1141.2	.11412
308.15	1121.4	.11214

System: ethyl methyl ketone; phases: Liquid
Fixed: Pressure, kPa = 101.325
Property: Mass density, kg/m3 (Liquid); method: Pycnometric method
Temperature, K	Mass density, kg/m3	uncertainty
298.15	798.2	.7982
303.15	794.7	.7947
308.15	788.5	.7885

System: ethyl methyl ketone; phases: Liquid
Fixed: Pressure, kPa = 101.325
Property: Viscosity, Pa*s (Liquid); method: Capillary tube (Ostwald; Ubbelohde) method
Temperature, K	Viscosity, Pa*s	uncertainty
298.15	.0003856	.0000034704
303.15	.0003653	.0000032877
308.15	.000344	.000003096

System: ethyl methyl ketone; phases: Liquid
Fixed: Pressure, kPa = 101.325
Property: Speed of sound, m/s (Liquid); method: Linear variable-path acoustic interferometer
Temperature, K	Speed of sound, m/s	uncertainty
298.15	1191.6	.11916
303.15	1173.5	.11735
308.15	1153.8	.11538

System: acetophenone; phases: Liquid
Fixed: Pressure, kPa = 101.325
Property: Mass density, kg/m3 (Liquid); method: Pycnometric method
Temperature, K	Mass density, kg/m3	uncertainty
298.15	1022.4	1.0224
303.15	1017.9	1.0179
308.15	1013.5	1.0135

System: acetophenone; phases: Liquid
Fixed: Pressure, kPa = 101.325
Property: Viscosity, Pa*s (Liquid); method: Capillary tube (Ostwald; Ubbelohde) method
Temperature, K	Viscosity, Pa*s	uncertainty
298.15	.0016788	.0000151092
303.15	.0015328	.0000137952
308.15	.0014073	.0000126657

System: acetophenone; phases: Liquid
Fixed: Pressure, kPa = 101.325
Property: Speed of sound, m/s (Liquid); method: Linear variable-path acoustic interferometer
Temperature, K	Speed of sound, m/s	uncertainty
298.15	1476.2	.14762
303.15	1457.2	.14572
308.15	1441.2	.14412

System: propanone + toluene; phases: Liquid
Fixed: Pressure, kPa = 101
Property: Mass density, kg/m3 (Liquid); method: Pycnometric method
Temperature, K	Mole fraction of toluene	Mass density, kg/m3	uncertainty
298.15	0	784.3	.7843
298.15	.0702	792.5	.7925
298.15	.1468	801.3	.8013
298.15	.2269	810	.81
298.15	.3135	818.7	.8187
298.15	.4051	827	.827
298.15	.5072	834.4	.8344
298.15	.616	841.2	.8412
298.15	.7355	847.9	.8479
298.15	.8629	854.3	.8543
298.15	1	860.9	.8609
303.15	0	779	.779
303.15	.0702	787.6	.7876
303.15	.1468	796.7	.7967
303.15	.2269	805.7	.8057
303.15	.3135	814.4	.8144
303.15	.4051	822.7	.8227
303.15	.5072	830	.83
303.15	.616	836.9	.8369
303.15	.7355	843.6	.8436
303.15	.8629	849.8	.8498
303.15	1	856	.856
308.15	0	773.5	.7735
308.15	.0702	782.8	.7828
308.15	.1468	792.2	.7922
308.15	.2269	801.3	.8013
308.15	.3135	810.1	.8101
308.15	.4051	818.3	.8183
308.15	.5072	825.9	.8259
308.15	.616	832.9	.8329
308.15	.7355	839.6	.8396
308.15	.8629	845.8	.8458
308.15	1	851.6	.8516

System: propanone + toluene; phases: Liquid
Fixed: Pressure, kPa = 101
Property: Viscosity, Pa*s (Liquid); method: Capillary tube (Ostwald; Ubbelohde) method
Temperature, K	Mole fraction of toluene	Viscosity, Pa*s	uncertainty
298.15	0	.0003027	.0000027243
298.15	.0702	.0003418	.0000030762
298.15	.1468	.0003759	.0000033831
298.15	.2269	.0004076	.0000036684
298.15	.3135	.0004383	.0000039447
298.15	.4051	.0004662	.0000041958
298.15	.5072	.0004893	.0000044037
298.15	.616	.0005092	.0000045828
298.15	.7355	.0005293	.0000047637
298.15	.8629	.0005462	.0000049158
298.15	1	.0005635	.0000050715
303.15	0	.0002918	.0000026262
303.15	.0702	.0003218	.0000028962
303.15	.1468	.0003527	.0000031743
303.15	.2269	.000381	.000003429
303.15	.3135	.0004098	.0000036882
303.15	.4051	.0004358	.0000039222
303.15	.5072	.0004553	.0000040977
303.15	.616	.000475	.000004275
303.15	.7355	.0004947	.0000044523
303.15	.8629	.0005144	.0000046296
303.15	1	.0005344	.0000048096
308.15	0	.0002809	.0000025281
308.15	.0702	.0003021	.0000027189
308.15	.1468	.0003267	.0000029403
308.15	.2269	.0003517	.0000031653
308.15	.3135	.0003785	.0000034065
308.15	.4051	.000404	.000003636
308.15	.5072	.000425	.000003825
308.15	.616	.0004443	.0000039987
308.15	.7355	.0004638	.0000041742
308.15	.8629	.0004848	.0000043632
308.15	1	.0005091	.0000045819

System: propanone + toluene; phases: Liquid
Fixed: Pressure, kPa = 101
Property: Speed of sound, m/s (Liquid); method: Linear variable-path acoustic interferometer
Temperature, K	Mole fraction of toluene	Speed of sound, m/s	uncertainty
298.15	0	1162	.1162
298.15	.0702	1174.8	.11748
298.15	.1468	1188.7	.11887
298.15	.2269	1202.5	.12025
298.15	.3135	1216.6	.12166
298.15	.4051	1230.8	.12308
298.15	.5072	1244.7	.12447
298.15	.616	1258	.1258
298.15	.7355	1271.8	.12718
298.15	.8629	1285.8	.12858
298.15	1	1299.8	.12998
303.15	0	1141.2	.11412
303.15	.0702	1152.9	.11529
303.15	.1468	1166.1	.11661
303.15	.2269	1179.5	.11795
303.15	.3135	1193.4	.11934
303.15	.4051	1207.4	.12074
303.15	.5072	1221	.1221
303.15	.616	1234.7	.12347
303.15	.7355	1249.2	.12492
303.15	.8629	1264.2	.12642
303.15	1	1279.5	.12795
308.15	0	1121.4	.11214
308.15	.0702	1132.7	.11327
308.15	.1468	1145.3	.11453
308.15	.2269	1158.5	.11585
308.15	.3135	1172.4	.11724
308.15	.4051	1186.4	.11864
308.15	.5072	1200	.12
308.15	.616	1214	.1214
308.15	.7355	1228.8	.12288
308.15	.8629	1244.3	.12443
308.15	1	1260.7	.12607

System: ethyl methyl ketone + toluene; phases: Liquid
Fixed: Pressure, kPa = 101
Property: Mass density, kg/m3 (Liquid); method: Pycnometric method
Temperature, K	Mole fraction of toluene	Mass density, kg/m3	uncertainty
298.15	0	798.2	.7982
298.15	.0856	805.3	.8053
298.15	.1724	812.3	.8123
298.15	.2624	819.3	.8193
298.15	.337	824.8	.8248
298.15	.433	831.4	.8314
298.15	.5555	838.8	.8388
298.15	.66	844.6	.8446
298.15	.769	850.3	.8503
298.15	.8831	855.8	.8558
298.15	1	860.9	.8609
303.15	0	794.7	.7947
303.15	.0856	802	.802
303.15	.1724	809.1	.8091
303.15	.2624	816	.816
303.15	.337	821.4	.8214
303.15	.433	827.8	.8278
303.15	.5555	835	.835
303.15	.66	840.7	.8407
303.15	.769	846.2	.8462
303.15	.8831	851.4	.8514
303.15	1	856	.856
308.15	0	788.5	.7885
308.15	.0856	796.3	.7963
308.15	.1724	803.8	.8038
308.15	.2624	810.9	.8109
308.15	.337	816.5	.8165
308.15	.433	823	.823
308.15	.5555	830.4	.8304
308.15	.66	836.2	.8362
308.15	.769	841.9	.8419
308.15	.8831	847.2	.8472
308.15	1	851.6	.8516

System: ethyl methyl ketone + toluene; phases: Liquid
Fixed: Pressure, kPa = 101
Property: Viscosity, Pa*s (Liquid); method: Capillary tube (Ostwald; Ubbelohde) method
Temperature, K	Mole fraction of toluene	Viscosity, Pa*s	uncertainty
298.15	0	.0003856	.0000034704
298.15	.0856	.0004052	.0000036468
298.15	.1724	.0004244	.0000038196
298.15	.2624	.0004439	.0000039951
298.15	.337	.0004594	.0000041346
298.15	.433	.0004781	.0000043029
298.15	.5555	.0004987	.0000044883
298.15	.66	.0005145	.0000046305
298.15	.769	.0005308	.0000047772
298.15	.8831	.0005472	.0000049248
298.15	1	.0005635	.0000050715
303.15	0	.0003653	.0000032877
303.15	.0856	.0003822	.0000034398
303.15	.1724	.0003996	.0000035964
303.15	.2624	.0004176	.0000037584
303.15	.337	.000432	.000003888
303.15	.433	.0004494	.0000040446
303.15	.5555	.0004688	.0000042192
303.15	.66	.0004844	.0000043596
303.15	.769	.0005002	.0000045018
303.15	.8831	.0005168	.0000046512
303.15	1	.0005344	.0000048096
308.15	0	.000344	.000003096
308.15	.0856	.0003593	.0000032337
308.15	.1724	.0003756	.0000033804
308.15	.2624	.0003922	.0000035298
308.15	.337	.0004061	.0000036549
308.15	.433	.000423	.000003807
308.15	.5555	.0004417	.0000039753
308.15	.66	.0004575	.0000041175
308.15	.769	.0004738	.0000042642
308.15	.8831	.0004909	.0000044181
308.15	1	.0005091	.0000045819

System: ethyl methyl ketone + toluene; phases: Liquid
Fixed: Pressure, kPa = 101
Property: Speed of sound, m/s (Liquid); method: Linear variable-path acoustic interferometer
Temperature, K	Mole fraction of toluene	Speed of sound, m/s	uncertainty
298.15	0	1191.6	.11916
298.15	.0856	1205.5	.12055
298.15	.1724	1218.5	.12185
298.15	.2624	1231.6	.12316
298.15	.337	1241.7	.12417
298.15	.433	1253.4	.12534
298.15	.5555	1264.8	.12648
298.15	.66	1273.5	.12735
298.15	.769	1282.2	.12822
298.15	.8831	1291.2	.12912
298.15	1	1299.8	.12998
303.15	0	1173.5	.11735
303.15	.0856	1185.9	.11859
303.15	.1724	1198.2	.11982
303.15	.2624	1210.5	.12105
303.15	.337	1220.3	.12203
303.15	.433	1231.5	.12315
303.15	.5555	1242.9	.12429
303.15	.66	1251.8	.12518
303.15	.769	1260.7	.12607
303.15	.8831	1269.8	.12698
303.15	1	1279.5	.12795
308.15	0	1153.8	.11538
308.15	.0856	1165.1	.11651
308.15	.1724	1176.8	.11768
308.15	.2624	1188.9	.11889
308.15	.337	1198.7	.11987
308.15	.433	1210.3	.12103
308.15	.5555	1221.9	.12219
308.15	.66	1231.1	.12311
308.15	.769	1240.3	.12403
308.15	.8831	1250.2	.12502
308.15	1	1260.7	.12607

System: acetophenone + toluene; phases: Liquid
Fixed: Pressure, kPa = 101
Property: Mass density, kg/m3 (Liquid); method: Pycnometric method
Temperature, K	Mole fraction of toluene	Mass density, kg/m3	uncertainty
298.15	0	1022.4	1.0224
298.15	.1093	1006.8	1.0068
298.15	.2145	991.7	.9917
298.15	.3206	975.9	.9759
298.15	.4281	959.5	.9595
298.15	.5229	944.5	.9445
298.15	.6213	928.2	.9282
298.15	.7157	912.1	.9121
298.15	.8392	890.4	.8904
298.15	.9074	878	.878
298.15	1	860.9	.8609
303.15	0	1017.9	1.0179
303.15	.1093	1002.7	1.0027
303.15	.2145	987.4	.9874
303.15	.3206	971.7	.9717
303.15	.4281	955.1	.9551
303.15	.5229	940	.94
303.15	.6213	923.7	.9237
303.15	.7157	907.6	.9076
303.15	.8392	885.9	.8859
303.15	.9074	873.5	.8735
303.15	1	856	.856
308.15	0	1013.5	1.0135
308.15	.1093	998.7	.9987
308.15	.2145	983.5	.9835
308.15	.3206	967.8	.9678
308.15	.4281	951.1	.9511
308.15	.5229	936	.936
308.15	.6213	919.6	.9196
308.15	.7157	903.5	.9035
308.15	.8392	881.8	.8818
308.15	.9074	869.5	.8695
308.15	1	851.6	.8516

System: acetophenone + toluene; phases: Liquid
Fixed: Pressure, kPa = 101
Property: Viscosity, Pa*s (Liquid); method: Capillary tube (Ostwald; Ubbelohde) method
Temperature, K	Mole fraction of toluene	Viscosity, Pa*s	uncertainty
298.15	0	.0016788	.0000151092
298.15	.1093	.0015606	.0000140454
298.15	.2145	.0014457	.0000130113
298.15	.3206	.0013292	.0000119628
298.15	.4281	.0012105	.0000108945
298.15	.5229	.0011055	.0000099495
298.15	.6213	.0009949	.0000089541
298.15	.7157	.0008879	.0000079911
298.15	.8392	.0007472	.0000067248
298.15	.9074	.0006694	.0000060246
298.15	1	.0005635	.0000050715
303.15	0	.0015328	.0000137952
303.15	.1093	.0014257	.0000128313
303.15	.2145	.0013225	.0000119025
303.15	.3206	.001218	.000010962
303.15	.4281	.0011121	.0000100089
303.15	.5229	.001018	.000009162
303.15	.6213	.0009188	.0000082692
303.15	.7157	.0008233	.0000074097
303.15	.8392	.0006978	.0000062802
303.15	.9074	.0006286	.0000056574
303.15	1	.0005344	.0000048096
308.15	0	.0014073	.0000126657
308.15	.1093	.0013102	.0000117918
308.15	.2145	.001217	.000010953
308.15	.3206	.0011228	.0000101052
308.15	.4281	.0010272	.0000092448
308.15	.5229	.0009425	.0000084825
308.15	.6213	.0008535	.0000076815
308.15	.7157	.0007678	.0000069102
308.15	.8392	.0006554	.0000058986
308.15	.9074	.0005933	.0000053397
308.15	1	.0005091	.0000045819

System: acetophenone + toluene; phases: Liquid
Fixed: Pressure, kPa = 101
Property: Speed of sound, m/s (Liquid); method: Linear variable-path acoustic interferometer
Temperature, K	Mole fraction of toluene	Speed of sound, m/s	uncertainty
298.15	0	1476.2	.14762
298.15	.1093	1463.8	.14638
298.15	.2145	1449.6	.14496
298.15	.3206	1434.7	.14347
298.15	.4281	1417.5	.14175
298.15	.5229	1401	.1401
298.15	.6213	1381.9	.13819
298.15	.7157	1362.6	.13626
298.15	.8392	1336.6	.13366
298.15	.9074	1321.1	.13211
298.15	1	1299.8	.12998
303.15	0	1457.2	.14572
303.15	.1093	1440.8	.14408
303.15	.2145	1425.8	.14258
303.15	.3206	1410.6	.14106
303.15	.4281	1394.6	.13946
303.15	.5229	1379	.1379
303.15	.6213	1359.6	.13596
303.15	.7157	1339.8	.13398
303.15	.8392	1313.9	.13139
303.15	.9074	1299.4	.12994
303.15	1	1279.5	.12795
308.15	0	1441.2	.14412
308.15	.1093	1423.3	.14233
308.15	.2145	1407.6	.14076
308.15	.3206	1391.3	.13913
308.15	.4281	1374.8	.13748
308.15	.5229	1358.9	.13589
308.15	.6213	1339.4	.13394
308.15	.7157	1319.7	.13197
308.15	.8392	1294.2	.12942
308.15	.9074	1279.4	.12794
308.15	1	1260.7	.12607
