Measured thermophysical data. Thermodynamics and activity coefficients at infinite dilution for organic solutes, water and diols in the ionic liquid choline bis(trifluoromethylsulfonyl)imide
Source: J. Chem. Thermodyn., 2014, 10.1016/j.jct.2014.04.024
Compound 1: 2-hydroxyethyl-N,N,N-trimethylammonium bis(trifluoromethylsulfonyl)imide, C7H14F6N2O5S2, purity 99%
Compound 2: hexane, C6H14, purity 99%
Compound 3: 3-methylpentane, C6H14, purity 99%
Compound 4: 2,2-dimethylbutane, C6H14, purity 99%
Compound 5: heptane, C7H16, purity 99.5%
Compound 6: octane, C8H18, purity 99%
Compound 7: 2,2,4-trimethylpentane, C8H18, purity 99%
Compound 8: nonane, C9H20, purity 99%
Compound 9: decane, C10H22, purity 99%
Compound 10: cyclopentane, C5H10, purity 99%
Compound 11: cyclohexane, C6H12, purity 99%
Compound 12: methylcyclohexane, C7H14, purity 99%
Compound 13: cycloheptane, C7H14, purity 98%
Compound 14: cyclooctane, C8H16, purity 99%
Compound 15: 1-pentene, C5H10, purity 98%
Compound 16: 1-hexene, C6H12, purity 99%
Compound 17: cyclohexene, C6H10, purity 99%
Compound 18: 1-heptene, C7H14, purity 99%
Compound 19: 1-octene, C8H16, purity 98%
Compound 20: 1-decene, C10H20, purity 97%
Compound 21: 1-pentyne, C5H8, purity 97%
Compound 22: 1-hexyne, C6H10, purity 97%
Compound 23: 1-heptyne, C7H12, purity 98%
Compound 24: 1-octyne, C8H14, purity 97%
Compound 25: benzene, C6H6, purity 99.8%
Compound 26: toluene, C7H8, purity 99.8%
Compound 27: ethylbenzene, C8H10, purity 99.8%
Compound 28: o-xylene, C8H10, purity 99%
Compound 29: m-xylene, C8H10, purity 99%
Compound 30: p-xylene, C8H10, purity 99%
Compound 31: styrene, C8H8, purity 99.9%
Compound 32: .alpha.-methylstyrene, C9H10, purity 99%
Compound 33: methanol, CH4O, purity 99.9%
Compound 34: ethanol, C2H6O, purity 99.8%
Compound 35: 1-propanol, C3H8O, purity 99.9%
Compound 36: 2-propanol, C3H8O, purity 99.9%
Compound 37: 1-butanol, C4H10O, purity 99.8%
Compound 38: 2-butanol, C4H10O, purity 99.5%
Compound 39: 2-methyl-1-propanol, C4H10O, purity 99.5%
Compound 40: 2-methyl-2-propanol, C4H10O, purity 99.7%
Compound 41: water, H2O
Compound 42: thiophene, C4H4S, purity 99%
Compound 43: tetrahydrofuran, C4H8O, purity 99.9%
Compound 44: 1,4-dioxane, C4H8O2, purity 99.8%
Compound 45: tert-butyl ethyl ether, C6H14O, purity 99%
Compound 46: methyl tert-butyl ether, C5H12O, purity 99.8%
Compound 47: methyl tert-pentyl ether, C6H14O, purity 99%
Compound 48: diethyl ether, C4H10O, purity 99.9%
Compound 49: dipropyl ether, C6H14O, purity 99%
Compound 50: diisopropyl ether, C6H14O, purity 99%
Compound 51: dibutyl ether, C8H18O, purity 99.3%
Compound 52: acetone, C3H6O, purity 99.9%
Compound 53: 2-pentanone, C5H10O, purity 99%
Compound 54: 3-pentanone, C5H10O, purity 99%
Compound 55: methyl acetate, C3H6O2, purity 99.8%
Compound 56: ethyl acetate, C4H8O2, purity 99.8%
Compound 57: methyl propionate, C4H8O2, purity 99%
Compound 58: methyl butyrate, C5H10O2, purity 99%
Compound 59: vinyl acetate, C4H6O2, purity 99%
Compound 60: butanal, C4H8O, purity 99%
Compound 61: acetonitrile, C2H3N, purity 99.9%
Compound 62: pyridine, C5H5N, purity 99.8%
Compound 63: 1-nitropropane, C3H7NO2, purity 98.5%
Compound 64: 1,2-ethanediol, C2H6O2, purity 99.5%
Compound 65: 1,2-propanediol, C3H8O2, purity 99.5%
Compound 66: 1,3-propanediol, C3H8O2, purity 98%
Compound 67: 1,2-butanediol, C4H10O2, purity 98%
Compound 68: 2,3-butanediol, isomer not specified, C4H10O2, purity 98%
Compound 69: 1,5-pentanediol, C5H12O2, purity 97%
Compound 70: 1-pentanol, C5H12O, purity 99%

System: 2-hydroxyethyl-N,N,N-trimethylammonium bis(trifluoromethylsulfonyl)imide; phases: Liquid
Fixed: Pressure, kPa = 101.325
Property: Mass density, kg/m3 (Liquid); method: Vibrating tube method
Temperature, K	Mass density, kg/m3	uncertainty
313.15	1514.34	.5
318.15	1509.74	.5
323.15	1505.16	.5
328.15	1500.59	.5
333.15	1496.04	.5
338.15	1491.5	.5
343.15	1486.99	.5
348.15	1482.48	.5
353.15	1478.03	.5

System: hexane + 2-hydroxyethyl-N,N,N-trimethylammonium bis(trifluoromethylsulfonyl)imide; phases: Liquid
Fixed: Pressure, kPa = 101.3
Fixed: Mole fraction of hexane = 0
Property: Activity coefficient of hexane (Liquid); method: Chromatography
Temperature, K	Activity coefficient of hexane	uncertainty
318.15	67	2.68
328.15	62.5	2.5
338.15	58.6	2.344
348.15	55.1	2.204
358.15	51.7	2.068
368.15	49.1	1.964

System: 3-methylpentane + 2-hydroxyethyl-N,N,N-trimethylammonium bis(trifluoromethylsulfonyl)imide; phases: Liquid
Fixed: Pressure, kPa = 101.3
Fixed: Mole fraction of 3-methylpentane = 0
Property: Activity coefficient of 3-methylpentane (Liquid); method: Chromatography
Temperature, K	Activity coefficient of 3-methylpentane	uncertainty
318.15	58.4	2.336
328.15	54.3	2.172
338.15	50.8	2.032
348.15	47.5	1.9
358.15	44.8	1.792
368.15	42.3	1.692

System: 2,2-dimethylbutane + 2-hydroxyethyl-N,N,N-trimethylammonium bis(trifluoromethylsulfonyl)imide; phases: Liquid
Fixed: Pressure, kPa = 101.3
Fixed: Mole fraction of 2,2-dimethylbutane = 0
Property: Activity coefficient of 2,2-dimethylbutane (Liquid); method: Chromatography
Temperature, K	Activity coefficient of 2,2-dimethylbutane	uncertainty
318.15	56.5	2.26
328.15	51.6	2.064
338.15	47.4	1.896
348.15	43.7	1.748

System: heptane + 2-hydroxyethyl-N,N,N-trimethylammonium bis(trifluoromethylsulfonyl)imide; phases: Liquid
Fixed: Pressure, kPa = 101.3
Fixed: Mole fraction of heptane = 0
Property: Activity coefficient of heptane (Liquid); method: Chromatography
Temperature, K	Activity coefficient of heptane	uncertainty
318.15	106	4.24
328.15	96.8	3.872
338.15	89	3.56
348.15	82.9	3.316
358.15	76.6	3.064
368.15	71.9	2.876

System: octane + 2-hydroxyethyl-N,N,N-trimethylammonium bis(trifluoromethylsulfonyl)imide; phases: Liquid
Fixed: Pressure, kPa = 101.3
Fixed: Mole fraction of octane = 0
Property: Activity coefficient of octane (Liquid); method: Chromatography
Temperature, K	Activity coefficient of octane	uncertainty
318.15	162	6.48
328.15	148	5.92
338.15	135	5.4
348.15	125	5
358.15	115	4.6
368.15	107	4.28

System: 2,2,4-trimethylpentane + 2-hydroxyethyl-N,N,N-trimethylammonium bis(trifluoromethylsulfonyl)imide; phases: Liquid
Fixed: Pressure, kPa = 101.3
Fixed: Mole fraction of 2,2,4-trimethylpentane = 0
Property: Activity coefficient of 2,2,4-trimethylpentane (Liquid); method: Chromatography
Temperature, K	Activity coefficient of 2,2,4-trimethylpentane	uncertainty
318.15	107	4.28
328.15	98.4	3.936
338.15	91.5	3.66
348.15	84.9	3.396
358.15	79.2	3.168
368.15	74.3	2.972

System: nonane + 2-hydroxyethyl-N,N,N-trimethylammonium bis(trifluoromethylsulfonyl)imide; phases: Liquid
Fixed: Pressure, kPa = 101.3
Fixed: Mole fraction of nonane = 0
Property: Activity coefficient of nonane (Liquid); method: Chromatography
Temperature, K	Activity coefficient of nonane	uncertainty
318.15	249	9.96
328.15	225	9
338.15	206	8.24
348.15	189	7.56
358.15	173	6.92
368.15	160	6.4

System: decane + 2-hydroxyethyl-N,N,N-trimethylammonium bis(trifluoromethylsulfonyl)imide; phases: Liquid
Fixed: Pressure, kPa = 101.3
Fixed: Mole fraction of decane = 0
Property: Activity coefficient of decane (Liquid); method: Chromatography
Temperature, K	Activity coefficient of decane	uncertainty
318.15	367	14.68
328.15	333	13.32
338.15	305	12.2
348.15	281	11.24
358.15	258	10.32
368.15	240	9.6

System: cyclopentane + 2-hydroxyethyl-N,N,N-trimethylammonium bis(trifluoromethylsulfonyl)imide; phases: Liquid
Fixed: Pressure, kPa = 101.3
Fixed: Mole fraction of cyclopentane = 0
Property: Activity coefficient of cyclopentane (Liquid); method: Chromatography
Temperature, K	Activity coefficient of cyclopentane	uncertainty
318.15	20.5	.82
328.15	19.4	.776
338.15	18.5	.74
348.15	17.7	.708
358.15	17	.68
368.15	16.2	.648

System: cyclohexane + 2-hydroxyethyl-N,N,N-trimethylammonium bis(trifluoromethylsulfonyl)imide; phases: Liquid
Fixed: Pressure, kPa = 101.3
Fixed: Mole fraction of cyclohexane = 0
Property: Activity coefficient of cyclohexane (Liquid); method: Chromatography
Temperature, K	Activity coefficient of cyclohexane	uncertainty
318.15	33.5	1.34
328.15	31.4	1.256
338.15	29.4	1.176
348.15	27.7	1.108
358.15	26.1	1.044
368.15	24.8	.992

System: methylcyclohexane + 2-hydroxyethyl-N,N,N-trimethylammonium bis(trifluoromethylsulfonyl)imide; phases: Liquid
Fixed: Pressure, kPa = 101.3
Fixed: Mole fraction of methylcyclohexane = 0
Property: Activity coefficient of methylcyclohexane (Liquid); method: Chromatography
Temperature, K	Activity coefficient of methylcyclohexane	uncertainty
318.15	52.1	2.084
328.15	48.1	1.924
338.15	44.7	1.788
348.15	41.9	1.676
358.15	39.2	1.568
368.15	36.8	1.472

System: cycloheptane + 2-hydroxyethyl-N,N,N-trimethylammonium bis(trifluoromethylsulfonyl)imide; phases: Liquid
Fixed: Pressure, kPa = 101.3
Fixed: Mole fraction of cycloheptane = 0
Property: Activity coefficient of cycloheptane (Liquid); method: Chromatography
Temperature, K	Activity coefficient of cycloheptane	uncertainty
318.15	58	2.32
328.15	51.5	2.06
338.15	46.1	1.844
348.15	41.5	1.66
358.15	37.4	1.496
368.15	34	1.36

System: cyclooctane + 2-hydroxyethyl-N,N,N-trimethylammonium bis(trifluoromethylsulfonyl)imide; phases: Liquid
Fixed: Pressure, kPa = 101.3
Fixed: Mole fraction of cyclooctane = 0
Property: Activity coefficient of cyclooctane (Liquid); method: Chromatography
Temperature, K	Activity coefficient of cyclooctane	uncertainty
318.15	72.2	2.888
328.15	66.3	2.652
338.15	61.1	2.444
348.15	56.5	2.26
358.15	52.6	2.104
368.15	49.2	1.968

System: 1-pentene + 2-hydroxyethyl-N,N,N-trimethylammonium bis(trifluoromethylsulfonyl)imide; phases: Liquid
Fixed: Pressure, kPa = 101.3
Fixed: Mole fraction of 1-pentene = 0
Property: Activity coefficient of 1-pentene (Liquid); method: Chromatography
Temperature, K	Activity coefficient of 1-pentene	uncertainty
318.15	18.5	.74
328.15	17.8	.712
338.15	17.4	.696
348.15	16.9	.676
358.15	16.5	.66
368.15	16	.64

System: 1-hexene + 2-hydroxyethyl-N,N,N-trimethylammonium bis(trifluoromethylsulfonyl)imide; phases: Liquid
Fixed: Pressure, kPa = 101.3
Fixed: Mole fraction of 1-hexene = 0
Property: Activity coefficient of 1-hexene (Liquid); method: Chromatography
Temperature, K	Activity coefficient of 1-hexene	uncertainty
318.15	29.7	1.188
328.15	28.2	1.128
338.15	27.1	1.084
348.15	26	1.04
358.15	24.9	.996
368.15	24.1	.964

System: cyclohexene + 2-hydroxyethyl-N,N,N-trimethylammonium bis(trifluoromethylsulfonyl)imide; phases: Liquid
Fixed: Pressure, kPa = 101.3
Fixed: Mole fraction of cyclohexene = 0
Property: Activity coefficient of cyclohexene (Liquid); method: Chromatography
Temperature, K	Activity coefficient of cyclohexene	uncertainty
318.15	16.1	.644
328.15	15.5	.62
338.15	15	.6
348.15	14.5	.58
358.15	14.1	.564
368.15	13.7	.548

System: 1-heptene + 2-hydroxyethyl-N,N,N-trimethylammonium bis(trifluoromethylsulfonyl)imide; phases: Liquid
Fixed: Pressure, kPa = 101.3
Fixed: Mole fraction of 1-heptene = 0
Property: Activity coefficient of 1-heptene (Liquid); method: Chromatography
Temperature, K	Activity coefficient of 1-heptene	uncertainty
318.15	47	1.88
328.15	44.5	1.78
338.15	42.5	1.7
348.15	40.7	1.628
358.15	38.9	1.556
368.15	37.5	1.5

System: 1-octene + 2-hydroxyethyl-N,N,N-trimethylammonium bis(trifluoromethylsulfonyl)imide; phases: Liquid
Fixed: Pressure, kPa = 101.3
Fixed: Mole fraction of 1-octene = 0
Property: Activity coefficient of 1-octene (Liquid); method: Chromatography
Temperature, K	Activity coefficient of 1-octene	uncertainty
318.15	77.4	3.096
328.15	72.3	2.892
338.15	67.8	2.712
348.15	64	2.56
358.15	60.6	2.424
368.15	57.4	2.296

System: 1-decene + 2-hydroxyethyl-N,N,N-trimethylammonium bis(trifluoromethylsulfonyl)imide; phases: Liquid
Fixed: Pressure, kPa = 101.3
Fixed: Mole fraction of 1-decene = 0
Property: Activity coefficient of 1-decene (Liquid); method: Chromatography
Temperature, K	Activity coefficient of 1-decene	uncertainty
318.15	190	7.6
328.15	174	6.96
338.15	161	6.44
348.15	149	5.96
358.15	139	5.56
368.15	130	5.2

System: 1-pentyne + 2-hydroxyethyl-N,N,N-trimethylammonium bis(trifluoromethylsulfonyl)imide; phases: Liquid
Fixed: Pressure, kPa = 101.3
Fixed: Mole fraction of 1-pentyne = 0
Property: Activity coefficient of 1-pentyne (Liquid); method: Chromatography
Temperature, K	Activity coefficient of 1-pentyne	uncertainty
318.15	5.23	.2092
328.15	5.32	.2128
338.15	5.38	.2152
348.15	5.44	.2176
358.15	5.51	.2204
368.15	5.58	.2232

System: 1-hexyne + 2-hydroxyethyl-N,N,N-trimethylammonium bis(trifluoromethylsulfonyl)imide; phases: Liquid
Fixed: Pressure, kPa = 101.3
Fixed: Mole fraction of 1-hexyne = 0
Property: Activity coefficient of 1-hexyne (Liquid); method: Chromatography
Temperature, K	Activity coefficient of 1-hexyne	uncertainty
318.15	8.45	.338
328.15	8.48	.3392
338.15	8.54	.3416
348.15	8.58	.3432
358.15	8.63	.3452
368.15	8.72	.3488

System: 1-heptyne + 2-hydroxyethyl-N,N,N-trimethylammonium bis(trifluoromethylsulfonyl)imide; phases: Liquid
Fixed: Pressure, kPa = 101.3
Fixed: Mole fraction of 1-heptyne = 0
Property: Activity coefficient of 1-heptyne (Liquid); method: Chromatography
Temperature, K	Activity coefficient of 1-heptyne	uncertainty
318.15	13.9	.556
328.15	13.8	.552
338.15	13.7	.548
348.15	13.6	.544
358.15	13.5	.54
368.15	13.4	.536

System: 1-octyne + 2-hydroxyethyl-N,N,N-trimethylammonium bis(trifluoromethylsulfonyl)imide; phases: Liquid
Fixed: Pressure, kPa = 101.3
Fixed: Mole fraction of 1-octyne = 0
Property: Activity coefficient of 1-octyne (Liquid); method: Chromatography
Temperature, K	Activity coefficient of 1-octyne	uncertainty
318.15	22.9	.916
328.15	22.4	.896
338.15	21.9	.876
348.15	21.5	.86
358.15	21.1	.844
368.15	20.8	.832

System: benzene + 2-hydroxyethyl-N,N,N-trimethylammonium bis(trifluoromethylsulfonyl)imide; phases: Liquid
Fixed: Pressure, kPa = 101.3
Fixed: Mole fraction of benzene = 0
Property: Activity coefficient of benzene (Liquid); method: Chromatography
Temperature, K	Activity coefficient of benzene	uncertainty
318.15	2.47	.0988
328.15	2.52	.1008
338.15	2.58	.1032
348.15	2.62	.1048
358.15	2.68	.1072
368.15	2.74	.1096

System: toluene + 2-hydroxyethyl-N,N,N-trimethylammonium bis(trifluoromethylsulfonyl)imide; phases: Liquid
Fixed: Pressure, kPa = 101.3
Fixed: Mole fraction of toluene = 0
Property: Activity coefficient of toluene (Liquid); method: Chromatography
Temperature, K	Activity coefficient of toluene	uncertainty
318.15	3.9	.156
328.15	3.98	.1592
338.15	4.05	.162
348.15	4.11	.1644
358.15	4.21	.1684
368.15	4.26	.1704

System: ethylbenzene + 2-hydroxyethyl-N,N,N-trimethylammonium bis(trifluoromethylsulfonyl)imide; phases: Liquid
Fixed: Pressure, kPa = 101.3
Fixed: Mole fraction of ethylbenzene = 0
Property: Activity coefficient of ethylbenzene (Liquid); method: Chromatography
Temperature, K	Activity coefficient of ethylbenzene	uncertainty
318.15	6.53	.2612
328.15	6.55	.262
338.15	6.6	.264
348.15	6.65	.266
358.15	6.7	.268
368.15	6.74	.2696

System: o-xylene + 2-hydroxyethyl-N,N,N-trimethylammonium bis(trifluoromethylsulfonyl)imide; phases: Liquid
Fixed: Pressure, kPa = 101.3
Fixed: Mole fraction of o-xylene = 0
Property: Activity coefficient of o-xylene (Liquid); method: Chromatography
Temperature, K	Activity coefficient of o-xylene	uncertainty
318.15	5.48	.2192
328.15	5.54	.2216
338.15	5.6	.224
348.15	5.68	.2272
358.15	5.75	.23
368.15	5.79	.2316

System: m-xylene + 2-hydroxyethyl-N,N,N-trimethylammonium bis(trifluoromethylsulfonyl)imide; phases: Liquid
Fixed: Pressure, kPa = 101.3
Fixed: Mole fraction of m-xylene = 0
Property: Activity coefficient of m-xylene (Liquid); method: Chromatography
Temperature, K	Activity coefficient of m-xylene	uncertainty
318.15	6.14	.2456
328.15	6.23	.2492
338.15	6.32	.2528
348.15	6.38	.2552
358.15	6.46	.2584
368.15	6.54	.2616

System: p-xylene + 2-hydroxyethyl-N,N,N-trimethylammonium bis(trifluoromethylsulfonyl)imide; phases: Liquid
Fixed: Pressure, kPa = 101.3
Fixed: Mole fraction of p-xylene = 0
Property: Activity coefficient of p-xylene (Liquid); method: Chromatography
Temperature, K	Activity coefficient of p-xylene	uncertainty
318.15	6.24	.2496
328.15	6.34	.2536
338.15	6.41	.2564
348.15	6.48	.2592
358.15	6.54	.2616
368.15	6.62	.2648

System: styrene + 2-hydroxyethyl-N,N,N-trimethylammonium bis(trifluoromethylsulfonyl)imide; phases: Liquid
Fixed: Pressure, kPa = 101.3
Fixed: Mole fraction of styrene = 0
Property: Activity coefficient of styrene (Liquid); method: Chromatography
Temperature, K	Activity coefficient of styrene	uncertainty
318.15	4.18	.1672
328.15	4.24	.1696
338.15	4.27	.1708
348.15	4.33	.1732
358.15	4.37	.1748
368.15	4.43	.1772

System: .alpha.-methylstyrene + 2-hydroxyethyl-N,N,N-trimethylammonium bis(trifluoromethylsulfonyl)imide; phases: Liquid
Fixed: Pressure, kPa = 101.3
Fixed: Mole fraction of .alpha.-methylstyrene = 0
Property: Activity coefficient of .alpha.-methylstyrene (Liquid); method: Chromatography
Temperature, K	Activity coefficient of .alpha.-methylstyrene	uncertainty
318.15	6.59	.2636
328.15	6.72	.2688
338.15	6.81	.2724
348.15	6.95	.278
358.15	7.04	.2816
368.15	7.18	.2872

System: methanol + 2-hydroxyethyl-N,N,N-trimethylammonium bis(trifluoromethylsulfonyl)imide; phases: Liquid
Fixed: Pressure, kPa = 101.3
Fixed: Mole fraction of methanol = 0
Property: Activity coefficient of methanol (Liquid); method: Chromatography
Temperature, K	Activity coefficient of methanol	uncertainty
318.15	.861	.03444
328.15	.857	.03428
338.15	.851	.03404
348.15	.85	.034
358.15	.846	.03384
368.15	.846	.03384

System: ethanol + 2-hydroxyethyl-N,N,N-trimethylammonium bis(trifluoromethylsulfonyl)imide; phases: Liquid
Fixed: Pressure, kPa = 101.3
Fixed: Mole fraction of ethanol = 0
Property: Activity coefficient of ethanol (Liquid); method: Chromatography
Temperature, K	Activity coefficient of ethanol	uncertainty
318.15	1.15	.046
328.15	1.14	.0456
338.15	1.13	.0452
348.15	1.12	.0448
358.15	1.11	.0444
368.15	1.1	.044

System: 1-propanol + 2-hydroxyethyl-N,N,N-trimethylammonium bis(trifluoromethylsulfonyl)imide; phases: Liquid
Fixed: Pressure, kPa = 101.3
Fixed: Mole fraction of 1-propanol = 0
Property: Activity coefficient of 1-propanol (Liquid); method: Chromatography
Temperature, K	Activity coefficient of 1-propanol	uncertainty
318.15	1.68	.0672
328.15	1.65	.066
338.15	1.62	.0648
348.15	1.6	.064
358.15	1.58	.0632
368.15	1.57	.0628

System: 2-propanol + 2-hydroxyethyl-N,N,N-trimethylammonium bis(trifluoromethylsulfonyl)imide; phases: Liquid
Fixed: Pressure, kPa = 101.3
Fixed: Mole fraction of 2-propanol = 0
Property: Activity coefficient of 2-propanol (Liquid); method: Chromatography
Temperature, K	Activity coefficient of 2-propanol	uncertainty
318.15	1.35	.054
328.15	1.34	.0536
338.15	1.33	.0532
348.15	1.33	.0532
358.15	1.32	.0528
368.15	1.32	.0528

System: 1-butanol + 2-hydroxyethyl-N,N,N-trimethylammonium bis(trifluoromethylsulfonyl)imide; phases: Liquid
Fixed: Pressure, kPa = 101.3
Fixed: Mole fraction of 1-butanol = 0
Property: Activity coefficient of 1-butanol (Liquid); method: Chromatography
Temperature, K	Activity coefficient of 1-butanol	uncertainty
318.15	2.49	.0996
328.15	2.42	.0968
338.15	2.35	.094
348.15	2.3	.092
358.15	2.24	.0896
368.15	2.19	.0876

System: 2-butanol + 2-hydroxyethyl-N,N,N-trimethylammonium bis(trifluoromethylsulfonyl)imide; phases: Liquid
Fixed: Pressure, kPa = 101.3
Fixed: Mole fraction of 2-butanol = 0
Property: Activity coefficient of 2-butanol (Liquid); method: Chromatography
Temperature, K	Activity coefficient of 2-butanol	uncertainty
318.15	1.88	.0752
328.15	1.86	.0744
338.15	1.84	.0736
348.15	1.83	.0732
358.15	1.81	.0724
368.15	1.8	.072

System: 2-methyl-1-propanol + 2-hydroxyethyl-N,N,N-trimethylammonium bis(trifluoromethylsulfonyl)imide; phases: Liquid
Fixed: Pressure, kPa = 101.3
Fixed: Mole fraction of 2-methyl-1-propanol = 0
Property: Activity coefficient of 2-methyl-1-propanol (Liquid); method: Chromatography
Temperature, K	Activity coefficient of 2-methyl-1-propanol	uncertainty
318.15	2.44	.0976
328.15	2.35	.094
338.15	2.26	.0904
348.15	2.19	.0876
358.15	2.12	.0848
368.15	2.06	.0824

System: 2-methyl-2-propanol + 2-hydroxyethyl-N,N,N-trimethylammonium bis(trifluoromethylsulfonyl)imide; phases: Liquid
Fixed: Pressure, kPa = 101.3
Fixed: Mole fraction of 2-methyl-2-propanol = 0
Property: Activity coefficient of 2-methyl-2-propanol (Liquid); method: Chromatography
Temperature, K	Activity coefficient of 2-methyl-2-propanol	uncertainty
318.15	1.32	.0528
328.15	1.35	.054
338.15	1.37	.0548
348.15	1.39	.0556
358.15	1.42	.0568
368.15	1.45	.058

System: 1-pentanol + 2-hydroxyethyl-N,N,N-trimethylammonium bis(trifluoromethylsulfonyl)imide; phases: Liquid
Fixed: Pressure, kPa = 101.3
Fixed: Mole fraction of 1-pentanol = 0
Property: Activity coefficient of 1-pentanol (Liquid); method: Chromatography
Temperature, K	Activity coefficient of 1-pentanol	uncertainty
318.15	3.46	.1384
328.15	3.37	.1348
338.15	3.27	.1308
348.15	3.19	.1276
358.15	3.11	.1244
368.15	3.04	.1216

System: water + 2-hydroxyethyl-N,N,N-trimethylammonium bis(trifluoromethylsulfonyl)imide; phases: Liquid
Fixed: Pressure, kPa = 101.3
Fixed: Mole fraction of water = 0
Property: Activity coefficient of water (Liquid); method: Chromatography
Temperature, K	Activity coefficient of water	uncertainty
318.15	1.31	.0524
328.15	1.21	.0484
338.15	1.13	.0452
348.15	1.05	.042
358.15	.988	.03952
368.15	.933	.03732

System: thiophene + 2-hydroxyethyl-N,N,N-trimethylammonium bis(trifluoromethylsulfonyl)imide; phases: Liquid
Fixed: Pressure, kPa = 101.3
Fixed: Mole fraction of thiophene = 0
Property: Activity coefficient of thiophene (Liquid); method: Chromatography
Temperature, K	Activity coefficient of thiophene	uncertainty
318.15	2	.08
328.15	2.05	.082
338.15	2.1	.084
348.15	2.16	.0864
358.15	2.2	.088
368.15	2.24	.0896

System: tetrahydrofuran + 2-hydroxyethyl-N,N,N-trimethylammonium bis(trifluoromethylsulfonyl)imide; phases: Liquid
Fixed: Pressure, kPa = 101.3
Fixed: Mole fraction of tetrahydrofuran = 0
Property: Activity coefficient of tetrahydrofuran (Liquid); method: Chromatography
Temperature, K	Activity coefficient of tetrahydrofuran	uncertainty
318.15	.691	.02764
328.15	.755	.0302
338.15	.818	.03272
348.15	.884	.03536
358.15	.95	.038
368.15	1.02	.0408

System: 1,4-dioxane + 2-hydroxyethyl-N,N,N-trimethylammonium bis(trifluoromethylsulfonyl)imide; phases: Liquid
Fixed: Pressure, kPa = 101.3
Fixed: Mole fraction of 1,4-dioxane = 0
Property: Activity coefficient of 1,4-dioxane (Liquid); method: Chromatography
Temperature, K	Activity coefficient of 1,4-dioxane	uncertainty
318.15	.533	.02132
328.15	.585	.0234
338.15	.639	.02556
348.15	.699	.02796
358.15	.757	.03028
368.15	.814	.03256

System: tert-butyl ethyl ether + 2-hydroxyethyl-N,N,N-trimethylammonium bis(trifluoromethylsulfonyl)imide; phases: Liquid
Fixed: Pressure, kPa = 101.3
Fixed: Mole fraction of tert-butyl ethyl ether = 0
Property: Activity coefficient of tert-butyl ethyl ether (Liquid); method: Chromatography
Temperature, K	Activity coefficient of tert-butyl ethyl ether	uncertainty
318.15	7.32	.2928
328.15	7.73	.3092
338.15	8.17	.3268
348.15	8.56	.3424
358.15	9	.36
368.15	9.41	.3764

System: methyl tert-butyl ether + 2-hydroxyethyl-N,N,N-trimethylammonium bis(trifluoromethylsulfonyl)imide; phases: Liquid
Fixed: Pressure, kPa = 101.3
Fixed: Mole fraction of methyl tert-butyl ether = 0
Property: Activity coefficient of methyl tert-butyl ether (Liquid); method: Chromatography
Temperature, K	Activity coefficient of methyl tert-butyl ether	uncertainty
318.15	2.68	.1072
328.15	2.92	.1168
338.15	3.14	.1256
348.15	3.38	.1352
358.15	3.62	.1448
368.15	3.86	.1544

System: methyl tert-pentyl ether + 2-hydroxyethyl-N,N,N-trimethylammonium bis(trifluoromethylsulfonyl)imide; phases: Liquid
Fixed: Pressure, kPa = 101.3
Fixed: Mole fraction of methyl tert-pentyl ether = 0
Property: Activity coefficient of methyl tert-pentyl ether (Liquid); method: Chromatography
Temperature, K	Activity coefficient of methyl tert-pentyl ether	uncertainty
318.15	4.76	.1904
328.15	5.06	.2024
338.15	5.38	.2152
348.15	5.68	.2272
358.15	5.99	.2396
368.15	6.29	.2516

System: diethyl ether + 2-hydroxyethyl-N,N,N-trimethylammonium bis(trifluoromethylsulfonyl)imide; phases: Liquid
Fixed: Pressure, kPa = 101.3
Fixed: Mole fraction of diethyl ether = 0
Property: Activity coefficient of diethyl ether (Liquid); method: Chromatography
Temperature, K	Activity coefficient of diethyl ether	uncertainty
318.15	2.85	.114
328.15	3.03	.1212
338.15	3.21	.1284
348.15	3.38	.1352
358.15	3.56	.1424
368.15	3.73	.1492

System: dipropyl ether + 2-hydroxyethyl-N,N,N-trimethylammonium bis(trifluoromethylsulfonyl)imide; phases: Liquid
Fixed: Pressure, kPa = 101.3
Fixed: Mole fraction of dipropyl ether = 0
Property: Activity coefficient of dipropyl ether (Liquid); method: Chromatography
Temperature, K	Activity coefficient of dipropyl ether	uncertainty
318.15	11	.44
328.15	11.2	.448
338.15	11.5	.46
348.15	11.6	.464
358.15	11.9	.476
368.15	12.1	.484

System: diisopropyl ether + 2-hydroxyethyl-N,N,N-trimethylammonium bis(trifluoromethylsulfonyl)imide; phases: Liquid
Fixed: Pressure, kPa = 101.3
Fixed: Mole fraction of diisopropyl ether = 0
Property: Activity coefficient of diisopropyl ether (Liquid); method: Chromatography
Temperature, K	Activity coefficient of diisopropyl ether	uncertainty
318.15	7.52	.3008
328.15	7.97	.3188
338.15	8.46	.3384
348.15	8.92	.3568
358.15	9.4	.376
368.15	9.86	.3944

System: dibutyl ether + 2-hydroxyethyl-N,N,N-trimethylammonium bis(trifluoromethylsulfonyl)imide; phases: Liquid
Fixed: Pressure, kPa = 101.3
Fixed: Mole fraction of dibutyl ether = 0
Property: Activity coefficient of dibutyl ether (Liquid); method: Chromatography
Temperature, K	Activity coefficient of dibutyl ether	uncertainty
318.15	30.8	1.232
328.15	30.4	1.216
338.15	30.1	1.204
348.15	29.9	1.196
358.15	29.6	1.184
368.15	29.3	1.172

System: acetone + 2-hydroxyethyl-N,N,N-trimethylammonium bis(trifluoromethylsulfonyl)imide; phases: Liquid
Fixed: Pressure, kPa = 101.3
Fixed: Mole fraction of acetone = 0
Property: Activity coefficient of acetone (Liquid); method: Chromatography
Temperature, K	Activity coefficient of acetone	uncertainty
318.15	.363	.01452
328.15	.392	.01568
338.15	.424	.01696
348.15	.456	.01824
358.15	.49	.0196
368.15	.523	.02092

System: 2-pentanone + 2-hydroxyethyl-N,N,N-trimethylammonium bis(trifluoromethylsulfonyl)imide; phases: Liquid
Fixed: Pressure, kPa = 101.3
Fixed: Mole fraction of 2-pentanone = 0
Property: Activity coefficient of 2-pentanone (Liquid); method: Chromatography
Temperature, K	Activity coefficient of 2-pentanone	uncertainty
318.15	.868	.03472
328.15	.928	.03712
338.15	.987	.03948
348.15	1.05	.042
358.15	1.11	.0444
368.15	1.18	.0472

System: 3-pentanone + 2-hydroxyethyl-N,N,N-trimethylammonium bis(trifluoromethylsulfonyl)imide; phases: Liquid
Fixed: Pressure, kPa = 101.3
Fixed: Mole fraction of 3-pentanone = 0
Property: Activity coefficient of 3-pentanone (Liquid); method: Chromatography
Temperature, K	Activity coefficient of 3-pentanone	uncertainty
318.15	.906	.03624
328.15	.976	.03904
338.15	1.05	.042
348.15	1.11	.0444
358.15	1.18	.0472
368.15	1.25	.05

System: methyl acetate + 2-hydroxyethyl-N,N,N-trimethylammonium bis(trifluoromethylsulfonyl)imide; phases: Liquid
Fixed: Pressure, kPa = 101.3
Fixed: Mole fraction of methyl acetate = 0
Property: Activity coefficient of methyl acetate (Liquid); method: Chromatography
Temperature, K	Activity coefficient of methyl acetate	uncertainty
318.15	.689	.02756
328.15	.734	.02936
338.15	.785	.0314
348.15	.838	.03352
358.15	.882	.03528
368.15	.94	.0376

System: ethyl acetate + 2-hydroxyethyl-N,N,N-trimethylammonium bis(trifluoromethylsulfonyl)imide; phases: Liquid
Fixed: Pressure, kPa = 101.3
Fixed: Mole fraction of ethyl acetate = 0
Property: Activity coefficient of ethyl acetate (Liquid); method: Chromatography
Temperature, K	Activity coefficient of ethyl acetate	uncertainty
318.15	1.02	.0408
328.15	1.09	.0436
338.15	1.16	.0464
348.15	1.23	.0492
358.15	1.29	.0516
368.15	1.37	.0548

System: methyl propionate + 2-hydroxyethyl-N,N,N-trimethylammonium bis(trifluoromethylsulfonyl)imide; phases: Liquid
Fixed: Pressure, kPa = 101.3
Fixed: Mole fraction of methyl propionate = 0
Property: Activity coefficient of methyl propionate (Liquid); method: Chromatography
Temperature, K	Activity coefficient of methyl propionate	uncertainty
318.15	1.03	.0412
328.15	1.1	.044
338.15	1.17	.0468
348.15	1.25	.05
358.15	1.31	.0524
368.15	1.39	.0556

System: methyl butyrate + 2-hydroxyethyl-N,N,N-trimethylammonium bis(trifluoromethylsulfonyl)imide; phases: Liquid
Fixed: Pressure, kPa = 101.3
Fixed: Mole fraction of methyl butyrate = 0
Property: Activity coefficient of methyl butyrate (Liquid); method: Chromatography
Temperature, K	Activity coefficient of methyl butyrate	uncertainty
318.15	1.67	.0668
328.15	1.77	.0708
338.15	1.86	.0744
348.15	1.97	.0788
358.15	2.05	.082
368.15	2.14	.0856

System: vinyl acetate + 2-hydroxyethyl-N,N,N-trimethylammonium bis(trifluoromethylsulfonyl)imide; phases: Liquid
Fixed: Pressure, kPa = 101.3
Fixed: Mole fraction of vinyl acetate = 0
Property: Activity coefficient of vinyl acetate (Liquid); method: Chromatography
Temperature, K	Activity coefficient of vinyl acetate	uncertainty
318.15	1.42	.0568
328.15	1.48	.0592
338.15	1.54	.0616
348.15	1.59	.0636
358.15	1.63	.0652
368.15	1.69	.0676

System: butanal + 2-hydroxyethyl-N,N,N-trimethylammonium bis(trifluoromethylsulfonyl)imide; phases: Liquid
Fixed: Pressure, kPa = 101.3
Fixed: Mole fraction of butanal = 0
Property: Activity coefficient of butanal (Liquid); method: Chromatography
Temperature, K	Activity coefficient of butanal	uncertainty
318.15	.968	.03872
328.15	1.02	.0408
338.15	1.08	.0432
348.15	1.13	.0452
358.15	1.18	.0472
368.15	1.24	.0496

System: acetonitrile + 2-hydroxyethyl-N,N,N-trimethylammonium bis(trifluoromethylsulfonyl)imide; phases: Liquid
Fixed: Pressure, kPa = 101.3
Fixed: Mole fraction of acetonitrile = 0
Property: Activity coefficient of acetonitrile (Liquid); method: Chromatography
Temperature, K	Activity coefficient of acetonitrile	uncertainty
318.15	.415	.0166
328.15	.437	.01748
338.15	.458	.01832
348.15	.479	.01916
358.15	.499	.01996
368.15	.52	.0208

System: pyridine + 2-hydroxyethyl-N,N,N-trimethylammonium bis(trifluoromethylsulfonyl)imide; phases: Liquid
Fixed: Pressure, kPa = 101.3
Fixed: Mole fraction of pyridine = 0
Property: Activity coefficient of pyridine (Liquid); method: Chromatography
Temperature, K	Activity coefficient of pyridine	uncertainty
318.15	.286	.01144
328.15	.328	.01312
338.15	.372	.01488
348.15	.417	.01668
358.15	.467	.01868
368.15	.518	.02072

System: 1-nitropropane + 2-hydroxyethyl-N,N,N-trimethylammonium bis(trifluoromethylsulfonyl)imide; phases: Liquid
Fixed: Pressure, kPa = 101.3
Fixed: Mole fraction of 1-nitropropane = 0
Property: Activity coefficient of 1-nitropropane (Liquid); method: Chromatography
Temperature, K	Activity coefficient of 1-nitropropane	uncertainty
318.15	1.07	.0428
328.15	1.1	.044
338.15	1.13	.0452
348.15	1.16	.0464
358.15	1.2	.048
368.15	1.23	.0492

System: 1,2-ethanediol + 2-hydroxyethyl-N,N,N-trimethylammonium bis(trifluoromethylsulfonyl)imide; phases: Liquid
Fixed: Pressure, kPa = 101.3
Fixed: Mole fraction of 1,2-ethanediol = 0
Property: Activity coefficient of 1,2-ethanediol (Liquid); method: Chromatography
Temperature, K	Activity coefficient of 1,2-ethanediol	uncertainty
388.15	1.66	.0664
398.15	1.59	.0636
408.15	1.52	.0608

System: 1,2-propanediol + 2-hydroxyethyl-N,N,N-trimethylammonium bis(trifluoromethylsulfonyl)imide; phases: Liquid
Fixed: Pressure, kPa = 101.3
Fixed: Mole fraction of 1,2-propanediol = 0
Property: Activity coefficient of 1,2-propanediol (Liquid); method: Chromatography
Temperature, K	Activity coefficient of 1,2-propanediol	uncertainty
388.15	1.53	.0612
398.15	1.52	.0608
408.15	1.5	.06

System: 1,3-propanediol + 2-hydroxyethyl-N,N,N-trimethylammonium bis(trifluoromethylsulfonyl)imide; phases: Liquid
Fixed: Pressure, kPa = 101.3
Fixed: Mole fraction of 1,3-propanediol = 0
Property: Activity coefficient of 1,3-propanediol (Liquid); method: Chromatography
Temperature, K	Activity coefficient of 1,3-propanediol	uncertainty
398.15	1.4	.056
408.15	1.41	.0564
418.15	1.43	.0572

System: 1,2-butanediol + 2-hydroxyethyl-N,N,N-trimethylammonium bis(trifluoromethylsulfonyl)imide; phases: Liquid
Fixed: Pressure, kPa = 101.3
Fixed: Mole fraction of 1,2-butanediol = 0
Property: Activity coefficient of 1,2-butanediol (Liquid); method: Chromatography
Temperature, K	Activity coefficient of 1,2-butanediol	uncertainty
388.15	1.73	.0692
398.15	1.7	.068
408.15	1.68	.0672

System: 2,3-butanediol, isomer not specified + 2-hydroxyethyl-N,N,N-trimethylammonium bis(trifluoromethylsulfonyl)imide; phases: Liquid
Fixed: Pressure, kPa = 101.3
Fixed: Mole fraction of 2,3-butanediol, isomer not specified = 0
Property: Activity coefficient of 2,3-butanediol, isomer not specified (Liquid); method: Chromatography
Temperature, K	Activity coefficient of 2,3-butanediol, isomer not specified	uncertainty
388.15	1.49	.0596
398.15	1.48	.0592
408.15	1.47	.0588

System: 1,5-pentanediol + 2-hydroxyethyl-N,N,N-trimethylammonium bis(trifluoromethylsulfonyl)imide; phases: Liquid
Fixed: Pressure, kPa = 101.3
Fixed: Mole fraction of 1,5-pentanediol = 0
Property: Activity coefficient of 1,5-pentanediol (Liquid); method: Chromatography
Temperature, K	Activity coefficient of 1,5-pentanediol	uncertainty
398.15	1.93	.0772
408.15	1.93	.0772
418.15	1.93	.0772
