Measured thermophysical data. Volumetric and viscometric study of thiamine hydrochloride, pyridoxine hydrochloride and sodium ascorbate at T = (275.15, 277.15 and 279.15) K in dilute aqueous solutions
Source: J. Chem. Thermodyn., 2017, 10.1016/j.jct.2016.12.033
Compound 1: thiamine hydrochloride, C12H18Cl2N4OS, purity 99.5%
Compound 2: pyridoxine hydrochloride, C8H12ClNO3, purity 99.5%
Compound 3: sodium (+)-L-ascorbate, C6H7NaO6, purity 98.0%
Compound 4: water, H2O

System: water; phases: Liquid
Property: Mass density, kg/m3 (Liquid); method: Pycnometric method
Temperature, K	Pressure, kPa	Mass density, kg/m3	uncertainty
275.15	101.3	999.94	
277.15	101.3	999.97	
279.15	101.3	999.94	

System: water; phases: Liquid
Property: Viscosity, Pa*s (Liquid); method: Capillary tube (Ostwald; Ubbelohde) method
Temperature, K	Pressure, kPa	Viscosity, Pa*s	uncertainty
275.15	101.3	.001674	
277.15	101.3	.001567	
279.15	101.3	.001472	

System: thiamine hydrochloride + water; phases: Liquid
Fixed: Pressure, kPa = 101.3
Property: Mass density, kg/m3 (Liquid); method: Pycnometric method
Temperature, K	Molality, mol/kg of thiamine hydrochloride	Mass density, kg/m3	uncertainty
275.15	0	999.94	
275.15	.0101	1001.03	
275.15	.0201	1002.1	
275.15	.0249	1002.6	
275.15	.0302	1003.15	
275.15	.04	1004.19	
275.15	.0451	1004.73	
275.15	.0499	1005.24	
275.15	.055	1005.78	
275.15	.0611	1006.45	
275.15	.0645	1006.81	
275.15	.0701	1007.4	
275.15	.0751	1007.91	
275.15	.0792	1008.33	
275.15	.0897	1009.33	
275.15	.1001	1010.2	
277.15	0	999.97	
277.15	.0101	1001.04	
277.15	.0201	1002.1	
277.15	.025	1002.61	
277.15	.0299	1003.12	
277.15	.0401	1004.18	
277.15	.0452	1004.7	
277.15	.0501	1005.2	
277.15	.055	1005.69	
277.15	.0598	1006.18	
277.15	.0653	1006.74	
277.15	.0704	1007.25	
277.15	.0803	1008.25	
277.15	.0822	1008.45	
277.15	.0898	1009.24	
279.15	0	999.94	
279.15	.008	1000.76	
279.15	.02	1002	
279.15	.0249	1002.52	
279.15	.0301	1003.05	
279.15	.04	1004.08	
279.15	.045	1004.59	
279.15	.0501	1005.11	
279.15	.0552	1005.63	
279.15	.0603	1006.15	
279.15	.0652	1006.65	
279.15	.0703	1007.16	
279.15	.0751	1007.64	
279.15	.0798	1008.1	
279.15	.0897	1009.09	
279.15	.1001	1010.12	

System: thiamine hydrochloride + water; phases: Liquid
Fixed: Pressure, kPa = 101.3
Property: Viscosity, Pa*s (Liquid); method: Capillary tube (Ostwald; Ubbelohde) method
Temperature, K	Molality, mol/kg of thiamine hydrochloride	Viscosity, Pa*s	uncertainty
275.15	0	.001674	
275.15	.0101	.0016917	
275.15	.0201	.0017005	
275.15	.0249	.0017121	
275.15	.0302	.0017179	
275.15	.04	.0017279	
275.15	.0451	.0017363	
275.15	.0499	.0017453	
275.15	.055	.0017522	
275.15	.0611	.0017585	
275.15	.0645	.0017601	
275.15	.0701	.0017708	
275.15	.0751	.001776	
275.15	.0792	.0017763	
275.15	.0897	.0017878	
275.15	.1001	.0018002	
277.15	0	.001567	
277.15	.0101	.0015746	
277.15	.0201	.0015908	
277.15	.025	.0015933	
277.15	.0299	.0016036	
277.15	.0401	.0016102	
277.15	.0452	.0016206	
277.15	.0501	.0016275	
277.15	.055	.0016322	
277.15	.0598	.0016402	
277.15	.0653	.0016462	
277.15	.0704	.0016603	
277.15	.0803	.0016723	
277.15	.0822	.0016707	
277.15	.0898	.001678	
279.15	0	.001472	
279.15	.008	.0014808	
279.15	.02	.0014941	
279.15	.0249	.0014968	
279.15	.0301	.0015055	
279.15	.04	.0015121	
279.15	.045	.0015169	
279.15	.0501	.0015207	
279.15	.0552	.0015266	
279.15	.0603	.0015291	
279.15	.0652	.0015425	
279.15	.0703	.0015491	
279.15	.0751	.0015559	
279.15	.0798	.0015626	
279.15	.0897	.0015701	
279.15	.1001	.0015807	

System: pyridoxine hydrochloride + water; phases: Liquid
Fixed: Pressure, kPa = 101.3
Property: Mass density, kg/m3 (Liquid); method: Pycnometric method
Temperature, K	Molality, mol/kg of pyridoxine hydrochloride	Mass density, kg/m3	uncertainty
275.15	0	999.94	
275.15	.0101	1000.6	
275.15	.0204	1001.28	
275.15	.03	1001.91	
275.15	.0357	1002.27	
275.15	.0401	1002.55	
275.15	.0454	1002.9	
275.15	.0505	1003.22	
275.15	.0557	1003.54	
275.15	.0695	1004.4	
275.15	.0766	1004.84	
275.15	.0801	1005.06	
275.15	.0857	1005.41	
275.15	.0882	1005.58	
275.15	.1004	1006.38	
277.15	0	999.97	
277.15	.0099	1000.61	
277.15	.0202	1001.27	
277.15	.0252	1001.59	
277.15	.0299	1001.89	
277.15	.035	1002.22	
277.15	.04	1002.54	
277.15	.0497	1003.15	
277.15	.0598	1003.79	
277.15	.0658	1004.16	
277.15	.0683	1004.32	
277.15	.0753	1004.75	
277.15	.0797	1005.02	
277.15	.0882	1005.55	
277.15	.1004	1006.29	
279.15	0	999.94	
279.15	.01	1000.56	
279.15	.0199	1001.18	
279.15	.0253	1001.51	
279.15	.0298	1001.8	
279.15	.0351	1002.13	
279.15	.0397	1002.42	
279.15	.0492	1003	
279.15	.055	1003.36	
279.15	.0578	1003.53	
279.15	.0648	1003.96	
279.15	.069	1004.22	
279.15	.0798	1004.9	
279.15	.0897	1005.51	
279.15	.0996	1006.16	

System: pyridoxine hydrochloride + water; phases: Liquid
Fixed: Pressure, kPa = 101.3
Property: Viscosity, Pa*s (Liquid); method: Capillary tube (Ostwald; Ubbelohde) method
Temperature, K	Molality, mol/kg of pyridoxine hydrochloride	Viscosity, Pa*s	uncertainty
275.15	0	.001674	
275.15	.0101	.001687	
275.15	.0204	.0016954	
275.15	.03	.0017031	
275.15	.0357	.0017062	
275.15	.0401	.0017082	
275.15	.0454	.0017123	
275.15	.0505	.0017188	
275.15	.0557	.0017218	
275.15	.0695	.0017249	
275.15	.0766	.0017304	
275.15	.0801	.0017353	
275.15	.0857	.0017373	
275.15	.0882	.0017391	
275.15	.1004	.0017503	
277.15	0	.001567	
277.15	.0099	.0015759	
277.15	.0202	.0015803	
277.15	.0252	.0015841	
277.15	.0299	.0015879	
277.15	.035	.0015918	
277.15	.04	.0015969	
277.15	.0497	.0016033	
277.15	.0598	.0016059	
277.15	.0658	.0016074	
277.15	.0683	.0016093	
277.15	.0753	.0016146	
277.15	.0797	.001619	
277.15	.0882	.0016248	
277.15	.1004	.0016288	
279.15	0	.001472	
279.15	.01	.0014774	
279.15	.0199	.0014794	
279.15	.0253	.0014845	
279.15	.0298	.0014882	
279.15	.0351	.0014947	
279.15	.0397	.0015001	
279.15	.0492	.0014988	
279.15	.055	.0015067	
279.15	.0578	.0015049	
279.15	.0648	.0015153	
279.15	.069	.001522	
279.15	.0798	.001524	
279.15	.0897	.0015295	
279.15	.0996	.0015349	

System: sodium (+)-L-ascorbate + water; phases: Liquid
Fixed: Pressure, kPa = 101.3
Property: Mass density, kg/m3 (Liquid); method: Pycnometric method
Temperature, K	Molality, mol/kg of sodium (+)-L-ascorbate	Mass density, kg/m3	uncertainty
275.15	0	999.94	
275.15	.01	1001.05	
275.15	.0201	1002.2	
275.15	.0303	1003.31	
275.15	.0348	1003.83	
275.15	.04	1004.41	
275.15	.0451	1004.94	
275.15	.05	1005.5	
275.15	.0598	1006.59	
275.15	.0699	1007.71	
275.15	.0749	1008.27	
275.15	.0835	1009.12	
275.15	.0849	1009.32	
275.15	.0902	1009.85	
275.15	.0999	1010.96	
277.15	0	999.97	
277.15	.01	1001.09	
277.15	.02	1002.17	
277.15	.0301	1003.31	
277.15	.0351	1003.85	
277.15	.0402	1004.45	
277.15	.05	1005.5	
277.15	.0601	1006.59	
277.15	.065	1007.13	
277.15	.0697	1007.7	
277.15	.075	1008.2	
277.15	.0798	1008.75	
277.15	.0851	1009.29	
277.15	.0898	1009.82	
277.15	.1003	1010.95	
279.15	0	999.94	
279.15	.0105	1001.12	
279.15	.0201	1002.16	
279.15	.0301	1003.23	
279.15	.0348	1003.74	
279.15	.0402	1004.33	
279.15	.045	1004.84	
279.15	.0501	1005.39	
279.15	.0602	1006.49	
279.15	.065	1007.01	
279.15	.0699	1007.54	
279.15	.0752	1008.12	
279.15	.0852	1009.19	
279.15	.0904	1009.74	
279.15	.1005	1010.79	

System: sodium (+)-L-ascorbate + water; phases: Liquid
Fixed: Pressure, kPa = 101.3
Property: Viscosity, Pa*s (Liquid); method: Capillary tube (Ostwald; Ubbelohde) method
Temperature, K	Molality, mol/kg of sodium (+)-L-ascorbate	Viscosity, Pa*s	uncertainty
275.15	0	.001674	
275.15	.01	.00168	
275.15	.0201	.001691	
275.15	.0303	.0017029	
275.15	.0348	.0017025	
275.15	.04	.0017057	
275.15	.0451	.0017077	
275.15	.05	.0017178	
275.15	.0598	.0017268	
275.15	.0699	.0017357	
275.15	.0749	.0017449	
275.15	.0835	.0017477	
275.15	.0849	.001747	
275.15	.0902	.0017573	
275.15	.0999	.0017649	
277.15	0	.001567	
277.15	.01	.0015722	
277.15	.02	.0015783	
277.15	.0301	.0015857	
277.15	.0351	.0015909	
277.15	.0402	.0015953	
277.15	.05	.001601	
277.15	.0601	.0016091	
277.15	.065	.0016158	
277.15	.0697	.0016189	
277.15	.075	.0016256	
277.15	.0798	.0016284	
277.15	.0851	.0016339	
277.15	.0898	.0016406	
277.15	.1003	.0016463	
279.15	0	.001472	
279.15	.0105	.0014791	
279.15	.0201	.0014818	
279.15	.0301	.0014907	
279.15	.0348	.0014936	
279.15	.0402	.001498	
279.15	.045	.0015034	
279.15	.0501	.0015062	
279.15	.0602	.0015156	
279.15	.065	.0015196	
279.15	.0699	.0015309	
279.15	.0752	.0015323	
279.15	.0852	.0015375	
279.15	.0904	.0015415	
279.15	.1005	.0015485	
