Measured thermophysical data. Thermochemistry of La1-xLnxPO4-monazites (Ln = Gd, Eu)
Source: J. Chem. Thermodyn., 2017, 10.1016/j.jct.2016.11.003
Compound 1: gadolinium orthophosphate, GdO4P, purity 98%
Compound 2: lanthanum orthophosphate, LaO4P, purity 98%
Compound 3: europium phosphate, EuO4P, purity 98%
Compound 4: oxygen, O2
Compound 5: phosphorus, P
Compound 6: gadolinium, Gd
Compound 7: lanthanum, La
Compound 8: europium, Eu

System: gadolinium orthophosphate; phases: Crystal
Property: Mass density, kg/m3 (Crystal); method: X-ray diffraction
Temperature, K	Pressure, kPa	Mass density, kg/m3	uncertainty
298	101	5980	

System: lanthanum orthophosphate; phases: Crystal
Property: Mass density, kg/m3 (Crystal); method: X-ray diffraction
Temperature, K	Pressure, kPa	Mass density, kg/m3	uncertainty
298	101	5060	

System: europium phosphate; phases: Crystal
Property: Mass density, kg/m3 (Crystal); method: X-ray diffraction
Temperature, K	Pressure, kPa	Mass density, kg/m3	uncertainty
298	101	5810	

System: europium phosphate + lanthanum orthophosphate; phases: Crystal
Fixed: Temperature, K = 298
Fixed: Pressure, kPa = 100
Property: Excess molar enthalpy (molar enthalpy of mixing), kJ/mol (Crystal); method: Calvet calorimetry
Mole fraction of europium phosphate	Excess molar enthalpy (molar enthalpy of mixing), kJ/mol	uncertainty
.71	.2	
.58	.85	
.34	.54	
.11	.98	
.1	1.89	

System: europium phosphate + lanthanum orthophosphate; phases: Crystal
Fixed: Temperature, K = 298
Fixed: Pressure, kPa = 101
Property: Mass density, kg/m3 (Crystal); method: X-ray diffraction
Mole fraction of europium phosphate	Mass density, kg/m3	uncertainty
1	5810	
.91	5730	
.82	5660	
.71	5570	
.58	5470	
.4	5340	
.23	5210	
.11	5130	
0	5060	

System: gadolinium orthophosphate + lanthanum orthophosphate; phases: Crystal
Fixed: Temperature, K = 298
Fixed: Pressure, kPa = 100
Property: Excess molar enthalpy (molar enthalpy of mixing), kJ/mol (Crystal); method: Calvet calorimetry
Mole fraction of gadolinium orthophosphate	Excess molar enthalpy (molar enthalpy of mixing), kJ/mol	uncertainty
.76	2.18	
.55	2.95	
.44	3.25	
.24	1.15	

System: gadolinium orthophosphate + lanthanum orthophosphate; phases: Crystal
Fixed: Temperature, K = 298
Fixed: Pressure, kPa = 100
Property: Mass density, kg/m3 (Crystal); method: X-ray diffraction
Mole fraction of gadolinium orthophosphate	Mass density, kg/m3	uncertainty
1	5980	
.92	5900	
.84	5820	
.76	5740	
.64	5630	
.55	5540	
.44	5440	
.34	5340	
.24	5260	
.11	5160	
0	5060	

Reaction: -1 gadolinium + -1 phosphorus + 1 gadolinium orthophosphate + -2 oxygen
Property: Molar enthalpy of reaction, kJ/mol
-1959.75

Reaction: -1 lanthanum + -1 phosphorus + 1 lanthanum orthophosphate + -2 oxygen
Property: Molar enthalpy of reaction, kJ/mol
-1994.36

Reaction: -1 europium + -1 phosphorus + 1 europium phosphate + -2 oxygen
Property: Molar enthalpy of reaction, kJ/mol
-1870.7
