Measured thermophysical data. (Vapour + liquid + liquid) equilibrium measurements and correlation for the {1,1,1,2-tetrafluoroethane (R134a) + n-butane (R600)} system
Source: J. Chem. Thermodyn., 2015, 10.1016/j.jct.2014.12.030
Compound 1: R-134a, C2H2F4, purity 99.9%
Compound 2: n-butane, C4H10, purity 99.5%

System: n-butane + R-134a; phases: Liquid mixture 1, Liquid mixture 2, Gas
Property: Upper consolute temperature, K (Liquid mixture 1); method: Derived from LLE data
Upper consolute temperature, K	uncertainty
232.85	.006

System: n-butane + R-134a; phases: Liquid mixture 1, Liquid mixture 2, Gas
Property: Upper consolute composition: mole fraction of R-134a (Liquid mixture 1); method: Derived from LLE data
Upper consolute composition: mole fraction of R-134a	uncertainty
.464	.007

System: n-butane + R-134a; phases: Liquid mixture 1, Liquid mixture 2, Gas
Property: Upper consolute pressure, kPa (Liquid mixture 1); method: Derived from LLE data
Upper consolute pressure, kPa	uncertainty
59.4	.5

System: n-butane + R-134a; phases: Liquid mixture 1, Liquid mixture 2, Gas
Property: Vapor or sublimation pressure, kPa (Liquid mixture 1); method: Closed cell (Static) method
Temperature, K	Vapor or sublimation pressure, kPa	uncertainty
227.127	43.9	.5
228.093	46.8	.5
228.938	48.4	.5
229.012	48.7	.5
230.179	51.6	.5
231.223	54.6	.5
231.255	54.7	.5
231.78	56.2	.5
232.185	57.4	.5
232.292	57.8	.5
232.386	58	.5
232.503	58.4	.5
232.593	58.6	.5
232.62	58.9	.5
232.7	58.8	.5
232.817	59.4	.5
232.814	59.4	.5
232.701	58.9	.5
232.68	58.9	.5
232.593	58.6	.5
232.503	58.4	.5
232.386	58	.5
232.295	57.8	.5
232.187	57.4	.5
231.781	56.4	.5
231.26	54.8	.5
231.225	54.6	.5
230.18	51.7	.5
228.938	48.5	.5
229.014	48.7	.5
228.094	46.8	.5
227.13	43.9	.5

System: n-butane + R-134a; phases: Liquid mixture 1, Liquid mixture 2, Gas
Property: Mole fraction of R-134a (Liquid mixture 1); method: Chromatography
Temperature, K	Mole fraction of R-134a	uncertainty
227.127	.7845	.005
228.093	.7645	.005
228.938	.7492	.005
229.012	.749	.005
230.179	.7287	.005
231.223	.687	.005
231.255	.6868	.005
231.78	.6564	.005
232.185	.632	.005
232.292	.6263	.005
232.386	.613	.005
232.503	.5899	.005
232.593	.5802	.005
232.62	.5499	.005
232.7	.5284	.005
232.817	.5062	.005
232.814	.4488	.005
232.701	.3801	.005
232.68	.37	.005
232.593	.3558	.005
232.503	.345	.005
232.386	.3268	.005
232.295	.3202	.005
232.187	.3005	.005
231.781	.2825	.005
231.26	.2659	.005
231.225	.2638	.005
230.18	.2196	.005
228.938	.1865	.005
229.014	.1861	.005
228.094	.1665	.005
227.13	.1593	.005

System: n-butane + R-134a; phases: Gas, Liquid mixture 1, Liquid mixture 2
Property: Mole fraction of R-134a (Gas); method: Chromatography
Temperature, K	Mole fraction of R-134a	uncertainty
227.133	.7517	.005
229.012	.7527	.005
230.184	.7536	.005
231.119	.7543	.005
231.224	.7545	.005
231.259	.7546	.005
231.783	.755	.005
231.993	.7552	.005
232.185	.7554	.005
232.29	.7566	.005
232.39	.7558	.005
232.504	.7572	.005
232.643	.7575	.005
232.687	.7569	.005
232.703	.7575	.005
232.812	.7583	.005

System: n-butane + R-134a; phases: Liquid mixture 1, Liquid mixture 2, Gas
Property: Vapor or sublimation pressure, kPa (Liquid mixture 1); method: Closed cell (Static) method
Temperature, K	Vapor or sublimation pressure, kPa	uncertainty
227.133	43.9	.5
229.012	48.6	.5
230.184	51.6	.5
231.119	54.3	.5
231.224	54.6	.5
231.259	54.7	.5
231.783	56.4	.5
231.993	56.9	.5
232.185	57.4	.5
232.29	57.8	.5
232.39	58	.5
232.504	58.4	.5
232.643	58.6	.5
232.687	59.4	.5
232.703	58.9	.5
232.812	60.1	.5
