Measured thermophysical data. Thermodynamic models for determination of the solubility of (-)-shikimic acid in different pure solvents and in (H2O + ethanol) binary solvent mixtures
Source: J. Chem. Thermodyn., 2015, 10.1016/j.jct.2015.04.009
Compound 1: water, H2O
Compound 2: ethanol, C2H6O, purity 99.7%
Compound 3: n-propanol, C3H8O, purity 99.5%
Compound 4: isopropanol, C3H8O, purity 99.5%
Compound 5: n-pentyl alcohol, C5H12O, purity 99.5%
Compound 6: n-heptane, C7H16, purity 99.5%
Compound 7: (-)-shikimic acid, C7H10O5, purity 98%

System: (-)-shikimic acid; phases: Crystal, Liquid, Air at 1 atmosphere
Property: Normal melting temperature, K (Crystal); method: Visual observation
Normal melting temperature, K	uncertainty
460.15	1

System: (-)-shikimic acid + water; phases: Liquid, Crystal
Fixed: Pressure, kPa = 101.3
Property: Mole fraction of (-)-shikimic acid (Liquid); method: Chromatography
Temperature, K	Mole fraction of (-)-shikimic acid	uncertainty
299.55	.02484	.001242
303.65	.02736	.001368
308.75	.03229	.0016145
313.85	.03743	.0018715
318.45	.04274	.002137
323.45	.04837	.0024185
328.75	.05625	.0028125
333.05	.06374	.003187
337.05	.06949	.0034745
342.55	.08066	.004033
352.45	.10154	.005077
362.15	.12531	.0062655

System: ethanol + (-)-shikimic acid; phases: Liquid, Crystal
Fixed: Pressure, kPa = 101.3
Property: Mole fraction of (-)-shikimic acid (Liquid); method: Chromatography
Temperature, K	Mole fraction of (-)-shikimic acid	uncertainty
297.45	.00446	.000223
302.65	.00526	.000263
307.75	.00634	.000317
312.45	.00721	.0003605
317.55	.00855	.0004275
322.25	.01004	.000502
327.85	.01176	.000588
332.55	.01387	.0006935
337.35	.01595	.0007975
342.55	.01902	.000951
348.15	.02276	.001138

System: n-propanol + (-)-shikimic acid; phases: Liquid, Crystal
Fixed: Pressure, kPa = 101.3
Property: Mole fraction of (-)-shikimic acid (Liquid); method: Chromatography
Temperature, K	Mole fraction of (-)-shikimic acid	uncertainty
308.15	.00088	.000044
313.65	.00124	.000062
318.15	.0017	.000085
323.35	.00217	.0001085
328.55	.00317	.0001585
333.15	.0039	.000195
337.85	.00487	.0002435
343.65	.00661	.0003305
347.55	.00829	.0004145
352.65	.0104	.00052
357.25	.0123	.000615
362.15	.0156	.00078

System: isopropanol + (-)-shikimic acid; phases: Liquid, Crystal
Fixed: Pressure, kPa = 101.3
Property: Mole fraction of (-)-shikimic acid (Liquid); method: Chromatography
Temperature, K	Mole fraction of (-)-shikimic acid	uncertainty
303.75	.00099	.0000495
308.95	.00142	.000071
313.75	.00229	.0001145
319.15	.00291	.0001455
323.25	.00412	.000206
328.25	.00583	.0002915
333.25	.00736	.000368
337.95	.00906	.000453
342.75	.011	.00055
347.25	.0131	.000655
352.45	.0161	.000805

System: n-pentyl alcohol + (-)-shikimic acid; phases: Liquid, Crystal
Fixed: Pressure, kPa = 101.3
Property: Mole fraction of (-)-shikimic acid (Liquid); method: Chromatography
Temperature, K	Mole fraction of (-)-shikimic acid	uncertainty
304.45	.00128	.000064
313.65	.00212	.000106
323.75	.00318	.000159
328.55	.00402	.000201
332.95	.0051	.000255
338.25	.00634	.000317
342.75	.00759	.0003795
352.55	.0113	.000565
357.15	.014	.0007
362.05	.0172	.00086

System: (-)-shikimic acid + n-heptane; phases: Liquid, Crystal
Fixed: Pressure, kPa = 101.3
Property: Mole fraction of (-)-shikimic acid (Liquid); method: Chromatography
Temperature, K	Mole fraction of (-)-shikimic acid	uncertainty
302.15	.00343	.0001715
313.65	.00455	.0002275
323.25	.00667	.0003335
328.35	.00733	.0003665
337.75	.00969	.0004845
342.65	.00993	.0004965
348.05	.0108	.00054
352.45	.0121	.000605

System: ethanol + (-)-shikimic acid + water; phases: Liquid, Crystal
Fixed: Pressure, kPa = 101.3
Property: Mole fraction of (-)-shikimic acid (Liquid); method: Chromatography
Temperature, K	Solvent: Mass fraction of ethanol	Mole fraction of (-)-shikimic acid	uncertainty
299.55	0	.02484	.001242
303.65	0	.02736	.001368
308.75	0	.03229	.0016145
313.85	0	.03743	.0018715
318.45	0	.04274	.002137
323.45	0	.04837	.0024185
328.75	0	.05625	.0028125
333.05	0	.06374	.003187
337.05	0	.06949	.0034745
342.55	0	.08066	.004033
352.45	0	.10154	.005077
362.15	0	.12531	.0062655
295.35	.208	.02178	.001089
299.85	.208	.02585	.0012925
306.25	.208	.03244	.001622
312.25	.208	.03985	.0019925
318.55	.208	.04887	.0024435
325.15	.208	.05854	.002927
330.45	.208	.06735	.0033675
335.85	.208	.07748	.003874
342.05	.208	.09015	.0045075
348.05	.208	.10303	.0051515
294.25	.441	.02329	.0011645
299.05	.441	.02839	.0014195
302.75	.441	.0324	.00162
307.65	.441	.03749	.0018745
312.25	.441	.04315	.0021575
317.05	.441	.04919	.0024595
321.85	.441	.05597	.0027985
325.85	.441	.0617	.003085
330.45	.441	.0686	.00343
334.65	.441	.07523	.0037615
338.25	.441	.0808	.00404
341.35	.441	.08574	.004287
347.45	.441	.09553	.0047765
295.05	.703	.02117	.0010585
301.05	.703	.02502	.001251
306.85	.703	.02901	.0014505
311.45	.703	.03319	.0016595
316.85	.703	.03843	.0019215
320.95	.703	.04265	.0021325
326.85	.703	.04877	.0024385
331.25	.703	.05478	.002739
335.85	.703	.06036	.003018
341.25	.703	.06813	.0034065
344.45	.703	.07294	.003647
348.25	.703	.07904	.003952
297.45	1	.00446	.000223
302.65	1	.00526	.000263
307.75	1	.00634	.000317
312.45	1	.00721	.0003605
317.55	1	.00855	.0004275
322.25	1	.01004	.000502
327.85	1	.01176	.000588
332.55	1	.01387	.0006935
337.35	1	.01595	.0007975
342.55	1	.01902	.000951
348.15	1	.02276	.001138
