Measured thermophysical data. Phase equilibria of toluene/heptane with deep eutectic solvents based on ethyltriphenylphosphonium iodide for the potential use in the separation of aromatics from naphtha
Source: J. Chem. Thermodyn., 2013, 10.1016/j.jct.2013.05.046
Compound 1: ethyltriphenylphosphonium iodide, C20H20IP, purity 99%
Compound 2: sulfolane, C4H8O2S, purity 99%

System: sulfolane + ethyltriphenylphosphonium iodide; phases: Liquid
Fixed: Pressure, kPa = 101
Property: Refractive index (Na D-line) (Liquid); method: Standard Abbe refractometry
Temperature, K	Mole fraction of sulfolane	Refractive index (Na D-line)	uncertainty
298.15	.8	1.516	.0001
303.15	.8	1.5142	.0001
313.15	.8	1.5104	.0001
323.15	.8	1.5069	.0001
333.15	.8	1.5033	.0001

System: sulfolane + ethyltriphenylphosphonium iodide; phases: Liquid
Fixed: Pressure, kPa = 101
Fixed: Mole fraction of sulfolane = .8
Property: Viscosity, Pa*s (Liquid); method: Cone and plate viscometry
Temperature, K	Viscosity, Pa*s	uncertainty
298.15	.095034	.0047517
308.15	.052142	.0026071
318.15	.02415	.0012075
328.15	.015236	.0007618
338.15	.009578	.0004789
