Measured thermophysical data. Impact of structural modification of 1,2,4-thiadiazole derivatives on thermodynamics of solubility and solvation processes in 1-octanol and n-hexane
Source: J. Chem. Thermodyn., 2016, 10.1016/j.jct.2015.12.016
Compound 1: 1-(5-((4-methoxyphenyl)amino)-1,2,4-thiadiazol-3-yl)propan-2-ol, C12H15N3O2S, purity 95%
Compound 2: 1-(5-((3-chloro-4-methylphenyl)amino)-1,2,4-thiadiazol-3-yl)propan-2-ol, C12H14ClN3OS, purity 95%
Compound 3: 1-(5-((4-chlorophenyl)amino)-1,2,4-thiadiazol-3-yl)propan-2-ol, C11H12ClN3OS, purity 95%
Compound 4: 1-(5-(m-tolylamino)-1,2,4-thiadiazol-3-yl)propan-2-ol, C12H15N3OS, purity 95%
Compound 5: 1-(5-((3-chlorophenyl)amino)-1,2,4-thiadiazol-3-yl)propan-2-ol, C11H12ClN3OS, purity 95%
Compound 6: 1-(5-((5-chloro-2-methylphenyl)amino)-1,2,4-thiadiazol-3-yl)propan-2-ol, C12H14ClN3OS, purity 95%
Compound 7: n-hexane, C6H14, purity 99%
Compound 8: 1-octanol, C8H18O, purity 99%

System: n-hexane + 1-(5-((4-methoxyphenyl)amino)-1,2,4-thiadiazol-3-yl)propan-2-ol; phases: Liquid, Crystal
Fixed: Pressure, kPa = 101.3
Property: Mole fraction of 1-(5-((4-methoxyphenyl)amino)-1,2,4-thiadiazol-3-yl)propan-2-ol (Liquid); method: Spectrophotometry
Temperature, K	Mole fraction of 1-(5-((4-methoxyphenyl)amino)-1,2,4-thiadiazol-3-yl)propan-2-ol	uncertainty
293.2	.0000092	
298.2	.0000151	
303.2	.0000202	
310.2	.0000351	
315.2	.000048	

System: n-hexane + 1-(5-((3-chloro-4-methylphenyl)amino)-1,2,4-thiadiazol-3-yl)propan-2-ol; phases: Liquid, Crystal
Fixed: Pressure, kPa = 101.3
Property: Mole fraction of 1-(5-((3-chloro-4-methylphenyl)amino)-1,2,4-thiadiazol-3-yl)propan-2-ol (Liquid); method: Spectrophotometry
Temperature, K	Mole fraction of 1-(5-((3-chloro-4-methylphenyl)amino)-1,2,4-thiadiazol-3-yl)propan-2-ol	uncertainty
293.2	.0000032	
298.2	.0000048	
303.2	.0000062	
310.2	.0000092	
315.2	.0000128	

System: n-hexane + 1-(5-((4-chlorophenyl)amino)-1,2,4-thiadiazol-3-yl)propan-2-ol; phases: Liquid, Crystal
Fixed: Pressure, kPa = 101.3
Property: Mole fraction of 1-(5-((4-chlorophenyl)amino)-1,2,4-thiadiazol-3-yl)propan-2-ol (Liquid); method: Spectrophotometry
Temperature, K	Mole fraction of 1-(5-((4-chlorophenyl)amino)-1,2,4-thiadiazol-3-yl)propan-2-ol	uncertainty
293.2	.0000035	
298.2	.0000052	
303.2	.0000069	
310.2	.0000113	
315.2	.0000173	

System: n-hexane + 1-(5-(m-tolylamino)-1,2,4-thiadiazol-3-yl)propan-2-ol; phases: Liquid, Crystal
Fixed: Pressure, kPa = 101.3
Property: Mole fraction of 1-(5-(m-tolylamino)-1,2,4-thiadiazol-3-yl)propan-2-ol (Liquid); method: Spectrophotometry
Temperature, K	Mole fraction of 1-(5-(m-tolylamino)-1,2,4-thiadiazol-3-yl)propan-2-ol	uncertainty
293.2	.0000249	
298.2	.000034	
303.2	.0000459	
310.2	.000056	
315.2	.0000705	

System: n-hexane + 1-(5-((3-chlorophenyl)amino)-1,2,4-thiadiazol-3-yl)propan-2-ol; phases: Liquid, Crystal
Fixed: Pressure, kPa = 101.3
Property: Mole fraction of 1-(5-((3-chlorophenyl)amino)-1,2,4-thiadiazol-3-yl)propan-2-ol (Liquid); method: Spectrophotometry
Temperature, K	Mole fraction of 1-(5-((3-chlorophenyl)amino)-1,2,4-thiadiazol-3-yl)propan-2-ol	uncertainty
293.2	.0000055	
298.2	.000009	
303.2	.0000132	
310.2	.000024	
315.2	.0000362	

System: n-hexane + 1-(5-((5-chloro-2-methylphenyl)amino)-1,2,4-thiadiazol-3-yl)propan-2-ol; phases: Liquid, Crystal
Fixed: Pressure, kPa = 101.3
Property: Mole fraction of 1-(5-((5-chloro-2-methylphenyl)amino)-1,2,4-thiadiazol-3-yl)propan-2-ol (Liquid); method: Spectrophotometry
Temperature, K	Mole fraction of 1-(5-((5-chloro-2-methylphenyl)amino)-1,2,4-thiadiazol-3-yl)propan-2-ol	uncertainty
293.2	.0000295	
298.2	.0000379	
303.2	.0000473	
310.2	.0000555	
315.2	.0000664	

System: 1-octanol + 1-(5-((4-methoxyphenyl)amino)-1,2,4-thiadiazol-3-yl)propan-2-ol; phases: Liquid, Crystal
Fixed: Pressure, kPa = 101.3
Property: Mole fraction of 1-(5-((4-methoxyphenyl)amino)-1,2,4-thiadiazol-3-yl)propan-2-ol (Liquid); method: Spectrophotometry
Temperature, K	Mole fraction of 1-(5-((4-methoxyphenyl)amino)-1,2,4-thiadiazol-3-yl)propan-2-ol	uncertainty
293.2	.0466	
298.2	.0627	
303.2	.0694	
310.2	.1011	
315.2	.1215	

System: 1-octanol + 1-(5-((3-chloro-4-methylphenyl)amino)-1,2,4-thiadiazol-3-yl)propan-2-ol; phases: Liquid, Crystal
Fixed: Pressure, kPa = 101.3
Property: Mole fraction of 1-(5-((3-chloro-4-methylphenyl)amino)-1,2,4-thiadiazol-3-yl)propan-2-ol (Liquid); method: Spectrophotometry
Temperature, K	Mole fraction of 1-(5-((3-chloro-4-methylphenyl)amino)-1,2,4-thiadiazol-3-yl)propan-2-ol	uncertainty
293.2	.0121	
298.2	.0134	
303.2	.0166	
310.2	.021	
315.2	.0251	

System: 1-octanol + 1-(5-((4-chlorophenyl)amino)-1,2,4-thiadiazol-3-yl)propan-2-ol; phases: Liquid, Crystal
Fixed: Pressure, kPa = 101.3
Property: Mole fraction of 1-(5-((4-chlorophenyl)amino)-1,2,4-thiadiazol-3-yl)propan-2-ol (Liquid); method: Spectrophotometry
Temperature, K	Mole fraction of 1-(5-((4-chlorophenyl)amino)-1,2,4-thiadiazol-3-yl)propan-2-ol	uncertainty
293.2	.0187	
298.2	.0218	
303.2	.0245	
310.2	.029	
315.2	.035	

System: 1-octanol + 1-(5-(m-tolylamino)-1,2,4-thiadiazol-3-yl)propan-2-ol; phases: Liquid, Crystal
Fixed: Pressure, kPa = 101.3
Property: Mole fraction of 1-(5-(m-tolylamino)-1,2,4-thiadiazol-3-yl)propan-2-ol (Liquid); method: Spectrophotometry
Temperature, K	Mole fraction of 1-(5-(m-tolylamino)-1,2,4-thiadiazol-3-yl)propan-2-ol	uncertainty
293.2	.0266	
298.2	.0355	
303.2	.038	
310.2	.0501	
315.2	.0558	

System: 1-octanol + 1-(5-((3-chlorophenyl)amino)-1,2,4-thiadiazol-3-yl)propan-2-ol; phases: Liquid, Crystal
Fixed: Pressure, kPa = 101.3
Property: Mole fraction of 1-(5-((3-chlorophenyl)amino)-1,2,4-thiadiazol-3-yl)propan-2-ol (Liquid); method: Spectrophotometry
Temperature, K	Mole fraction of 1-(5-((3-chlorophenyl)amino)-1,2,4-thiadiazol-3-yl)propan-2-ol	uncertainty
293.2	.0546	
298.2	.0633	
303.2	.0729	
310.2	.0885	
315.2	.1005	

System: 1-octanol + 1-(5-((5-chloro-2-methylphenyl)amino)-1,2,4-thiadiazol-3-yl)propan-2-ol; phases: Liquid, Crystal
Fixed: Pressure, kPa = 101.3
Property: Mole fraction of 1-(5-((5-chloro-2-methylphenyl)amino)-1,2,4-thiadiazol-3-yl)propan-2-ol (Liquid); method: Spectrophotometry
Temperature, K	Mole fraction of 1-(5-((5-chloro-2-methylphenyl)amino)-1,2,4-thiadiazol-3-yl)propan-2-ol	uncertainty
288.2	.0441	
290.7	.0465	
293.2	.0488	
295.7	.0515	
298.2	.054	
