Measured thermophysical data. Activity coefficients at infinite dilution and physicochemical properties for organic solutes and water in the ionic liquid  1-(2-methoxyethyl)-1-methylpyrrolidinium bis(trifluoromethylsulfonyl)-amide
Source: J. Chem. Thermodyn., 2012, 10.1016/j.jct.2012.03.015
Compound 1: 1-(2-methoxyethyl)-1-methyl-pyrrolidinium bis(trifluoromethylsulfonyl)imide, C10H18F6N2O5S2, purity 99.5%
Compound 2: pentane, C5H12, purity 99%
Compound 3: n-hexane, C6H14, purity 99%
Compound 4: pentane, 3-methyl-, C6H14, purity 99%
Compound 5: 2,2-dimethylbutane, C6H14, purity 99%
Compound 6: heptane, C7H16, purity 99.5%
Compound 7: n-octane, C8H18, purity 99%
Compound 8: isooctane, C8H18, purity 99%
Compound 9: n-nonane, C9H20, purity 99%
Compound 10: n-decane, C10H22, purity 99%
Compound 11: cyclopentane, C5H10, purity 99%
Compound 12: cyclohexane, C6H12, purity 99%
Compound 13: methylcyclohexane, C7H14, purity 99%
Compound 14: cycloheptane, C7H14, purity 99%
Compound 15: cyclooctane, C8H16, purity 99%
Compound 16: 1-pentene, C5H10, purity 98.5%
Compound 17: 1-hexene, C6H12, purity 99%
Compound 18: cyclohex-1-ene, C6H10, purity 99%
Compound 19: 1-heptene, C7H14, purity 99%
Compound 20: 1-octene, C8H16, purity 98%
Compound 21: 1-decene, C10H20, purity 97%
Compound 22: 1-hexyne, C6H10, purity 97%
Compound 23: 1-heptyne, C7H12, purity 98%
Compound 24: 1-octyne, C8H14, purity 97%
Compound 25: benzene, C6H6, purity 99.8%
Compound 26: phenylmethane, C7H8, purity 99.8%
Compound 27: ethylbenzene, C8H10, purity 99.8%
Compound 28: benzene, 1,2-dimethyl-, C8H10, purity 99%
Compound 29: 1,3-xylene, C8H10, purity 99%
Compound 30: 1,4-dimethylbenzene, C8H10, purity 99%
Compound 31: styrene, C8H8, purity 99.9%
Compound 32: styrene, .alpha.-methyl-, C9H10, purity 99%
Compound 33: thiophene, C4H4S, purity 99%
Compound 34: pyridine, C5H5N, purity 99.8%
Compound 35: methanol, CH4O, purity 99.9%
Compound 36: ethyl alcohol, C2H6O, purity 99.8%
Compound 37: propan-1-ol, C3H8O, purity 99.9%
Compound 38: 2-propanol, C3H8O, purity 99.9%
Compound 39: 1-butanol, C4H10O, purity 99.8%
Compound 40: butan-2-ol, C4H10O, purity 99.5%
Compound 41: isobutyl alcohol, C4H10O, purity 99.5%
Compound 42: 2-propanol, 2-methyl-, C4H10O, purity 99.7%
Compound 43: water, H2O, purity 99.9%
Compound 44: acetic acid, methyl ester, C3H6O2, purity 99.8%
Compound 45: methyl propionate, C4H8O2, purity 99%
Compound 46: butyric acid, methyl ester, C5H10O2, purity 99%
Compound 47: ethyl ethanoate, C4H8O2, purity 99.8%
Compound 48: oxolane, C4H8O, purity 99.9%
Compound 49: 1,4-dioxane, C4H8O2, purity 99.8%
Compound 50: methyl tert-butyl ether, C5H12O, purity 99.8%
Compound 51: ethyl tert-butyl ether, C6H14O, purity 99%
Compound 52: tert-amyl methyl ether, C6H14O, purity 97%
Compound 53: diethyl ether, C4H10O, purity 99.9%
Compound 54: ether, dipropyl, C6H14O, purity 99%
Compound 55: isopropyl ether, C6H14O, purity 99%
Compound 56: butyl oxide, C8H18O, purity 99.3%
Compound 57: dimethyl ketone, C3H6O, purity 99.9%
Compound 58: methyl n-propyl ketone, C5H10O, purity 99%
Compound 59: diethyl ketone, C5H10O, purity 99%
Compound 60: 1-propanecarbaldehyde, C4H8O, purity 99%
Compound 61: cyanomethane, C2H3N, purity 99.9%
Compound 62: 1-nitropropane, C3H7NO2, purity 98.5%

System: pentane + 1-(2-methoxyethyl)-1-methyl-pyrrolidinium bis(trifluoromethylsulfonyl)imide; phases: Liquid
Fixed: Mole fraction of pentane = 0
Fixed: Pressure, kPa = 101
Property: Activity coefficient of pentane (Liquid); method: Chromatography
Temperature, K	Activity coefficient of pentane	uncertainty
318.15	13.4	.402
328.15	12.7	.381
338.15	12.1	.363
348.15	11.5	.345
358.15	11	.33
368.15	10.5	.315

System: n-hexane + 1-(2-methoxyethyl)-1-methyl-pyrrolidinium bis(trifluoromethylsulfonyl)imide; phases: Liquid
Fixed: Mole fraction of n-hexane = 0
Fixed: Pressure, kPa = 101
Property: Activity coefficient of n-hexane (Liquid); method: Chromatography
Temperature, K	Activity coefficient of n-hexane	uncertainty
318.15	19	.57
328.15	17.8	.534
338.15	16.7	.501
348.15	15.9	.477
358.15	15	.45
368.15	14.3	.429

System: pentane, 3-methyl- + 1-(2-methoxyethyl)-1-methyl-pyrrolidinium bis(trifluoromethylsulfonyl)imide; phases: Liquid
Fixed: Mole fraction of pentane, 3-methyl- = 0
Fixed: Pressure, kPa = 101
Property: Activity coefficient of pentane, 3-methyl- (Liquid); method: Chromatography
Temperature, K	Activity coefficient of pentane, 3-methyl-	uncertainty
318.15	16.6	.498
328.15	15.6	.468
338.15	14.8	.444
348.15	14.1	.423
358.15	13.5	.405
368.15	12.8	.384

System: 2,2-dimethylbutane + 1-(2-methoxyethyl)-1-methyl-pyrrolidinium bis(trifluoromethylsulfonyl)imide; phases: Liquid
Fixed: Mole fraction of 2,2-dimethylbutane = 0
Fixed: Pressure, kPa = 101
Property: Activity coefficient of 2,2-dimethylbutane (Liquid); method: Chromatography
Temperature, K	Activity coefficient of 2,2-dimethylbutane	uncertainty
318.15	15.1	.453
328.15	14.4	.432
338.15	13.7	.411
348.15	13.1	.393
358.15	12.6	.378
368.15	12	.36

System: heptane + 1-(2-methoxyethyl)-1-methyl-pyrrolidinium bis(trifluoromethylsulfonyl)imide; phases: Liquid
Fixed: Mole fraction of heptane = 0
Fixed: Pressure, kPa = 101
Property: Activity coefficient of heptane (Liquid); method: Chromatography
Temperature, K	Activity coefficient of heptane	uncertainty
318.15	28	.84
328.15	25.9	.777
338.15	24.2	.726
348.15	22.6	.678
358.15	21.1	.633
368.15	19.7	.591

System: n-octane + 1-(2-methoxyethyl)-1-methyl-pyrrolidinium bis(trifluoromethylsulfonyl)imide; phases: Liquid
Fixed: Mole fraction of n-octane = 0
Fixed: Pressure, kPa = 101
Property: Activity coefficient of n-octane (Liquid); method: Chromatography
Temperature, K	Activity coefficient of n-octane	uncertainty
318.15	40.5	1.215
328.15	36.9	1.107
338.15	33.9	1.017
348.15	31.4	.942
358.15	29	.87
368.15	27	.81

System: isooctane + 1-(2-methoxyethyl)-1-methyl-pyrrolidinium bis(trifluoromethylsulfonyl)imide; phases: Liquid
Fixed: Mole fraction of isooctane = 0
Fixed: Pressure, kPa = 101
Property: Activity coefficient of isooctane (Liquid); method: Chromatography
Temperature, K	Activity coefficient of isooctane	uncertainty
318.15	26.9	.807
328.15	25.1	.753
338.15	23.7	.711
348.15	22.3	.669
358.15	21.2	.636
368.15	20	.6

System: n-nonane + 1-(2-methoxyethyl)-1-methyl-pyrrolidinium bis(trifluoromethylsulfonyl)imide; phases: Liquid
Fixed: Mole fraction of n-nonane = 0
Fixed: Pressure, kPa = 101
Property: Activity coefficient of n-nonane (Liquid); method: Chromatography
Temperature, K	Activity coefficient of n-nonane	uncertainty
318.15	58.1	1.743
328.15	52.9	1.587
338.15	48.4	1.452
348.15	44.3	1.329
358.15	41	1.23
368.15	37.8	1.134

System: n-decane + 1-(2-methoxyethyl)-1-methyl-pyrrolidinium bis(trifluoromethylsulfonyl)imide; phases: Liquid
Fixed: Mole fraction of n-decane = 0
Fixed: Pressure, kPa = 101
Property: Activity coefficient of n-decane (Liquid); method: Chromatography
Temperature, K	Activity coefficient of n-decane	uncertainty
318.15	83.1	2.493
328.15	75.5	2.265
338.15	68.1	2.043
348.15	61.8	1.854
358.15	56.1	1.683
368.15	51.3	1.539

System: cyclopentane + 1-(2-methoxyethyl)-1-methyl-pyrrolidinium bis(trifluoromethylsulfonyl)imide; phases: Liquid
Fixed: Mole fraction of cyclopentane = 0
Fixed: Pressure, kPa = 101
Property: Activity coefficient of cyclopentane (Liquid); method: Chromatography
Temperature, K	Activity coefficient of cyclopentane	uncertainty
318.15	7.52	.2256
328.15	7.19	.2157
338.15	6.85	.2055
348.15	6.54	.1962
358.15	6.26	.1878
368.15	5.98	.1794

System: cyclohexane + 1-(2-methoxyethyl)-1-methyl-pyrrolidinium bis(trifluoromethylsulfonyl)imide; phases: Liquid
Fixed: Mole fraction of cyclohexane = 0
Fixed: Pressure, kPa = 101
Property: Activity coefficient of cyclohexane (Liquid); method: Chromatography
Temperature, K	Activity coefficient of cyclohexane	uncertainty
318.15	11.1	.333
328.15	10.4	.312
338.15	9.69	.2907
348.15	9.22	.2766
358.15	8.65	.2595
368.15	8.23	.2469

System: methylcyclohexane + 1-(2-methoxyethyl)-1-methyl-pyrrolidinium bis(trifluoromethylsulfonyl)imide; phases: Liquid
Fixed: Mole fraction of methylcyclohexane = 0
Fixed: Pressure, kPa = 101
Property: Activity coefficient of methylcyclohexane (Liquid); method: Chromatography
Temperature, K	Activity coefficient of methylcyclohexane	uncertainty
318.15	15.4	.462
328.15	14.4	.432
338.15	13.5	.405
348.15	12.7	.381
358.15	12	.36
368.15	11.2	.336

System: cycloheptane + 1-(2-methoxyethyl)-1-methyl-pyrrolidinium bis(trifluoromethylsulfonyl)imide; phases: Liquid
Fixed: Mole fraction of cycloheptane = 0
Fixed: Pressure, kPa = 101
Property: Activity coefficient of cycloheptane (Liquid); method: Chromatography
Temperature, K	Activity coefficient of cycloheptane	uncertainty
318.15	15.3	.459
328.15	14.1	.423
338.15	13.1	.393
348.15	12.3	.369
358.15	11.5	.345
368.15	10.8	.324

System: cyclooctane + 1-(2-methoxyethyl)-1-methyl-pyrrolidinium bis(trifluoromethylsulfonyl)imide; phases: Liquid
Fixed: Mole fraction of cyclooctane = 0
Fixed: Pressure, kPa = 101
Property: Activity coefficient of cyclooctane (Liquid); method: Chromatography
Temperature, K	Activity coefficient of cyclooctane	uncertainty
318.15	20.7	.621
328.15	19	.57
338.15	17.4	.522
348.15	16.2	.486
358.15	15	.45
368.15	14	.42

System: 1-pentene + 1-(2-methoxyethyl)-1-methyl-pyrrolidinium bis(trifluoromethylsulfonyl)imide; phases: Liquid
Fixed: Mole fraction of 1-pentene = 0
Fixed: Pressure, kPa = 101
Property: Activity coefficient of 1-pentene (Liquid); method: Chromatography
Temperature, K	Activity coefficient of 1-pentene	uncertainty
318.15	6.65	.1995
328.15	6.5	.195
338.15	6.35	.1905
348.15	6.17	.1851
358.15	6.07	.1821
368.15	5.91	.1773

System: 1-hexene + 1-(2-methoxyethyl)-1-methyl-pyrrolidinium bis(trifluoromethylsulfonyl)imide; phases: Liquid
Fixed: Mole fraction of 1-hexene = 0
Fixed: Pressure, kPa = 101
Property: Activity coefficient of 1-hexene (Liquid); method: Chromatography
Temperature, K	Activity coefficient of 1-hexene	uncertainty
318.15	9.74	.2922
328.15	9.34	.2802
338.15	8.92	.2676
348.15	8.61	.2583
358.15	8.24	.2472
368.15	7.96	.2388

System: cyclohex-1-ene + 1-(2-methoxyethyl)-1-methyl-pyrrolidinium bis(trifluoromethylsulfonyl)imide; phases: Liquid
Fixed: Mole fraction of cyclohex-1-ene = 0
Fixed: Pressure, kPa = 101
Property: Activity coefficient of cyclohex-1-ene (Liquid); method: Chromatography
Temperature, K	Activity coefficient of cyclohex-1-ene	uncertainty
318.15	6.04	.1812
328.15	5.82	.1746
338.15	5.63	.1689
348.15	5.44	.1632
358.15	5.27	.1581
368.15	5.1	.153

System: 1-heptene + 1-(2-methoxyethyl)-1-methyl-pyrrolidinium bis(trifluoromethylsulfonyl)imide; phases: Liquid
Fixed: Mole fraction of 1-heptene = 0
Fixed: Pressure, kPa = 101
Property: Activity coefficient of 1-heptene (Liquid); method: Chromatography
Temperature, K	Activity coefficient of 1-heptene	uncertainty
318.15	14.1	.423
328.15	13.4	.402
338.15	12.9	.387
348.15	12.3	.369
358.15	11.8	.354
368.15	11.4	.342

System: 1-octene + 1-(2-methoxyethyl)-1-methyl-pyrrolidinium bis(trifluoromethylsulfonyl)imide; phases: Liquid
Fixed: Mole fraction of 1-octene = 0
Fixed: Pressure, kPa = 101
Property: Activity coefficient of 1-octene (Liquid); method: Chromatography
Temperature, K	Activity coefficient of 1-octene	uncertainty
318.15	20.8	.624
328.15	19.5	.585
338.15	18.2	.546
348.15	17.3	.519
358.15	16.3	.489
368.15	15.6	.468

System: 1-decene + 1-(2-methoxyethyl)-1-methyl-pyrrolidinium bis(trifluoromethylsulfonyl)imide; phases: Liquid
Fixed: Mole fraction of 1-decene = 0
Fixed: Pressure, kPa = 101
Property: Activity coefficient of 1-decene (Liquid); method: Chromatography
Temperature, K	Activity coefficient of 1-decene	uncertainty
318.15	41.7	1.251
328.15	39	1.17
338.15	36.4	1.092
348.15	33.8	1.014
358.15	31.7	.951
368.15	29.8	.894

System: 1-hexyne + 1-(2-methoxyethyl)-1-methyl-pyrrolidinium bis(trifluoromethylsulfonyl)imide; phases: Liquid
Fixed: Mole fraction of 1-hexyne = 0
Fixed: Pressure, kPa = 101
Property: Activity coefficient of 1-hexyne (Liquid); method: Chromatography
Temperature, K	Activity coefficient of 1-hexyne	uncertainty
318.15	3.29	.0987
328.15	3.29	.0987
338.15	3.28	.0984
348.15	3.28	.0984
358.15	3.28	.0984
368.15	3.27	.0981

System: 1-heptyne + 1-(2-methoxyethyl)-1-methyl-pyrrolidinium bis(trifluoromethylsulfonyl)imide; phases: Liquid
Fixed: Mole fraction of 1-heptyne = 0
Fixed: Pressure, kPa = 101
Property: Activity coefficient of 1-heptyne (Liquid); method: Chromatography
Temperature, K	Activity coefficient of 1-heptyne	uncertainty
318.15	4.75	.1425
328.15	4.71	.1413
338.15	4.66	.1398
348.15	4.62	.1386
358.15	4.58	.1374
368.15	4.55	.1365

System: 1-octyne + 1-(2-methoxyethyl)-1-methyl-pyrrolidinium bis(trifluoromethylsulfonyl)imide; phases: Liquid
Fixed: Mole fraction of 1-octyne = 0
Fixed: Pressure, kPa = 101
Property: Activity coefficient of 1-octyne (Liquid); method: Chromatography
Temperature, K	Activity coefficient of 1-octyne	uncertainty
318.15	6.85	.2055
328.15	6.73	.2019
338.15	6.58	.1974
348.15	6.48	.1944
358.15	6.37	.1911
368.15	6.27	.1881

System: benzene + 1-(2-methoxyethyl)-1-methyl-pyrrolidinium bis(trifluoromethylsulfonyl)imide; phases: Liquid
Fixed: Mole fraction of benzene = 0
Fixed: Pressure, kPa = 101
Property: Activity coefficient of benzene (Liquid); method: Chromatography
Temperature, K	Activity coefficient of benzene	uncertainty
318.15	1.03	.0309
328.15	1.04	.0312
338.15	1.06	.0318
348.15	1.07	.0321
358.15	1.08	.0324
368.15	1.09	.0327

System: phenylmethane + 1-(2-methoxyethyl)-1-methyl-pyrrolidinium bis(trifluoromethylsulfonyl)imide; phases: Liquid
Fixed: Mole fraction of phenylmethane = 0
Fixed: Pressure, kPa = 101
Property: Activity coefficient of phenylmethane (Liquid); method: Chromatography
Temperature, K	Activity coefficient of phenylmethane	uncertainty
318.15	1.48	.0444
328.15	1.5	.045
338.15	1.51	.0453
348.15	1.53	.0459
358.15	1.55	.0465
368.15	1.56	.0468

System: ethylbenzene + 1-(2-methoxyethyl)-1-methyl-pyrrolidinium bis(trifluoromethylsulfonyl)imide; phases: Liquid
Fixed: Mole fraction of ethylbenzene = 0
Fixed: Pressure, kPa = 101
Property: Activity coefficient of ethylbenzene (Liquid); method: Chromatography
Temperature, K	Activity coefficient of ethylbenzene	uncertainty
318.15	2.23	.0669
328.15	2.24	.0672
338.15	2.24	.0672
348.15	2.25	.0675
358.15	2.25	.0675
368.15	2.26	.0678

System: benzene, 1,2-dimethyl- + 1-(2-methoxyethyl)-1-methyl-pyrrolidinium bis(trifluoromethylsulfonyl)imide; phases: Liquid
Fixed: Mole fraction of benzene, 1,2-dimethyl- = 0
Fixed: Pressure, kPa = 101
Property: Activity coefficient of benzene, 1,2-dimethyl- (Liquid); method: Chromatography
Temperature, K	Activity coefficient of benzene, 1,2-dimethyl-	uncertainty
318.15	1.94	.0582
328.15	1.96	.0588
338.15	1.97	.0591
348.15	1.98	.0594
358.15	1.99	.0597
368.15	2	.06

System: 1,3-xylene + 1-(2-methoxyethyl)-1-methyl-pyrrolidinium bis(trifluoromethylsulfonyl)imide; phases: Liquid
Fixed: Pressure, kPa = 101
Fixed: Mole fraction of 1,3-xylene = 0
Property: Activity coefficient of 1,3-xylene (Liquid); method: Chromatography
Temperature, K	Activity coefficient of 1,3-xylene	uncertainty
318.15	2.14	.0642
328.15	2.16	.0648
338.15	2.17	.0651
348.15	2.19	.0657
358.15	2.2	.066
368.15	2.22	.0666

System: 1,4-dimethylbenzene + 1-(2-methoxyethyl)-1-methyl-pyrrolidinium bis(trifluoromethylsulfonyl)imide; phases: Liquid
Fixed: Pressure, kPa = 101
Fixed: Mole fraction of 1,4-dimethylbenzene = 0
Property: Activity coefficient of 1,4-dimethylbenzene (Liquid); method: Chromatography
Temperature, K	Activity coefficient of 1,4-dimethylbenzene	uncertainty
318.15	2.15	.0645
328.15	2.17	.0651
338.15	2.18	.0654
348.15	2.2	.066
358.15	2.21	.0663
368.15	2.23	.0669

System: styrene + 1-(2-methoxyethyl)-1-methyl-pyrrolidinium bis(trifluoromethylsulfonyl)imide; phases: Liquid
Fixed: Pressure, kPa = 101
Fixed: Mole fraction of styrene = 0
Property: Activity coefficient of styrene (Liquid); method: Chromatography
Temperature, K	Activity coefficient of styrene	uncertainty
318.15	1.29	.0387
328.15	1.32	.0396
338.15	1.33	.0399
348.15	1.36	.0408
358.15	1.37	.0411
368.15	1.39	.0417

System: styrene, .alpha.-methyl- + 1-(2-methoxyethyl)-1-methyl-pyrrolidinium bis(trifluoromethylsulfonyl)imide; phases: Liquid
Fixed: Pressure, kPa = 101
Fixed: Mole fraction of styrene, .alpha.-methyl- = 0
Property: Activity coefficient of styrene, .alpha.-methyl- (Liquid); method: Chromatography
Temperature, K	Activity coefficient of styrene, .alpha.-methyl-	uncertainty
318.15	1.87	.0561
328.15	1.93	.0579
338.15	1.98	.0594
348.15	2.03	.0609
358.15	2.08	.0624
368.15	2.12	.0636

System: thiophene + 1-(2-methoxyethyl)-1-methyl-pyrrolidinium bis(trifluoromethylsulfonyl)imide; phases: Liquid
Fixed: Pressure, kPa = 101
Fixed: Mole fraction of thiophene = 0
Property: Activity coefficient of thiophene (Liquid); method: Chromatography
Temperature, K	Activity coefficient of thiophene	uncertainty
318.15	.885	.02655
328.15	.897	.02691
338.15	.909	.02727
348.15	.918	.02754
358.15	.929	.02787
368.15	.938	.02814

System: pyridine + 1-(2-methoxyethyl)-1-methyl-pyrrolidinium bis(trifluoromethylsulfonyl)imide; phases: Liquid
Fixed: Pressure, kPa = 101
Fixed: Mole fraction of pyridine = 0
Property: Activity coefficient of pyridine (Liquid); method: Chromatography
Temperature, K	Activity coefficient of pyridine	uncertainty
318.15	.602	.01806
328.15	.61	.0183
338.15	.618	.01854
348.15	.625	.01875
358.15	.633	.01899
368.15	.639	.01917

System: methanol + 1-(2-methoxyethyl)-1-methyl-pyrrolidinium bis(trifluoromethylsulfonyl)imide; phases: Liquid
Fixed: Pressure, kPa = 101
Fixed: Mole fraction of methanol = 0
Property: Activity coefficient of methanol (Liquid); method: Chromatography
Temperature, K	Activity coefficient of methanol	uncertainty
318.15	1.37	.0411
328.15	1.27	.0381
338.15	1.18	.0354
348.15	1.1	.033
358.15	1.03	.0309
368.15	.972	.02916

System: ethyl alcohol + 1-(2-methoxyethyl)-1-methyl-pyrrolidinium bis(trifluoromethylsulfonyl)imide; phases: Liquid
Fixed: Pressure, kPa = 101
Fixed: Mole fraction of ethyl alcohol = 0
Property: Activity coefficient of ethyl alcohol (Liquid); method: Chromatography
Temperature, K	Activity coefficient of ethyl alcohol	uncertainty
318.15	1.77	.0531
328.15	1.63	.0489
338.15	1.48	.0444
348.15	1.38	.0414
358.15	1.28	.0384
368.15	1.2	.036

System: propan-1-ol + 1-(2-methoxyethyl)-1-methyl-pyrrolidinium bis(trifluoromethylsulfonyl)imide; phases: Liquid
Fixed: Pressure, kPa = 101
Fixed: Mole fraction of propan-1-ol = 0
Property: Activity coefficient of propan-1-ol (Liquid); method: Chromatography
Temperature, K	Activity coefficient of propan-1-ol	uncertainty
318.15	2.2	.066
328.15	2.02	.0606
338.15	1.86	.0558
348.15	1.71	.0513
358.15	1.58	.0474
368.15	1.48	.0444

System: 2-propanol + 1-(2-methoxyethyl)-1-methyl-pyrrolidinium bis(trifluoromethylsulfonyl)imide; phases: Liquid
Fixed: Pressure, kPa = 101
Fixed: Mole fraction of 2-propanol = 0
Property: Activity coefficient of 2-propanol (Liquid); method: Chromatography
Temperature, K	Activity coefficient of 2-propanol	uncertainty
318.15	2	.06
328.15	1.83	.0549
338.15	1.67	.0501
348.15	1.54	.0462
358.15	1.43	.0429
368.15	1.34	.0402

System: 1-butanol + 1-(2-methoxyethyl)-1-methyl-pyrrolidinium bis(trifluoromethylsulfonyl)imide; phases: Liquid
Fixed: Pressure, kPa = 101
Fixed: Mole fraction of 1-butanol = 0
Property: Activity coefficient of 1-butanol (Liquid); method: Chromatography
Temperature, K	Activity coefficient of 1-butanol	uncertainty
318.15	2.87	.0861
328.15	2.6	.078
338.15	2.35	.0705
348.15	2.16	.0648
358.15	1.98	.0594
368.15	1.84	.0552

System: butan-2-ol + 1-(2-methoxyethyl)-1-methyl-pyrrolidinium bis(trifluoromethylsulfonyl)imide; phases: Liquid
Fixed: Pressure, kPa = 101
Fixed: Mole fraction of butan-2-ol = 0
Property: Activity coefficient of butan-2-ol (Liquid); method: Chromatography
Temperature, K	Activity coefficient of butan-2-ol	uncertainty
318.15	2.4	.072
328.15	2.19	.0657
338.15	2	.06
348.15	1.85	.0555
358.15	1.72	.0516
368.15	1.61	.0483

System: isobutyl alcohol + 1-(2-methoxyethyl)-1-methyl-pyrrolidinium bis(trifluoromethylsulfonyl)imide; phases: Liquid
Fixed: Pressure, kPa = 101
Fixed: Mole fraction of isobutyl alcohol = 0
Property: Activity coefficient of isobutyl alcohol (Liquid); method: Chromatography
Temperature, K	Activity coefficient of isobutyl alcohol	uncertainty
318.15	2.76	.0828
328.15	2.46	.0738
338.15	2.2	.066
348.15	2.01	.0603
358.15	1.84	.0552
368.15	1.7	.051

System: 2-propanol, 2-methyl- + 1-(2-methoxyethyl)-1-methyl-pyrrolidinium bis(trifluoromethylsulfonyl)imide; phases: Liquid
Fixed: Pressure, kPa = 101
Fixed: Mole fraction of 2-propanol, 2-methyl- = 0
Property: Activity coefficient of 2-propanol, 2-methyl- (Liquid); method: Chromatography
Temperature, K	Activity coefficient of 2-propanol, 2-methyl-	uncertainty
318.15	1.92	.0576
328.15	1.79	.0537
338.15	1.67	.0501
348.15	1.56	.0468
358.15	1.48	.0444
368.15	1.4	.042

System: water + 1-(2-methoxyethyl)-1-methyl-pyrrolidinium bis(trifluoromethylsulfonyl)imide; phases: Liquid
Fixed: Pressure, kPa = 101
Fixed: Mole fraction of water = 0
Property: Activity coefficient of water (Liquid); method: Chromatography
Temperature, K	Activity coefficient of water	uncertainty
318.15	3.15	.0945
328.15	2.81	.0843
338.15	2.51	.0753
348.15	2.26	.0678
358.15	2.05	.0615
368.15	1.85	.0555

System: acetic acid, methyl ester + 1-(2-methoxyethyl)-1-methyl-pyrrolidinium bis(trifluoromethylsulfonyl)imide; phases: Liquid
Fixed: Pressure, kPa = 101
Fixed: Mole fraction of acetic acid, methyl ester = 0
Property: Activity coefficient of acetic acid, methyl ester (Liquid); method: Chromatography
Temperature, K	Activity coefficient of acetic acid, methyl ester	uncertainty
318.15	.71	.0213
328.15	.73	.0219
338.15	.74	.0222
348.15	.76	.0228
358.15	.77	.0231
368.15	.78	.0234

System: methyl propionate + 1-(2-methoxyethyl)-1-methyl-pyrrolidinium bis(trifluoromethylsulfonyl)imide; phases: Liquid
Fixed: Pressure, kPa = 101
Fixed: Mole fraction of methyl propionate = 0
Property: Activity coefficient of methyl propionate (Liquid); method: Chromatography
Temperature, K	Activity coefficient of methyl propionate	uncertainty
318.15	.92	.0276
328.15	.94	.0282
338.15	.96	.0288
348.15	.98	.0294
358.15	.99	.0297
368.15	1.01	.0303

System: butyric acid, methyl ester + 1-(2-methoxyethyl)-1-methyl-pyrrolidinium bis(trifluoromethylsulfonyl)imide; phases: Liquid
Fixed: Pressure, kPa = 101
Fixed: Mole fraction of butyric acid, methyl ester = 0
Property: Activity coefficient of butyric acid, methyl ester (Liquid); method: Chromatography
Temperature, K	Activity coefficient of butyric acid, methyl ester	uncertainty
318.15	1.29	.0387
328.15	1.31	.0393
338.15	1.33	.0399
348.15	1.35	.0405
358.15	1.36	.0408
368.15	1.38	.0414

System: ethyl ethanoate + 1-(2-methoxyethyl)-1-methyl-pyrrolidinium bis(trifluoromethylsulfonyl)imide; phases: Liquid
Fixed: Pressure, kPa = 101
Fixed: Mole fraction of ethyl ethanoate = 0
Property: Activity coefficient of ethyl ethanoate (Liquid); method: Chromatography
Temperature, K	Activity coefficient of ethyl ethanoate	uncertainty
318.15	.95	.0285
328.15	.97	.0291
338.15	.98	.0294
348.15	1	.03
358.15	1.02	.0306
368.15	1.03	.0309

System: oxolane + 1-(2-methoxyethyl)-1-methyl-pyrrolidinium bis(trifluoromethylsulfonyl)imide; phases: Liquid
Fixed: Pressure, kPa = 101
Fixed: Mole fraction of oxolane = 0
Property: Activity coefficient of oxolane (Liquid); method: Chromatography
Temperature, K	Activity coefficient of oxolane	uncertainty
318.15	.81	.0243
328.15	.83	.0249
338.15	.84	.0252
348.15	.86	.0258
358.15	.87	.0261
368.15	.88	.0264

System: 1,4-dioxane + 1-(2-methoxyethyl)-1-methyl-pyrrolidinium bis(trifluoromethylsulfonyl)imide; phases: Liquid
Fixed: Pressure, kPa = 101
Fixed: Mole fraction of 1,4-dioxane = 0
Property: Activity coefficient of 1,4-dioxane (Liquid); method: Chromatography
Temperature, K	Activity coefficient of 1,4-dioxane	uncertainty
318.15	.66	.0198
328.15	.68	.0204
338.15	.7	.021
348.15	.72	.0216
358.15	.74	.0222
368.15	.76	.0228

System: methyl tert-butyl ether + 1-(2-methoxyethyl)-1-methyl-pyrrolidinium bis(trifluoromethylsulfonyl)imide; phases: Liquid
Fixed: Pressure, kPa = 101
Fixed: Mole fraction of methyl tert-butyl ether = 0
Property: Activity coefficient of methyl tert-butyl ether (Liquid); method: Chromatography
Temperature, K	Activity coefficient of methyl tert-butyl ether	uncertainty
318.15	2.76	.0828
328.15	2.79	.0837
338.15	2.81	.0843
348.15	2.84	.0852
358.15	2.86	.0858
368.15	2.89	.0867

System: ethyl tert-butyl ether + 1-(2-methoxyethyl)-1-methyl-pyrrolidinium bis(trifluoromethylsulfonyl)imide; phases: Liquid
Fixed: Pressure, kPa = 101
Fixed: Mole fraction of ethyl tert-butyl ether = 0
Property: Activity coefficient of ethyl tert-butyl ether (Liquid); method: Chromatography
Temperature, K	Activity coefficient of ethyl tert-butyl ether	uncertainty
318.15	6.31	.1893
328.15	6.19	.1857
338.15	6.12	.1836
348.15	6.03	.1809
358.15	5.94	.1782
368.15	5.85	.1755

System: tert-amyl methyl ether + 1-(2-methoxyethyl)-1-methyl-pyrrolidinium bis(trifluoromethylsulfonyl)imide; phases: Liquid
Fixed: Pressure, kPa = 101
Fixed: Mole fraction of tert-amyl methyl ether = 0
Property: Activity coefficient of tert-amyl methyl ether (Liquid); method: Chromatography
Temperature, K	Activity coefficient of tert-amyl methyl ether	uncertainty
318.15	4.08	.1224
328.15	4.06	.1218
338.15	4.05	.1215
348.15	4.03	.1209
358.15	4.01	.1203
368.15	4	.12

System: diethyl ether + 1-(2-methoxyethyl)-1-methyl-pyrrolidinium bis(trifluoromethylsulfonyl)imide; phases: Liquid
Fixed: Pressure, kPa = 101
Fixed: Mole fraction of diethyl ether = 0
Property: Activity coefficient of diethyl ether (Liquid); method: Chromatography
Temperature, K	Activity coefficient of diethyl ether	uncertainty
318.15	2.79	.0837
328.15	2.79	.0837
338.15	2.78	.0834
348.15	2.78	.0834
358.15	2.78	.0834
368.15	2.78	.0834

System: ether, dipropyl + 1-(2-methoxyethyl)-1-methyl-pyrrolidinium bis(trifluoromethylsulfonyl)imide; phases: Liquid
Fixed: Pressure, kPa = 101
Fixed: Mole fraction of ether, dipropyl = 0
Property: Activity coefficient of ether, dipropyl (Liquid); method: Chromatography
Temperature, K	Activity coefficient of ether, dipropyl	uncertainty
318.15	7.22	.2166
328.15	7.03	.2109
338.15	6.82	.2046
348.15	6.64	.1992
358.15	6.47	.1941
368.15	6.32	.1896

System: isopropyl ether + 1-(2-methoxyethyl)-1-methyl-pyrrolidinium bis(trifluoromethylsulfonyl)imide; phases: Liquid
Fixed: Pressure, kPa = 101
Fixed: Mole fraction of isopropyl ether = 0
Property: Activity coefficient of isopropyl ether (Liquid); method: Chromatography
Temperature, K	Activity coefficient of isopropyl ether	uncertainty
318.15	6.63	.1989
328.15	6.55	.1965
338.15	6.46	.1938
348.15	6.39	.1917
358.15	6.31	.1893
368.15	6.23	.1869

System: butyl oxide + 1-(2-methoxyethyl)-1-methyl-pyrrolidinium bis(trifluoromethylsulfonyl)imide; phases: Liquid
Fixed: Pressure, kPa = 101
Fixed: Mole fraction of butyl oxide = 0
Property: Activity coefficient of butyl oxide (Liquid); method: Chromatography
Temperature, K	Activity coefficient of butyl oxide	uncertainty
318.15	15.8	.474
328.15	15	.45
338.15	14.2	.426
348.15	13.4	.402
358.15	12.8	.384
368.15	12.2	.366

System: dimethyl ketone + 1-(2-methoxyethyl)-1-methyl-pyrrolidinium bis(trifluoromethylsulfonyl)imide; phases: Liquid
Fixed: Pressure, kPa = 101
Fixed: Mole fraction of dimethyl ketone = 0
Property: Activity coefficient of dimethyl ketone (Liquid); method: Chromatography
Temperature, K	Activity coefficient of dimethyl ketone	uncertainty
318.15	.47	.0141
328.15	.48	.0144
338.15	.49	.0147
348.15	.5	.015
358.15	.51	.0153
368.15	.52	.0156

System: methyl n-propyl ketone + 1-(2-methoxyethyl)-1-methyl-pyrrolidinium bis(trifluoromethylsulfonyl)imide; phases: Liquid
Fixed: Pressure, kPa = 101
Fixed: Mole fraction of methyl n-propyl ketone = 0
Property: Activity coefficient of methyl n-propyl ketone (Liquid); method: Chromatography
Temperature, K	Activity coefficient of methyl n-propyl ketone	uncertainty
318.15	.83	.0249
328.15	.84	.0252
338.15	.86	.0258
348.15	.87	.0261
358.15	.89	.0267
368.15	.9	.027

System: diethyl ketone + 1-(2-methoxyethyl)-1-methyl-pyrrolidinium bis(trifluoromethylsulfonyl)imide; phases: Liquid
Fixed: Pressure, kPa = 101
Fixed: Mole fraction of diethyl ketone = 0
Property: Activity coefficient of diethyl ketone (Liquid); method: Chromatography
Temperature, K	Activity coefficient of diethyl ketone	uncertainty
318.15	.831	.02493
328.15	.851	.02553
338.15	.871	.02613
348.15	.887	.02661
358.15	.905	.02715
368.15	.919	.02757

System: 1-propanecarbaldehyde + 1-(2-methoxyethyl)-1-methyl-pyrrolidinium bis(trifluoromethylsulfonyl)imide; phases: Liquid
Fixed: Pressure, kPa = 101
Fixed: Mole fraction of 1-propanecarbaldehyde = 0
Property: Activity coefficient of 1-propanecarbaldehyde (Liquid); method: Chromatography
Temperature, K	Activity coefficient of 1-propanecarbaldehyde	uncertainty
318.15	.808	.02424
328.15	.823	.02469
338.15	.838	.02514
348.15	.851	.02553
358.15	.864	.02592
368.15	.876	.02628

System: cyanomethane + 1-(2-methoxyethyl)-1-methyl-pyrrolidinium bis(trifluoromethylsulfonyl)imide; phases: Liquid
Fixed: Pressure, kPa = 101
Fixed: Mole fraction of cyanomethane = 0
Property: Activity coefficient of cyanomethane (Liquid); method: Chromatography
Temperature, K	Activity coefficient of cyanomethane	uncertainty
318.15	.467	.01401
328.15	.469	.01407
338.15	.472	.01416
348.15	.474	.01422
358.15	.477	.01431
368.15	.479	.01437

System: 1-nitropropane + 1-(2-methoxyethyl)-1-methyl-pyrrolidinium bis(trifluoromethylsulfonyl)imide; phases: Liquid
Fixed: Pressure, kPa = 101
Fixed: Mole fraction of 1-nitropropane = 0
Property: Activity coefficient of 1-nitropropane (Liquid); method: Chromatography
Temperature, K	Activity coefficient of 1-nitropropane	uncertainty
318.15	.74	.0222
328.15	.742	.02226
338.15	.743	.02229
348.15	.744	.02232
358.15	.746	.02238
368.15	.747	.02241
