Measured thermophysical data. Thermophysical properties of {(+-)-linalool + propan-1-ol}: A first stage towards the development of a green process
Source: J. Chem. Thermodyn., 2011, 10.1016/j.jct.2010.11.007
Compound 1: 1,6-octadien-3-ol, 3,7-dimethyl-, C10H18O, purity 98.1%
Compound 2: propan-1-ol, C3H8O, purity 99.9%

System: 1,6-octadien-3-ol, 3,7-dimethyl-; phases: Liquid
Fixed: Pressure, kPa = 101.325
Property: Mass density, kg/m3 (Liquid); method: Vibrating tube method
Temperature, K	Mass density, kg/m3	uncertainty
283.15	869.39	.04
298.15	857	.04
313.15	844.29	.04
328.15	831.31	.04

System: 1,6-octadien-3-ol, 3,7-dimethyl-; phases: Liquid
Fixed: Pressure, kPa = 101.325
Property: Speed of sound, m/s (Liquid); method: Sing-around technique in a fixed-path interferometer
Temperature, K	Speed of sound, m/s	uncertainty
283.15	1370.3	.2
298.15	1315.1	.2
313.15	1260.8	.2
328.15	1207.6	.2

System: 1,6-octadien-3-ol, 3,7-dimethyl-; phases: Liquid
Fixed: Pressure, kPa = 101.325
Property: Refractive index (Na D-line) (Liquid); method: Standard Abbe refractometry
Temperature, K	Refractive index (Na D-line)	uncertainty
283.15	1.46659	.00004
298.15	1.45946	.00004
313.15	1.45215	.00004
328.15	1.44473	.00004
283.15	1.4666	.00004

System: propan-1-ol; phases: Liquid
Fixed: Pressure, kPa = 101.325
Property: Mass density, kg/m3 (Liquid); method: Vibrating tube method
Temperature, K	Mass density, kg/m3	uncertainty
283.15	811.52	.04
298.15	799.56	.04
313.15	787.33	.04
328.15	774.69	.04

System: propan-1-ol; phases: Liquid
Fixed: Pressure, kPa = 101.325
Property: Speed of sound, m/s (Liquid); method: Sing-around technique in a fixed-path interferometer
Temperature, K	Speed of sound, m/s	uncertainty
283.15	1257.9	.2
298.15	1206.3	.2
313.15	1156.8	.2
328.15	1106.8	.2

System: propan-1-ol; phases: Liquid
Fixed: Pressure, kPa = 101.325
Property: Refractive index (Na D-line) (Liquid); method: Standard Abbe refractometry
Temperature, K	Refractive index (Na D-line)	uncertainty
283.15	1.38906	.00004
298.15	1.38288	.00004
313.15	1.3766	.00004
328.15	1.37015	.00004

System: propan-1-ol + 1,6-octadien-3-ol, 3,7-dimethyl-; phases: Liquid
Fixed: Pressure, kPa = 101
Property: Mass density, kg/m3 (Liquid); method: Vibrating tube method
Temperature, K	Mole fraction of 1,6-octadien-3-ol, 3,7-dimethyl-	Mass density, kg/m3	uncertainty
283.15	0	811.52	.04
283.15	.0551	819.82	.04
283.15	.1051	826.23	.04
283.15	.2014	836.56	.04
283.15	.3049	845.01	.04
283.15	.3869	850.24	.04
283.15	.4923	855.58	.04
283.15	.5905	859.44	.04
283.15	.6895	862.58	.04
283.15	.7685	864.67	.04
283.15	.8735	866.97	.04
283.15	.9296	868.12	.04
283.15	1	869.39	.04
298.15	0	799.56	.04
298.15	.0551	807.92	.04
298.15	.1051	814.32	.04
298.15	.2014	824.59	.04
298.15	.3032	832.73	.04
298.15	.3869	838.05	.04
298.15	.4923	843.28	.04
298.15	.5917	847.16	.04
298.15	.69	850.31	.04
298.15	.7653	852.26	.04
298.15	.8735	854.67	.04
298.15	.9296	855.79	.04
298.15	1	857	.04
313.15	0	787.34	.04
313.15	.0551	795.75	.04
313.15	.1051	802.06	.04
313.15	.2014	812.16	.04
313.15	.3049	820.4	.04
313.15	.3869	825.47	.04
313.15	.4923	830.75	.04
313.15	.5905	834.56	.04
313.15	.6895	837.72	.04
313.15	.7653	839.66	.04
313.15	.8735	842.05	.04
313.15	.9296	843.14	.04
313.15	1	844.29	.04
328.15	0	774.69	.04
328.15	.0551	783.12	.04
328.15	.1051	789.69	.04
328.15	.2014	799.39	.04
328.15	.3032	807.41	.04
328.15	.3947	812.99	.04
328.15	.4925	817.72	.04
328.15	.5917	821.54	.04
328.15	.6818	824.42	.04
328.15	.7653	826.67	.04
328.15	.8735	829.08	.04
328.15	.9296	830.17	.04
328.15	1	831.31	.04

System: propan-1-ol + 1,6-octadien-3-ol, 3,7-dimethyl-; phases: Liquid
Fixed: Pressure, kPa = 101
Property: Speed of sound, m/s (Liquid); method: Sing-around technique in a fixed-path interferometer
Temperature, K	Mole fraction of 1,6-octadien-3-ol, 3,7-dimethyl-	Speed of sound, m/s	uncertainty
283.15	0	1258	.2
283.15	.0551	1274.4	.2
283.15	.1051	1288.6	.2
283.15	.2014	1308.8	.2
283.15	.3049	1326.2	.2
283.15	.3946	1336.7	.2
283.15	.4951	1345.4	.2
283.15	.5917	1350.8	.2
283.15	.6847	1355.2	.2
283.15	.7685	1359	.2
283.15	.8735	1364.2	.2
283.15	.9296	1366.3	.2
283.15	1	1370.6	.2
298.15	0	1206.3	.2
298.15	.0551	1222.4	.2
298.15	.1051	1236	.2
298.15	.2014	1255.7	.2
298.15	.3049	1272.1	.2
298.15	.3869	1281.3	.2
298.15	.4951	1290.3	.2
298.15	.5917	1295.7	.2
298.15	.6847	1301	.2
298.15	.7685	1304.8	.2
298.15	.8735	1309.4	.2
298.15	.9296	1311.8	.2
298.15	1	1315.1	.2
313.15	0	1156.8	.2
313.15	.0533	1171.9	.2
313.15	.1051	1184.2	.2
313.15	.2014	1203.6	.2
313.15	.3049	1218	.2
313.15	.3869	1227.7	.2
313.15	.4951	1236.5	.2
313.15	.5917	1242.2	.2
313.15	.6847	1247.2	.2
313.15	.7653	1250.9	.2
313.15	.8735	1255.2	.2
313.15	.9296	1258	.2
313.15	1	1260.8	.2
328.15	0	1106.8	.2
328.15	.0533	1121	.2
328.15	.1051	1132.6	.2
328.15	.2014	1151	.2
328.15	.3049	1165.3	.2
328.15	.3947	1174.8	.2
328.15	.4951	1183.1	.2
328.15	.5917	1189.7	.2
328.15	.6847	1193.6	.2
328.15	.7653	1197	.2
328.15	.8735	1201.2	.2
328.15	.9296	1204.4	.2
328.15	1	1207.6	.2

System: propan-1-ol + 1,6-octadien-3-ol, 3,7-dimethyl-; phases: Liquid
Fixed: Pressure, kPa = 101
Property: Refractive index (Na D-line) (Liquid); method: Standard Abbe refractometry
Temperature, K	Mole fraction of 1,6-octadien-3-ol, 3,7-dimethyl-	Refractive index (Na D-line)	uncertainty
283.15	0	1.38906	.00004
283.15	.0533	1.39881	.00004
283.15	.1051	1.40707	.00004
283.15	.2014	1.41983	.00004
283.15	.3032	1.43049	.00004
283.15	.3869	1.43761	.00004
283.15	.4951	1.44504	.00004
283.15	.5917	1.45054	.00004
283.15	.6895	1.45535	.00004
283.15	.7765	1.45896	.00004
283.15	.8735	1.46254	.00004
283.15	.9296	1.46441	.00004
283.15	1	1.4666	.00004
298.15	0	1.38288	.00004
298.15	.0533	1.39255	.00004
298.15	.1051	1.40075	.00004
298.15	.2014	1.41337	.00004
298.15	.3049	1.42409	.00004
298.15	.3869	1.43088	.00004
298.15	.4951	1.4382	.00004
298.15	.5917	1.44367	.00004
298.15	.6895	1.4484	.00004
298.15	.7765	1.45193	.00004
298.15	.8735	1.45549	.00004
298.15	.9296	1.4573	.00004
298.15	1	1.45946	.00004
313.15	0	1.3766	.00004
313.15	.0533	1.38616	.00004
313.15	.1051	1.39427	.00004
313.15	.2014	1.40675	.00004
313.15	.3049	1.41728	.00004
313.15	.3869	1.42395	.00004
313.15	.4951	1.43113	.00004
313.15	.5917	1.43657	.00004
313.15	.6895	1.44114	.00004
313.15	.7765	1.44473	.00004
313.15	.8735	1.44824	.00004
313.15	.9296	1.44997	.00004
313.15	1	1.45215	.00004
328.15	0	1.37015	.00004
328.15	.0533	1.3796	.00004
328.15	.1051	1.38756	.00004
328.15	.2014	1.39986	.00004
328.15	.3049	1.41023	.00004
328.15	.3869	1.41687	.00004
328.15	.4929	1.42395	.00004
328.15	.5917	1.42935	.00004
328.15	.6895	1.4339	.00004
328.15	.767	1.4371	.00004
328.15	.8735	1.44085	.00004
328.15	.9296	1.44249	.00004
328.15	1	1.44473	.00004

System: propan-1-ol + 1,6-octadien-3-ol, 3,7-dimethyl-; phases: Liquid
Property: Mass density, kg/m3 (Liquid); method: Vibrating tube method
Temperature, K	Pressure, kPa	Mole fraction of 1,6-octadien-3-ol, 3,7-dimethyl-	Mass density, kg/m3	uncertainty
283.15	20000	0	825.3	.5
283.15	20000	.0582	833.8	.5
283.15	20000	.1037	839.4	.5
283.15	20000	.1803	847.1	.5
283.15	20000	.3087	857.5	.5
283.15	20000	.4104	863.5	.5
283.15	20000	.4994	867.6	.5
283.15	20000	.5939	871.3	.5
283.15	20000	.7117	875.1	.5
283.15	20000	.7777	876.8	.5
283.15	20000	.8566	878.5	.5
283.15	20000	.9405	880.2	.5
283.15	20000	1	881.2	.5
283.15	25000	0	828.5	.5
283.15	25000	.0582	837	.5
283.15	25000	.1037	842.5	.5
283.15	25000	.1803	850.1	.5
283.15	25000	.3087	860.5	.5
283.15	25000	.4104	866.4	.5
283.15	25000	.4994	870.5	.5
283.15	25000	.5939	874.2	.5
283.15	25000	.7117	877.9	.5
283.15	25000	.7777	879.6	.5
283.15	25000	.8566	881.3	.5
283.15	25000	.9405	883	.5
283.15	25000	1	884	.5
283.15	30000	0	831.5	.5
283.15	30000	.0582	839.8	.5
283.15	30000	.1037	845.3	.5
283.15	30000	.1803	852.9	.5
283.15	30000	.3087	863.2	.5
283.15	30000	.4104	869.1	.5
283.15	30000	.4994	873.2	.5
283.15	30000	.5939	876.8	.5
283.15	30000	.7117	880.6	.5
283.15	30000	.7777	882.2	.5
283.15	30000	.8566	883.9	.5
283.15	30000	.9405	885.6	.5
283.15	30000	1	886.6	.5
283.15	35000	0	834.5	.5
283.15	35000	.0582	842.8	.5
283.15	35000	.1037	848.3	.5
283.15	35000	.1803	855.7	.5
283.15	35000	.3087	866	.5
283.15	35000	.4104	871.9	.5
283.15	35000	.4994	875.9	.5
283.15	35000	.5939	879.4	.5
283.15	35000	.7117	883.2	.5
283.15	35000	.7777	884.9	.5
283.15	35000	.8566	886.5	.5
283.15	35000	.9405	888.2	.5
283.15	35000	1	889.2	.5
283.15	40000	0	837.4	.5
283.15	40000	.0582	845.5	.5
283.15	40000	.1037	851.1	.5
283.15	40000	.1803	858.4	.5
283.15	40000	.3087	868.6	.5
283.15	40000	.4104	874.6	.5
283.15	40000	.4994	878.5	.5
283.15	40000	.5939	882.1	.5
283.15	40000	.7117	885.9	.5
283.15	40000	.7777	887.5	.5
283.15	40000	.8566	889.1	.5
283.15	40000	.9405	890.8	.5
283.15	40000	1	891.8	.5
298.15	20000	0	814.3	.5
298.15	20000	.0582	822.8	.5
298.15	20000	.1037	828.4	.5
298.15	20000	.1803	836.2	.5
298.15	20000	.3087	846.3	.5
298.15	20000	.4104	852.3	.5
298.15	20000	.4994	856.4	.5
298.15	20000	.5939	860	.5
298.15	20000	.7117	863.7	.5
298.15	20000	.7777	865.5	.5
298.15	20000	.8566	867	.5
298.15	20000	.9405	868.8	.5
298.15	20000	1	869.7	.5
298.15	25000	0	817.8	.5
298.15	25000	.0582	826.1	.5
298.15	25000	.1037	831.7	.5
298.15	25000	.1803	839.3	.5
298.15	25000	.3087	849.4	.5
298.15	25000	.4104	855.4	.5
298.15	25000	.4994	859.5	.5
298.15	25000	.5939	863	.5
298.15	25000	.7117	866.7	.5
298.15	25000	.7777	868.5	.5
298.15	25000	.8566	870	.5
298.15	25000	.9405	871.8	.5
298.15	25000	1	872.7	.5
298.15	30000	0	821	.5
298.15	30000	.0582	829.3	.5
298.15	30000	.1037	834.9	.5
298.15	30000	.1803	842.5	.5
298.15	30000	.3087	852.5	.5
298.15	30000	.4104	858.4	.5
298.15	30000	.4994	862.4	.5
298.15	30000	.5939	866	.5
298.15	30000	.7117	869.7	.5
298.15	30000	.7777	871.4	.5
298.15	30000	.8566	872.9	.5
298.15	30000	.9405	874.7	.5
298.15	30000	1	875.6	.5
298.15	35000	0	824.1	.5
298.15	35000	.0582	832.4	.5
298.15	35000	.1037	837.9	.5
298.15	35000	.1803	845.4	.5
298.15	35000	.3087	855.4	.5
298.15	35000	.4104	861.2	.5
298.15	35000	.4994	865.2	.5
298.15	35000	.5939	868.7	.5
298.15	35000	.7117	872.4	.5
298.15	35000	.7777	874.1	.5
298.15	35000	.8566	875.6	.5
298.15	35000	.9405	877.3	.5
298.15	35000	1	878.3	.5
298.15	40000	0	827.3	.5
298.15	40000	.0582	835.4	.5
298.15	40000	.1037	840.9	.5
298.15	40000	.1803	848.3	.5
298.15	40000	.3087	858.3	.5
298.15	40000	.4104	864	.5
298.15	40000	.4994	867.9	.5
298.15	40000	.5939	871.5	.5
298.15	40000	.7117	875.1	.5
298.15	40000	.7777	876.8	.5
298.15	40000	.8566	878.3	.5
298.15	40000	.9405	880	.5
298.15	40000	1	881	.5
313.15	20000	0	803.3	.5
313.15	20000	.0582	811.8	.5
313.15	20000	.1037	817.4	.5
313.15	20000	.1803	825.1	.5
313.15	20000	.3087	834.9	.5
313.15	20000	.4104	840.7	.5
313.15	20000	.4994	844.9	.5
313.15	20000	.5939	848.4	.5
313.15	20000	.7117	852.2	.5
313.15	20000	.7777	853.9	.5
313.15	20000	.8566	855.5	.5
313.15	20000	.9405	857.3	.5
313.15	20000	1	858.1	.5
313.15	25000	0	806.9	.5
313.15	25000	.0582	815.4	.5
313.15	25000	.1037	820.9	.5
313.15	25000	.1803	828.4	.5
313.15	25000	.3087	838.3	.5
313.15	25000	.4104	844.1	.5
313.15	25000	.4994	848.1	.5
313.15	25000	.5939	851.7	.5
313.15	25000	.7117	855.4	.5
313.15	25000	.7777	857.1	.5
313.15	25000	.8566	858.7	.5
313.15	25000	.9405	860.4	.5
313.15	25000	1	861.3	.5
313.15	30000	0	810.4	.5
313.15	30000	.0582	818.7	.5
313.15	30000	.1037	824.3	.5
313.15	30000	.1803	831.7	.5
313.15	30000	.3087	841.5	.5
313.15	30000	.4104	847.2	.5
313.15	30000	.4994	851.2	.5
313.15	30000	.5939	854.8	.5
313.15	30000	.7117	858.5	.5
313.15	30000	.7777	860.2	.5
313.15	30000	.8566	861.7	.5
313.15	30000	.9405	863.4	.5
313.15	30000	1	864.3	.5
313.15	35000	0	813.8	.5
313.15	35000	.0582	822.1	.5
313.15	35000	.1037	827.5	.5
313.15	35000	.1803	834.8	.5
313.15	35000	.3087	844.6	.5
313.15	35000	.4104	850.4	.5
313.15	35000	.4994	854.3	.5
313.15	35000	.5939	857.8	.5
313.15	35000	.7117	861.5	.5
313.15	35000	.7777	863.2	.5
313.15	35000	.8566	864.7	.5
313.15	35000	.9405	866.4	.5
313.15	35000	1	867.3	.5
313.15	40000	0	817	.5
313.15	40000	.0582	825.1	.5
313.15	40000	.1037	830.7	.5
313.15	40000	.1803	837.9	.5
313.15	40000	.3087	847.7	.5
313.15	40000	.4104	853.3	.5
313.15	40000	.4994	857.3	.5
313.15	40000	.5939	860.7	.5
313.15	40000	.7117	864.4	.5
313.15	40000	.7777	866.1	.5
313.15	40000	.8566	867.6	.5
313.15	40000	.9405	869.2	.5
313.15	40000	1	870.2	.5
328.15	20000	0	792.1	.5
328.15	20000	.0582	800.4	.5
328.15	20000	.1037	806	.5
328.15	20000	.1803	813.6	.5
328.15	20000	.3087	823.4	.5
328.15	20000	.4104	829.1	.5
328.15	20000	.4994	833.2	.5
328.15	20000	.5939	836.7	.5
328.15	20000	.7117	840.5	.5
328.15	20000	.7777	842.2	.5
328.15	20000	.8566	843.8	.5
328.15	20000	.9405	845.6	.5
328.15	20000	1	846.4	.5
328.15	25000	0	795.9	.5
328.15	25000	.0582	804.3	.5
328.15	25000	.1037	809.7	.5
328.15	25000	.1803	817.1	.5
328.15	25000	.3087	826.9	.5
328.15	25000	.4104	832.7	.5
328.15	25000	.4994	836.7	.5
328.15	25000	.5939	840.2	.5
328.15	25000	.7117	843.9	.5
328.15	25000	.7777	845.6	.5
328.15	25000	.8566	847.2	.5
328.15	25000	.9405	848.9	.5
328.15	25000	1	849.8	.5
328.15	30000	0	799.6	.5
328.15	30000	.0582	807.8	.5
328.15	30000	.1037	813.3	.5
328.15	30000	.1803	820.7	.5
328.15	30000	.3087	830.4	.5
328.15	30000	.4104	836	.5
328.15	30000	.4994	840	.5
328.15	30000	.5939	843.6	.5
328.15	30000	.7117	847.2	.5
328.15	30000	.7777	848.9	.5
328.15	30000	.8566	850.4	.5
328.15	30000	.9405	852.1	.5
328.15	30000	1	853	.5
328.15	35000	0	803.2	.5
328.15	35000	.0582	811.3	.5
328.15	35000	.1037	816.7	.5
328.15	35000	.1803	823.9	.5
328.15	35000	.3087	833.6	.5
328.15	35000	.4104	839.3	.5
328.15	35000	.4994	843.2	.5
328.15	35000	.5939	846.7	.5
328.15	35000	.7117	850.4	.5
328.15	35000	.7777	852.1	.5
328.15	35000	.8566	853.6	.5
328.15	35000	.9405	855.2	.5
328.15	35000	1	856.2	.5
328.15	40000	0	806.6	.5
328.15	40000	.0582	814.7	.5
328.15	40000	.1037	820.1	.5
328.15	40000	.1803	827.2	.5
328.15	40000	.3087	836.9	.5
328.15	40000	.4104	842.4	.5
328.15	40000	.4994	846.4	.5
328.15	40000	.5939	849.8	.5
328.15	40000	.7117	853.5	.5
328.15	40000	.7777	855.1	.5
328.15	40000	.8566	856.6	.5
328.15	40000	.9405	858.2	.5
328.15	40000	1	859.2	.5
