Measured thermophysical data. Physical and excess properties of (methyl acetate + methanol +  1-octyl-3-methyl-imidazolium bis(trifluoromethylsulfonyl)imide)  and its binary mixtures at T = 298.15 K and atmospheric pressure
Source: J. Chem. Thermodyn., 2009, 10.1016/j.jct.2009.06.007
Compound 1: 1-octyl-3-methylimidazolium bis[(trifluoromethyl)sulfonyl]imide, C14H23F6N3O4S2, purity 99%
Compound 2: methanol, CH4O, purity 99.8%
Compound 3: methyl ethanoate, C3H6O2, purity 99.8%

System: 1-octyl-3-methylimidazolium bis[(trifluoromethyl)sulfonyl]imide; phases: Liquid
Fixed: Pressure, kPa = 101.325
Property: Mass density, kg/m3 (Liquid); method: Pycnometric method
Temperature, K	Mass density, kg/m3	uncertainty
298.15	1320.59	.01

System: 1-octyl-3-methylimidazolium bis[(trifluoromethyl)sulfonyl]imide; phases: Liquid
Fixed: Pressure, kPa = 101.325
Property: Viscosity, Pa*s (Liquid); method: Capillary tube (Ostwald; Ubbelohde) method
Temperature, K	Viscosity, Pa*s	uncertainty
298.15	.09251	.00046255

System: methanol + methyl ethanoate; phases: Liquid
Fixed: Temperature, K = 298.15
Fixed: Pressure, kPa = 101
Property: Mass density, kg/m3 (Liquid); method: Vibrating tube method
Mole fraction of methyl ethanoate	Mass density, kg/m3	uncertainty
.0939	810.62	.01
.1986	833.17	.01
.3009	851.78	.01
.4016	867.5	.01
.4943	880.02	.01
.5851	890.77	.01
.6941	902.17	.01
.7694	909.19	.01
.8875	918.93	.01

System: methanol + methyl ethanoate; phases: Liquid
Fixed: Temperature, K = 298.15
Fixed: Pressure, kPa = 101
Property: Refractive index (Na D-line) (Liquid); method: Standard Abbe refractometry
Mole fraction of methyl ethanoate	Refractive index (Na D-line)	uncertainty
.0939	1.3322	.00004
.1986	1.33757	.00004
.3009	1.34192	.00004
.4016	1.3456	.00004
.4943	1.34851	.00004
.5851	1.35095	.00004
.6941	1.35349	.00004
.7694	1.35503	.00004
.8875	1.35712	.00004

System: methanol + methyl ethanoate; phases: Liquid
Fixed: Temperature, K = 298.15
Fixed: Pressure, kPa = 101
Property: Viscosity, Pa*s (Liquid); method: Capillary tube (Ostwald; Ubbelohde) method
Mole fraction of methyl ethanoate	Viscosity, Pa*s	uncertainty
.0939	.000491	.000002455
.1986	.000452	.00000226
.3009	.000417	.000002085
.4016	.000393	.000001965
.4943	.000378	.00000189
.5851	.000369	.000001845
.6941	.000361	.000001805
.7694	.000358	.00000179
.8875	.000358	.00000179

System: methanol + methyl ethanoate; phases: Liquid
Fixed: Temperature, K = 298.15
Fixed: Pressure, kPa = 101
Property: Excess molar volume, m3/mol (Liquid); method: Calculated with densities of this investigation
Mole fraction of methyl ethanoate	Excess molar volume, m3/mol	uncertainty
.0939	-.000000015	.000000002
.1986	-.000000034	.000000002
.3009	-.000000053	.000000002
.4016	-.000000069	.000000002
.4943	-.000000074	.000000002
.5851	-.000000071	.000000002
.6941	-.000000066	.000000002
.7694	-.000000057	.000000002
.8875	-.000000032	.000000002

System: methyl ethanoate + 1-octyl-3-methylimidazolium bis[(trifluoromethyl)sulfonyl]imide; phases: Liquid
Fixed: Temperature, K = 298.15
Fixed: Pressure, kPa = 101
Property: Mass density, kg/m3 (Liquid); method: Vibrating tube method
Mole fraction of methyl ethanoate	Mass density, kg/m3	uncertainty
.0699	1314.77	.01
.1317	1308.87	.01
.1748	1304.45	.01
.2177	1299.57	.01
.3226	1285.83	.01
.4105	1271.88	.01
.5011	1253.68	.01
.6001	1228.33	.01
.6992	1193.95	.01
.7872	1151.29	.01
.8984	1067.39	.01

System: methyl ethanoate + 1-octyl-3-methylimidazolium bis[(trifluoromethyl)sulfonyl]imide; phases: Liquid
Fixed: Temperature, K = 298.15
Fixed: Pressure, kPa = 101
Property: Refractive index (Na D-line) (Liquid); method: Standard Abbe refractometry
Mole fraction of methyl ethanoate	Refractive index (Na D-line)	uncertainty
.0699	1.4319	.00004
.1317	1.43089	.00004
.1748	1.43009	.00004
.2177	1.42927	.00004
.3226	1.42694	.00004
.4105	1.42453	.00004
.5011	1.42124	.00004
.6001	1.41684	.00004
.6992	1.41055	.00004
.7872	1.40296	.00004
.8984	1.387	.00004

System: methyl ethanoate + 1-octyl-3-methylimidazolium bis[(trifluoromethyl)sulfonyl]imide; phases: Liquid
Fixed: Temperature, K = 298.15
Fixed: Pressure, kPa = 101
Property: Viscosity, Pa*s (Liquid); method: Capillary tube (Ostwald; Ubbelohde) method
Mole fraction of methyl ethanoate	Viscosity, Pa*s	uncertainty
.0699	.07562	.0003781
.1317	.06325	.00031625
.1748	.05612	.0002806
.2177	.04913	.00024565
.3226	.03376	.0001688
.4105	.02379	.00011895
.5011	.01598	.0000799
.6001	.009815	.000049075
.6992	.005527	.000027635
.7872	.003066	.00001533
.8984	.001206	.00000603

System: methyl ethanoate + 1-octyl-3-methylimidazolium bis[(trifluoromethyl)sulfonyl]imide; phases: Liquid
Fixed: Temperature, K = 298.15
Fixed: Pressure, kPa = 101
Property: Excess molar volume, m3/mol (Liquid); method: Calculated with densities of this investigation
Mole fraction of methyl ethanoate	Excess molar volume, m3/mol	uncertainty
.0699	-.000000164	.000000002
.1317	-.000000269	.000000002
.1748	-.000000367	.000000002
.2177	-.000000431	.000000002
.3226	-.000000599	.000000002
.4105	-.000000763	.000000002
.5011	-.000000845	.000000002
.6001	-.000000947	.000000002
.6992	-.000001002	.000000002
.7872	-.000000984	.000000002
.8984	-.000000764	.000000002

System: methanol + 1-octyl-3-methylimidazolium bis[(trifluoromethyl)sulfonyl]imide; phases: Liquid
Fixed: Temperature, K = 298.15
Fixed: Pressure, kPa = 101
Property: Mass density, kg/m3 (Liquid); method: Vibrating tube method
Mole fraction of methanol	Mass density, kg/m3	uncertainty
.0654	1316.5	.01
.0863	1315.1	.01
.2134	1305.18	.01
.3138	1295.08	.01
.3873	1285.91	.01
.5038	1267.04	.01
.6155	1240.79	.01
.7018	1210.98	.01
.805	1154.04	.01
.902	1052.54	.01

System: methanol + 1-octyl-3-methylimidazolium bis[(trifluoromethyl)sulfonyl]imide; phases: Liquid
Fixed: Temperature, K = 298.15
Fixed: Pressure, kPa = 101
Property: Refractive index (Na D-line) (Liquid); method: Standard Abbe refractometry
Mole fraction of methanol	Refractive index (Na D-line)	uncertainty
.0654	1.43207	.00004
.0863	1.43188	.00004
.2134	1.42995	.00004
.3138	1.42809	.00004
.3873	1.42619	.00004
.5038	1.42266	.00004
.6155	1.41741	.00004
.7018	1.41157	.00004
.805	1.40017	.00004
.902	1.38017	.00004

System: methanol + 1-octyl-3-methylimidazolium bis[(trifluoromethyl)sulfonyl]imide; phases: Liquid
Fixed: Temperature, K = 298.15
Fixed: Pressure, kPa = 101
Property: Viscosity, Pa*s (Liquid); method: Capillary tube (Ostwald; Ubbelohde) method
Mole fraction of methanol	Viscosity, Pa*s	uncertainty
.0654	.07834	.0003917
.0863	.07457	.00037285
.2134	.05365	.00026825
.3138	.04077	.00020385
.3873	.03292	.0001646
.5038	.02227	.00011135
.6155	.01457	.00007285
.7018	.009493	.000047465
.805	.004919	.000024595
.902	.002144	.00001072

System: methanol + 1-octyl-3-methylimidazolium bis[(trifluoromethyl)sulfonyl]imide; phases: Liquid
Fixed: Temperature, K = 298.15
Fixed: Pressure, kPa = 101
Property: Excess molar volume, m3/mol (Liquid); method: Calculated with densities of this investigation
Mole fraction of methanol	Excess molar volume, m3/mol	uncertainty
.0654	-.000000026	.000000002
.0863	-.000000039	.000000002
.2134	-.000000108	.000000002
.3138	-.000000151	.000000002
.3873	-.000000177	.000000002
.5038	-.000000231	.000000002
.6155	-.000000272	.000000002
.7018	-.0000003	.000000002
.805	-.000000307	.000000002
.902	-.000000294	.000000002

System: methanol + methyl ethanoate + 1-octyl-3-methylimidazolium bis[(trifluoromethyl)sulfonyl]imide; phases: Liquid
Fixed: Temperature, K = 298.15
Fixed: Pressure, kPa = 101
Property: Mass density, kg/m3 (Liquid); method: Vibrating tube method
Mole fraction of methyl ethanoate	Mole fraction of methanol	Mass density, kg/m3	uncertainty
.8612	.125	945.61	.01
.7744	.2031	956.84	.01
.6883	.2805	968.05	.01
.5755	.3821	982.44	.01
.4944	.4551	992.78	.01
.3837	.5547	1006.85	.01
.2875	.6413	1019.15	.01
.1967	.723	1030.63	.01
.1482	.7667	1036.83	.01
.0972	.8126	1043.33	.01
.044	.8604	1050.12	.01
.876	.0989	966.72	.01
.7914	.1664	991.35	.01
.6849	.2513	1020.06	.01
.5963	.322	1042.06	.01
.4928	.4045	1065.94	.01
.405	.4746	1084.86	.01
.2826	.5722	1109.73	.01
.2047	.6344	1124.44	.01
.1684	.6633	1130.84	.01
.1206	.7014	1139.43	.01
.0544	.7542	1150.75	.01
.887	.0795	981.3	.01
.7857	.1508	1022.08	.01
.6962	.2138	1053.5	.01
.5976	.2831	1083.94	.01
.5049	.3484	1109.31	.01
.4017	.4209	1134.54	.01
.3124	.4838	1154.05	.01
.2174	.5506	1173.01	.01
.1752	.5803	1181.06	.01
.1216	.618	1190.59	.01
.0531	.6662	1201.96	.01
.8973	.0616	993.42	.01
.7848	.1291	1050.09	.01
.687	.1877	1089.6	.01
.5947	.2432	1120.88	.01
.5042	.2974	1147.26	.01
.4026	.3584	1172.7	.01
.3188	.4086	1191	.01
.2104	.4736	1211.91	.01
.1609	.5034	1220.57	.01
.1059	.5364	1229.58	.01
.0506	.5695	1238.17	.01
.8913	.0543	1012.17	.01
.7958	.102	1067.46	.01
.6991	.1503	1111.05	.01
.6063	.1967	1144.59	.01
.5062	.2468	1174.43	.01
.4122	.2937	1197.83	.01
.3026	.3485	1220.79	.01
.242	.3788	1231.92	.01
.1583	.4206	1245.97	.01
.1108	.4443	1253.04	.01
.0415	.479	1262.64	.01
.8939	.0428	1024.2	.01
.794	.0831	1087.25	.01
.6965	.1225	1133.02	.01
.5995	.1617	1168.68	.01
.5071	.1989	1195.79	.01
.4081	.2389	1219.54	.01
.3216	.2738	1236.78	.01
.2304	.3106	1252.6	.01
.1474	.3441	1265.19	.01
.0912	.3668	1272.89	.01
.0423	.3866	1278.84	.01
.9034	.0289	1029.89	.01
.802	.0592	1100.88	.01
.7197	.0838	1142.63	.01
.6067	.1176	1185.56	.01
.5114	.1461	1213.28	.01
.4453	.1659	1229.23	.01
.3245	.202	1253.33	.01
.2485	.2247	1265.98	.01
.1936	.2411	1273.93	.01
.1512	.2538	1279.44	.01
.0864	.2731	1287.63	.01
.8965	.0208	1047.49	.01
.799	.0403	1117.76	.01
.6965	.0609	1168.52	.01
.6164	.0769	1197.92	.01
.4919	.1019	1232.59	.01
.4285	.1146	1246.51	.01
.3079	.1388	1268.61	.01
.235	.1534	1279.65	.01
.1783	.1648	1287.02	.01
.1455	.1714	1291.19	.01
.0441	.1917	1302.2	.01
.8921	.0111	1062.36	.01
.7982	.0208	1131.78	.01
.6966	.0313	1182.03	.01
.5872	.0426	1220.04	.01
.5013	.0514	1242.47	.01
.4038	.0615	1262.78	.01
.3093	.0712	1278.63	.01
.2026	.0822	1293.13	.01
.1446	.0882	1299.78	.01
.0981	.093	1304.77	.01
.0073	.1024	1313.39	.01

System: methanol + methyl ethanoate + 1-octyl-3-methylimidazolium bis[(trifluoromethyl)sulfonyl]imide; phases: Liquid
Fixed: Temperature, K = 298.15
Fixed: Pressure, kPa = 101
Property: Refractive index (Na D-line) (Liquid); method: Standard Abbe refractometry
Mole fraction of methyl ethanoate	Mole fraction of methanol	Refractive index (Na D-line)	uncertainty
.8612	.125	1.36274	.00004
.7744	.2031	1.36488	.00004
.6883	.2805	1.36728	.00004
.5755	.3821	1.36966	.00004
.4944	.4551	1.37136	.00004
.3837	.5547	1.37393	.00004
.2875	.6413	1.37556	.00004
.1967	.723	1.37721	.00004
.1482	.7667	1.37814	.00004
.0972	.8126	1.37934	.00004
.044	.8604	1.37995	.00004
.876	.0989	1.36706	.00004
.7914	.1664	1.37194	.00004
.6849	.2513	1.37741	.00004
.5963	.322	1.38168	.00004
.4928	.4045	1.38589	.00004
.405	.4746	1.38895	.00004
.2826	.5722	1.39315	.00004
.2047	.6344	1.3956	.00004
.1684	.6633	1.39676	.00004
.1206	.7014	1.39828	.00004
.0544	.7542	1.39995	.00004
.887	.0795	1.37008	.00004
.7857	.1508	1.37796	.00004
.6962	.2138	1.38416	.00004
.5976	.2831	1.3895	.00004
.5049	.3484	1.39398	.00004
.4017	.4209	1.39837	.00004
.3124	.4838	1.40172	.00004
.2174	.5506	1.40527	.00004
.1752	.5803	1.40642	.00004
.1216	.618	1.40815	.00004
.0531	.6662	1.40985	.00004
.8973	.0616	1.3724	.00004
.7848	.1291	1.38355	.00004
.687	.1877	1.39073	.00004
.5947	.2432	1.39647	.00004
.5042	.2974	1.40125	.00004
.4026	.3584	1.4058	.00004
.3188	.4086	1.40893	.00004
.2104	.4736	1.41261	.00004
.1609	.5034	1.4142	.00004
.1059	.5364	1.41543	.00004
.0506	.5695	1.41693	.00004
.8913	.0543	1.37607	.00004
.7958	.102	1.38676	.00004
.6991	.1503	1.39485	.00004
.6063	.1967	1.40103	.00004
.5062	.2468	1.40635	.00004
.4122	.2937	1.41065	.00004
.3026	.3485	1.41448	.00004
.242	.3788	1.41671	.00004
.1583	.4206	1.41901	.00004
.1108	.4443	1.42013	.00004
.0415	.479	1.42171	.00004
.8939	.0428	1.37845	.00004
.794	.0831	1.39048	.00004
.6965	.1225	1.39919	.00004
.5995	.1617	1.4054	.00004
.5071	.1989	1.41049	.00004
.4081	.2389	1.41464	.00004
.3216	.2738	1.41758	.00004
.2304	.3106	1.42041	.00004
.1474	.3441	1.42254	.00004
.0912	.3668	1.42387	.00004
.0423	.3866	1.42493	.00004
.9034	.0289	1.37958	.00004
.802	.0592	1.39322	.00004
.7197	.0838	1.40102	.00004
.6067	.1176	1.40911	.00004
.5114	.1461	1.41375	.00004
.4453	.1659	1.41645	.00004
.3245	.202	1.42073	.00004
.2485	.2247	1.42297	.00004
.1936	.2411	1.42434	.00004
.1512	.2538	1.42541	.00004
.0864	.2731	1.4267	.00004
.8965	.0208	1.38303	.00004
.799	.0403	1.39645	.00004
.6965	.0609	1.40574	.00004
.6164	.0769	1.41109	.00004
.4919	.1019	1.41749	.00004
.4285	.1146	1.41972	.00004
.3079	.1388	1.42386	.00004
.235	.1534	1.42553	.00004
.1783	.1648	1.42684	.00004
.1455	.1714	1.42762	.00004
.0441	.1917	1.42946	.00004
.8921	.0111	1.38595	.00004
.7982	.0208	1.39912	.00004
.6966	.0313	1.40823	.00004
.5872	.0426	1.41512	.00004
.5013	.0514	1.41909	.00004
.4038	.0615	1.42279	.00004
.3093	.0712	1.42544	.00004
.2026	.0822	1.42795	.00004
.1446	.0882	1.42927	.00004
.0981	.093	1.43009	.00004
.0073	.1024	1.43154	.00004

System: methanol + methyl ethanoate + 1-octyl-3-methylimidazolium bis[(trifluoromethyl)sulfonyl]imide; phases: Liquid
Fixed: Temperature, K = 298.15
Fixed: Pressure, kPa = 101
Property: Viscosity, Pa*s (Liquid); method: Capillary tube (Ostwald; Ubbelohde) method
Mole fraction of methyl ethanoate	Mole fraction of methanol	Viscosity, Pa*s	uncertainty
.8612	.125	.000456	.00000228
.7744	.2031	.000608	.00000304
.6883	.2805	.00067	.00000335
.5755	.3821	.000777	.000003885
.4944	.4551	.000794	.00000397
.3837	.5547	.001005	.000005025
.2875	.6413	.001155	.000005775
.1967	.723	.001414	.00000707
.1482	.7667	.001533	.000007665
.0972	.8126	.001756	.00000878
.044	.8604	.001953	.000009765
.876	.0989	.000522	.00000261
.7914	.1664	.000747	.000003735
.6849	.2513	.000915	.000004575
.5963	.322	.001063	.000005315
.4928	.4045	.001377	.000006885
.405	.4746	.001784	.00000892
.2826	.5722	.002411	.000012055
.2047	.6344	.003024	.00001512
.1684	.6633	.003307	.000016535
.1206	.7014	.003832	.00001916
.0544	.7542	.004467	.000022335
.887	.0795	.000616	.00000308
.7857	.1508	.000811	.000004055
.6962	.2138	.001132	.00000566
.5976	.2831	.001512	.00000756
.5049	.3484	.002047	.000010235
.4017	.4209	.00274	.0000137
.3124	.4838	.00368	.0000184
.2174	.5506	.004871	.000024355
.1752	.5803	.005504	.00002752
.1216	.618	.006515	.000032575
.0531	.6662	.007961	.000039805
.8973	.0616	.000667	.000003335
.7848	.1291	.001032	.00000516
.687	.1877	.001566	.00000783
.5947	.2432	.00222	.0000111
.5042	.2974	.00306	.0000153
.4026	.3584	.004207	.000021035
.3188	.4086	.005676	.00002838
.2104	.4736	.007984	.00003992
.1609	.5034	.009363	.000046815
.1059	.5364	.01121	.00005605
.0506	.5695	.01307	.00006535
.8913	.0543	.000773	.000003865
.7958	.102	.001188	.00000594
.6991	.1503	.001936	.00000968
.6063	.1967	.002773	.000013865
.5062	.2468	.004233	.000021165
.4122	.2937	.005949	.000029745
.3026	.3485	.008719	.000043595
.242	.3788	.01066	.0000533
.1583	.4206	.01406	.0000703
.1108	.4443	.01613	.00008065
.0415	.479	.02	.0001
.8939	.0428	.000848	.00000424
.794	.0831	.00144	.0000072
.6965	.1225	.002476	.00001238
.5995	.1617	.003752	.00001876
.5071	.1989	.005644	.00002822
.4081	.2389	.008298	.00004149
.3216	.2738	.01136	.0000568
.2304	.3106	.01545	.00007725
.1474	.3441	.02025	.00010125
.0912	.3668	.024	.00012
.0423	.3866	.02781	.00013905
.9034	.0289	.000882	.00000441
.802	.0592	.001648	.00000824
.7197	.0838	.002701	.000013505
.6067	.1176	.00479	.00002395
.5114	.1461	.007387	.000036935
.4453	.1659	.00976	.0000488
.3245	.202	.01548	.0000774
.2485	.2247	.02032	.0001016
.1936	.2411	.02423	.00012115
.1512	.2538	.02775	.00013875
.0864	.2731	.03395	.00016975
.8965	.0208	.001026	.00000513
.799	.0403	.001978	.00000989
.6965	.0609	.003818	.00001909
.6164	.0769	.005764	.00002882
.4919	.1019	.0104	.000052
.4285	.1146	.01357	.00006785
.3079	.1388	.02167	.00010835
.235	.1534	.02787	.00013935
.1783	.1648	.0336	.000168
.1455	.1714	.03722	.0001861
.0441	.1917	.0497	.0002485
.8921	.0111	.001174	.00000587
.7982	.0208	.002318	.00001159
.6966	.0313	.004578	.00002289
.5872	.0426	.008328	.00004164
.5013	.0514	.01257	.00006285
.4038	.0615	.0193	.0000965
.3093	.0712	.02785	.00013925
.2026	.0822	.03999	.00019995
.1446	.0882	.04727	.00023635
.0981	.093	.05399	.00026995
.0073	.1024	.07021	.00035105

System: methanol + methyl ethanoate + 1-octyl-3-methylimidazolium bis[(trifluoromethyl)sulfonyl]imide; phases: Liquid
Fixed: Temperature, K = 298.15
Fixed: Pressure, kPa = 101
Property: Excess molar volume, m3/mol (Liquid); method: Calculated with densities of this investigation
Mole fraction of methyl ethanoate	Mole fraction of methanol	Excess molar volume, m3/mol	uncertainty
.8612	.125	-.000000224	.000000002
.7744	.2031	-.000000311	.000000002
.6883	.2805	-.000000386	.000000002
.5755	.3821	-.000000436	.000000002
.4944	.4551	-.000000457	.000000002
.3837	.5547	-.000000462	.000000002
.2875	.6413	-.000000451	.000000002
.1967	.723	-.000000419	.000000002
.1482	.7667	-.000000401	.000000002
.0972	.8126	-.000000376	.000000002
.044	.8604	-.000000347	.000000002
.876	.0989	-.000000315	.000000002
.7914	.1664	-.000000452	.000000002
.6849	.2513	-.000000567	.000000002
.5963	.322	-.000000609	.000000002
.4928	.4045	-.000000618	.000000002
.405	.4746	-.0000006	.000000002
.2826	.5722	-.000000569	.000000002
.2047	.6344	-.000000523	.000000002
.1684	.6633	-.00000048	.000000002
.1206	.7014	-.000000453	.000000002
.0544	.7542	-.000000396	.000000002
.887	.0795	-.000000389	.000000002
.7857	.1508	-.000000572	.000000002
.6962	.2138	-.000000662	.000000002
.5976	.2831	-.000000698	.000000002
.5049	.3484	-.000000692	.000000002
.4017	.4209	-.000000659	.000000002
.3124	.4838	-.000000595	.000000002
.2174	.5506	-.000000523	.000000002
.1752	.5803	-.000000507	.000000002
.1216	.618	-.000000457	.000000002
.0531	.6662	-.000000375	.000000002
.8973	.0616	-.00000044	.000000002
.7848	.1291	-.00000068	.000000002
.687	.1877	-.000000757	.000000002
.5947	.2432	-.000000766	.000000002
.5042	.2974	-.000000749	.000000002
.4026	.3584	-.00000069	.000000002
.3188	.4086	-.000000618	.000000002
.2104	.4736	-.000000521	.000000002
.1609	.5034	-.000000475	.000000002
.1059	.5364	-.000000417	.000000002
.0506	.5695	-.000000372	.000000002
.8913	.0543	-.000000517	.000000002
.7958	.102	-.000000735	.000000002
.6991	.1503	-.000000818	.000000002
.6063	.1967	-.000000811	.000000002
.5062	.2468	-.000000768	.000000002
.4122	.2937	-.000000701	.000000002
.3026	.3485	-.000000595	.000000002
.242	.3788	-.000000533	.000000002
.1583	.4206	-.000000473	.000000002
.1108	.4443	-.000000406	.000000002
.0415	.479	-.000000311	.000000002
.8939	.0428	-.000000586	.000000002
.794	.0831	-.000000793	.000000002
.6965	.1225	-.000000852	.000000002
.5995	.1617	-.000000879	.000000002
.5071	.1989	-.000000834	.000000002
.4081	.2389	-.000000745	.000000002
.3216	.2738	-.000000626	.000000002
.2304	.3106	-.000000523	.000000002
.1474	.3441	-.000000433	.000000002
.0912	.3668	-.000000373	.000000002
.0423	.3866	-.000000275	.000000002
.9034	.0289	-.000000607	.000000002
.802	.0592	-.000000833	.000000002
.7197	.0838	-.000000895	.000000002
.6067	.1176	-.000000877	.000000002
.5114	.1461	-.000000825	.000000002
.4453	.1659	-.000000773	.000000002
.3245	.202	-.000000663	.000000002
.2485	.2247	-.000000599	.000000002
.1936	.2411	-.000000515	.000000002
.1512	.2538	-.000000419	.000000002
.0864	.2731	-.00000036	.000000002
.8965	.0208	-.000000681	.000000002
.799	.0403	-.00000088	.000000002
.6965	.0609	-.000000942	.000000002
.6164	.0769	-.000000907	.000000002
.4919	.1019	-.000000801	.000000002
.4285	.1146	-.000000721	.000000002
.3079	.1388	-.000000611	.000000002
.235	.1534	-.000000536	.000000002
.1783	.1648	-.000000424	.000000002
.1455	.1714	-.000000404	.000000002
.0441	.1917	-.000000221	.000000002
.8921	.0111	-.000000731	.000000002
.7982	.0208	-.000000928	.000000002
.6966	.0313	-.000000951	.000000002
.5872	.0426	-.000000898	.000000002
.5013	.0514	-.00000081	.000000002
.4038	.0615	-.000000708	.000000002
.3093	.0712	-.000000592	.000000002
.2026	.0822	-.000000425	.000000002
.1446	.0882	-.000000308	.000000002
.0981	.093	-.00000024	.000000002
.0073	.1024	-.000000087	.000000002
