Measured thermophysical data. (D2O-H2O) solvent isotope effects on some thermodynamic properties of the Albicar dissolution (hydration) between T = (278.15 and 313.15) K at ambient pressure
Source: J. Chem. Thermodyn., 2016, 10.1016/j.jct.2016.02.012
Compound 1: rac-(3aS,6aS)-1,4-diethyl-3,6-dimethyltetrahydroimidazo[4,5-d]imidazole-2,5(1H,3H)-dione, C10H18N4O2, purity 95%
Compound 2: water, H2O
Compound 3: heavy water, D2O, purity 99.9%

System: rac-(3aS,6aS)-1,4-diethyl-3,6-dimethyltetrahydroimidazo[4,5-d]imidazole-2,5(1H,3H)-dione; phases: Crystal, Liquid, Air at 1 atmosphere
Property: Normal melting temperature, K (Crystal); method: DSC/DTA
Normal melting temperature, K	uncertainty
392.3	.5

System: rac-(3aS,6aS)-1,4-diethyl-3,6-dimethyltetrahydroimidazo[4,5-d]imidazole-2,5(1H,3H)-dione; phases: Crystal, Liquid, Air at 1 atmosphere
Property: Molar enthalpy of transition or fusion, kJ/mol (Crystal); method: DSC
Molar enthalpy of transition or fusion, kJ/mol	uncertainty
20.2	.5

System: water + rac-(3aS,6aS)-1,4-diethyl-3,6-dimethyltetrahydroimidazo[4,5-d]imidazole-2,5(1H,3H)-dione; phases: Liquid
Fixed: Pressure, kPa = 99.6
Fixed: Mole fraction of rac-(3aS,6aS)-1,4-diethyl-3,6-dimethyltetrahydroimidazo[4,5-d]imidazole-2,5(1H,3H)-dione = 0
Property: Molar enthalpy of solution, kJ/mol (Liquid); method: Isoperibol calorimetry
Temperature, K	Molar enthalpy of solution, kJ/mol	uncertainty
278.15	-7.8	
279.15	-7.49	
288.15	-4.98	
298.15	-2.15	
308.15	.63	
313.15	2.15	

System: heavy water + rac-(3aS,6aS)-1,4-diethyl-3,6-dimethyltetrahydroimidazo[4,5-d]imidazole-2,5(1H,3H)-dione; phases: Liquid
Fixed: Pressure, kPa = 99.6
Fixed: Mole fraction of rac-(3aS,6aS)-1,4-diethyl-3,6-dimethyltetrahydroimidazo[4,5-d]imidazole-2,5(1H,3H)-dione = 0
Property: Molar enthalpy of solution, kJ/mol (Liquid); method: Isoperibol calorimetry
Temperature, K	Molar enthalpy of solution, kJ/mol	uncertainty
278.15	-8.37	
279.15	-8.06	
288.15	-5.46	
298.15	-2.53	
308.15	.38	
313.15	1.92	
