Measured thermophysical data. Ternary excess molar volumes of {methyltrioctylammonium  bis(trifluoromethylsulfonyl)imide + ethanol + methyl acetate, or ethyl acetate} systems at T = (298.15, 303.15, and 313.15) K
Source: J. Chem. Thermodyn., 2010, 10.1016/j.jct.2010.01.007
Compound 1: methyltrioctylammonium 1,1,1-trifluoro-N-[(trifluoromethyl)sulfonyl]methanesulfonamide, C27H54F6N2O4S2, purity 98%
Compound 2: ethanol, C2H6O, purity 99.8%
Compound 3: methyl acetate, C3H6O2, purity 99%
Compound 4: ethyl acetate, C4H8O2, purity 99.7%

System: methyltrioctylammonium 1,1,1-trifluoro-N-[(trifluoromethyl)sulfonyl]methanesulfonamide; phases: Liquid
Fixed: Pressure, kPa = 101.325
Property: Mass density, kg/m3 (Liquid); method: Vibrating tube method
Temperature, K	Mass density, kg/m3	uncertainty
298.15	1106.9	2
303.15	1103.2	2
313.1	1095.7	2

System: ethanol + methyl acetate + methyltrioctylammonium 1,1,1-trifluoro-N-[(trifluoromethyl)sulfonyl]methanesulfonamide; phases: Liquid
Fixed: Pressure, kPa = 101
Property: Mass density, kg/m3 (Liquid); method: Vibrating tube method
Temperature, K	Mole fraction of methyltrioctylammonium 1,1,1-trifluoro-N-[(trifluoromethyl)sulfonyl]methanesulfonamide	Mole fraction of ethanol	Mass density, kg/m3	uncertainty
298.15	.0749	.6258	963.2	2
298.15	.1169	.4168	1004.5	2
298.15	.1364	.3192	1018.2	2
298.15	.1538	.231	1027.8	2
298.15	.1698	.1531	1034.8	2
298.15	.1853	.0738	1041	2
298.15	.2	0	1045.9	2
298.15	.1027	.7434	978	2
298.15	.1503	.6244	1012.1	2
298.15	.1925	.5203	1032.5	2
298.15	.2331	.4192	1046.5	2
298.15	.2715	.3211	1057.5	2
298.15	.3078	.2305	1065.5	2
298.15	.3488	.1269	1072.8	2
298.15	.4001	0	1080	2
298.15	.3199	.5191	1063	2
298.15	.3879	.4186	1074.5	2
298.15	.4542	.3194	1082.5	2
298.15	.5085	.2373	1087.8	2
298.15	.5645	.1554	1092	2
298.15	.615	.0747	1095.5	2
298.15	.6651	0	1098.4	2
298.15	.7456	.1825	1101.3	2
298.15	.8255	.0955	1104.6	2
298.15	.6689	.2667	1097.5	2
298.15	.5834	.3603	1092.1	2
298.15	.3778	.5858	1070.4	2
298.15	.4298	.442	1078.9	2
298.15	.529	.3133	1088.8	2
298.15	.5744	.2537	1092.2	2
298.15	.6623	.1403	1097.8	2
298.15	.7436	.0352	1101.8	2
298.15	.0133	.8671	844.8	2
298.15	.0266	.7352	887.3	2
298.15	.0486	.5134	939.3	2
298.15	.059	.4113	959	2
298.15	.0681	.3176	973	2
298.15	.0765	.2306	984.5	2
298.15	.0924	.0761	1002	2
298.15	.1013	0	1008.2	2
298.15	.0874	.8256	960.1	2
298.15	.1555	.6893	1011.8	2
298.15	.2868	.4268	1058.9	2
298.15	.3826	.2354	1076	2
298.15	.4678	.0663	1085.7	2
298.15	.5003	0	1088.8	2
303.15	.0749	.6258	958.4	2
303.15	.1169	.4168	998.5	2
303.15	.1364	.3192	1011.8	2
303.15	.1538	.231	1021.8	2
303.15	.1698	.1531	1029.8	2
303.15	.1853	.0738	1036.8	2
303.15	.2	0	1042.8	2
303.15	.1027	.7434	975.5	2
303.15	.1503	.6244	1010	2
303.15	.1925	.5203	1030	2
303.15	.2331	.4192	1044	2
303.15	.2715	.3211	1055.1	2
303.15	.3078	.2305	1063.2	2
303.15	.3488	.1269	1070.6	2
303.15	.4001	0	1078	2
303.15	.3199	.5191	1060.3	2
303.15	.3879	.4186	1071.5	2
303.15	.4542	.3194	1079.8	2
303.15	.5085	.2373	1085	2
303.15	.5645	.1554	1089.5	2
303.15	.615	.0747	1093.2	2
303.15	.6651	0	1096.2	2
303.15	.7456	.1825	1098.5	2
303.15	.8255	.0955	1102	2
303.15	.6689	.2667	1094.6	2
303.15	.5834	.3603	1089.2	2
303.15	.3778	.5858	1067.5	2
303.15	.4298	.442	1075.8	2
303.15	.529	.3133	1085.7	2
303.15	.5744	.2537	1089.5	2
303.15	.6623	.1403	1095	2
303.15	.7436	.0352	1099.2	2
303.15	.0133	.8671	840.3	2
303.15	.0266	.7352	882.4	2
303.15	.0486	.5134	933.9	2
303.15	.059	.4113	954	2
303.15	.0681	.3176	969	2
303.15	.0765	.2306	980.7	2
303.15	.0924	.0761	998	2
303.15	.1013	0	1004.5	2
303.15	.0874	.8256	956.2	2
303.15	.1555	.6893	1009.7	2
303.15	.2868	.4268	1056	2
303.15	.3826	.2354	1073.5	2
303.15	.4678	.0663	1083.5	2
303.15	.5003	0	1086.6	2
313.15	.0749	.6258	949	2
313.15	.1169	.4168	992	2
313.15	.1364	.3192	1005.5	2
313.15	.1538	.231	1015.9	2
313.15	.1698	.1531	1023.5	2
313.15	.1853	.0738	1029	2
313.15	.2	0	1033.5	2
313.15	.1027	.7434	965.5	2
313.15	.1503	.6244	1000.2	2
313.15	.1925	.5203	1019.9	2
313.15	.2331	.4192	1036	2
313.15	.2715	.3211	1047.5	2
313.15	.3078	.2305	1056	2
313.15	.3488	.1269	1063.5	2
313.15	.4001	0	1070.5	2
313.15	.3199	.5191	1054.5	2
313.15	.3879	.4186	1066.2	2
313.15	.4542	.3194	1074	2
313.15	.5085	.2373	1079.2	2
313.15	.5645	.1554	1083.8	2
313.15	.615	.0747	1087	2
313.15	.6651	0	1089.5	2
313.15	.7456	.1825	1092.5	2
313.15	.8255	.0955	1095.8	2
313.15	.6689	.2667	1088.8	2
313.15	.5834	.3603	1083.4	2
313.15	.3778	.5858	1061.2	2
313.15	.4298	.442	1069.8	2
313.15	.529	.3133	1080	2
313.15	.5744	.2537	1083.5	2
313.15	.6623	.1403	1089	2
313.15	.7436	.0352	1093	2
313.15	.0133	.8671	831.2	2
313.15	.0266	.7352	872.7	2
313.15	.0486	.5134	923.8	2
313.15	.059	.4113	944.5	2
313.15	.0681	.3176	961	2
313.15	.0765	.2306	972.5	2
313.15	.0924	.0761	989.5	2
313.15	.1013	0	995.5	2
313.15	.0874	.8256	947.2	2
313.15	.1555	.6893	1004.5	2
313.15	.2868	.4268	1050	2
313.15	.3826	.2354	1067.2	2
313.15	.4678	.0663	1077	2
313.15	.5003	0	1079.5	2

System: ethanol + methyl acetate + methyltrioctylammonium 1,1,1-trifluoro-N-[(trifluoromethyl)sulfonyl]methanesulfonamide; phases: Liquid
Fixed: Pressure, kPa = 101
Property: Excess molar volume, m3/mol (Liquid); method: Calculated with densities of this investigation
Temperature, K	Mole fraction of methyltrioctylammonium 1,1,1-trifluoro-N-[(trifluoromethyl)sulfonyl]methanesulfonamide	Mole fraction of ethanol	Excess molar volume, m3/mol	uncertainty
298.15	.0749	.6258	-.00000112	.00000001
298.15	.1169	.4168	-.00000134	.00000001
298.15	.1364	.3192	-.00000139	.00000001
298.15	.1538	.231	-.00000131	.00000001
298.15	.1698	.1531	-.00000115	.00000001
298.15	.1853	.0738	-.00000101	.00000001
298.15	.2	0	-.00000081	.00000001
298.15	.1027	.7434	-.00000127	.00000001
298.15	.1503	.6244	-.0000015	.00000001
298.15	.1925	.5203	-.0000016	.00000001
298.15	.2331	.4192	-.00000156	.00000001
298.15	.2715	.3211	-.00000162	.00000001
298.15	.3078	.2305	-.00000157	.00000001
298.15	.3488	.1269	-.00000148	.00000001
298.15	.4001	0	-.00000131	.00000001
298.15	.3199	.5191	-.0000019	.00000001
298.15	.3879	.4186	-.00000195	.00000001
298.15	.4542	.3194	-.00000185	.00000001
298.15	.5085	.2373	-.00000178	.00000001
298.15	.5645	.1554	-.00000159	.00000001
298.15	.615	.0747	-.0000015	.00000001
298.15	.6651	0	-.00000138	.00000001
298.15	.7456	.1825	-.00000179	.00000001
298.15	.8255	.0955	-.00000167	.00000001
298.15	.6689	.2667	-.00000191	.00000001
298.15	.5834	.3603	-.00000199	.00000001
298.15	.3778	.5858	-.00000196	.00000001
298.15	.4298	.442	-.000002	.00000001
298.15	.529	.3133	-.00000191	.00000001
298.15	.5744	.2537	-.00000182	.00000001
298.15	.6623	.1403	-.0000017	.00000001
298.15	.7436	.0352	-.00000152	.00000001
298.15	.0133	.8671	-.00000011	.00000001
298.15	.0266	.7352	-.00000014	.00000001
298.15	.0486	.5134	-.00000029	.00000001
298.15	.059	.4113	-.00000049	.00000001
298.15	.0681	.3176	-.00000051	.00000001
298.15	.0765	.2306	-.00000055	.00000001
298.15	.0924	.0761	-.00000052	.00000001
298.15	.1013	0	-.00000027	.00000001
298.15	.0874	.8256	-.00000117	.00000001
298.15	.1555	.6893	-.00000152	.00000001
298.15	.2868	.4268	-.00000181	.00000001
298.15	.3826	.2354	-.00000172	.00000001
298.15	.4678	.0663	-.00000145	.00000001
298.15	.5003	0	-.00000137	.00000001
303.15	.0749	.6258	-.00000114	.00000001
303.15	.1169	.4168	-.00000121	.00000001
303.15	.1364	.3192	-.00000119	.00000001
303.15	.1538	.231	-.00000116	.00000001
303.15	.1698	.1531	-.00000115	.00000001
303.15	.1853	.0738	-.00000114	.00000001
303.15	.2	0	-.00000114	.00000001
303.15	.1027	.7434	-.00000153	.00000001
303.15	.1503	.6244	-.00000185	.00000001
303.15	.1925	.5203	-.00000193	.00000001
303.15	.2331	.4192	-.00000192	.00000001
303.15	.2715	.3211	-.00000203	.00000001
303.15	.3078	.2305	-.00000204	.00000001
303.15	.3488	.1269	-.000002	.00000001
303.15	.4001	0	-.00000193	.00000001
303.15	.3199	.5191	-.00000222	.00000001
303.15	.3879	.4186	-.00000223	.00000001
303.15	.4542	.3194	-.00000224	.00000001
303.15	.5085	.2373	-.00000216	.00000001
303.15	.5645	.1554	-.00000209	.00000001
303.15	.615	.0747	-.0000021	.00000001
303.15	.6651	0	-.00000205	.00000001
303.15	.7456	.1825	-.00000221	.00000001
303.15	.8255	.0955	-.00000216	.00000001
303.15	.6689	.2667	-.00000227	.00000001
303.15	.5834	.3603	-.00000232	.00000001
303.15	.3778	.5858	-.00000223	.00000001
303.15	.4298	.442	-.00000225	.00000001
303.15	.529	.3133	-.00000219	.00000001
303.15	.5744	.2537	-.00000223	.00000001
303.15	.6623	.1403	-.00000211	.00000001
303.15	.7436	.0352	-.00000206	.00000001
303.15	.0133	.8671	-.00000014	.00000001
303.15	.0266	.7352	-.00000016	.00000001
303.15	.0486	.5134	-.00000028	.00000001
303.15	.059	.4113	-.00000053	.00000001
303.15	.0681	.3176	-.00000067	.00000001
303.15	.0765	.2306	-.00000075	.00000001
303.15	.0924	.0761	-.00000072	.00000001
303.15	.1013	0	-.00000051	.00000001
303.15	.0874	.8256	-.00000125	.00000001
303.15	.1555	.6893	-.00000186	.00000001
303.15	.2868	.4268	-.00000211	.00000001
303.15	.3826	.2354	-.00000216	.00000001
303.15	.4678	.0663	-.00000203	.00000001
303.15	.5003	0	-.00000198	.00000001
313.15	.0749	.6258	-.00000115	.00000001
313.15	.1169	.4168	-.00000163	.00000001
313.15	.1364	.3192	-.00000168	.00000001
313.15	.1538	.231	-.00000175	.00000001
313.15	.1698	.1531	-.00000171	.00000001
313.15	.1853	.0738	-.00000147	.00000001
313.15	.2	0	-.00000123	.00000001
313.15	.1027	.7434	-.0000014	.00000001
313.15	.1503	.6244	-.00000173	.00000001
313.15	.1925	.5203	-.00000176	.00000001
313.15	.2331	.4192	-.00000208	.00000001
313.15	.2715	.3211	-.00000227	.00000001
313.15	.3078	.2305	-.00000239	.00000001
313.15	.3488	.1269	-.00000233	.00000001
313.15	.4001	0	-.00000226	.00000001
313.15	.3199	.5191	-.00000273	.00000001
313.15	.3879	.4186	-.00000285	.00000001
313.15	.4542	.3194	-.00000291	.00000001
313.15	.5085	.2373	-.00000286	.00000001
313.15	.5645	.1554	-.00000285	.00000001
313.15	.615	.0747	-.00000269	.00000001
313.15	.6651	0	-.00000256	.00000001
313.15	.7456	.1825	-.00000293	.00000001
313.15	.8255	.0955	-.00000284	.00000001
313.15	.6689	.2667	-.00000301	.00000001
313.15	.5834	.3603	-.000003	.00000001
313.15	.3778	.5858	-.00000264	.00000001
313.15	.4298	.442	-.0000028	.00000001
313.15	.529	.3133	-.0000029	.00000001
313.15	.5744	.2537	-.00000288	.00000001
313.15	.6623	.1403	-.00000282	.00000001
313.15	.7436	.0352	-.00000275	.00000001
313.15	.0133	.8671	-.00000013	.00000001
313.15	.0266	.7352	-.00000014	.00000001
313.15	.0486	.5134	-.00000027	.00000001
313.15	.059	.4113	-.00000061	.00000001
313.15	.0681	.3176	-.00000096	.00000001
313.15	.0765	.2306	-.00000103	.00000001
313.15	.0924	.0761	-.00000101	.00000001
313.15	.1013	0	-.00000076	.00000001
313.15	.0874	.8256	-.00000122	.00000001
313.15	.1555	.6893	-.00000237	.00000001
313.15	.2868	.4268	-.00000264	.00000001
313.15	.3826	.2354	-.00000271	.00000001
313.15	.4678	.0663	-.00000259	.00000001
313.15	.5003	0	-.00000238	.00000001

System: ethanol + ethyl acetate + methyltrioctylammonium 1,1,1-trifluoro-N-[(trifluoromethyl)sulfonyl]methanesulfonamide; phases: Liquid
Fixed: Pressure, kPa = 101
Property: Mass density, kg/m3 (Liquid); method: Vibrating tube method
Temperature, K	Mole fraction of methyltrioctylammonium 1,1,1-trifluoro-N-[(trifluoromethyl)sulfonyl]methanesulfonamide	Mole fraction of ethanol	Mass density, kg/m3	uncertainty
298.15	.0786	.657	964	2
298.15	.126	.4501	1000.5	2
298.15	.149	.3499	1012.9	2
298.15	.1706	.2558	1022	2
298.15	.1903	.1698	1028.8	2
298.15	.2102	.0831	1034.3	2
298.15	.1558	.6476	1009	2
298.15	.2011	.5454	1029	2
298.15	.2465	.4425	1042.6	2
298.15	.2901	.343	1052.9	2
298.15	.332	.2492	1060.5	2
298.15	.3827	.1344	1067.9	2
298.15	.4423	0	1074.9	2
298.15	.3292	.5326	1059.8	2
298.15	.4037	.4268	1071.2	2
298.15	.4702	.332	1078.8	2
298.15	.5302	.2472	1084.3	2
298.15	.5935	.1556	1088.8	2
298.15	.6508	.0754	1092.8	2
298.15	.7044	0	1096.5	2
298.15	.7542	.1847	1098.5	2
298.15	.8378	.0943	1102.1	2
298.15	.6755	.2697	1094.3	2
298.15	.588	.3644	1088.5	2
298.15	.38	.5892	1064.5	2
298.15	.9251	0	1105.1	2
298.15	.2454	.6932	1038	2
298.15	.3145	.6067	1055.5	2
298.15	.4388	.4513	1075	2
298.15	.5427	.3214	1085.5	2
298.15	.5911	.2609	1089	2
298.15	.6845	.1441	1094.7	2
298.15	.7707	.0363	1099.5	2
298.15	.7998	0	1101.2	2
298.15	.0275	.7642	897.5	2
298.15	.0523	.552	947.5	2
298.15	.0642	.4497	963.1	2
298.15	.0863	.2603	983.6	2
298.15	.1069	.0833	996	2
298.15	.0885	.8373	957.5	2
298.15	.1595	.7066	1008.5	2
298.15	.3006	.4468	1054.5	2
298.15	.4074	.2497	1071	2
298.15	.5054	.0693	1081.5	2
298.15	.5436	0	1085.3	2
303.15	.0786	.657	960	2
303.15	.126	.4501	997.6	2
303.15	.149	.3499	1010.5	2
303.15	.1706	.2558	1019.5	2
303.15	.1903	.1698	1026	2
303.15	.2102	.0831	1031	2
303.15	.1558	.6476	1006.8	2
303.15	.2011	.5454	1026	2
303.15	.2465	.4425	1039.3	2
303.15	.2901	.343	1049.3	2
303.15	.332	.2492	1056.7	2
303.15	.3827	.1344	1063.9	2
303.15	.4423	0	1070.6	2
303.15	.3292	.5326	1056.3	2
303.15	.4037	.4268	1067.5	2
303.15	.4702	.332	1074.7	2
303.15	.5302	.2472	1080	2
303.15	.5935	.1556	1084.7	2
303.15	.6508	.0754	1088.8	2
303.15	.7044	0	1092.3	2
303.15	.7542	.1847	1094.4	2
303.15	.8378	.0943	1098	2
303.15	.6755	.2697	1090.4	2
303.15	.588	.3644	1084.6	2
303.15	.38	.5892	1061.2	2
303.15	.9251	0	1101.2	2
303.15	.2454	.6932	1035	2
303.15	.3145	.6067	1052.5	2
303.15	.4388	.4513	1071	2
303.15	.5427	.3214	1081	2
303.15	.5911	.2609	1084.8	2
303.15	.6845	.1441	1090.5	2
303.15	.7707	.0363	1095.2	2
303.15	.7998	0	1097	2
303.15	.0275	.7642	894	2
303.15	.0523	.552	944.5	2
303.15	.0642	.4497	961	2
303.15	.0863	.2603	981.5	2
303.15	.1069	.0833	993	2
303.15	.0885	.8373	953.5	2
303.15	.1595	.7066	1006	2
303.15	.3006	.4468	1050.6	2
303.15	.4074	.2497	1067	2
303.15	.5054	.0693	1077.2	2
303.15	.5436	0	1081	2
313.15	.0786	.657	952.5	2
313.15	.126	.4501	990.5	2
313.15	.149	.3499	1002.2	2
313.15	.1706	.2558	1010.6	2
313.15	.1903	.1698	1017	2
313.15	.2102	.0831	1022	2
313.15	.1558	.6476	999.2	2
313.15	.2011	.5454	1018.3	2
313.15	.2465	.4425	1031.4	2
313.15	.2901	.343	1041.4	2
313.15	.332	.2492	1048.7	2
313.15	.3827	.1344	1055.7	2
313.15	.4423	0	1062.5	2
313.15	.3292	.5326	1048	2
313.15	.4037	.4268	1059	2
313.15	.4702	.332	1066.6	2
313.15	.5302	.2472	1072	2
313.15	.5935	.1556	1076.5	2
313.15	.6508	.0754	1081	2
313.15	.7044	0	1084.8	2
313.15	.7542	.1847	1086.5	2
313.15	.8378	.0943	1090.2	2
313.15	.6755	.2697	1082.5	2
313.15	.588	.3644	1076.5	2
313.15	.38	.5892	1052.8	2
313.15	.9251	0	1093.4	2
313.15	.2454	.6932	1026.8	2
313.15	.3145	.6067	1044.6	2
313.15	.4388	.4513	1063	2
313.15	.5427	.3214	1073	2
313.15	.5911	.2609	1076.8	2
313.15	.6845	.1441	1082.5	2
313.15	.7707	.0363	1087.6	2
313.15	.7998	0	1089.8	2
313.15	.0275	.7642	885.8	2
313.15	.0523	.552	936.8	2
313.15	.0642	.4497	953.5	2
313.15	.0863	.2603	973.6	2
313.15	.1069	.0833	983.7	2
313.15	.0885	.8373	945.2	2
313.15	.1595	.7066	997.8	2
313.15	.3006	.4468	1042.5	2
313.15	.4074	.2497	1059	2
313.15	.5054	.0693	1069.5	2
313.15	.5436	0	1073.4	2

System: ethanol + ethyl acetate + methyltrioctylammonium 1,1,1-trifluoro-N-[(trifluoromethyl)sulfonyl]methanesulfonamide; phases: Liquid
Fixed: Pressure, kPa = 101
Property: Excess molar volume, m3/mol (Liquid); method: Calculated with densities of this investigation
Temperature, K	Mole fraction of methyltrioctylammonium 1,1,1-trifluoro-N-[(trifluoromethyl)sulfonyl]methanesulfonamide	Mole fraction of ethanol	Excess molar volume, m3/mol	uncertainty
298.15	.0786	.657	-.0000022	.00000001
298.15	.126	.4501	-.00000224	.00000001
298.15	.149	.3499	-.00000218	.00000001
298.15	.1706	.2558	-.00000209	.00000001
298.15	.1903	.1698	-.00000191	.00000001
298.15	.2102	.0831	-.0000017	.00000001
298.15	.1558	.6476	-.00000187	.00000001
298.15	.2011	.5454	-.00000181	.00000001
298.15	.2465	.4425	-.00000179	.00000001
298.15	.2901	.343	-.0000017	.00000001
298.15	.332	.2492	-.00000159	.00000001
298.15	.3827	.1344	-.00000149	.00000001
298.15	.4423	0	-.00000159	.00000001
298.15	.3292	.5326	-.00000151	.00000001
298.15	.4037	.4268	-.00000142	.00000001
298.15	.4702	.332	-.00000133	.00000001
298.15	.5302	.2472	-.00000115	.00000001
298.15	.5935	.1556	-.0000012	.00000001
298.15	.6508	.0754	-.00000144	.00000001
298.15	.7044	0	-.00000081	.00000001
298.15	.7542	.1847	-.0000007	.00000001
298.15	.8378	.0943	-.00000087	.00000001
298.15	.6755	.2697	-.00000093	.00000001
298.15	.588	.3644	-.00000063	.00000001
298.15	.38	.5892	-.00000052	.00000001
298.15	.9251	0	-.00000113	.00000001
298.15	.2454	.6932	-.00000126	.00000001
298.15	.3145	.6067	-.00000128	.00000001
298.15	.4388	.4513	-.00000127	.00000001
298.15	.5427	.3214	-.00000115	.00000001
298.15	.5911	.2609	-.00000099	.00000001
298.15	.6845	.1441	-.0000011	.00000001
298.15	.7707	.0363	-.00000127	.00000001
298.15	.7998	0	-.00000184	.00000001
298.15	.0275	.7642	-.00000251	.00000001
298.15	.0523	.552	-.00000261	.00000001
298.15	.0642	.4497	-.00000253	.00000001
298.15	.0863	.2603	-.00000216	.00000001
298.15	.1069	.0833	-.00000115	.00000001
298.15	.0885	.8373	-.00000148	.00000001
298.15	.1595	.7066	-.00000167	.00000001
298.15	.3006	.4468	-.00000144	.00000001
298.15	.4074	.2497	-.00000138	.00000001
298.15	.5054	.0693	-.00000155	.00000001
298.15	.5436	0	-.00000224	.00000001
303.15	.0786	.657	-.00000249	.00000001
303.15	.126	.4501	-.00000263	.00000001
303.15	.149	.3499	-.00000259	.00000001
303.15	.1706	.2558	-.00000246	.00000001
303.15	.1903	.1698	-.00000221	.00000001
303.15	.2102	.0831	-.00000204	.00000001
303.15	.1558	.6476	-.00000211	.00000001
303.15	.2011	.5454	-.00000202	.00000001
303.15	.2465	.4425	-.00000195	.00000001
303.15	.2901	.343	-.00000184	.00000001
303.15	.332	.2492	-.00000168	.00000001
303.15	.3827	.1344	-.00000149	.00000001
303.15	.4423	0	-.00000174	.00000001
303.15	.3292	.5326	-.00000161	.00000001
303.15	.4037	.4268	-.00000138	.00000001
303.15	.4702	.332	-.00000124	.00000001
303.15	.5302	.2472	-.00000113	.00000001
303.15	.5935	.1556	-.00000118	.00000001
303.15	.6508	.0754	-.00000134	.00000001
303.15	.7044	0	-.00000068	.00000001
303.15	.7542	.1847	-.00000055	.00000001
303.15	.8378	.0943	-.00000084	.00000001
303.15	.6755	.2697	-.00000092	.00000001
303.15	.588	.3644	-.00000079	.00000001
303.15	.38	.5892	-.00000045	.00000001
303.15	.9251	0	-.00000135	.00000001
303.15	.2454	.6932	-.0000015	.00000001
303.15	.3145	.6067	-.00000128	.00000001
303.15	.4388	.4513	-.00000109	.00000001
303.15	.5427	.3214	-.00000105	.00000001
303.15	.5911	.2609	-.00000086	.00000001
303.15	.6845	.1441	-.00000091	.00000001
303.15	.7707	.0363	-.00000112	.00000001
303.15	.7998	0	-.00000199	.00000001
303.15	.0275	.7642	-.00000276	.00000001
303.15	.0523	.552	-.00000299	.00000001
303.15	.0642	.4497	-.00000297	.00000001
303.15	.0863	.2603	-.00000251	.00000001
303.15	.1069	.0833	-.00000121	.00000001
303.15	.0885	.8373	-.00000177	.00000001
303.15	.1595	.7066	-.00000175	.00000001
303.15	.3006	.4468	-.00000147	.00000001
303.15	.4074	.2497	-.00000133	.00000001
303.15	.5054	.0693	-.00000149	.00000001
303.15	.5436	0	-.00000252	.00000001
313.15	.0786	.657	-.00000292	.00000001
313.15	.126	.4501	-.00000292	.00000001
313.15	.149	.3499	-.00000281	.00000001
313.15	.1706	.2558	-.00000269	.00000001
313.15	.1903	.1698	-.00000246	.00000001
313.15	.2102	.0831	-.00000226	.00000001
313.15	.1558	.6476	-.00000235	.00000001
313.15	.2011	.5454	-.00000224	.00000001
313.15	.2465	.4425	-.00000219	.00000001
313.15	.2901	.343	-.00000206	.00000001
313.15	.332	.2492	-.00000187	.00000001
313.15	.3827	.1344	-.00000172	.00000001
313.15	.4423	0	-.00000173	.00000001
313.15	.3292	.5326	-.00000153	.00000001
313.15	.4037	.4268	-.0000014	.00000001
313.15	.4702	.332	-.00000129	.00000001
313.15	.5302	.2472	-.00000109	.00000001
313.15	.5935	.1556	-.00000129	.00000001
313.15	.6508	.0754	-.00000156	.00000001
313.15	.7044	0	-.00000058	.00000001
313.15	.7542	.1847	-.00000048	.00000001
313.15	.8378	.0943	-.00000077	.00000001
313.15	.6755	.2697	-.0000008	.00000001
313.15	.588	.3644	-.00000067	.00000001
313.15	.38	.5892	-.00000035	.00000001
313.15	.9251	0	-.00000135	.00000001
313.15	.2454	.6932	-.00000156	.00000001
313.15	.3145	.6067	-.00000129	.00000001
313.15	.4388	.4513	-.00000107	.00000001
313.15	.5427	.3214	-.00000103	.00000001
313.15	.5911	.2609	-.00000081	.00000001
313.15	.6845	.1441	-.00000103	.00000001
313.15	.7707	.0363	-.00000141	.00000001
313.15	.7998	0	-.00000217	.00000001
313.15	.0275	.7642	-.00000311	.00000001
313.15	.0523	.552	-.00000341	.00000001
313.15	.0642	.4497	-.00000343	.00000001
313.15	.0863	.2603	-.00000285	.00000001
313.15	.1069	.0833	-.00000128	.00000001
313.15	.0885	.8373	-.00000186	.00000001
313.15	.1595	.7066	-.00000187	.00000001
313.15	.3006	.4468	-.00000162	.00000001
313.15	.4074	.2497	-.0000016	.00000001
313.15	.5054	.0693	-.0000018	.00000001
