Measured thermophysical data. Isopiestic measurement and solubility evaluation of the ternary system (CaCl2 + SrCl2 + H2O) at T = 298.15 K
Source: J. Chem. Thermodyn., 2013, 10.1016/j.jct.2013.03.021
Compound 1: strontium chloride, Cl2Sr
Compound 2: water, H2O
Compound 3: calcium chloride, CaCl2

System: water + calcium chloride + strontium chloride; phases: Liquid
Fixed: Temperature, K = 298.15
Fixed: Pressure, kPa = 77.5
Property: (Relative) activity of water (Liquid); method: isopiestic method
Molality, mol/kg of strontium chloride	Molality, mol/kg of calcium chloride	(Relative) activity of water	uncertainty
0	.2229	.9897	.009897
0	.3709	.9823	.009823
.373	.1598	.9742	.009742
.2654	.2655	.9742	.009742
.1592	.3704	.9742	.009742
.0529	.4734	.9742	.009742
0	2.2169	.8395	.008395
1.6838	.7213	.8277	.008277
1.1921	1.1925	.8277	.008277
.7104	1.6532	.8277	.008277
.236	2.1121	.8277	.008277
0	2.3381	.8277	.008277
0	2.5405	.8044	.008044
0	.6548	.9667	.009667
0	.8413	.9555	.009555
.6494	.2782	.9511	.009511
.4615	.4616	.9511	.009511
.2764	.6433	.9511	.009511
.0916	.82	.9511	.009511
0	.9307	.9496	.009496
0	1.2538	.925	.00925
0	1.4089	.9147	.009147
1.0811	.4632	.9068	.009068
.7666	.7669	.9068	.009068
.4575	1.0647	.9068	.009068
.1521	1.3612	.9068	.009068
0	1.5085	.9068	.009068
0	1.6217	.8969	.008969
0	1.6625	.893	.00893
0	1.7772	.8831	.008831
1.4893	.638	.8553	.008553
1.055	1.0554	.8553	.008553
.6289	1.4636	.8553	.008553
.209	1.8702	.8553	.008553
0	2.0707	.8553	.008553
0	2.1865	.8431	.008431
1.8554	.7948	.8019	.008019
1.3119	1.3123	.8019	.008019
.7816	1.819	.8019	.008019
.2589	2.3168	.8019	.008019
.0519	2.5172	.8019	.008019
0	2.7238	.7831	.007831
2.1128	.9051	.7583	.007583
1.494	1.4945	.7583	.007583
.8889	2.0686	.7583	.007583
.2951	2.6407	.7583	.007583
0	2.9217	.7583	.007583
2.4255	1.0391	.7094	.007094
1.7113	1.7119	.7094	.007094
1.018	2.369	.7094	.007094
.3366	3.0127	.7094	.007094
.0675	3.2714	.7094	.007094
1.2802	2.9792	.602	.00602
.4226	3.7825	.602	.00602
.0844	4.0938	.602	.00602
.4819	4.3131	.529	.00529
.0961	4.662	.529	.00529
.1135	5.5049	.4306	.004306
.135	6.5495	.3366	.003366
.1469	7.1235	.297	.00297

System: water + calcium chloride; phases: Liquid
Property: (Relative) activity of water (Liquid); method: isopiestic method
Molality, mol/kg of calcium chloride	Temperature, K	Pressure, kPa	(Relative) activity of water	uncertainty
.2229	298.15	77.5	.9897	.009897
.3709	298.15	77.5	.9823	.009823
2.2169	298.15	77.5	.8395	.008395
2.3381	298.15	77.5	.8277	.008277
2.5405	298.15	77.5	.8044	.008044
.6548	298.15	77.5	.9667	.009667
.8413	298.15	77.5	.9555	.009555
.9307	298.15	77.5	.9496	.009496
1.2538	298.15	77.5	.925	.00925
1.4089	298.15	77.5	.9147	.009147
1.5085	298.15	77.5	.9068	.009068
1.6217	298.15	77.5	.8969	.008969
1.6625	298.15	77.5	.893	.00893
1.7772	298.15	77.5	.8831	.008831
2.0707	298.15	77.5	.8553	.008553
2.1865	298.15	77.5	.8431	.008431
2.7238	298.15	77.5	.7831	.007831
2.9217	298.15	77.5	.7583	.007583
