Measured thermophysical data. Experimental study of high pressure phase equilibrium of (CO2 + NO2/N2O4)  mixtures
Source: J. Chem. Thermodyn., 2011, 10.1016/j.jct.2011.07.007
Compound 1: nitrogen dioxide, NO2, purity 99%
Compound 2: carbon dioxide, CO2, purity 99.999%

System: carbon dioxide + nitrogen dioxide; phases: Liquid, Gas
Property: Vapor or sublimation pressure, kPa (Liquid); method: Closed cell (Static) method
Temperature, K	Mole fraction of carbon dioxide	Vapor or sublimation pressure, kPa	uncertainty
298.15	.072	1000	75
313.65	.281	3300	75
312.95	.323	3800	75
313.05	.355	4200	75
313.05	.937	8000	75
313.35	.778	6620	75
313.35	.784	6690	75
313.55	.788	6770	75
313.35	.546	5550	75
313.35	.571	5500	75
313.35	.586	5520	75
313.25	.606	5600	75
313.15	.136	2100	75
313.65	.16	2560	75
328.45	.839	8970	75
328.45	.847	8950	75
328.45	.707	7810	75

System: carbon dioxide + nitrogen dioxide; phases: Gas, Liquid
Property: Vapor or sublimation pressure, kPa (Gas); method: Closed cell (Static) method
Temperature, K	Mole fraction of carbon dioxide	Vapor or sublimation pressure, kPa	uncertainty
312.35	.884	5500	75
