Measured thermophysical data. Heat capacities and thermodynamics of formation of flat-Al13 nitrate - [Al13(OH)24(H2O)24](NO3)15.11H2O
Source: J. Chem. Thermodyn., 2015, 10.1016/j.jct.2015.06.037
Compound 1: sodium nitrate, NNaO3, purity 99%
Compound 2: hydrogen chloride, ClH, purity 98%
Compound 3: water, H2O, purity 99.9%

System: sodium nitrate + hydrogen chloride + water; phases: Liquid
Fixed: Mole fraction of sodium nitrate = 0
Fixed: Pressure, kPa = 100
Fixed: Temperature, K = 300.15
Property: Molar enthalpy of solution, kJ/mol (Liquid); method: Calvet calorimetry
Solvent: Mass fraction of hydrogen chloride	Molar enthalpy of solution, kJ/mol	uncertainty
.169	22.65	
