Measured thermophysical data. SAFT-.gamma. force field for the simulation of molecular fluids 6: Binary and ternary mixtures comprising water, carbon dioxide, and n-alkanes
Source: J. Chem. Thermodyn., 2016, 10.1016/j.jct.2015.10.011
Compound 1: n-hexane, C6H14, purity 99.6%
Compound 2: water, H2O, purity 99.8%

System: n-hexane; phases: Liquid
Fixed: Pressure, kPa = 101.325
Property: Mass density, kg/m3 (Liquid); method: Vibrating tube method
Temperature, K	Mass density, kg/m3	uncertainty
298.15	655.19	.4

System: water; phases: Liquid
Fixed: Pressure, kPa = 101.325
Property: Mass density, kg/m3 (Liquid); method: Vibrating tube method
Temperature, K	Mass density, kg/m3	uncertainty
298.15	996.7	.4

System: n-hexane + water; phases: Liquid mixture 2, Liquid mixture 1
Fixed: Temperature, K = 373.15
Property: Mass density, kg/m3 (Liquid mixture 2); method: Vibrating tube method
Pressure, kPa	Mass density, kg/m3	uncertainty
675	582.196	.4
2762	587.029	.4
5297	592.773	.4
7738	597.693	.4
10156	602.218	.4
12625	606.434	.4
15100	610.365	.4
17655	614.461	.4
20142	618.21	.4

System: n-hexane + water; phases: Liquid mixture 1, Liquid mixture 2
Fixed: Temperature, K = 373.15
Property: Mass density, kg/m3 (Liquid mixture 1); method: Vibrating tube method
Pressure, kPa	Mass density, kg/m3	uncertainty
675	959.325	.4
2762	960.684	.4
5297	962.144	.4
7738	963.656	.4
10156	965.11	.4
12625	966.573	.4
15100	968.074	.4
17655	969.517	.4
20142	970.994	.4
