Measured thermophysical data. High-pressure density measurements for choline chloride: Urea deep eutectic solvent and its aqueous mixtures at T = (298.15 to 323.15) K and up to 50 MPa
Source: J. Chem. Thermodyn., 2012, 10.1016/j.jct.2012.05.008
Compound 1: urea, CH4N2O, purity 98%
Compound 2: ethanaminium, 2-hydroxy-N,N,N-trimethyl-, chloride, C5H14ClNO, purity 98%
Compound 3: water, H2O, purity 99.9%

System: urea + ethanaminium, 2-hydroxy-N,N,N-trimethyl-, chloride; phases: Liquid
Fixed: Mole fraction of ethanaminium, 2-hydroxy-N,N,N-trimethyl-, chloride = .3333
Property: Mass density, kg/m3 (Liquid); method: Vibrating tube method
Temperature, K	Pressure, kPa	Mass density, kg/m3	uncertainty
298.15	100	1197.9	1.1979
298.15	5000	1199.3	1.1993
298.15	10000	1200.6	1.2006
298.15	15000	1201.9	1.2019
298.15	20000	1203.3	1.2033
298.15	25000	1204.6	1.2046
298.15	30000	1205.9	1.2059
298.15	35000	1207.1	1.2071
298.15	40000	1208.3	1.2083
298.15	45000	1209.5	1.2095
298.15	50000	1210.7	1.2107
303.15	100	1195.1	1.1951
303.15	5000	1196.4	1.1964
303.15	10000	1197.9	1.1979
303.15	15000	1199.1	1.1991
303.15	20000	1200.4	1.2004
303.15	25000	1201.8	1.2018
303.15	30000	1203.1	1.2031
303.15	35000	1204.4	1.2044
303.15	40000	1205.6	1.2056
303.15	45000	1206.8	1.2068
303.15	50000	1208	1.208
308.15	100	1192.2	1.1922
308.15	5000	1193.6	1.1936
308.15	10000	1194.9	1.1949
308.15	15000	1196.3	1.1963
308.15	20000	1197.6	1.1976
308.15	25000	1198.9	1.1989
308.15	30000	1200.3	1.2003
308.15	35000	1201.5	1.2015
308.15	40000	1202.8	1.2028
308.15	45000	1204	1.204
308.15	50000	1205.1	1.2051
313.15	100	1189.3	1.1893
313.15	5000	1190.7	1.1907
313.15	10000	1192	1.192
313.15	15000	1193.4	1.1934
313.15	20000	1194.7	1.1947
313.15	25000	1196.1	1.1961
313.15	30000	1197.4	1.1974
313.15	35000	1198.7	1.1987
313.15	40000	1200	1.2
313.15	45000	1201.2	1.2012
313.15	50000	1202.3	1.2023
318.15	100	1186.4	1.1864
318.15	5000	1187.8	1.1878
318.15	10000	1189.2	1.1892
318.15	15000	1190.5	1.1905
318.15	20000	1191.9	1.1919
318.15	25000	1193.2	1.1932
318.15	30000	1194.6	1.1946
318.15	35000	1195.8	1.1958
318.15	40000	1197.1	1.1971
318.15	45000	1198.3	1.1983
318.15	50000	1199.5	1.1995
323.15	100	1183.5	1.1835
323.15	5000	1184.9	1.1849
323.15	10000	1186.3	1.1863
323.15	15000	1187.6	1.1876
323.15	20000	1189	1.189
323.15	25000	1190.4	1.1904
323.15	30000	1191.6	1.1916
323.15	35000	1193	1.193
323.15	40000	1194.2	1.1942
323.15	45000	1195.5	1.1955
323.15	50000	1196.7	1.1967

System: urea + ethanaminium, 2-hydroxy-N,N,N-trimethyl-, chloride + water; phases: Liquid
Fixed: Solvent: Mole fraction of ethanaminium, 2-hydroxy-N,N,N-trimethyl-, chloride = .3333
Property: Mass density, kg/m3 (Liquid); method: Vibrating tube method
Temperature, K	Pressure, kPa	Mass fraction of water	Mass density, kg/m3	uncertainty
298.15	100	.8999	1063.5	1.0635
298.15	5000	.8999	1065.1	1.0651
298.15	10000	.8999	1067	1.067
298.15	15000	.8999	1068.7	1.0687
298.15	20000	.8999	1070.4	1.0704
298.15	25000	.8999	1072.2	1.0722
298.15	30000	.8999	1073.9	1.0739
298.15	35000	.8999	1075.6	1.0756
298.15	40000	.8999	1077.3	1.0773
298.15	45000	.8999	1078.9	1.0789
298.15	50000	.8999	1080.6	1.0806
303.15	100	.8999	1061.3	1.0613
303.15	5000	.8999	1063	1.063
303.15	10000	.8999	1064.8	1.0648
303.15	15000	.8999	1066.6	1.0666
303.15	20000	.8999	1068.3	1.0683
303.15	25000	.8999	1070	1.07
303.15	30000	.8999	1071.7	1.0717
303.15	35000	.8999	1073.4	1.0734
303.15	40000	.8999	1075.1	1.0751
303.15	45000	.8999	1076.8	1.0768
303.15	50000	.8999	1078.4	1.0784
308.15	100	.8999	1058.9	1.0589
308.15	5000	.8999	1060.7	1.0607
308.15	10000	.8999	1062.4	1.0624
308.15	15000	.8999	1064.3	1.0643
308.15	20000	.8999	1066	1.066
308.15	25000	.8999	1067.8	1.0678
308.15	30000	.8999	1069.5	1.0695
308.15	35000	.8999	1071.2	1.0712
308.15	40000	.8999	1072.8	1.0728
308.15	45000	.8999	1074.5	1.0745
308.15	50000	.8999	1076.1	1.0761
313.15	100	.8999	1056.5	1.0565
313.15	5000	.8999	1058.3	1.0583
313.15	10000	.8999	1060.1	1.0601
313.15	15000	.8999	1061.9	1.0619
313.15	20000	.8999	1063.6	1.0636
313.15	25000	.8999	1065.4	1.0654
313.15	30000	.8999	1067.1	1.0671
313.15	35000	.8999	1068.8	1.0688
313.15	40000	.8999	1070.5	1.0705
313.15	45000	.8999	1072.2	1.0722
313.15	50000	.8999	1073.8	1.0738
318.15	100	.8999	1054	1.054
318.15	5000	.8999	1055.8	1.0558
318.15	10000	.8999	1057.6	1.0576
318.15	15000	.8999	1059.4	1.0594
318.15	20000	.8999	1061.1	1.0611
318.15	25000	.8999	1062.9	1.0629
318.15	30000	.8999	1064.6	1.0646
318.15	35000	.8999	1066.3	1.0663
318.15	40000	.8999	1068	1.068
318.15	45000	.8999	1069.7	1.0697
318.15	50000	.8999	1071.4	1.0714
323.15	100	.8999	1051.4	1.0514
323.15	5000	.8999	1053.2	1.0532
323.15	10000	.8999	1055	1.055
323.15	15000	.8999	1056.8	1.0568
323.15	20000	.8999	1058.6	1.0586
323.15	25000	.8999	1060.3	1.0603
323.15	30000	.8999	1062	1.062
323.15	35000	.8999	1063.7	1.0637
323.15	40000	.8999	1065.4	1.0654
323.15	45000	.8999	1067.2	1.0672
323.15	50000	.8999	1068.8	1.0688
298.15	100	.8	1103	1.103
298.15	5000	.8	1104.5	1.1045
298.15	10000	.8	1106.1	1.1061
298.15	15000	.8	1107.7	1.1077
298.15	20000	.8	1109.2	1.1092
298.15	25000	.8	1110.8	1.1108
298.15	30000	.8	1112.3	1.1123
298.15	35000	.8	1113.8	1.1138
298.15	40000	.8	1115.3	1.1153
298.15	45000	.8	1116.7	1.1167
298.15	50000	.8	1118.2	1.1182
303.15	100	.8	1100.5	1.1005
303.15	5000	.8	1102.1	1.1021
303.15	10000	.8	1103.6	1.1036
303.15	15000	.8	1105.3	1.1053
303.15	20000	.8	1106.8	1.1068
303.15	25000	.8	1108.4	1.1084
303.15	30000	.8	1109.9	1.1099
303.15	35000	.8	1111.4	1.1114
303.15	40000	.8	1112.9	1.1129
303.15	45000	.8	1114.4	1.1144
303.15	50000	.8	1115.8	1.1158
308.15	100	.8	1098	1.098
308.15	5000	.8	1099.6	1.0996
308.15	10000	.8	1101.1	1.1011
308.15	15000	.8	1102.8	1.1028
308.15	20000	.8	1104.3	1.1043
308.15	25000	.8	1105.9	1.1059
308.15	30000	.8	1107.4	1.1074
308.15	35000	.8	1108.9	1.1089
308.15	40000	.8	1110.4	1.1104
308.15	45000	.8	1111.8	1.1118
308.15	50000	.8	1113.3	1.1133
313.15	100	.8	1095.4	1.0954
313.15	5000	.8	1097	1.097
313.15	10000	.8	1098.6	1.0986
313.15	15000	.8	1100.2	1.1002
313.15	20000	.8	1101.8	1.1018
313.15	25000	.8	1103.3	1.1033
313.15	30000	.8	1104.8	1.1048
313.15	35000	.8	1106.4	1.1064
313.15	40000	.8	1107.9	1.1079
313.15	45000	.8	1109.4	1.1094
313.15	50000	.8	1110.8	1.1108
318.15	100	.8	1092.7	1.0927
318.15	5000	.8	1094.3	1.0943
318.15	10000	.8	1095.9	1.0959
318.15	15000	.8	1097.5	1.0975
318.15	20000	.8	1099.1	1.0991
318.15	25000	.8	1100.6	1.1006
318.15	30000	.8	1102.2	1.1022
318.15	35000	.8	1103.7	1.1037
318.15	40000	.8	1105.3	1.1053
318.15	45000	.8	1106.8	1.1068
318.15	50000	.8	1108.3	1.1083
323.15	100	.8	1089.9	1.0899
323.15	5000	.8	1091.6	1.0916
323.15	10000	.8	1093.2	1.0932
323.15	15000	.8	1094.7	1.0947
323.15	20000	.8	1096.4	1.0964
323.15	25000	.8	1097.9	1.0979
323.15	30000	.8	1099.4	1.0994
323.15	35000	.8	1101	1.101
323.15	40000	.8	1102.6	1.1026
323.15	45000	.8	1104.1	1.1041
323.15	50000	.8	1105.6	1.1056
298.15	100	.7	1129.1	1.1291
298.15	5000	.7	1130.4	1.1304
298.15	10000	.7	1131.9	1.1319
298.15	15000	.7	1133.4	1.1334
298.15	20000	.7	1134.9	1.1349
298.15	25000	.7	1136.4	1.1364
298.15	30000	.7	1137.8	1.1378
298.15	35000	.7	1139.2	1.1392
298.15	40000	.7	1140.6	1.1406
298.15	45000	.7	1141.9	1.1419
298.15	50000	.7	1143.3	1.1433
303.15	100	.7	1126.6	1.1266
303.15	5000	.7	1127.9	1.1279
303.15	10000	.7	1129.5	1.1295
303.15	15000	.7	1130.9	1.1309
303.15	20000	.7	1132.4	1.1324
303.15	25000	.7	1133.9	1.1339
303.15	30000	.7	1135.3	1.1353
303.15	35000	.7	1136.7	1.1367
303.15	40000	.7	1138.1	1.1381
303.15	45000	.7	1139.5	1.1395
303.15	50000	.7	1140.9	1.1409
308.15	100	.7	1123.9	1.1239
308.15	5000	.7	1125.4	1.1254
308.15	10000	.7	1126.8	1.1268
308.15	15000	.7	1128.4	1.1284
308.15	20000	.7	1129.8	1.1298
308.15	25000	.7	1131.2	1.1312
308.15	30000	.7	1132.7	1.1327
308.15	35000	.7	1134.1	1.1341
308.15	40000	.7	1135.5	1.1355
308.15	45000	.7	1136.9	1.1369
308.15	50000	.7	1138.3	1.1383
313.15	100	.7	1123.9	1.1239
313.15	5000	.7	1125.4	1.1254
313.15	10000	.7	1126.8	1.1268
313.15	15000	.7	1128.4	1.1284
313.15	20000	.7	1129.8	1.1298
313.15	25000	.7	1131.2	1.1312
313.15	30000	.7	1132.7	1.1327
313.15	35000	.7	1134.1	1.1341
313.15	40000	.7	1135.5	1.1355
313.15	45000	.7	1136.9	1.1369
313.15	50000	.7	1138.3	1.1383
318.15	100	.7	1118.4	1.1184
318.15	5000	.7	1120	1.12
318.15	10000	.7	1121.5	1.1215
318.15	15000	.7	1122.9	1.1229
318.15	20000	.7	1124.4	1.1244
318.15	25000	.7	1125.8	1.1258
318.15	30000	.7	1127.3	1.1273
318.15	35000	.7	1128.7	1.1287
318.15	40000	.7	1130.2	1.1302
318.15	45000	.7	1131.5	1.1315
318.15	50000	.7	1133	1.133
323.15	100	.7	1115.6	1.1156
323.15	5000	.7	1117.2	1.1172
323.15	10000	.7	1118.6	1.1186
323.15	15000	.7	1120.1	1.1201
323.15	20000	.7	1121.7	1.1217
323.15	25000	.7	1123.1	1.1231
323.15	30000	.7	1124.5	1.1245
323.15	35000	.7	1126	1.126
323.15	40000	.7	1127.4	1.1274
323.15	45000	.7	1128.8	1.1288
323.15	50000	.7	1130.3	1.1303
298.15	100	.6003	1147.4	1.1474
298.15	5000	.6003	1148.7	1.1487
298.15	10000	.6003	1150.1	1.1501
298.15	15000	.6003	1151.6	1.1516
298.15	20000	.6003	1153	1.153
298.15	25000	.6003	1154.4	1.1544
298.15	30000	.6003	1155.8	1.1558
298.15	35000	.6003	1157.1	1.1571
298.15	40000	.6003	1158.5	1.1585
298.15	45000	.6003	1159.8	1.1598
298.15	50000	.6003	1161.1	1.1611
303.15	100	.6003	1144.8	1.1448
303.15	5000	.6003	1146.1	1.1461
303.15	10000	.6003	1147.6	1.1476
303.15	15000	.6003	1149	1.149
303.15	20000	.6003	1150.4	1.1504
303.15	25000	.6003	1151.9	1.1519
303.15	30000	.6003	1153.2	1.1532
303.15	35000	.6003	1154.6	1.1546
303.15	40000	.6003	1155.9	1.1559
303.15	45000	.6003	1157.3	1.1573
303.15	50000	.6003	1158.6	1.1586
308.15	100	.6003	1142.1	1.1421
308.15	5000	.6003	1143.5	1.1435
308.15	10000	.6003	1144.9	1.1449
308.15	15000	.6003	1146.4	1.1464
308.15	20000	.6003	1147.8	1.1478
308.15	25000	.6003	1149.2	1.1492
308.15	30000	.6003	1150.6	1.1506
308.15	35000	.6003	1151.9	1.1519
308.15	40000	.6003	1153.3	1.1533
308.15	45000	.6003	1154.7	1.1547
308.15	50000	.6003	1156	1.156
313.15	100	.6003	1139.4	1.1394
313.15	5000	.6003	1140.8	1.1408
313.15	10000	.6003	1142.2	1.1422
313.15	15000	.6003	1143.6	1.1436
313.15	20000	.6003	1145	1.145
313.15	25000	.6003	1146.5	1.1465
313.15	30000	.6003	1147.9	1.1479
313.15	35000	.6003	1149.3	1.1493
313.15	40000	.6003	1150.6	1.1506
313.15	45000	.6003	1152	1.152
313.15	50000	.6003	1153.3	1.1533
318.15	100	.6003	1136.6	1.1366
318.15	5000	.6003	1138.1	1.1381
318.15	10000	.6003	1139.5	1.1395
318.15	15000	.6003	1140.8	1.1408
318.15	20000	.6003	1142.3	1.1423
318.15	25000	.6003	1143.7	1.1437
318.15	30000	.6003	1145.1	1.1451
318.15	35000	.6003	1146.4	1.1464
318.15	40000	.6003	1147.8	1.1478
318.15	45000	.6003	1149.2	1.1492
318.15	50000	.6003	1150.6	1.1506
323.15	100	.6003	1133.7	1.1337
323.15	5000	.6003	1135.2	1.1352
323.15	10000	.6003	1136.6	1.1366
323.15	15000	.6003	1138	1.138
323.15	20000	.6003	1139.5	1.1395
323.15	25000	.6003	1140.9	1.1409
323.15	30000	.6003	1142.2	1.1422
323.15	35000	.6003	1143.7	1.1437
323.15	40000	.6003	1145	1.145
323.15	45000	.6003	1146.4	1.1464
323.15	50000	.6003	1147.8	1.1478
298.15	100	.5	1161.1	1.1611
298.15	5000	.5	1162.4	1.1624
298.15	10000	.5	1163.8	1.1638
298.15	15000	.5	1165.2	1.1652
298.15	20000	.5	1166.6	1.1666
298.15	25000	.5	1167.9	1.1679
298.15	30000	.5	1169.3	1.1693
298.15	35000	.5	1170.6	1.1706
298.15	40000	.5	1171.9	1.1719
298.15	45000	.5	1173.2	1.1732
298.15	50000	.5	1174.5	1.1745
303.15	100	.5	1158.4	1.1584
303.15	5000	.5	1159.7	1.1597
303.15	10000	.5	1161.2	1.1612
303.15	15000	.5	1162.5	1.1625
303.15	20000	.5	1163.9	1.1639
303.15	25000	.5	1165.3	1.1653
303.15	30000	.5	1166.7	1.1667
303.15	35000	.5	1168	1.168
303.15	40000	.5	1169.3	1.1693
303.15	45000	.5	1170.6	1.1706
303.15	50000	.5	1171.9	1.1719
308.15	100	.5	1155.7	1.1557
308.15	5000	.5	1157.1	1.1571
308.15	10000	.5	1158.4	1.1584
308.15	15000	.5	1159.9	1.1599
308.15	20000	.5	1161.2	1.1612
308.15	25000	.5	1162.6	1.1626
308.15	30000	.5	1164	1.164
308.15	35000	.5	1165.3	1.1653
308.15	40000	.5	1166.6	1.1666
308.15	45000	.5	1167.9	1.1679
308.15	50000	.5	1169.1	1.1691
313.15	100	.5	1152.9	1.1529
313.15	5000	.5	1154.3	1.1543
313.15	10000	.5	1155.6	1.1556
313.15	15000	.5	1157.1	1.1571
313.15	20000	.5	1158.5	1.1585
313.15	25000	.5	1159.9	1.1599
313.15	30000	.5	1161.2	1.1612
313.15	35000	.5	1162.6	1.1626
313.15	40000	.5	1163.9	1.1639
313.15	45000	.5	1165.2	1.1652
313.15	50000	.5	1166.4	1.1664
318.15	100	.5	1150.1	1.1501
318.15	5000	.5	1151.5	1.1515
318.15	10000	.5	1152.9	1.1529
318.15	15000	.5	1154.3	1.1543
318.15	20000	.5	1155.7	1.1557
318.15	25000	.5	1157.1	1.1571
318.15	30000	.5	1158.5	1.1585
318.15	35000	.5	1159.8	1.1598
318.15	40000	.5	1161.1	1.1611
318.15	45000	.5	1162.4	1.1624
318.15	50000	.5	1163.7	1.1637
323.15	100	.5	1147.3	1.1473
323.15	5000	.5	1148.7	1.1487
323.15	10000	.5	1150.1	1.1501
323.15	15000	.5	1151.4	1.1514
323.15	20000	.5	1152.9	1.1529
323.15	25000	.5	1154.3	1.1543
323.15	30000	.5	1155.6	1.1556
323.15	35000	.5	1157	1.157
323.15	40000	.5	1158.2	1.1582
323.15	45000	.5	1159.6	1.1596
323.15	50000	.5	1160.9	1.1609
298.15	100	.4005	1171.6	1.1716
298.15	5000	.4005	1173	1.173
298.15	10000	.4005	1174.3	1.1743
298.15	15000	.4005	1175.7	1.1757
298.15	20000	.4005	1177.1	1.1771
298.15	25000	.4005	1178.4	1.1784
298.15	30000	.4005	1179.7	1.1797
298.15	35000	.4005	1181	1.181
298.15	40000	.4005	1182.2	1.1822
298.15	45000	.4005	1183.5	1.1835
298.15	50000	.4005	1184.8	1.1848
303.15	100	.4005	1168.9	1.1689
303.15	5000	.4005	1170.2	1.1702
303.15	10000	.4005	1171.7	1.1717
303.15	15000	.4005	1173	1.173
303.15	20000	.4005	1174.3	1.1743
303.15	25000	.4005	1175.7	1.1757
303.15	30000	.4005	1177	1.177
303.15	35000	.4005	1178.4	1.1784
303.15	40000	.4005	1179.6	1.1796
303.15	45000	.4005	1180.9	1.1809
303.15	50000	.4005	1182.2	1.1822
308.15	100	.4005	1166.1	1.1661
308.15	5000	.4005	1167.5	1.1675
308.15	10000	.4005	1168.8	1.1688
308.15	15000	.4005	1170.3	1.1703
308.15	20000	.4005	1171.6	1.1716
308.15	25000	.4005	1173	1.173
308.15	30000	.4005	1174.3	1.1743
308.15	35000	.4005	1175.6	1.1756
308.15	40000	.4005	1176.9	1.1769
308.15	45000	.4005	1178.2	1.1782
308.15	50000	.4005	1179.4	1.1794
313.15	100	.4005	1163.3	1.1633
313.15	5000	.4005	1164.7	1.1647
313.15	10000	.4005	1166	1.166
313.15	15000	.4005	1167.5	1.1675
313.15	20000	.4005	1168.8	1.1688
313.15	25000	.4005	1170.2	1.1702
313.15	30000	.4005	1171.5	1.1715
313.15	35000	.4005	1172.9	1.1729
313.15	40000	.4005	1174.1	1.1741
313.15	45000	.4005	1175.4	1.1754
313.15	50000	.4005	1176.7	1.1767
318.15	100	.4005	1160.5	1.1605
318.15	5000	.4005	1161.9	1.1619
318.15	10000	.4005	1163.3	1.1633
318.15	15000	.4005	1164.6	1.1646
318.15	20000	.4005	1166	1.166
318.15	25000	.4005	1167.4	1.1674
318.15	30000	.4005	1168.8	1.1688
318.15	35000	.4005	1170.1	1.1701
318.15	40000	.4005	1171.3	1.1713
318.15	45000	.4005	1172.6	1.1726
318.15	50000	.4005	1173.9	1.1739
323.15	100	.4005	1157.6	1.1576
323.15	5000	.4005	1159	1.159
323.15	10000	.4005	1160.4	1.1604
323.15	15000	.4005	1161.7	1.1617
323.15	20000	.4005	1163.2	1.1632
323.15	25000	.4005	1164.6	1.1646
323.15	30000	.4005	1165.8	1.1658
323.15	35000	.4005	1167.3	1.1673
323.15	40000	.4005	1168.4	1.1684
323.15	45000	.4005	1169.8	1.1698
323.15	50000	.4005	1171.1	1.1711
298.15	100	.3002	1180.2	1.1802
298.15	5000	.3002	1181.6	1.1816
298.15	10000	.3002	1182.9	1.1829
298.15	15000	.3002	1184.2	1.1842
298.15	20000	.3002	1185.6	1.1856
298.15	25000	.3002	1186.9	1.1869
298.15	30000	.3002	1188.2	1.1882
298.15	35000	.3002	1189.4	1.1894
298.15	40000	.3002	1190.7	1.1907
298.15	45000	.3002	1191.9	1.1919
298.15	50000	.3002	1193.2	1.1932
303.15	100	.3002	1177.5	1.1775
303.15	5000	.3002	1178.8	1.1788
303.15	10000	.3002	1180.2	1.1802
303.15	15000	.3002	1181.5	1.1815
303.15	20000	.3002	1182.8	1.1828
303.15	25000	.3002	1184.2	1.1842
303.15	30000	.3002	1185.5	1.1855
303.15	35000	.3002	1186.8	1.1868
303.15	40000	.3002	1188	1.188
303.15	45000	.3002	1189.3	1.1893
303.15	50000	.3002	1190.5	1.1905
308.15	100	.3002	1174.7	1.1747
308.15	5000	.3002	1176	1.176
308.15	10000	.3002	1177.3	1.1773
308.15	15000	.3002	1178.7	1.1787
308.15	20000	.3002	1180	1.18
308.15	25000	.3002	1181.4	1.1814
308.15	30000	.3002	1182.7	1.1827
308.15	35000	.3002	1184	1.184
308.15	40000	.3002	1185.3	1.1853
308.15	45000	.3002	1186.5	1.1865
308.15	50000	.3002	1187.7	1.1877
313.15	100	.3002	1171.8	1.1718
313.15	5000	.3002	1173.1	1.1731
313.15	10000	.3002	1174.5	1.1745
313.15	15000	.3002	1175.9	1.1759
313.15	20000	.3002	1177.2	1.1772
313.15	25000	.3002	1178.5	1.1785
313.15	30000	.3002	1179.8	1.1798
313.15	35000	.3002	1181.2	1.1812
313.15	40000	.3002	1182.5	1.1825
313.15	45000	.3002	1183.7	1.1837
313.15	50000	.3002	1184.9	1.1849
318.15	100	.3002	1168.9	1.1689
318.15	5000	.3002	1170.3	1.1703
318.15	10000	.3002	1171.6	1.1716
318.15	15000	.3002	1173	1.173
318.15	20000	.3002	1174.4	1.1744
318.15	25000	.3002	1175.7	1.1757
318.15	30000	.3002	1177.1	1.1771
318.15	35000	.3002	1178.3	1.1783
318.15	40000	.3002	1179.6	1.1796
318.15	45000	.3002	1180.8	1.1808
318.15	50000	.3002	1182.1	1.1821
323.15	100	.3002	1166	1.166
323.15	5000	.3002	1167.4	1.1674
323.15	10000	.3002	1168.7	1.1687
323.15	15000	.3002	1170.1	1.1701
323.15	20000	.3002	1171.5	1.1715
323.15	25000	.3002	1172.9	1.1729
323.15	30000	.3002	1174.1	1.1741
323.15	35000	.3002	1175.5	1.1755
323.15	40000	.3002	1176.7	1.1767
323.15	45000	.3002	1178	1.178
323.15	50000	.3002	1179.3	1.1793
298.15	100	.2002	1187.2	1.1872
298.15	5000	.2002	1188.6	1.1886
298.15	10000	.2002	1189.9	1.1899
298.15	15000	.2002	1191.2	1.1912
298.15	20000	.2002	1192.6	1.1926
298.15	25000	.2002	1193.8	1.1938
298.15	30000	.2002	1195.1	1.1951
298.15	35000	.2002	1196.4	1.1964
298.15	40000	.2002	1197.6	1.1976
298.15	45000	.2002	1198.8	1.1988
298.15	50000	.2002	1200	1.2
303.15	100	.2002	1184.4	1.1844
303.15	5000	.2002	1185.7	1.1857
303.15	10000	.2002	1187.2	1.1872
303.15	15000	.2002	1188.4	1.1884
303.15	20000	.2002	1189.7	1.1897
303.15	25000	.2002	1191.1	1.1911
303.15	30000	.2002	1192.4	1.1924
303.15	35000	.2002	1193.7	1.1937
303.15	40000	.2002	1194.9	1.1949
303.15	45000	.2002	1196.1	1.1961
303.15	50000	.2002	1197.3	1.1973
308.15	100	.2002	1181.5	1.1815
308.15	5000	.2002	1182.9	1.1829
308.15	10000	.2002	1184.2	1.1842
308.15	15000	.2002	1185.6	1.1856
308.15	20000	.2002	1186.9	1.1869
308.15	25000	.2002	1188.2	1.1882
308.15	30000	.2002	1189.6	1.1896
308.15	35000	.2002	1190.8	1.1908
308.15	40000	.2002	1192.1	1.1921
308.15	45000	.2002	1193.3	1.1933
308.15	50000	.2002	1194.4	1.1944
313.15	100	.2002	1178.6	1.1786
313.15	5000	.2002	1180	1.18
313.15	10000	.2002	1181.3	1.1813
313.15	15000	.2002	1182.7	1.1827
313.15	20000	.2002	1184	1.184
313.15	25000	.2002	1185.4	1.1854
313.15	30000	.2002	1186.7	1.1867
313.15	35000	.2002	1188	1.188
313.15	40000	.2002	1189.3	1.1893
313.15	45000	.2002	1190.5	1.1905
313.15	50000	.2002	1191.6	1.1916
318.15	100	.2002	1175.7	1.1757
318.15	5000	.2002	1177.1	1.1771
318.15	10000	.2002	1178.5	1.1785
318.15	15000	.2002	1179.8	1.1798
318.15	20000	.2002	1181.2	1.1812
318.15	25000	.2002	1182.5	1.1825
318.15	30000	.2002	1183.9	1.1839
318.15	35000	.2002	1185.1	1.1851
318.15	40000	.2002	1186.4	1.1864
318.15	45000	.2002	1187.6	1.1876
318.15	50000	.2002	1188.8	1.1888
323.15	100	.2002	1172.8	1.1728
323.15	5000	.2002	1174.2	1.1742
323.15	10000	.2002	1175.6	1.1756
323.15	15000	.2002	1176.9	1.1769
323.15	20000	.2002	1178.3	1.1783
323.15	25000	.2002	1179.7	1.1797
323.15	30000	.2002	1180.9	1.1809
323.15	35000	.2002	1182.3	1.1823
323.15	40000	.2002	1183.5	1.1835
323.15	45000	.2002	1184.8	1.1848
323.15	50000	.2002	1186	1.186
298.15	100	.1	1193.1	1.1931
298.15	5000	.1	1194.4	1.1944
298.15	10000	.1	1195.7	1.1957
298.15	15000	.1	1197	1.197
298.15	20000	.1	1198.4	1.1984
298.15	25000	.1	1199.7	1.1997
298.15	30000	.1	1201	1.201
298.15	35000	.1	1202.2	1.2022
298.15	40000	.1	1203.4	1.2034
298.15	45000	.1	1204.6	1.2046
298.15	50000	.1	1205.8	1.2058
303.15	100	.1	1190.2	1.1902
303.15	5000	.1	1191.5	1.1915
303.15	10000	.1	1193	1.193
303.15	15000	.1	1194.2	1.1942
303.15	20000	.1	1195.5	1.1955
303.15	25000	.1	1196.9	1.1969
303.15	30000	.1	1198.2	1.1982
303.15	35000	.1	1199.5	1.1995
303.15	40000	.1	1200.7	1.2007
303.15	45000	.1	1201.9	1.2019
303.15	50000	.1	1203.1	1.2031
308.15	100	.1	1187.3	1.1873
308.15	5000	.1	1188.7	1.1887
308.15	10000	.1	1190	1.19
308.15	15000	.1	1191.4	1.1914
308.15	20000	.1	1192.7	1.1927
308.15	25000	.1	1194	1.194
308.15	30000	.1	1195.4	1.1954
308.15	35000	.1	1196.6	1.1966
308.15	40000	.1	1197.9	1.1979
308.15	45000	.1	1199.1	1.1991
308.15	50000	.1	1200.2	1.2002
313.15	100	.1	1184.4	1.1844
313.15	5000	.1	1185.8	1.1858
313.15	10000	.1	1187.1	1.1871
313.15	15000	.1	1188.5	1.1885
313.15	20000	.1	1189.8	1.1898
313.15	25000	.1	1191.2	1.1912
313.15	30000	.1	1192.5	1.1925
313.15	35000	.1	1193.8	1.1938
313.15	40000	.1	1195.1	1.1951
313.15	45000	.1	1196.3	1.1963
313.15	50000	.1	1197.4	1.1974
318.15	100	.1	1181.5	1.1815
318.15	5000	.1	1182.9	1.1829
318.15	10000	.1	1184.3	1.1843
318.15	15000	.1	1185.6	1.1856
318.15	20000	.1	1187	1.187
318.15	25000	.1	1188.3	1.1883
318.15	30000	.1	1189.7	1.1897
318.15	35000	.1	1190.9	1.1909
318.15	40000	.1	1192.2	1.1922
318.15	45000	.1	1193.4	1.1934
318.15	50000	.1	1194.6	1.1946
323.15	100	.1	1178.6	1.1786
323.15	5000	.1	1180	1.18
323.15	10000	.1	1181.4	1.1814
323.15	15000	.1	1182.7	1.1827
323.15	20000	.1	1184.1	1.1841
323.15	25000	.1	1185.5	1.1855
323.15	30000	.1	1186.7	1.1867
323.15	35000	.1	1188.1	1.1881
323.15	40000	.1	1189.3	1.1893
323.15	45000	.1	1190.6	1.1906
323.15	50000	.1	1191.8	1.1918
