Measured thermophysical data. Excess molar enthalpies of binary systems containing 2-octanone, hexanoic acid, or octanoic acid at T = 298.15 K
Source: J. Chem. Thermodyn., 2012, 10.1016/j.jct.2011.07.018
Compound 1: 1-hydroxyhexane, C6H14O, purity 98%
Compound 2: octyl alcohol, C8H18O, purity 98%
Compound 3: hexyl methyl ketone, C8H16O, purity 98%
Compound 4: n-hexanoic acid, C6H12O2, purity 98%
Compound 5: octanoic acid, C8H16O2, purity 98%
Compound 6: N,N-dimethylformamide, C3H7NO, purity 99%
Compound 7: methylsulfinylmethane, C2H6OS, purity 99%

System: 1-hydroxyhexane; phases: Liquid
Fixed: Pressure, kPa = 101.325
Property: Mass density, kg/m3 (Liquid); method: Vibrating tube method
Temperature, K	Mass density, kg/m3	uncertainty
298.15	815.21	.05

System: octyl alcohol; phases: Liquid
Fixed: Pressure, kPa = 101.325
Property: Mass density, kg/m3 (Liquid); method: Vibrating tube method
Temperature, K	Mass density, kg/m3	uncertainty
298.15	821.67	.05

System: hexyl methyl ketone; phases: Liquid
Fixed: Pressure, kPa = 101.325
Property: Mass density, kg/m3 (Liquid); method: Vibrating tube method
Temperature, K	Mass density, kg/m3	uncertainty
298.15	814.32	.05

System: n-hexanoic acid; phases: Liquid
Fixed: Pressure, kPa = 101.325
Property: Mass density, kg/m3 (Liquid); method: Vibrating tube method
Temperature, K	Mass density, kg/m3	uncertainty
298.15	922.06	.05

System: octanoic acid; phases: Liquid
Fixed: Pressure, kPa = 101.325
Property: Mass density, kg/m3 (Liquid); method: Vibrating tube method
Temperature, K	Mass density, kg/m3	uncertainty
298.15	906.02	.05

System: N,N-dimethylformamide; phases: Liquid
Fixed: Pressure, kPa = 101.325
Property: Mass density, kg/m3 (Liquid); method: Vibrating tube method
Temperature, K	Mass density, kg/m3	uncertainty
298.15	944.34	.05

System: methylsulfinylmethane; phases: Liquid
Fixed: Pressure, kPa = 101.325
Property: Mass density, kg/m3 (Liquid); method: Vibrating tube method
Temperature, K	Mass density, kg/m3	uncertainty
298.15	1095.32	.05

System: hexyl methyl ketone + 1-hydroxyhexane; phases: Liquid
Fixed: Pressure, kPa = 101
Fixed: Temperature, K = 298.15
Property: Excess molar enthalpy (molar enthalpy of mixing), kJ/mol (Liquid); method: isothermal titration calorimeter
Mole fraction of 1-hydroxyhexane	Excess molar enthalpy (molar enthalpy of mixing), kJ/mol	uncertainty
.021	.115	.000575
.041	.217	.001085
.06	.31	.00155
.079	.393	.001965
.097	.469	.002345
.114	.538	.00269
.13	.599	.002995
.146	.655	.003275
.164	.714	.00357
.181	.767	.003835
.197	.816	.00408
.213	.858	.00429
.228	.897	.004485
.242	.932	.00466
.259	.969	.004845
.275	1.001	.005005
.29	1.031	.005155
.304	1.056	.00528
.314	1.08	.0054
.322	1.093	.005465
.331	1.105	.005525
.339	1.118	.00559
.349	1.131	.005655
.359	1.143	.005715
.367	1.152	.00576
.376	1.162	.00581
.385	1.171	.005855
.394	1.179	.005895
.405	1.187	.005935
.415	1.195	.005975
.426	1.202	.00601
.438	1.208	.00604
.448	1.212	.00606
.458	1.216	.00608
.469	1.218	.00609
.48	1.219	.006095
.492	1.221	.006105
.504	1.22	.0061
.517	1.218	.00609
.531	1.215	.006075
.542	1.211	.006055
.554	1.206	.00603
.566	1.198	.00599
.58	1.189	.005945
.593	1.179	.005895
.608	1.166	.00583
.623	1.15	.00575
.638	1.132	.00566
.652	1.114	.00557
.667	1.093	.005465
.682	1.068	.00534
.698	1.041	.005205
.714	1.01	.00505
.731	.974	.00487
.746	.942	.00471
.762	.906	.00453
.778	.866	.00433
.795	.822	.00411
.812	.772	.00386
.83	.717	.003585
.85	.655	.003275
.866	.599	.002995
.879	.538	.00269
.897	.47	.00235
.916	.395	.001975
.936	.312	.00156
.956	.22	.0011
.978	.116	.00058

System: hexyl methyl ketone + octyl alcohol; phases: Liquid
Fixed: Pressure, kPa = 101
Fixed: Temperature, K = 298.15
Property: Excess molar enthalpy (molar enthalpy of mixing), kJ/mol (Liquid); method: isothermal titration calorimeter
Mole fraction of octyl alcohol	Excess molar enthalpy (molar enthalpy of mixing), kJ/mol	uncertainty
.015	.091	.000455
.03	.178	.00089
.045	.259	.001295
.059	.332	.00166
.072	.402	.00201
.085	.466	.00233
.098	.526	.00263
.111	.582	.00291
.124	.638	.00319
.137	.691	.003455
.327	1.23	.00615
.337	1.245	.006225
.348	1.26	.0063
.36	1.275	.006375
.373	1.29	.00645
.383	1.299	.006495
.393	1.308	.00654
.404	1.316	.00658
.415	1.324	.00662
.428	1.331	.006655
.44	1.338	.00669
.454	1.342	.00671
.469	1.346	.00673
.484	1.346	.00673
.15	.74	.0037
.162	.785	.003925
.174	.826	.00413
.186	.864	.00432
.197	.9	.0045
.206	.955	.004775
.212	.973	.004865
.218	.991	.004955
.225	1.01	.00505
.232	1.03	.00515
.496	1.345	.006725
.509	1.342	.00671
.523	1.338	.00669
.537	1.331	.006655
.552	1.322	.00661
.567	1.31	.00655
.587	1.296	.00648
.602	1.278	.00639
.62	1.256	.00628
.64	1.228	.00614
.657	1.203	.006015
.674	1.174	.00587
.692	1.141	.005705
.711	1.102	.00551
.24	1.05	.00525
.248	1.071	.005355
.256	1.093	.005465
.266	1.115	.005575
.276	1.137	.005685
.283	1.152	.00576
.291	1.168	.00584
.299	1.183	.005915
.308	1.198	.00599
.317	1.214	.00607
.731	1.054	.00527
.752	1.005	.005025
.775	.945	.004725
.799	.875	.004375
.82	.81	.00405
.841	.736	.00368
.864	.652	.00326
.888	.557	.002785
.914	.446	.00223
.941	.319	.001595
.97	.172	.00086

System: 1-hydroxyhexane + n-hexanoic acid; phases: Liquid
Fixed: Pressure, kPa = 101
Fixed: Temperature, K = 298.15
Property: Excess molar enthalpy (molar enthalpy of mixing), kJ/mol (Liquid); method: isothermal titration calorimeter
Mole fraction of 1-hydroxyhexane	Excess molar enthalpy (molar enthalpy of mixing), kJ/mol	uncertainty
.025	.097	.000485
.048	.177	.000885
.07	.245	.001225
.091	.302	.00151
.112	.352	.00176
.131	.394	.00197
.154	.442	.00221
.176	.482	.00241
.198	.514	.00257
.218	.54	.0027
.238	.562	.00281
.256	.58	.0029
.268	.598	.00299
.277	.606	.00303
.287	.614	.00307
.298	.622	.00311
.309	.629	.003145
.321	.635	.003175
.335	.641	.003205
.349	.647	.003235
.365	.652	.00326
.377	.653	.003265
.39	.653	.003265
.404	.654	.00327
.419	.653	.003265
.435	.651	.003255
.452	.647	.003235
.47	.641	.003205
.491	.631	.003155
.506	.624	.00312
.523	.614	.00307
.54	.602	.00301
.559	.588	.00294
.579	.572	.00286
.601	.553	.002765
.624	.53	.00265
.649	.505	.002525
.669	.482	.00241
.691	.458	.00229
.714	.431	.002155
.738	.4	.002
.765	.365	.001825
.793	.328	.00164
.817	.293	.001465
.843	.255	.001275
.87	.214	.00107
.899	.169	.000845
.931	.114	.00057
.964	.059	.000295

System: 1-hydroxyhexane + octanoic acid; phases: Liquid
Fixed: Pressure, kPa = 101
Fixed: Temperature, K = 298.15
Property: Excess molar enthalpy (molar enthalpy of mixing), kJ/mol (Liquid); method: isothermal titration calorimeter
Mole fraction of 1-hydroxyhexane	Excess molar enthalpy (molar enthalpy of mixing), kJ/mol	uncertainty
.038	.156	.00078
.074	.272	.00136
.106	.363	.001815
.137	.438	.00219
.167	.501	.002505
.18	.552	.00276
.186	.564	.00282
.193	.576	.00288
.201	.589	.002945
.209	.602	.00301
.218	.616	.00308
.228	.63	.00315
.239	.643	.003215
.251	.656	.00328
.261	.668	.00334
.273	.679	.003395
.286	.689	.003445
.3	.699	.003495
.31	.706	.00353
.322	.713	.003565
.334	.72	.0036
.347	.725	.003625
.361	.73	.00365
.377	.733	.003665
.394	.736	.00368
.407	.735	.003675
.422	.734	.00367
.437	.732	.00366
.454	.728	.00364
.472	.722	.00361
.492	.714	.00357
.508	.705	.003525
.526	.694	.00347
.544	.68	.0034
.564	.663	.003315
.586	.643	.003215
.607	.621	.003105
.629	.599	.002995
.65	.574	.00287
.672	.545	.002725
.696	.514	.00257
.722	.477	.002385
.749	.44	.0022
.773	.404	.00202
.798	.365	.001825
.825	.32	.0016
.853	.27	.00135
.884	.221	.001105
.91	.171	.000855
.938	.118	.00059
.968	.061	.000305

System: N,N-dimethylformamide + n-hexanoic acid; phases: Liquid
Fixed: Pressure, kPa = 101
Fixed: Temperature, K = 298.15
Property: Excess molar enthalpy (molar enthalpy of mixing), kJ/mol (Liquid); method: isothermal titration calorimeter
Mole fraction of N,N-dimethylformamide	Excess molar enthalpy (molar enthalpy of mixing), kJ/mol	uncertainty
.048	-.241	-.001205
.092	-.459	-.002295
.132	-.659	-.003295
.169	-.845	-.004225
.203	-1.017	-.005085
.24	-1.204	-.00602
.274	-1.371	-.006855
.304	-1.518	-.00759
.333	-1.648	-.00824
.359	-1.758	-.00879
.383	-1.851	-.009255
.412	-1.953	-.009765
.439	-2.026	-.01013
.464	-2.076	-.01038
.486	-2.106	-.01053
.502	-2.117	-.010585
.516	-2.119	-.010595
.53	-2.113	-.010565
.543	-2.103	-.010515
.556	-2.087	-.010435
.97	-.156	-.00078
.568	-2.067	-.010335
.579	-2.045	-.010225
.589	-2.02	-.0101
.602	-1.988	-.00994
.613	-1.953	-.009765
.625	-1.916	-.00958
.635	-1.879	-.009395
.645	-1.842	-.00921
.656	-1.799	-.008995
.666	-1.756	-.00878
.676	-1.713	-.008565
.685	-1.672	-.00836
.694	-1.632	-.00816
.702	-1.593	-.007965
.71	-1.555	-.007775
.718	-1.519	-.007595
.726	-1.474	-.00737
.735	-1.432	-.00716
.743	-1.391	-.006955
.75	-1.352	-.00676
.985	-.078	-.00039
.757	-1.315	-.006575
.764	-1.281	-.006405
.77	-1.248	-.00624
.776	-1.216	-.00608
.782	-1.183	-.005915
.789	-1.152	-.00576
.794	-1.122	-.00561
.799	-1.093	-.005465
.812	-1.009	-.005045
.824	-.944	-.00472
.836	-.879	-.004395
.849	-.81	-.00405
.862	-.74	-.0037
.875	-.667	-.003335
.889	-.593	-.002965
.903	-.517	-.002585
.916	-.448	-.00224
.929	-.379	-.001895
.942	-.308	-.00154
.956	-.233	-.001165

System: methylsulfinylmethane + n-hexanoic acid; phases: Liquid
Fixed: Pressure, kPa = 101
Fixed: Temperature, K = 298.15
Property: Excess molar enthalpy (molar enthalpy of mixing), kJ/mol (Liquid); method: isothermal titration calorimeter
Mole fraction of methylsulfinylmethane	Excess molar enthalpy (molar enthalpy of mixing), kJ/mol	uncertainty
.042	-.2	-.001
.081	-.403	-.002015
.117	-.601	-.003005
.15	-.792	-.00396
.181	-.976	-.00488
.209	-1.151	-.005755
.241	-1.347	-.006735
.271	-1.529	-.007645
.298	-1.696	-.00848
.323	-1.847	-.009235
.346	-1.981	-.009905
.369	-2.099	-.010495
.38	-2.151	-.010755
.388	-2.19	-.01095
.397	-2.228	-.01114
.406	-2.265	-.011325
.415	-2.3	-.0115
.425	-2.332	-.01166
.436	-2.362	-.01181
.447	-2.387	-.011935
.457	-2.407	-.012035
.467	-2.422	-.01211
.477	-2.433	-.012165
.488	-2.439	-.012195
.498	-2.433	-.012165
.508	-2.428	-.01214
.519	-2.414	-.01207
.53	-2.392	-.01196
.541	-2.361	-.011805
.553	-2.326	-.01163
.563	-2.289	-.011445
.574	-2.247	-.011235
.585	-2.198	-.01099
.596	-2.144	-.01072
.608	-2.081	-.010405
.62	-2.016	-.01008
.631	-1.957	-.009785
.642	-1.89	-.00945
.653	-1.823	-.009115
.665	-1.752	-.00876
.677	-1.677	-.008385
.69	-1.598	-.00799
.701	-1.531	-.007655
.712	-1.461	-.007305
.724	-1.387	-.006935
.736	-1.314	-.00657
.748	-1.237	-.006185
.761	-1.161	-.005805
.772	-1.093	-.005465
.784	-1.022	-.00511
.796	-.951	-.004755
.808	-.876	-.00438
.821	-.803	-.004015
.834	-.73	-.00365
.846	-.664	-.00332
.858	-.6	-.003
.87	-.535	-.002675
.883	-.47	-.00235
.896	-.406	-.00203
.91	-.353	-.001765
.922	-.289	-.001445
.934	-.236	-.00118
.943	-.185	-.000925
.959	-.135	-.000675
.973	-.087	-.000435
.986	-.042	-.00021
