Measured thermophysical data. Volumetric properties and enthalpies of solution of alcohols CkH2k+1OH (k = 1, 2, 6) in 1-methyl-3-alkylimidazolium bis(trifluoromethylsulfonyl)imide {[C1CnIm][NTf2] n = 2, 4, 6, 8, 10} ionic liquids
Source: J. Chem. Thermodyn., 2011, 10.1016/j.jct.2011.05.033
Compound 1: methanol, CH4O, purity 99%
Compound 2: ethanol, C2H6O, purity 99%
Compound 3: n-butyl alcohol, C4H10O, purity 99%
Compound 4: 1-hydroxyhexane, C6H14O, purity 99%
Compound 5: 1-ethyl-3-methylimidazolium bis(trifluoromethylsulfonyl)imide, C8H11F6N3O4S2
Compound 6: 1-butyl-3-methylimidazolium bis[(trifluoromethyl)sulfonyl]amide, C10H15F6N3O4S2
Compound 7: 1-hexyl-3-methylimidazolium bis[(trifluoromethyl)sulfonyl]imide, C12H19F6N3O4S2
Compound 8: 1-octyl-3-methylimidazolium 1,1,1-trifluoro-N-[(trifluoromethyl)sulfonyl]methanesulfonamide, C14H23F6N3O4S2
Compound 9: 1-decyl-3-methylimidazolium bis(trifluoromethylsulfonyl)imide, C16H23F6N3O4S2

System: methanol + 1-ethyl-3-methylimidazolium bis(trifluoromethylsulfonyl)imide; phases: Liquid
Fixed: Pressure, kPa = 101
Fixed: Temperature, K = 298.15
Property: Mass density, kg/m3 (Liquid); method: Vibrating tube method
Mole fraction of 1-ethyl-3-methylimidazolium bis(trifluoromethylsulfonyl)imide	Mass density, kg/m3	uncertainty
0	794.62	.79462
.1082	1115.5	1.1155
.2485	1289.7	1.2897
.3388	1351.25	1.35125
.6355	1459.63	1.45963
.7925	1487.15	1.48715
1	1518.63	1.51863
0	792.63	.79263
.0732	1040.6	1.0406
.1385	1165.23	1.16523
.2145	1258.12	1.25812
.2968	1325.28	1.32528
.6002	1451	1.451
.837	1497.28	1.49728
1	1518.58	1.51858

System: methanol + 1-ethyl-3-methylimidazolium bis(trifluoromethylsulfonyl)imide; phases: Liquid
Fixed: Pressure, kPa = 101
Fixed: Temperature, K = 298.15
Property: Excess molar enthalpy (molar enthalpy of mixing), kJ/mol (Liquid); method: Isothermal Titration Calorimeter
Mole fraction of methanol	Excess molar enthalpy (molar enthalpy of mixing), kJ/mol	uncertainty
.0118	.066	.00132
.0233	.13	.0026
.0346	.19	.0038
.0456	.248	.00496
.0563	.302	.00604
.0668	.355	.0071
.0771	.404	.00808
.0872	.452	.00904
.097	.497	.00994
.1067	.54	.0108
.1161	.581	.01162
.1253	.619	.01238
.1343	.656	.01312
.1432	.692	.01384
.1519	.725	.0145

System: methanol + 1-butyl-3-methylimidazolium bis[(trifluoromethyl)sulfonyl]amide; phases: Liquid
Fixed: Pressure, kPa = 101
Fixed: Temperature, K = 298.15
Property: Mass density, kg/m3 (Liquid); method: Vibrating tube method
Mole fraction of 1-butyl-3-methylimidazolium bis[(trifluoromethyl)sulfonyl]amide	Mass density, kg/m3	uncertainty
0	792.92	.79292
.0844	1054.48	1.05448
.1155	1109.91	1.10991
.1594	1168.72	1.16872
.1722	1182.69	1.18269
.264	1259.96	1.25996
.6327	1388.71	1.38871
.8245	1418.09	1.41809
1	1436.29	1.43629

System: methanol + 1-butyl-3-methylimidazolium bis[(trifluoromethyl)sulfonyl]amide; phases: Liquid
Fixed: Pressure, kPa = 101
Fixed: Temperature, K = 298.15
Property: Excess molar enthalpy (molar enthalpy of mixing), kJ/mol (Liquid); method: Isothermal Titration Calorimeter
Mole fraction of methanol	Excess molar enthalpy (molar enthalpy of mixing), kJ/mol	uncertainty
.0131	.0911	.001822
.0258	.177	.00354
.0383	.2581	.005162
.0504	.3347	.006694
.0622	.407	.00814
.0737	.4754	.009508
.0849	.54	.0108
.0959	.6011	.012022
.1066	.6588	.013176
.1171	.7135	.01427
.1273	.7651	.015302
.1373	.814	.01628
.147	.8603	.017206
.1566	.904	.01808
.1659	.9455	.01891

System: methanol + 1-hexyl-3-methylimidazolium bis[(trifluoromethyl)sulfonyl]imide; phases: Liquid
Fixed: Pressure, kPa = 101
Fixed: Temperature, K = 298.15
Property: Mass density, kg/m3 (Liquid); method: Vibrating tube method
Mole fraction of 1-hexyl-3-methylimidazolium bis[(trifluoromethyl)sulfonyl]imide	Mass density, kg/m3	uncertainty
0	792.66	.79266
.0711	1017.33	1.01733
.0868	1047.67	1.04767
.1772	1163.23	1.16323
.2176	1195.97	1.19597
.2695	1228.24	1.22824
.4991	1308.41	1.30841
1	1371.91	1.37191
0	792.92	.79292
.5488	1318.7	1.3187
.5851	1325.38	1.32538
1	1371.79	1.37179
0	792.66	.79266
.0711	1017.33	1.01733
.0868	1047.67	1.04767
.1772	1163.23	1.16323
.2176	1195.97	1.19597
.2695	1228.24	1.22824
.4991	1308.41	1.30841
1	1371.91	1.37191
0	792.92	.79292
.5488	1318.7	1.3187
.5851	1325.38	1.32538
1	1371.79	1.37179

System: methanol + 1-hexyl-3-methylimidazolium bis[(trifluoromethyl)sulfonyl]imide; phases: Liquid
Fixed: Pressure, kPa = 101
Fixed: Temperature, K = 298.15
Property: Excess molar enthalpy (molar enthalpy of mixing), kJ/mol (Liquid); method: Isothermal Titration Calorimeter
Mole fraction of methanol	Excess molar enthalpy (molar enthalpy of mixing), kJ/mol	uncertainty
.0147	.1076	.002152
.029	.2105	.00421
.0429	.3087	.006174
.0564	.4025	.00805
.0695	.4921	.009842
.0823	.5778	.011556
.0947	.6596	.013192
.1068	.7378	.014756
.1186	.8125	.01625
.13	.8838	.017676
.1412	.9521	.019042
.1521	1.0173	.020346
.1627	1.0796	.021592
.1731	1.1391	.022782
.1832	1.196	.02392

System: methanol + 1-octyl-3-methylimidazolium 1,1,1-trifluoro-N-[(trifluoromethyl)sulfonyl]methanesulfonamide; phases: Liquid
Fixed: Pressure, kPa = 101
Fixed: Temperature, K = 298.15
Property: Mass density, kg/m3 (Liquid); method: Vibrating tube method
Mole fraction of 1-octyl-3-methylimidazolium 1,1,1-trifluoro-N-[(trifluoromethyl)sulfonyl]methanesulfonamide	Mass density, kg/m3	uncertainty
0	792.64	.79264
.0218	882.47	.88247
.0599	986.86	.98686
.1926	1153.62	1.15362
.3019	1213.08	1.21308
.8201	1308.01	1.30801
1	1320.55	1.32055
0	791.05	.79105
.0837	1031.65	1.03165
.2708	1198.9	1.1989
.5004	1267.25	1.26725
.8355	1308.78	1.30878
.989	1319.5	1.3195
1	1320.38	1.32038

System: methanol + 1-octyl-3-methylimidazolium 1,1,1-trifluoro-N-[(trifluoromethyl)sulfonyl]methanesulfonamide; phases: Liquid
Fixed: Pressure, kPa = 101
Fixed: Temperature, K = 298.15
Property: Excess molar enthalpy (molar enthalpy of mixing), kJ/mol (Liquid); method: Isothermal Titration Calorimeter
Mole fraction of methanol	Excess molar enthalpy (molar enthalpy of mixing), kJ/mol	uncertainty
.0153	.086	.00172
.0302	.168	.00336
.0446	.245	.0049
.0586	.318	.00636
.0721	.386	.00772
.0853	.451	.00902
.0982	.512	.01024
.1106	.57	.0114
.1228	.624	.01248
.1346	.676	.01352
.1461	.725	.0145
.1573	.771	.01542
.1682	.815	.0163
.1788	.856	.01712
.1892	.895	.0179

System: methanol + 1-decyl-3-methylimidazolium bis(trifluoromethylsulfonyl)imide; phases: Liquid
Fixed: Pressure, kPa = 101
Fixed: Temperature, K = 298.15
Property: Mass density, kg/m3 (Liquid); method: Vibrating tube method
Mole fraction of 1-decyl-3-methylimidazolium bis(trifluoromethylsulfonyl)imide	Mass density, kg/m3	uncertainty
0	793.17	.79317
.0513	963.28	.96328
.1054	1054.89	1.05489
.1417	1094.51	1.09451
.2452	1163.25	1.16325
.4686	1228.19	1.22819
.762	1263.65	1.26365
.8756	1271.49	1.27149
1	1278.57	1.27857
0	789.6	.7896
.0233	883.6	.8836
.1679	1115.13	1.11513
.2161	1147.23	1.14723
.297	1183.51	1.18351
.5186	1236.02	1.23602
.7868	1264.97	1.26497
.9503	1275.73	1.27573
1	1278.57	1.27857

System: methanol + 1-decyl-3-methylimidazolium bis(trifluoromethylsulfonyl)imide; phases: Liquid
Fixed: Pressure, kPa = 101
Fixed: Temperature, K = 298.15
Property: Excess molar enthalpy (molar enthalpy of mixing), kJ/mol (Liquid); method: Isothermal Titration Calorimeter
Mole fraction of methanol	Excess molar enthalpy (molar enthalpy of mixing), kJ/mol	uncertainty
.0171	.061	.00122
.0336	.117	.00234
.0496	.168	.00336
.0651	.214	.00428
.08	.257	.00514
.0945	.295	.0059
.1086	.33	.0066
.1222	.361	.00722
.1354	.39	.0078
.1482	.416	.00832
.1606	.44	.0088
.1727	.461	.00922
.1844	.481	.00962
.1958	.499	.00998
.2069	.515	.0103

System: ethanol + 1-hexyl-3-methylimidazolium bis[(trifluoromethyl)sulfonyl]imide; phases: Liquid
Fixed: Pressure, kPa = 101
Fixed: Temperature, K = 298.15
Property: Excess molar enthalpy (molar enthalpy of mixing), kJ/mol (Liquid); method: Isothermal Titration Calorimeter
Mole fraction of ethanol	Excess molar enthalpy (molar enthalpy of mixing), kJ/mol	uncertainty
.0095	.0816	.001632
.0189	.1602	.003204
.0281	.236	.00472
.0371	.3091	.006182
.046	.3795	.00759
.0547	.4475	.00895
.0632	.5131	.010262
.0716	.5763	.011526
.0798	.6373	.012746
.0879	.6962	.013924
.0959	.753	.01506
.1037	.8079	.016158
.1114	.8608	.017216
.1189	.9119	.018238
.1263	.9612	.019224

System: ethanol + 1-ethyl-3-methylimidazolium bis(trifluoromethylsulfonyl)imide; phases: Liquid
Fixed: Pressure, kPa = 101
Fixed: Temperature, K = 298.15
Property: Excess molar enthalpy (molar enthalpy of mixing), kJ/mol (Liquid); method: Isothermal Titration Calorimeter
Mole fraction of ethanol	Excess molar enthalpy (molar enthalpy of mixing), kJ/mol	uncertainty
.0083	.06	.0012
.0165	.118	.00236
.0245	.174	.00348
.0324	.228	.00456
.0402	.28	.0056
.0479	.331	.00662
.0554	.38	.0076
.0628	.427	.00854
.0702	.473	.00946
.0773	.518	.01036
.0844	.561	.01122
.0914	.602	.01204
.0983	.643	.01286
.105	.682	.01364
.1117	.72	.0144

System: n-butyl alcohol + 1-ethyl-3-methylimidazolium bis(trifluoromethylsulfonyl)imide; phases: Liquid
Fixed: Pressure, kPa = 101
Fixed: Temperature, K = 298.15
Property: Excess molar enthalpy (molar enthalpy of mixing), kJ/mol (Liquid); method: Isothermal Titration Calorimeter
Mole fraction of n-butyl alcohol	Excess molar enthalpy (molar enthalpy of mixing), kJ/mol	uncertainty
.0051	.043	.00086
.0102	.085	.0017
.0152	.127	.00254
.0201	.167	.00334
.025	.207	.00414
.0299	.245	.0049
.0347	.283	.00566
.0395	.32	.0064
.0442	.356	.00712
.0488	.391	.00782
.0535	.425	.0085
.0581	.459	.00918
.0626	.492	.00984
.0671	.524	.01048
.0715	.555	.0111

System: n-butyl alcohol + 1-hexyl-3-methylimidazolium bis[(trifluoromethyl)sulfonyl]imide; phases: Liquid
Fixed: Pressure, kPa = 101
Fixed: Temperature, K = 298.15
Property: Excess molar enthalpy (molar enthalpy of mixing), kJ/mol (Liquid); method: Isothermal Titration Calorimeter
Mole fraction of n-butyl alcohol	Excess molar enthalpy (molar enthalpy of mixing), kJ/mol	uncertainty
.0064	.059	.00118
.0127	.116	.00232
.019	.172	.00344
.0252	.227	.00454
.0313	.281	.00562
.0373	.333	.00666
.0432	.385	.0077
.0491	.435	.0087
.0549	.484	.00968
.0606	.532	.01064
.0663	.579	.01158
.0719	.625	.0125
.0774	.67	.0134
.0829	.714	.01428
.0883	.757	.01514

System: 1-hydroxyhexane + 1-hexyl-3-methylimidazolium bis[(trifluoromethyl)sulfonyl]imide; phases: Liquid
Fixed: Pressure, kPa = 101
Fixed: Temperature, K = 298.15
Property: Excess molar enthalpy (molar enthalpy of mixing), kJ/mol (Liquid); method: Isothermal Titration Calorimeter
Mole fraction of 1-hydroxyhexane	Excess molar enthalpy (molar enthalpy of mixing), kJ/mol	uncertainty
.0045	.04	.0008
.0089	.079	.00158
.0132	.118	.00236
.0176	.155	.0031
.0219	.192	.00384
.0261	.228	.00456
.0304	.263	.00526
.0345	.297	.00594
.0387	.331	.00662
.0428	.363	.00726
.0469	.396	.00792
.0509	.427	.00854
.0549	.458	.00916
.0589	.488	.00976
.0629	.517	.01034

System: 1-hydroxyhexane + 1-ethyl-3-methylimidazolium bis(trifluoromethylsulfonyl)imide; phases: Liquid
Fixed: Pressure, kPa = 101
Fixed: Temperature, K = 298.15
Property: Excess molar enthalpy (molar enthalpy of mixing), kJ/mol (Liquid); method: Isothermal Titration Calorimeter
Mole fraction of 1-hydroxyhexane	Excess molar enthalpy (molar enthalpy of mixing), kJ/mol	uncertainty
.0036	.026	.00052
.0072	.049	.00098
.0107	.069	.00138
.0142	.086	.00172
.0177	.1	.002
.0212	.111	.00222
.0246	.12	.0024
