Measured thermophysical data. The effect of ammonium sulfate on the solubility of amino acids  in water at (298.15 and 323.15) K
Source: J. Chem. Thermodyn., 2009, 10.1016/j.jct.2008.09.019
Compound 1: glycine, C2H5NO2, purity 99.7%
Compound 2: DL-alanine, C3H7NO2, purity 99%
Compound 3: L-isoleucine, C6H13NO2, purity 99%
Compound 4: L-threonine, C4H9NO3, purity 99%
Compound 5: L-serine, C3H7NO3, purity 99%
Compound 6: ammonium sulfate, H8N2O4S, purity 99.5%
Compound 7: water, H2O

System: glycine + water + ammonium sulfate; phases: Liquid, Crystal
Fixed: Pressure, kPa = 101
Property: Mass ratio of solute to solvent of glycine (Liquid); method: Analytical gravimetric method
Molality, mol/kg of ammonium sulfate	Temperature, K	Mass ratio of solute to solvent of glycine	uncertainty
.167	298.15	.24652	
.233	298.15	.2494	
.333	298.15	.25426	
.5	298.15	.25971	
.7	298.15	.26495	
1	298.15	.27124	
1.5	298.15	.27477	
2	298.15	.27717	
.167	323.15	.38385	
.233	323.15	.3889	
.334	323.15	.39075	
.5	323.15	.39846	
.7	323.15	.40278	
1	323.15	.41155	
1.5	323.15	.41831	
2	323.15	.42053	

System: DL-alanine + water + ammonium sulfate; phases: Liquid, Crystal
Fixed: Pressure, kPa = 101
Property: Mass ratio of solute to solvent of DL-alanine (Liquid); method: Analytical gravimetric method
Molality, mol/kg of ammonium sulfate	Temperature, K	Mass ratio of solute to solvent of DL-alanine	uncertainty
.167	298.15	.1705	
.233	298.15	.17228	
.333	298.15	.17357	
.5	298.15	.17399	
.7	298.15	.17371	
1	298.15	.17295	
1.5	298.15	.16756	
2	298.15	.16074	
.167	323.15	.23763	
.233	323.15	.23916	
.333	323.15	.2401	
.501	323.15	.24142	
.7	323.15	.2429	
1	323.15	.242	
1.5	323.15	.23638	
2	323.15	.22999	

System: L-isoleucine + water + ammonium sulfate; phases: Liquid, Crystal
Fixed: Pressure, kPa = 101
Property: Mass ratio of solute to solvent of L-isoleucine (Liquid); method: Analytical gravimetric method
Molality, mol/kg of ammonium sulfate	Temperature, K	Mass ratio of solute to solvent of L-isoleucine	uncertainty
.167	298.15	.03415	
.233	298.15	.03376	
.333	298.15	.03315	
.5	298.15	.03204	
.667	298.15	.03028	
1	298.15	.02703	
1.5	298.15	.02251	
2	298.15	.01867	
.167	323.15	.04152	
.233	323.15	.04177	
.333	323.15	.04103	
.5	323.15	.03984	
.667	323.15	.03799	
1	323.15	.03553	
1.5	323.15	.03013	
2	323.15	.02553	

System: L-threonine + water + ammonium sulfate; phases: Liquid, Crystal
Fixed: Pressure, kPa = 101
Property: Mass ratio of solute to solvent of L-threonine (Liquid); method: Analytical gravimetric method
Molality, mol/kg of ammonium sulfate	Temperature, K	Mass ratio of solute to solvent of L-threonine	uncertainty
.1	298.15	.10216	
.233	298.15	.10585	
.3	298.15	.10654	
.5	298.15	.10888	
.7	298.15	.1105	
1	298.15	.11039	
1.5	298.15	.10833	
2	298.15	.10439	
.167	323.15	.14878	
.233	323.15	.15003	
.333	323.15	.15309	
.5	323.15	.15526	
.7	323.15	.15797	
1	323.15	.1587	
1.5	323.15	.15721	
2	323.15	.15287	

System: L-serine + water + ammonium sulfate; phases: Liquid, Crystal
Fixed: Pressure, kPa = 101
Property: Mass ratio of solute to solvent of L-serine (Liquid); method: Analytical gravimetric method
Molality, mol/kg of ammonium sulfate	Temperature, K	Mass ratio of solute to solvent of L-serine	uncertainty
.1	298.15	.44133	
.233	298.15	.4619	
.3	298.15	.46352	
.5	298.15	.48175	
.7	298.15	.49745	
1	298.15	.51512	
1.5	298.15	.5375	
2	298.15	.55778	
.167	323.15	.70433	
.233	323.15	.71052	
.333	323.15	.71764	
.5	323.15	.72712	
.7	323.15	.73634	
1	323.15	.74789	
1.5	323.15	.75967	
2	323.15	.76702	
