Measured thermophysical data. Molar excess enthalpies at T = 298.15 K for (1-alkanol + dibutylether) systems
Source: J. Chem. Thermodyn., 2010, 10.1016/j.jct.2009.07.001
Compound 1: dibutyl ether, C8H18O
Compound 2: methanol, CH4O
Compound 3: 1-propanol, C3H8O
Compound 4: 1-butanol, C4H10O
Compound 5: 1-pentanol, C5H12O
Compound 6: 1-hexanol, C6H14O
Compound 7: 1-octanol, C8H18O
Compound 8: 1-decanol, C10H22O

System: methanol + dibutyl ether; phases: Liquid
Fixed: Temperature, K = 298.15
Fixed: Pressure, kPa = 101
Property: Excess molar enthalpy (molar enthalpy of mixing), kJ/mol (Liquid); method: Calvet calorimetry
Mole fraction of methanol	Excess molar enthalpy (molar enthalpy of mixing), kJ/mol	uncertainty
.0607	.333	.00666
.1267	.54	.0108
.1719	.634	.01268
.1987	.683	.01366
.214	.702	.01404
.2805	.766	.01532
.313	.79	.0158
.3816	.801	.01602
.3979	.808	.01616
.462	.799	.01598
.4968	.79	.0158
.5453	.765	.0153
.6012	.722	.01444
.6454	.679	.01358
.6968	.628	.01256
.7455	.562	.01124
.7992	.481	.00962
.8467	.396	.00792
.8963	.302	.00604
.9439	.177	.00354

System: 1-propanol + dibutyl ether; phases: Liquid
Fixed: Temperature, K = 298.15
Fixed: Pressure, kPa = 101
Property: Excess molar enthalpy (molar enthalpy of mixing), kJ/mol (Liquid); method: Calvet calorimetry
Mole fraction of 1-propanol	Excess molar enthalpy (molar enthalpy of mixing), kJ/mol	uncertainty
.0724	.451	.00902
.0791	.482	.00964
.1166	.618	.01236
.1662	.741	.01482
.2052	.817	.01634
.2617	.88	.0176
.3022	.911	.01822
.3489	.93	.0186
.4017	.927	.01854
.4463	.918	.01836
.5005	.881	.01762
.5249	.866	.01732
.5979	.787	.01574
.6502	.719	.01438
.692	.665	.0133
.6962	.646	.01292
.7435	.566	.01132
.7913	.455	.0091
.8422	.36	.0072
.8918	.257	.00514
.939	.144	.00288

System: 1-butanol + dibutyl ether; phases: Liquid
Fixed: Temperature, K = 298.15
Fixed: Pressure, kPa = 101
Property: Excess molar enthalpy (molar enthalpy of mixing), kJ/mol (Liquid); method: Calvet calorimetry
Mole fraction of 1-butanol	Excess molar enthalpy (molar enthalpy of mixing), kJ/mol	uncertainty
.0711	.438	.00876
.0787	.472	.00944
.1094	.585	.0117
.1365	.66	.0132
.1592	.715	.0143
.1825	.765	.0153
.2335	.839	.01678
.2571	.862	.01724
.2625	.865	.0173
.2632	.863	.01726
.3126	.898	.01796
.3587	.907	.01814
.3597	.911	.01822
.4155	.905	.0181
.4605	.884	.01768
.4998	.861	.01722
.5535	.818	.01636
.6027	.764	.01528
.647	.713	.01426
.6946	.641	.01282
.7472	.554	.01108
.8008	.446	.00892
.8451	.35	.007
.8458	.35	.007
.8957	.244	.00488
.9466	.127	.00254
.9466	.126	.00252

System: 1-pentanol + dibutyl ether; phases: Liquid
Fixed: Temperature, K = 298.15
Fixed: Pressure, kPa = 101
Property: Excess molar enthalpy (molar enthalpy of mixing), kJ/mol (Liquid); method: Calvet calorimetry
Mole fraction of 1-pentanol	Excess molar enthalpy (molar enthalpy of mixing), kJ/mol	uncertainty
.0545	.352	.00704
.1134	.582	.01164
.1626	.708	.01416
.2027	.778	.01556
.2518	.832	.01664
.2984	.863	.01726
.3486	.887	.01774
.3983	.883	.01766
.4484	.873	.01746
.4942	.843	.01686
.5466	.806	.01612
.6023	.745	.0149
.6444	.698	.01396
.6876	.608	.01216
.7406	.531	.01062
.795	.429	.00858
.8434	.336	.00672
.891	.235	.0047
.9389	.128	.00256

System: 1-hexanol + dibutyl ether; phases: Liquid
Fixed: Temperature, K = 298.15
Fixed: Pressure, kPa = 101
Property: Excess molar enthalpy (molar enthalpy of mixing), kJ/mol (Liquid); method: Calvet calorimetry
Mole fraction of 1-hexanol	Excess molar enthalpy (molar enthalpy of mixing), kJ/mol	uncertainty
.0558	.346	.00692
.1107	.56	.0112
.1491	.657	.01314
.2032	.752	.01504
.2488	.806	.01612
.2982	.841	.01682
.3477	.855	.0171
.3965	.856	.01712
.4418	.85	.017
.5016	.817	.01634
.5449	.78	.0156
.5978	.729	.01458
.6464	.655	.0131
.6913	.589	.01178
.7354	.521	.01042
.7958	.415	.0083
.8479	.315	.0063
.888	.233	.00466
.9318	.136	.00272
.9326	.137	.00274

System: 1-octanol + dibutyl ether; phases: Liquid
Fixed: Temperature, K = 298.15
Fixed: Pressure, kPa = 101
Property: Excess molar enthalpy (molar enthalpy of mixing), kJ/mol (Liquid); method: Calvet calorimetry
Mole fraction of 1-octanol	Excess molar enthalpy (molar enthalpy of mixing), kJ/mol	uncertainty
.0652	.387	.00774
.1011	.523	.01046
.1512	.656	.01312
.2017	.744	.01488
.2446	.795	.0159
.2981	.83	.0166
.3382	.845	.0169
.3986	.849	.01698
.3986	.849	.01698
.4432	.836	.01672
.4966	.808	.01616
.5393	.779	.01558
.5907	.713	.01426
.5961	.701	.01402
.6363	.661	.01322
.7087	.554	.01108
.7311	.525	.0105
.787	.426	.00852
.83	.344	.00688
.879	.245	.0049
.9304	.139	.00278
.937	.125	.0025

System: 1-decanol + dibutyl ether; phases: Liquid
Fixed: Temperature, K = 298.15
Fixed: Pressure, kPa = 101
Property: Excess molar enthalpy (molar enthalpy of mixing), kJ/mol (Liquid); method: Calvet calorimetry
Mole fraction of 1-decanol	Excess molar enthalpy (molar enthalpy of mixing), kJ/mol	uncertainty
.0549	.347	.00694
.1045	.546	.01092
.1508	.667	.01334
.1992	.754	.01508
.2491	.81	.0162
.2975	.853	.01706
.3443	.864	.01728
.3964	.87	.0174
.4484	.896	.01792
.4966	.834	.01668
.5428	.777	.01554
.5887	.732	.01464
.646	.657	.01314
.6819	.609	.01218
.7402	.514	.01028
.7812	.442	.00884
.8272	.345	.0069
.8767	.249	.00498
.9225	.149	.00298
