Measured thermophysical data. Solubility determination and thermodynamic modeling of 3-methyl-4- nitrobenzoic acid in twelve organic solvents from T = (283.15-318.15) K and mixing properties of solutions
Source: J. Chem. Thermodyn., 2016, 10.1016/j.jct.2016.07.023
Compound 1: 3-methyl-4-nitrobenzoic acid, C8H7NO4, purity 98.1%
Compound 2: methanol, CH4O, purity 99.5%
Compound 3: ethanol, C2H6O, purity 99.7%
Compound 4: n-propanol, C3H8O, purity 99.5%
Compound 5: isopropanol, C3H8O, purity 99.7%
Compound 6: ethyl acetate, C4H8O2, purity 99.5%
Compound 7: acetone, C3H6O, purity 99.5%
Compound 8: acetonitrile, C2H3N, purity 99.3%
Compound 9: toluene, C7H8, purity 99.5%
Compound 10: n-butanol, C4H10O, purity 99.5%
Compound 11: 1,4-dioxane, C4H8O2, purity 99.5%
Compound 12: N-methyl-2-pyrrolidone, C5H9NO, purity 99.6%
Compound 13: N,N-dimethylformamide, C3H7NO, purity 99.5%
Compound 14: cyclohexane, C6H12, purity 99.4%
Compound 15: 1,1,2,2-tetrachloroethane, C2H2Cl4, purity 99.5%
Compound 16: benzoic acid, C7H6O2, purity 99.4%

System: 3-methyl-4-nitrobenzoic acid; phases: Crystal
Property: Mass density, kg/m3 (Crystal); method: flotation method
Temperature, K	Pressure, kPa	Mass density, kg/m3	uncertainty
303.15	101.1	1528.6	

System: methanol + 3-methyl-4-nitrobenzoic acid; phases: Liquid, Crystal
Fixed: Pressure, kPa = 101.1
Property: Mole fraction of 3-methyl-4-nitrobenzoic acid (Liquid); method: Chromatography
Temperature, K	Mole fraction of 3-methyl-4-nitrobenzoic acid	uncertainty
283.15	.006056	
285.65	.006642	
288.15	.00734	
290.65	.008086	
293.15	.008788	
295.65	.009557	
298.15	.01036	
300.65	.01112	
303.15	.01201	
305.65	.01288	
308.15	.01374	
310.65	.01474	
313.15	.01576	
315.65	.01689	
318.15	.01836	

System: ethanol + 3-methyl-4-nitrobenzoic acid; phases: Liquid, Crystal
Fixed: Pressure, kPa = 101.1
Property: Mole fraction of 3-methyl-4-nitrobenzoic acid (Liquid); method: Chromatography
Temperature, K	Mole fraction of 3-methyl-4-nitrobenzoic acid	uncertainty
283.15	.007513	
285.65	.0078	
288.15	.008183	
290.65	.008659	
293.15	.009155	
295.65	.009641	
298.15	.01021	
300.65	.01076	
303.15	.0113	
305.65	.01186	
308.15	.0125	
310.65	.01316	
313.15	.01377	
315.65	.01458	
318.15	.01545	

System: n-propanol + 3-methyl-4-nitrobenzoic acid; phases: Liquid, Crystal
Fixed: Pressure, kPa = 101.1
Property: Mole fraction of 3-methyl-4-nitrobenzoic acid (Liquid); method: Chromatography
Temperature, K	Mole fraction of 3-methyl-4-nitrobenzoic acid	uncertainty
283.15	.007257	
285.65	.007654	
288.15	.008146	
290.65	.008662	
293.15	.009136	
295.65	.009656	
298.15	.01033	
300.65	.01091	
303.15	.01155	
305.65	.01214	
308.15	.01289	
310.65	.01373	
313.15	.01452	
315.65	.01552	
318.15	.01644	

System: isopropanol + 3-methyl-4-nitrobenzoic acid; phases: Liquid, Crystal
Fixed: Pressure, kPa = 101.1
Property: Mole fraction of 3-methyl-4-nitrobenzoic acid (Liquid); method: Chromatography
Temperature, K	Mole fraction of 3-methyl-4-nitrobenzoic acid	uncertainty
283.15	.008774	
285.65	.009147	
288.15	.009663	
290.65	.01024	
293.15	.01077	
295.65	.01145	
298.15	.01219	
300.65	.01289	
303.15	.0136	
305.65	.01432	
308.15	.01514	
310.65	.01605	
313.15	.01694	
315.65	.01805	
318.15	.01924	

System: ethyl acetate + 3-methyl-4-nitrobenzoic acid; phases: Liquid, Crystal
Fixed: Pressure, kPa = 101.1
Property: Mole fraction of 3-methyl-4-nitrobenzoic acid (Liquid); method: Chromatography
Temperature, K	Mole fraction of 3-methyl-4-nitrobenzoic acid	uncertainty
283.15	.0106	
285.65	.01105	
288.15	.01159	
290.65	.01225	
293.15	.01275	
295.65	.01336	
298.15	.01397	
300.65	.01455	
303.15	.01527	
305.65	.01595	
308.15	.01667	
310.65	.0175	
313.15	.01845	
315.65	.01935	
318.15	.02047	

System: acetone + 3-methyl-4-nitrobenzoic acid; phases: Liquid, Crystal
Fixed: Pressure, kPa = 101.1
Property: Mole fraction of 3-methyl-4-nitrobenzoic acid (Liquid); method: Chromatography
Temperature, K	Mole fraction of 3-methyl-4-nitrobenzoic acid	uncertainty
283.15	.02043	
285.65	.02123	
288.15	.02203	
290.65	.02285	
293.15	.02379	
295.65	.02474	
298.15	.02598	
300.65	.02732	
303.15	.02855	
305.65	.02985	
308.15	.03109	
310.65	.03247	
313.15	.03385	
315.65	.03535	
318.15	.03717	

System: acetonitrile + 3-methyl-4-nitrobenzoic acid; phases: Liquid, Crystal
Fixed: Pressure, kPa = 101.1
Property: Mole fraction of 3-methyl-4-nitrobenzoic acid (Liquid); method: Chromatography
Temperature, K	Mole fraction of 3-methyl-4-nitrobenzoic acid	uncertainty
283.15	.002548	
285.65	.00276	
288.15	.003017	
290.65	.00328	
293.15	.003547	
295.65	.00382	
298.15	.00412	
300.65	.004379	
303.15	.004686	
305.65	.004979	
308.15	.005287	
310.65	.005638	
313.15	.005979	
315.65	.00638	
318.15	.006878	

System: toluene + 3-methyl-4-nitrobenzoic acid; phases: Liquid, Crystal
Fixed: Pressure, kPa = 101.1
Property: Mole fraction of 3-methyl-4-nitrobenzoic acid (Liquid); method: Chromatography
Temperature, K	Mole fraction of 3-methyl-4-nitrobenzoic acid	uncertainty
283.15	.01652	
285.65	.01742	
288.15	.01835	
290.65	.01912	
293.15	.02018	
295.65	.02115	
298.15	.02215	
300.65	.02308	
303.15	.02428	
305.65	.0253	
308.15	.02653	
310.65	.02791	
313.15	.02947	
315.65	.03135	
318.15	.03331	

System: n-butanol + 3-methyl-4-nitrobenzoic acid; phases: Liquid, Crystal
Fixed: Pressure, kPa = 101.1
Property: Mole fraction of 3-methyl-4-nitrobenzoic acid (Liquid); method: Chromatography
Temperature, K	Mole fraction of 3-methyl-4-nitrobenzoic acid	uncertainty
283.15	.006756	
285.65	.007252	
288.15	.007893	
290.65	.008442	
293.15	.009131	
295.65	.009943	
298.15	.01081	
300.65	.01164	
303.15	.01249	
305.65	.01344	
308.15	.01437	
310.65	.01526	
313.15	.01627	
315.65	.01736	
318.15	.01883	

System: 1,4-dioxane + 3-methyl-4-nitrobenzoic acid; phases: Liquid, Crystal
Fixed: Pressure, kPa = 101.1
Property: Mole fraction of 3-methyl-4-nitrobenzoic acid (Liquid); method: Chromatography
Temperature, K	Mole fraction of 3-methyl-4-nitrobenzoic acid	uncertainty
283.15	.04069	
285.65	.04281	
288.15	.04482	
290.65	.04693	
293.15	.0493	
295.65	.05194	
298.15	.05451	
300.65	.05712	
303.15	.05999	
305.65	.06282	
308.15	.06583	
310.65	.06882	
313.15	.0718	
315.65	.07539	
318.15	.08016	

System: N-methyl-2-pyrrolidone + 3-methyl-4-nitrobenzoic acid; phases: Liquid, Crystal
Fixed: Pressure, kPa = 101.1
Property: Mole fraction of 3-methyl-4-nitrobenzoic acid (Liquid); method: Chromatography
Temperature, K	Mole fraction of 3-methyl-4-nitrobenzoic acid	uncertainty
283.15	.08555	
285.65	.08723	
288.15	.08998	
290.65	.09327	
293.15	.09649	
295.65	.1003	
298.15	.1047	
300.65	.1089	
303.15	.1132	
305.65	.1177	
308.15	.1226	
310.65	.1277	
313.15	.1328	
315.65	.1382	
318.15	.1447	

System: N,N-dimethylformamide + 3-methyl-4-nitrobenzoic acid; phases: Liquid, Crystal
Fixed: Pressure, kPa = 101.1
Property: Mole fraction of 3-methyl-4-nitrobenzoic acid (Liquid); method: Chromatography
Temperature, K	Mole fraction of 3-methyl-4-nitrobenzoic acid	uncertainty
283.15	.06766	
285.65	.0709	
288.15	.07543	
290.65	.07953	
293.15	.08452	
295.65	.09081	
298.15	.09752	
300.65	.1044	
303.15	.1109	
305.65	.1182	
308.15	.1261	
310.65	.1348	
313.15	.1424	
315.65	.1516	
318.15	.1622	

System: cyclohexane + 3-methyl-4-nitrobenzoic acid; phases: Liquid, Crystal
Fixed: Pressure, kPa = 101.1
Property: Mole fraction of 3-methyl-4-nitrobenzoic acid (Liquid); method: Chromatography
Temperature, K	Mole fraction of 3-methyl-4-nitrobenzoic acid	uncertainty
303.15	.0001067	

System: 1,1,2,2-tetrachloroethane + 3-methyl-4-nitrobenzoic acid; phases: Liquid, Crystal
Fixed: Pressure, kPa = 101.1
Property: Mole fraction of 3-methyl-4-nitrobenzoic acid (Liquid); method: Chromatography
Temperature, K	Mole fraction of 3-methyl-4-nitrobenzoic acid	uncertainty
303.15	.0005305	

System: benzoic acid + toluene; phases: Liquid, Crystal
Fixed: Pressure, kPa = 101.1
Property: Mole fraction of benzoic acid (Liquid); method: Chromatography
Temperature, K	Mole fraction of benzoic acid	uncertainty
283.15	.04247	
293.15	.06201	
298.15	.07454	
303.15	.08905	
313.15	.1266	
323.15	.179	
