Measured thermophysical data. Experimental and computational thermochemical study of benzofuran, benzothiophene and indole derivatives
Source: J. Chem. Thermodyn., 2016, 10.1016/j.jct.2016.02.008
Compound 1: benzofuran-2-carboxylic acid, C9H6O3, purity 99%
Compound 2: indole-2-carboxylic acid, C9H7NO2, purity 98%
Compound 3: benzo[b]thiophene-2-carboxylic acid, C9H6O2S, purity 98%
Compound 4: 2-acetylbenzofuran, C10H8O2, purity 99%
Compound 5: carbon dioxide, CO2
Compound 6: water, H2O
Compound 7: oxygen, O2
Compound 8: nitrogen, N2
Compound 9: sulfuric acid, H2O4S

System: benzofuran-2-carboxylic acid; phases: Crystal
Fixed: Pressure, kPa = 101.325
Property: Mass density, kg/m3 (Crystal); method: measuring the mass and volume of a pellet
Temperature, K	Mass density, kg/m3	uncertainty
298.15	1340	30

System: benzofuran-2-carboxylic acid; phases: Crystal, Liquid, Air at 1 atmosphere
Property: Normal melting temperature, K (Crystal); method: DSC/DTA
Normal melting temperature, K	uncertainty
469.8	.5

System: benzofuran-2-carboxylic acid; phases: Crystal, Liquid, Air at 1 atmosphere
Property: Molar enthalpy of transition or fusion, kJ/mol (Crystal); method: DSC
Molar enthalpy of transition or fusion, kJ/mol	uncertainty
27.16	.35

System: benzofuran-2-carboxylic acid; phases: Crystal
Fixed: Pressure, kPa = 101.325
Property: Molar heat capacity at constant pressure, J/K/mol (Crystal); method: Small sample (50 mg) scanning calorimetry
Temperature, K	Molar heat capacity at constant pressure, J/K/mol	uncertainty
298.15	184.8	2.9

System: benzofuran-2-carboxylic acid; phases: Crystal, Gas
Property: Molar enthalpy of vaporization or sublimation, kJ/mol (Crystal); method: Derived by Second law
Temperature, K	Molar enthalpy of vaporization or sublimation, kJ/mol	uncertainty
457.5	104.3	.3

System: indole-2-carboxylic acid; phases: Crystal, Liquid, Air at 1 atmosphere
Property: Normal melting temperature, K (Crystal); method: DSC/DTA
Normal melting temperature, K	uncertainty
483.1	.7

System: indole-2-carboxylic acid; phases: Crystal, Liquid, Air at 1 atmosphere
Property: Molar enthalpy of transition or fusion, kJ/mol (Crystal); method: DSC
Molar enthalpy of transition or fusion, kJ/mol	uncertainty
22.96	.43

System: indole-2-carboxylic acid; phases: Crystal
Fixed: Pressure, kPa = 101.325
Property: Molar heat capacity at constant pressure, J/K/mol (Crystal); method: Small sample (50 mg) scanning calorimetry
Temperature, K	Molar heat capacity at constant pressure, J/K/mol	uncertainty
298.15	178.4	4.9

System: indole-2-carboxylic acid; phases: Crystal, Gas
Property: Molar enthalpy of vaporization or sublimation, kJ/mol (Crystal); method: Derived by Second law
Temperature, K	Molar enthalpy of vaporization or sublimation, kJ/mol	uncertainty
457.5	109.3	.2

System: benzo[b]thiophene-2-carboxylic acid; phases: Crystal
Fixed: Pressure, kPa = 101.325
Property: Mass density, kg/m3 (Crystal); method: measuring the mass and volume of a pellet
Temperature, K	Mass density, kg/m3	uncertainty
298.15	1490	60

System: benzo[b]thiophene-2-carboxylic acid; phases: Crystal, Liquid, Air at 1 atmosphere
Property: Normal melting temperature, K (Crystal); method: DSC/DTA
Normal melting temperature, K	uncertainty
517.8	.5

System: benzo[b]thiophene-2-carboxylic acid; phases: Crystal, Liquid, Air at 1 atmosphere
Property: Molar enthalpy of transition or fusion, kJ/mol (Crystal); method: DSC
Molar enthalpy of transition or fusion, kJ/mol	uncertainty
31.39	.21

System: benzo[b]thiophene-2-carboxylic acid; phases: Crystal
Fixed: Pressure, kPa = 101.325
Property: Molar heat capacity at constant pressure, J/K/mol (Crystal); method: Small sample (50 mg) scanning calorimetry
Temperature, K	Molar heat capacity at constant pressure, J/K/mol	uncertainty
298.15	179	3.9

System: benzo[b]thiophene-2-carboxylic acid; phases: Crystal, Gas
Property: Molar enthalpy of vaporization or sublimation, kJ/mol (Crystal); method: Derived by Second law
Temperature, K	Molar enthalpy of vaporization or sublimation, kJ/mol	uncertainty
457.5	114.9	.6

System: 2-acetylbenzofuran; phases: Crystal, Liquid, Air at 1 atmosphere
Property: Normal melting temperature, K (Crystal); method: DSC/DTA
Normal melting temperature, K	uncertainty
339	.8

System: 2-acetylbenzofuran; phases: Crystal, Liquid, Air at 1 atmosphere
Property: Molar enthalpy of transition or fusion, kJ/mol (Crystal); method: DSC
Molar enthalpy of transition or fusion, kJ/mol	uncertainty
21.31	.22

System: 2-acetylbenzofuran; phases: Crystal
Fixed: Pressure, kPa = 101.325
Property: Molar heat capacity at constant pressure, J/K/mol (Crystal); method: Small sample (50 mg) scanning calorimetry
Temperature, K	Molar heat capacity at constant pressure, J/K/mol	uncertainty
298.15	192.1	4.6

System: 2-acetylbenzofuran; phases: Liquid, Gas
Property: Molar enthalpy of vaporization or sublimation, kJ/mol (Liquid); method: Derived by Second law
Temperature, K	Molar enthalpy of vaporization or sublimation, kJ/mol	uncertainty
392.5	62.2	.1

Reaction: -1 benzo[b]thiophene-2-carboxylic acid + 1 sulfuric acid + 9 carbon dioxide + 2 water + -11 oxygen
Property: Specific internal energy of reaction at constant volume, J/g
-26209.1

Reaction: -1 benzofuran-2-carboxylic acid + 9 carbon dioxide + 3 water + -9 oxygen
Property: Specific internal energy of reaction at constant volume, J/g
-24323.9

Reaction: -1 indole-2-carboxylic acid + 9 carbon dioxide + 0.5 nitrogen + 3.5 water + -9.75 oxygen
Property: Specific internal energy of reaction at constant volume, J/g
-26168.9

Reaction: -1 2-acetylbenzofuran + 10 carbon dioxide + 4 water + -11 oxygen
Property: Specific internal energy of reaction at constant volume, J/g
-30195.2
