Measured thermophysical data. Solubility of carbon dioxide, methane, and ethane in 1-butanol and saturated liquid densities and viscosities
Source: J. Chem. Thermodyn., 2013, 10.1016/j.jct.2013.08.007
Compound 1: methane, CH4, purity 99.97%
Compound 2: ethane, C2H6, purity 99.999%
Compound 3: carbon dioxide, CO2, purity 99.998%
Compound 4: 1-butanol, C4H10O, purity 99.7%

System: 1-butanol; phases: Liquid
Property: Mass density, kg/m3 (Liquid); method: Vibrating tube method
Pressure, kPa	Temperature, K	Mass density, kg/m3	uncertainty
100	302.9	802	.1
1020	302.9	802.7	.1
2010	302.9	803.4	.1
3010	302.9	804.1	.1
4000	302.9	804.9	.1
5010	302.9	805.7	.1
6000	302.9	806.4	.1
7020	302.9	807.2	.1
8010	302.9	807.9	.1
9020	302.9	808.7	.1
10020	302.9	809.4	.1
100	323.1	785.6	.1
1010	323.1	786.6	.1
2020	323.1	787.5	.1
3010	323.1	788.3	.1
4000	323.1	789.2	.1
5020	323.1	790	.1
6020	323.1	790.9	.1
7000	323.1	791.7	.1
8010	323.1	792.5	.1
9020	323.1	793.3	.1
10020	323.1	794.2	.1

System: 1-butanol; phases: Liquid
Fixed: Pressure, kPa = 101.325
Property: Viscosity, Pa*s (Liquid); method: Moving piston method
Temperature, K	Viscosity, Pa*s	uncertainty
303.15	.002197	.00004394
323.3	.001347	.00002694

System: 1-butanol + methane; phases: Liquid, Gas
Property: Mole fraction of methane (Liquid); method: gasometer (volumetric analysis)
Pressure, kPa	Temperature, K	Mole fraction of methane	uncertainty
1060	303	.021	.002
2100	303	.039	.002
3120	303	.056	.002
4080	303	.071	.002
5090	303	.087	.002
6070	303	.102	.002
1050	323.1	.02	.002
2070	323.1	.035	.002
2980	323.1	.048	.002
4030	323.1	.065	.002
5020	323.1	.079	.002
6070	323.1	.095	.002

System: 1-butanol + methane; phases: Liquid
Property: Mass density, kg/m3 (Liquid); method: Vibrating tube method
Pressure, kPa	Temperature, K	Mole fraction of methane	Mass density, kg/m3	uncertainty
1060	303	.021	797.6	.4
2100	303	.039	793.7	.9
3120	303	.056	789.4	.4
4080	303	.071	785.8	.3
5090	303	.087	781.8	.3
6070	303	.102	778.3	.6
1050	323.1	.02	782.2	.6
2070	323.1	.035	778.5	.7
2980	323.1	.048	775.5	.5
4030	323.1	.065	771.6	1
5020	323.1	.079	767.9	.6
6070	323.1	.095	764.2	.4

System: 1-butanol + methane; phases: Liquid
Property: Viscosity, Pa*s (Liquid); method: Moving piston method
Pressure, kPa	Temperature, K	Mole fraction of methane	Viscosity, Pa*s	uncertainty
1060	303	.021	.001994	.000101
2100	303	.039	.00186	.000054
3120	303	.056	.001731	.000046
4080	303	.071	.00167	.000032
5090	303	.087	.001612	.000049
6070	303	.102	.001548	.000083
1050	323.1	.02	.001236	.000034
2070	323.1	.035	.001174	.000036
2980	323.1	.048	.001131	.000029
4030	323.1	.065	.001085	.000041
5020	323.1	.079	.001046	.000028
6070	323.1	.095	.001005	.000034

System: 1-butanol + ethane; phases: Liquid
Property: Mass density, kg/m3 (Liquid); method: Vibrating tube method
Pressure, kPa	Temperature, K	Mole fraction of ethane	Mass density, kg/m3	uncertainty
1050	303	.097	776.8	.3
2080	303	.214	745.4	.5
3070	303	.341	704.9	1
1140	323.1	.086	762.8	.9
2050	323.1	.157	744.2	.8
3070	323.1	.243	718.4	.6
4070	323.1	.336	688.3	.8
4950	323.1	.428	652.9	.7
6020	323.1	.579	588.2	.8

System: 1-butanol + ethane; phases: Liquid, Gas
Property: Mole fraction of ethane (Liquid); method: gasometer (volumetric analysis)
Pressure, kPa	Temperature, K	Mole fraction of ethane	uncertainty
1050	303	.097	.002
2080	303	.214	.002
3070	303	.341	.002
1140	323.1	.086	.002
2050	323.1	.157	.002
3070	323.1	.243	.002
4070	323.1	.336	.002
4950	323.1	.428	.002
6020	323.1	.579	.002

System: 1-butanol + ethane; phases: Liquid
Property: Viscosity, Pa*s (Liquid); method: Moving piston method
Pressure, kPa	Temperature, K	Mole fraction of ethane	Viscosity, Pa*s	uncertainty
1050	303	.097	.001553	.000058
2080	303	.214	.001114	.000049
3070	303	.341	.000668	.000038
1140	323.1	.086	.001008	.00002
2050	323.1	.157	.000801	.000036
3070	323.1	.243	.000618	.000024
4070	323.1	.336	.000462	.000019
4950	323.1	.428	.000351	.000013
6020	323.1	.579	.000212	.000009

System: 1-butanol + carbon dioxide; phases: Liquid
Property: Mass density, kg/m3 (Liquid); method: Vibrating tube method
Pressure, kPa	Temperature, K	Mole fraction of carbon dioxide	Mass density, kg/m3	uncertainty
1050	303	.07	808.1	.4
2030	303	.14	814.3	.4
3220	303	.217	822.8	.4
4100	303	.304	828.4	.3
4970	303	.384	835.3	.5
920	323.1	.047	789.3	.8
1920	323.1	.098	793.3	.8
2940	323.1	.151	798.4	.9
3990	323.1	.223	802	.6
5100	323.1	.288	806.7	.5
6250	323.1	.374	811	.7

System: 1-butanol + carbon dioxide; phases: Liquid, Gas
Property: Mole fraction of carbon dioxide (Liquid); method: gasometer (volumetric analysis)
Pressure, kPa	Temperature, K	Mole fraction of carbon dioxide	uncertainty
1050	303	.07	.002
2030	303	.14	.002
3220	303	.217	.002
4100	303	.304	.002
4970	303	.384	.002
920	323.1	.047	.002
1920	323.1	.098	.002
2940	323.1	.151	.002
3990	323.1	.223	.002
5100	323.1	.288	.002
6250	323.1	.374	.002

System: 1-butanol + carbon dioxide; phases: Liquid
Property: Viscosity, Pa*s (Liquid); method: Moving piston method
Pressure, kPa	Temperature, K	Mole fraction of carbon dioxide	Viscosity, Pa*s	uncertainty
1050	303	.07	.001744	.000078
2030	303	.14	.001428	.000018
3220	303	.217	.00116	.000038
4100	303	.304	.00087	.000044
4970	303	.384	.000661	.000015
920	323.1	.047	.001143	.000028
1920	323.1	.098	.001	.000025
2940	323.1	.151	.000828	.000051
3990	323.1	.223	.000722	.000019
5100	323.1	.288	.000599	.000015
6250	323.1	.374	.000486	.000014
