Measured thermophysical data. Measuring and validation for isothermal solubility data of solid 2-(3,4-Dimethoxyphenyl)-5,6,7,8-tetramethoxychromen-4-one (nobiletin) in supercritical carbon dioxide
Source: J. Chem. Thermodyn., 2015, 10.1016/j.jct.2015.08.018
Compound 1: carbon dioxide, CO2, purity 99.99%
Compound 2: Nobiletin, C21H22O8, purity 97%

System: carbon dioxide + Nobiletin; phases: Fluid (supercritical or subcritical phases), Crystal
Property: Mole fraction of Nobiletin (Fluid (supercritical or subcritical phases)); method: Chromatography
Temperature, K	Pressure, kPa	Mole fraction of Nobiletin	uncertainty
313	17970	.000114	.000048
313	21930	.000126	.000053
313	28220	.000141	.00006
323	18090	.000109	.000046
323	21790	.000138	.000058
323	27870	.000154	.000065
323	31030	.000164	.000069
333	18350	.000107	.000045
333	21950	.000152	.000064
333	27920	.000179	.000076
333	32400	.000182	.000077
