Measured thermophysical data. Molar heat capacities of some aqueous 2-amino-2-hydroxymethyl-1,3-propanediol + glycol systems
Source: J. Chem. Thermodyn., 2012, 10.1016/j.jct.2012.02.022
Compound 1: 1,3-propanediol, 2-amino-2-(hydroxymethyl)-, C4H11NO3, purity 99.9%
Compound 2: water, H2O, purity 99.9%
Compound 3: bis(2-hydroxyethyl) ether, C4H10O3, purity 99.9%
Compound 4: tetraethylene glycol, C8H18O5
Compound 5: 3,6-dioxa-1,8-octanediol, C6H14O4, purity 99.9%
Compound 6: propylene glycol, C3H8O2
Compound 7: 3,3'-oxybispropanol, C6H14O3
Compound 8: tripropylene glycol, C9H20O4

System: 3,3'-oxybispropanol; phases: Liquid
Fixed: Pressure, kPa = 101.325
Property: Molar heat capacity at constant pressure, J/K/mol (Liquid); method: Small sample (50 mg) DSC
Temperature, K	Molar heat capacity at constant pressure, J/K/mol	uncertainty
303.15	328.3	.27
313.15	335.9	.27
323.15	342	.27
333.15	348.5	.27
343.15	355.1	.27
353.15	362.6	.27

System: 1,3-propanediol, 2-amino-2-(hydroxymethyl)- + bis(2-hydroxyethyl) ether + water; phases: Liquid
Fixed: Pressure, kPa = 101.3
Property: Molar heat capacity at constant pressure, J/K/mol (Liquid); method: Small sample (50 mg) DSC
Mass fraction of 1,3-propanediol, 2-amino-2-(hydroxymethyl)-	Mass fraction of bis(2-hydroxyethyl) ether	Temperature, K	Molar heat capacity at constant pressure, J/K/mol	uncertainty
.04	.4	303.15	195.3	.27
.04	.4	308.15	196.8	.27
.04	.4	313.15	198.5	.27
.04	.4	318.15	199.7	.27
.04	.4	323.15	201.6	.27
.04	.4	328.15	203.2	.27
.04	.4	333.15	205.7	.27
.04	.4	338.15	207.7	.27
.04	.4	343.15	209.9	.27
.04	.4	348.15	212.1	.27
.04	.4	353.15	214.3	.27
.09	.4	303.15	202.3	.27
.09	.4	308.15	204.1	.27
.09	.4	313.15	205.7	.27
.09	.4	318.15	207.3	.27
.09	.4	323.15	209.3	.27
.09	.4	328.15	211.1	.27
.09	.4	333.15	212.8	.27
.09	.4	338.15	214.6	.27
.09	.4	343.15	216.5	.27
.09	.4	348.15	218.7	.27
.09	.4	353.15	221.3	.27
.16	.4	303.15	213.6	.27
.16	.4	308.15	215.5	.27
.16	.4	313.15	217.8	.27
.16	.4	318.15	219.2	.27
.16	.4	323.15	221.5	.27
.16	.4	328.15	223.3	.27
.16	.4	333.15	225.8	.27
.16	.4	338.15	227.8	.27
.16	.4	343.15	229.7	.27
.16	.4	348.15	231.9	.27
.16	.4	353.15	235	.27

System: 1,3-propanediol, 2-amino-2-(hydroxymethyl)- + 3,6-dioxa-1,8-octanediol + water; phases: Liquid
Fixed: Pressure, kPa = 101.3
Property: Molar heat capacity at constant pressure, J/K/mol (Liquid); method: Small sample (50 mg) DSC
Mass fraction of 1,3-propanediol, 2-amino-2-(hydroxymethyl)-	Mass fraction of 3,6-dioxa-1,8-octanediol	Temperature, K	Molar heat capacity at constant pressure, J/K/mol	uncertainty
.04	.4	303.15	264.1	.27
.04	.4	308.15	265.3	.27
.04	.4	313.15	266.7	.27
.04	.4	318.15	267.7	.27
.04	.4	323.15	269.4	.27
.04	.4	328.15	270.7	.27
.04	.4	333.15	272.6	.27
.04	.4	338.15	274.3	.27
.04	.4	343.15	276.1	.27
.04	.4	348.15	278.1	.27
.04	.4	353.15	280.2	.27
.09	.4	303.15	274.1	.27
.09	.4	308.15	276.2	.27
.09	.4	313.15	278.1	.27
.09	.4	318.15	279.5	.27
.09	.4	323.15	281.7	.27
.09	.4	328.15	283.2	.27
.09	.4	333.15	285.5	.27
.09	.4	338.15	287.5	.27
.09	.4	343.15	289.4	.27
.09	.4	348.15	291.2	.27
.09	.4	353.15	293.2	.27
.16	.4	303.15	291.3	.27
.16	.4	308.15	293.2	.27
.16	.4	313.15	295.6	.27
.16	.4	318.15	297.1	.27
.16	.4	323.15	299.4	.27
.16	.4	328.15	301.3	.27
.16	.4	333.15	303.3	.27
.16	.4	338.15	305.7	.27
.16	.4	343.15	307.6	.27
.16	.4	348.15	309.9	.27
.16	.4	353.15	312.5	.27

System: 1,3-propanediol, 2-amino-2-(hydroxymethyl)- + tetraethylene glycol + water; phases: Liquid
Fixed: Pressure, kPa = 101.3
Property: Molar heat capacity at constant pressure, J/K/mol (Liquid); method: Small sample (50 mg) DSC
Mass fraction of 1,3-propanediol, 2-amino-2-(hydroxymethyl)-	Mass fraction of tetraethylene glycol	Temperature, K	Molar heat capacity at constant pressure, J/K/mol	uncertainty
.04	.4	303.15	333.2	.27
.04	.4	308.15	334.6	.27
.04	.4	313.15	336.6	.27
.04	.4	318.15	337.5	.27
.04	.4	323.15	339.3	.27
.04	.4	328.15	340.6	.27
.04	.4	333.15	342.8	.27
.04	.4	338.15	344.2	.27
.04	.4	343.15	345.7	.27
.04	.4	348.15	347.7	.27
.04	.4	353.15	349.6	.27
.09	.4	303.15	337.1	.27
.09	.4	308.15	339.2	.27
.09	.4	313.15	341.5	.27
.09	.4	318.15	342.9	.27
.09	.4	323.15	344.9	.27
.09	.4	328.15	347	.27
.09	.4	333.15	349.5	.27
.09	.4	338.15	351.1	.27
.09	.4	343.15	352.9	.27
.09	.4	348.15	354.8	.27
.09	.4	353.15	357	.27
.16	.4	303.15	343.9	.27
.16	.4	308.15	346.2	.27
.16	.4	313.15	348.8	.27
.16	.4	318.15	350.1	.27
.16	.4	323.15	352.8	.27
.16	.4	328.15	354.5	.27
.16	.4	333.15	357.8	.27
.16	.4	338.15	360.2	.27
.16	.4	343.15	362.1	.27
.16	.4	348.15	364.6	.27
.16	.4	353.15	367.8	.27

System: propylene glycol + 1,3-propanediol, 2-amino-2-(hydroxymethyl)- + water; phases: Liquid
Fixed: Pressure, kPa = 101.3
Property: Molar heat capacity at constant pressure, J/K/mol (Liquid); method: Small sample (50 mg) DSC
Mass fraction of 1,3-propanediol, 2-amino-2-(hydroxymethyl)-	Mass fraction of propylene glycol	Temperature, K	Molar heat capacity at constant pressure, J/K/mol	uncertainty
.04	.4	303.15	170.5	.27
.04	.4	308.15	171.4	.27
.04	.4	313.15	172.3	.27
.04	.4	318.15	172.8	.27
.04	.4	323.15	173.6	.27
.04	.4	328.15	174.3	.27
.04	.4	333.15	175.3	.27
.04	.4	338.15	176.1	.27
.04	.4	343.15	177	.27
.04	.4	348.15	177.9	.27
.04	.4	353.15	179	.27
.09	.4	303.15	183.2	.27
.09	.4	308.15	184.1	.27
.09	.4	313.15	185.1	.27
.09	.4	318.15	185.8	.27
.09	.4	323.15	187	.27
.09	.4	328.15	187.7	.27
.09	.4	333.15	189.1	.27
.09	.4	338.15	190.1	.27
.09	.4	343.15	191.1	.27
.09	.4	348.15	192.4	.27
.09	.4	353.15	193.6	.27
.16	.4	303.15	200.1	.27
.16	.4	308.15	201.8	.27
.16	.4	313.15	203.2	.27
.16	.4	318.15	204.3	.27
.16	.4	323.15	205.9	.27
.16	.4	328.15	207	.27
.16	.4	333.15	208.7	.27
.16	.4	338.15	209.9	.27
.16	.4	343.15	211.4	.27
.16	.4	348.15	212.8	.27
.16	.4	353.15	214.5	.27

System: 1,3-propanediol, 2-amino-2-(hydroxymethyl)- + water + 3,3'-oxybispropanol; phases: Liquid
Fixed: Pressure, kPa = 101.3
Property: Molar heat capacity at constant pressure, J/K/mol (Liquid); method: Small sample (50 mg) DSC
Mass fraction of 1,3-propanediol, 2-amino-2-(hydroxymethyl)-	Mass fraction of 3,3'-oxybispropanol	Temperature, K	Molar heat capacity at constant pressure, J/K/mol	uncertainty
.04	.4	303.15	261.1	.27
.04	.4	308.15	262.1	.27
.04	.4	313.15	263.3	.27
.04	.4	318.15	263.9	.27
.04	.4	323.15	265.2	.27
.04	.4	328.15	265.9	.27
.04	.4	333.15	267.3	.27
.04	.4	338.15	268.2	.27
.04	.4	343.15	269.4	.27
.04	.4	348.15	270.6	.27
.04	.4	353.15	271.5	.27
.09	.4	303.15	273.1	.27
.09	.4	308.15	274.4	.27
.09	.4	313.15	275.7	.27
.09	.4	318.15	276.5	.27
.09	.4	323.15	278.2	.27
.09	.4	328.15	279.1	.27
.09	.4	333.15	280.8	.27
.09	.4	338.15	282.1	.27
.09	.4	343.15	283.4	.27
.09	.4	348.15	285	.27
.09	.4	353.15	286.9	.27
.16	.4	303.15	294.6	.27
.16	.4	308.15	296.4	.27
.16	.4	313.15	298.2	.27
.16	.4	318.15	299.4	.27
.16	.4	323.15	301.7	.27
.16	.4	328.15	303.4	.27
.16	.4	333.15	305.4	.27
.16	.4	338.15	307.2	.27
.16	.4	343.15	309.2	.27
.16	.4	348.15	310.9	.27
.16	.4	353.15	313.2	.27

System: 1,3-propanediol, 2-amino-2-(hydroxymethyl)- + water + tripropylene glycol; phases: Liquid
Fixed: Pressure, kPa = 101.3
Property: Molar heat capacity at constant pressure, J/K/mol (Liquid); method: Small sample (50 mg) DSC
Mass fraction of 1,3-propanediol, 2-amino-2-(hydroxymethyl)-	Mass fraction of tripropylene glycol	Temperature, K	Molar heat capacity at constant pressure, J/K/mol	uncertainty
.04	.4	303.15	358.9	.27
.04	.4	308.15	360.7	.27
.04	.4	313.15	362.6	.27
.04	.4	318.15	363.8	.27
.04	.4	323.15	366.1	.27
.04	.4	328.15	367.3	.27
.04	.4	333.15	369.5	.27
.04	.4	338.15	371.2	.27
.04	.4	343.15	373.6	.27
.04	.4	348.15	375.3	.27
.04	.4	353.15	377.9	.27
.09	.4	303.15	366.5	.27
.09	.4	308.15	368.4	.27
.09	.4	313.15	370.2	.27
.09	.4	318.15	371.7	.27
.09	.4	323.15	373.5	.27
.09	.4	328.15	375.5	.27
.09	.4	333.15	377.2	.27
.09	.4	338.15	379.1	.27
.09	.4	343.15	381.3	.27
.09	.4	348.15	383.3	.27
.09	.4	353.15	385.6	.27
.16	.4	303.15	378.3	.27
.16	.4	308.15	380.4	.27
.16	.4	313.15	383.2	.27
.16	.4	318.15	384.4	.27
.16	.4	323.15	386.9	.27
.16	.4	328.15	388.7	.27
.16	.4	333.15	391.5	.27
.16	.4	338.15	393.5	.27
.16	.4	343.15	395.8	.27
.16	.4	348.15	398.1	.27
.16	.4	353.15	401	.27
