Measured thermophysical data. Solubilities of carbon dioxide in the eutectic mixture of levulinic acid (or furfuryl alcohol) and choline chloride
Source: J. Chem. Thermodyn., 2015, 10.1016/j.jct.2015.04.021
Compound 1: carbon dioxide, CO2, purity 99.95%
Compound 2: choline chloride, C5H14ClNO, purity 98.5%
Compound 3: levulinic acid, C5H8O3, purity 98.5%
Compound 4: furfuryl alcohol, C5H6O2, purity 98.2%

System: choline chloride + levulinic acid; phases: Crystal, Crystal, Liquid, Air at 1 atmosphere
Fixed: Pressure, kPa = 101.325
Property: Eutectic temperature, K (Crystal); method: DSC/DTA
Eutectic temperature, K	uncertainty
262.7	

System: choline chloride + levulinic acid; phases: Liquid
Fixed: Pressure, kPa = 101.3
Property: Mass density, kg/m3 (Liquid); method: Pycnometric method
Temperature, K	Mole fraction of levulinic acid	Mass density, kg/m3	uncertainty
303.15	.75	1134.6	.8
303.15	.8	1134.1	.8
303.15	.833	1133.7	.8
313.15	.75	1127.6	.8
313.15	.8	1127.3	.8
313.15	.833	1127	.8
323.15	.75	1120.9	.8
323.15	.8	1120.4	.8
323.15	.833	1120.2	.8
333.15	.75	1113.8	.8
333.15	.8	1113.1	.8
333.15	.833	1113	.8

System: choline chloride + levulinic acid; phases: Liquid, Gas
Property: Vapor or sublimation pressure, kPa (Liquid); method: Rate of evaporation
Temperature, K	Mole fraction of levulinic acid	Vapor or sublimation pressure, kPa	uncertainty
333.15	.75	.0043	.001
333.15	.8	.0055	.001
333.15	.833	.0077	.001

System: choline chloride + furfuryl alcohol; phases: Crystal, Crystal, Liquid, Air at 1 atmosphere
Fixed: Pressure, kPa = 101.325
Property: Eutectic temperature, K (Crystal); method: DSC/DTA
Eutectic temperature, K	uncertainty
238.5	

System: choline chloride + furfuryl alcohol; phases: Liquid
Fixed: Pressure, kPa = 101.3
Property: Mass density, kg/m3 (Liquid); method: Pycnometric method
Temperature, K	Mole fraction of furfuryl alcohol	Mass density, kg/m3	uncertainty
303.15	.75	1131.8	.8
303.15	.8	1131.5	.8
303.15	.833	1130.9	.8
313.15	.75	1125.2	.8
313.15	.8	1124.3	.8
313.15	.833	1123.8	.8
323.15	.75	1118.6	.8
323.15	.8	1117.1	.8
323.15	.833	1116.6	.8
333.15	.75	1112	.8
333.15	.8	1109.9	.8
333.15	.833	1109.5	.8

System: choline chloride + furfuryl alcohol; phases: Liquid, Gas
Property: Vapor or sublimation pressure, kPa (Liquid); method: Rate of evaporation
Temperature, K	Mole fraction of furfuryl alcohol	Vapor or sublimation pressure, kPa	uncertainty
303.15	.75	.049	.001
303.15	.8	.057	.001
303.15	.833	.064	.001
313.15	.75	.114	.001
313.15	.8	.123	.001
313.15	.833	.133	.001
323.15	.75	.242	.001
323.15	.8	.255	.001
323.15	.833	.266	.001
333.15	.75	.436	.001
333.15	.8	.461	.001
333.15	.833	.479	.001

System: choline chloride + levulinic acid + carbon dioxide; phases: Liquid, Gas
Property: Mole fraction of carbon dioxide (Liquid); method: Volumetric
Solvent: Mole fraction of levulinic acid	Temperature, K	Pressure, kPa	Mole fraction of carbon dioxide	uncertainty
.75	303.15	79.4	.0043	.000086
.75	303.15	208.4	.0111	.000222
.75	303.15	310.9	.0164	.000328
.75	303.15	411.9	.0215	.00043
.75	303.15	510.9	.027	.00054
.75	303.15	570	.0302	.000604
.75	313.15	69.8	.0031	.000062
.75	313.15	202.5	.009	.00018
.75	313.15	306.8	.0138	.000276
.75	313.15	410.9	.0182	.000364
.75	313.15	508.5	.0228	.000456
.75	313.15	579.8	.0259	.000518
.75	323.15	80.8	.0027	.000054
.75	323.15	210	.0075	.00015
.75	323.15	314	.0113	.000226
.75	323.15	417.6	.015	.0003
.75	323.15	517.8	.0186	.000372
.75	323.15	579.7	.0208	.000416
.75	333.15	85.9	.0025	.00005
.75	333.15	219.8	.0066	.000132
.75	333.15	321.6	.0102	.000204
.75	333.15	425.2	.0133	.000266
.75	333.15	524.9	.0163	.000326
.75	333.15	583	.0183	.000366
.8	303.15	72.5	.0039	.000078
.8	303.15	201.2	.0109	.000218
.8	303.15	305.3	.0167	.000334
.8	303.15	410.6	.0227	.000454
.8	303.15	508.4	.0281	.000562
.8	303.15	574.9	.0316	.000632
.8	313.15	60	.0029	.000058
.8	313.15	176.9	.0085	.00017
.8	313.15	282.4	.0135	.00027
.8	313.15	380.1	.0185	.00037
.8	313.15	485.1	.0231	.000462
.8	313.15	565.9	.0273	.000546
.8	323.15	83	.0032	.000064
.8	323.15	219.6	.0084	.000168
.8	323.15	321.1	.0125	.00025
.8	323.15	423.5	.0167	.000334
.8	323.15	523.8	.0205	.00041
.8	323.15	584.2	.0229	.000458
.8	333.15	82.6	.0024	.000048
.8	333.15	218.5	.0072	.000144
.8	333.15	326	.0103	.000206
.8	333.15	426.2	.0138	.000276
.8	333.15	528.5	.0168	.000336
.8	333.15	587.4	.0185	.00037
.833	303.15	71.5	.0041	.000082
.833	303.15	188.9	.0112	.000224
.833	303.15	296.9	.0177	.000354
.833	303.15	401.7	.0237	.000474
.833	303.15	501.5	.0294	.000588
.833	303.15	566.7	.0333	.000666
.833	313.15	73.1	.0032	.000064
.833	313.15	200.1	.0096	.000192
.833	313.15	308.4	.0152	.000304
.833	313.15	412.2	.02	.0004
.833	313.15	511.4	.0248	.000496
.833	313.15	573.7	.0281	.000562
.833	323.15	75.6	.003	.00006
.833	323.15	208.8	.0083	.000166
.833	323.15	315.9	.0128	.000256
.833	323.15	418.4	.0174	.000348
.833	323.15	517.2	.0213	.000426
.833	323.15	579.9	.0239	.000478
.833	333.15	78.9	.0027	.000054
.833	333.15	216.1	.0074	.000148
.833	333.15	319.2	.011	.00022
.833	333.15	417.3	.0146	.000292
.833	333.15	519.7	.0179	.000358
.833	333.15	581	.0199	.000398

System: choline chloride + furfuryl alcohol + carbon dioxide; phases: Liquid, Gas
Property: Mole fraction of carbon dioxide (Liquid); method: Volumetric
Solvent: Mole fraction of furfuryl alcohol	Temperature, K	Pressure, kPa	Mole fraction of carbon dioxide	uncertainty
.75	303.15	80.9	.0029	.000058
.75	303.15	218.3	.0076	.000152
.75	303.15	323.7	.0114	.000228
.75	303.15	425.3	.0147	.000294
.75	303.15	524.1	.0179	.000358
.75	303.15	582.8	.0197	.000394
.75	313.15	80.8	.0024	.000048
.75	313.15	214.6	.0063	.000126
.75	313.15	321.4	.0095	.00019
.75	313.15	426.7	.0126	.000252
.75	313.15	523.2	.0155	.00031
.75	313.15	581.7	.0173	.000346
.75	323.15	81.5	.0023	.000046
.75	323.15	222.1	.0056	.000112
.75	323.15	329.6	.0084	.000168
.75	323.15	428.9	.011	.00022
.75	323.15	528.6	.0134	.000268
.75	323.15	585.3	.0148	.000296
.75	333.15	86.3	.0018	.000036
.75	333.15	224.4	.0047	.000094
.75	333.15	330.3	.0072	.000144
.75	333.15	430.4	.0095	.00019
.75	333.15	530.6	.0118	.000236
.75	333.15	586.4	.0129	.000258
.8	303.15	82.5	.0032	.000064
.8	303.15	212.1	.0082	.000164
.8	303.15	319.3	.0126	.000252
.8	303.15	412.5	.0166	.000332
.8	303.15	519.3	.0205	.00041
.8	303.15	581.5	.0228	.000456
.8	313.15	70.3	.0025	.00005
.8	313.15	192.2	.0064	.000128
.8	313.15	295.4	.0099	.000198
.8	313.15	403.5	.0133	.000266
.8	313.15	502.8	.0165	.00033
.8	313.15	568.8	.0183	.000366
.8	323.15	65.2	.0021	.000042
.8	323.15	188.1	.0053	.000106
.8	323.15	296.2	.0085	.00017
.8	323.15	399.3	.0115	.00023
.8	323.15	494.2	.0143	.000286
.8	323.15	565.8	.0164	.000328
.8	333.15	86.8	.0022	.000044
.8	333.15	220.3	.0054	.000108
.8	333.15	326.1	.008	.00016
.8	333.15	426.6	.0108	.000216
.8	333.15	529.6	.0131	.000262
.8	333.15	585.4	.0146	.000292
.833	303.15	77.3	.0031	.000062
.833	303.15	210.2	.0085	.00017
.833	303.15	316.5	.0125	.00025
.833	303.15	414.7	.0167	.000334
.833	303.15	516.3	.0207	.000414
.833	303.15	577.4	.0234	.000468
.833	313.15	70.9	.0025	.00005
.833	313.15	203.4	.0071	.000142
.833	313.15	304.7	.0106	.000212
.833	313.15	404.9	.0141	.000282
.833	313.15	505.2	.0176	.000352
.833	313.15	570.2	.0198	.000396
.833	323.15	71.3	.0023	.000046
.833	323.15	194.1	.0061	.000122
.833	323.15	301	.0094	.000188
.833	323.15	403.6	.0126	.000252
.833	323.15	502.8	.0158	.000316
.833	323.15	573.1	.018	.00036
.833	333.15	74.9	.002	.00004
.833	333.15	204.2	.0054	.000108
.833	333.15	315.2	.0084	.000168
.833	333.15	409.6	.0111	.000222
.833	333.15	511.7	.0137	.000274
.833	333.15	577.2	.0154	.000308
