Measured thermophysical data. Volumetric properties of the (tetrahydrofuran + water) and (tetra-n-butyl  ammonium bromide + water) systems: Experimental measurements  and correlations
Source: J. Chem. Thermodyn., 2009, 10.1016/j.jct.2009.06.014
Compound 1: tetrahydrofuran, C4H8O, purity 99.5%
Compound 2: tetrabutylammonium bromide, C16H36BrN, purity 99%
Compound 3: water, H2O, purity 99.8%

System: tetrahydrofuran + water; phases: Liquid
Fixed: Pressure, kPa = 101
Property: Mass density, kg/m3 (Liquid); method: Vibrating tube method
Temperature, K	Mole fraction of water	Mass density, kg/m3	uncertainty
293.15	1	998.21	.1
293.15	.9719	995.94	.1
293.15	.9402	992.74	.1
293.15	.9025	987.96	.1
293.15	.8555	979.39	.1
293.15	.8027	968.99	.1
293.15	.6429	944.68	.1
293.15	.5048	927.43	.1
293.15	.307	909.02	.1
293.15	0	889.47	.1
298.15	1	997.05	.1
298.15	.9719	995.45	.1
298.15	.9402	991.5	.1
298.15	.9025	986.24	.1
298.15	.8555	976.67	.1
298.15	.8027	965.85	.1
298.15	.6429	940.84	.1
298.15	.5048	923.37	.1
298.15	.307	904.73	.1
298.15	0	885.04	.1
303.15	1	995.64	.1
303.15	.9719	994.98	.1
303.15	.9402	990.32	.1
303.15	.9025	984.38	.1
303.15	.8555	974.08	.1
303.15	.8027	962.77	.1
303.15	.6429	937.15	.1
303.15	.5048	919.45	.1
303.15	.307	900.6	.1
303.15	0	880.76	.1
308.15	1	994.03	.1
308.15	.9719	994.52	.1
308.15	.9402	989.18	.1
308.15	.9025	982.6	.1
308.15	.8555	971.62	.1
308.15	.8027	959.82	.1
308.15	.6429	933.61	.1
308.15	.5048	915.67	.1
308.15	.307	896.6	.1
308.15	0	876.63	.1
313.15	1	992.21	.1
313.15	.9719	994.07	.1
313.15	.9402	988.11	.1
313.15	.9025	980.91	.1
313.15	.8555	969.26	.1
313.15	.8027	956.98	.1
313.15	.6429	930.19	.1
313.15	.5048	912.03	.1
313.15	.307	892.72	.1
313.15	0	872.62	.1
318.15	1	990.2	.1
318.15	.9719	993.63	.1
318.15	.9402	987.04	.1
318.15	.9025	979.36	.1
318.15	.8555	966.98	.1
318.15	.8027	954.25	.1
318.15	.6429	926.87	.1
318.15	.5048	908.48	.1
318.15	.307	888.93	.1
318.15	0	868.72	.1
323.15	1	988.02	.1
323.15	.9719	993.19	.1
323.15	.9402	986	.1
323.15	.9025	977.79	.1
323.15	.8555	964.79	.1
323.15	.8027	951.59	.1
323.15	.6429	923.65	.1
323.15	.5048	905.02	.1
323.15	.307	885.23	.1
323.15	0	864.91	.1
328.15	1	985.68	.1
328.15	.9719	992.76	.1
328.15	.9402	985.02	.1
328.15	.9025	976.28	.1
328.15	.8555	962.66	.1
328.15	.8027	949.01	.1
328.15	.6429	920.5	.1
328.15	.5048	901.65	.1
328.15	.307	881.59	.1
328.15	0	861.19	.1
333.15	1	983.17	.1
333.15	.9719	992.33	.1
333.15	.9402	983.98	.1
333.15	.9025	974.8	.1
333.15	.8555	960.59	.1
333.15	.8027	946.48	.1
333.15	.6429	917.43	.1
333.15	.5048	898.3	.1
333.15	.307	878.02	.1
333.15	0	855.57	.1

System: tetrabutylammonium bromide + water; phases: Liquid
Fixed: Pressure, kPa = 101
Property: Mass density, kg/m3 (Liquid); method: Vibrating tube method
Temperature, K	Mass fraction of tetrabutylammonium bromide	Mass density, kg/m3	uncertainty
293.15	.0697	1003.85	.1
298.15	.0697	1002.43	.1
303.15	.0697	1000.8	.1
308.15	.0697	998.95	.1
313.15	.0697	996.91	.1
318.15	.0697	994.7	.1
323.15	.0697	992.32	.1
328.15	.0697	989.78	.1
333.15	.0697	987.09	.1
293.15	.0999	1006.63	.1
298.15	.0999	1005.08	.1
303.15	.0999	1003.31	.1
308.15	.0999	1001.34	.1
313.15	.0999	999.19	.1
318.15	.0999	996.86	.1
323.15	.0999	994.38	.1
328.15	.0999	991.74	.1
333.15	.0999	988.96	.1
293.15	.15	1011.35	.1
298.15	.15	1009.55	.1
303.15	.15	1007.54	.1
308.15	.15	1005.34	.1
313.15	.15	1002.97	.1
318.15	.15	1000.45	.1
323.15	.15	997.78	.1
328.15	.15	994.96	.1
333.15	.15	992	.1
293.15	.1996	1017.09	.1
298.15	.1996	1015.11	.1
303.15	.1996	1012.76	.1
308.15	.1996	1010.24	.1
313.15	.1996	1007.59	.1
318.15	.1996	1004.8	.1
323.15	.1996	1001.88	.1
328.15	.1996	998.84	.1
333.15	.1996	995.69	.1
293.15	.25	1021.73	.1
298.15	.25	1019.26	.1
303.15	.25	1016.66	.1
308.15	.25	1013.92	.1
313.15	.25	1011.06	.1
318.15	.25	1008.08	.1
323.15	.25	1005	.1
328.15	.25	1001.81	.1
333.15	.25	998.5	.1
293.15	.2998	1030.49	.1
298.15	.2998	1027.44	.1
303.15	.2998	1024.31	.1
308.15	.2998	1021.1	.1
313.15	.2998	1017.82	.1
318.15	.2998	1014.47	.1
323.15	.2998	1011.05	.1
328.15	.2998	1007.56	.1
333.15	.2998	1004	.1
293.15	.3499	1030.98	.1
298.15	.3499	1027.91	.1
303.15	.3499	1024.77	.1
308.15	.3499	1021.55	.1
313.15	.3499	1018.26	.1
318.15	.3499	1014.9	.1
323.15	.3499	1011.47	.1
328.15	.3499	1007.97	.1
333.15	.3499	1004.4	.1
293.15	.4002	1036.25	.1
298.15	.4002	1032.9	.1
303.15	.4002	1029.49	.1
308.15	.4002	1026.04	.1
313.15	.4002	1022.53	.1
318.15	.4002	1018.98	.1
323.15	.4002	1015.38	.1
328.15	.4002	1011.71	.1
333.15	.4002	1008	.1
293.15	.4498	1041.41	.1
298.15	.4498	1037.83	.1
303.15	.4498	1034.23	.1
308.15	.4498	1030.59	.1
313.15	.4498	1026.92	.1
318.15	.4498	1023.21	.1
323.15	.4498	1019.46	.1
328.15	.4498	1015.67	.1
333.15	.4498	1011.83	.1
293.15	.5	1044.73	.1
298.15	.5	1041.06	.1
303.15	.5	1037.36	.1
308.15	.5	1033.62	.1
313.15	.5	1029.85	.1
318.15	.5	1026.05	.1
323.15	.5	1022.22	.1
328.15	.5	1018.35	.1
333.15	.5	1014.45	.1
