Measured thermophysical data. Solubilities of hydrofluorocarbons in ionic liquids: Experimental and modelling study
Source: J. Chem. Thermodyn., 2014, 10.1016/j.jct.2013.07.013
Compound 1: trifluoromethane, CHF3, purity 99%
Compound 2: difluoromethane, CH2F2, purity 99%
Compound 3: fluoromethane, CH3F, purity 99%
Compound 4: trihexyl(tetradecyl)phosphonium bis(trifluoromethylsulfonyl)imide, C34H68F6NO4PS2, purity 98%
Compound 5: N-methyl-2-hydroxyethylammonium propionate, C6H15NO3, purity 98%
Compound 6: N-methyl-2-hydroxyethylammonium pentanoate, C8H19NO3, purity 98%
Compound 7: 1-ethyl-3-methylimidazolium bis[(trifluoromethyl)sulfonyl]amide, C8H11F6N3O4S2, purity 98%

System: trifluoromethane + 1-ethyl-3-methylimidazolium bis[(trifluoromethyl)sulfonyl]amide; phases: Liquid, Gas
Property: Mole fraction of trifluoromethane (Liquid); method: Volumetric Method
Pressure, kPa	Temperature, K	Mole fraction of trifluoromethane	uncertainty
100.65	288.13	.03627	.00003627
106.59	293.23	.03501	.00003501
98.97	298.16	.02986	.00002986
102.8	303.17	.02781	.00002781
103.28	308.17	.02542	.00002542

System: difluoromethane + 1-ethyl-3-methylimidazolium bis[(trifluoromethyl)sulfonyl]amide; phases: Liquid, Gas
Property: Mole fraction of difluoromethane (Liquid); method: Volumetric Method
Pressure, kPa	Temperature, K	Mole fraction of difluoromethane	uncertainty
102.8	288.11	.1135	.0001135
102.03	293.56	.09844	.00009844
102.8	298.33	.09025	.00009025
104.47	303.27	.07982	.00007982
104.43	308.19	.0715	.0000715

System: fluoromethane + 1-ethyl-3-methylimidazolium bis[(trifluoromethyl)sulfonyl]amide; phases: Liquid, Gas
Property: Mole fraction of fluoromethane (Liquid); method: volumetric method
Pressure, kPa	Temperature, K	Mole fraction of fluoromethane	uncertainty
105.12	288.15	.05714	.00005714
103.67	293.43	.04863	.00004863
104.93	298.19	.04624	.00004624
101.28	303.17	.04015	.00004015
107.63	308.19	.03988	.00003988

System: trifluoromethane + trihexyl(tetradecyl)phosphonium bis(trifluoromethylsulfonyl)imide; phases: Liquid, Gas
Property: Mole fraction of trifluoromethane (Liquid); method: volumetric method
Pressure, kPa	Temperature, K	Mole fraction of trifluoromethane	uncertainty
97.04	288.15	.05886	.00005886
100.03	293.15	.05717	.00005717
99.88	298.15	.05184	.00005184
99.11	303.19	.04623	.00004623
101.68	308.39	.0436	.0000436

System: difluoromethane + trihexyl(tetradecyl)phosphonium bis(trifluoromethylsulfonyl)imide; phases: Liquid, Gas
Property: Mole fraction of difluoromethane (Liquid); method: Volumetric method
Pressure, kPa	Temperature, K	Mole fraction of difluoromethane	uncertainty
104.36	288.15	.133	.000133
104.6	293.21	.1235	.0001235
106.86	298.35	.119	.000119
102.73	303.19	.1058	.0001058
102.49	308.23	.1004	.0001004

System: fluoromethane + trihexyl(tetradecyl)phosphonium bis(trifluoromethylsulfonyl)imide; phases: Liquid, Gas
Property: Mole fraction of fluoromethane (Liquid); method: volumetric method
Pressure, kPa	Temperature, K	Mole fraction of fluoromethane	uncertainty
103.13	288.15	.09092	.00009092
100.02	293.15	.0814	.0000814
99.97	298.36	.07676	.00007676
102.64	303.15	.07486	.00007486
99.11	308.15	.06653	.00006653

System: trifluoromethane + N-methyl-2-hydroxyethylammonium propionate; phases: Liquid, Gas
Property: Mole fraction of trifluoromethane (Liquid); method: volumetric method
Pressure, kPa	Temperature, K	Mole fraction of trifluoromethane	uncertainty
102.54	288.15	.01444	.00001444
101.02	293.21	.01294	.00001294
104.31	298.17	.01156	.00001156
100.05	303.27	.01072	.00001072
105.71	308.23	.01035	.00001035

System: difluoromethane + N-methyl-2-hydroxyethylammonium propionate; phases: Liquid, Gas
Property: Mole fraction of difluoromethane (Liquid); method: volumetric method
Pressure, kPa	Temperature, K	Mole fraction of difluoromethane	uncertainty
102.54	288.15	.03624	.00003624
101.02	293.21	.0314	.0000314
104.31	298.17	.02806	.00002806
100.05	303.27	.02454	.00002454
105.71	308.23	.02435	.00002435

System: fluoromethane + N-methyl-2-hydroxyethylammonium propionate; phases: Liquid, Gas
Property: Mole fraction of fluoromethane (Liquid); method: volumetric method
Pressure, kPa	Temperature, K	Mole fraction of fluoromethane	uncertainty
99.93	288.15	.01542	.00001542
102.02	293.27	.01412	.00001412
104.49	298.17	.01297	.00001297
103.03	303.19	.0121	.0000121
102.27	308.23	.01095	.00001095

System: trifluoromethane + N-methyl-2-hydroxyethylammonium pentanoate; phases: Liquid, Gas
Property: Mole fraction of trifluoromethane (Liquid); method: volumetric method
Pressure, kPa	Temperature, K	Mole fraction of trifluoromethane	uncertainty
100.82	288.15	.0204	.0000204
105.56	293.15	.01924	.00001924
103.71	298.73	.01816	.00001816
100.43	303.15	.01627	.00001627
105.45	308.36	.01549	.00001549

System: fluoromethane + N-methyl-2-hydroxyethylammonium pentanoate; phases: Liquid, Gas
Property: Mole fraction of fluoromethane (Liquid); method: volumetric method
Pressure, kPa	Temperature, K	Mole fraction of fluoromethane	uncertainty
102.51	288.15	.02153	.00002153
104.14	293.17	.02021	.00002021
100.23	298.45	.01843	.00001843
102.14	303.17	.01748	.00001748
101.48	308.17	.01678	.00001678

System: difluoromethane + N-methyl-2-hydroxyethylammonium pentanoate; phases: Liquid, Gas
Property: Mole fraction of difluoromethane (Liquid); method: volumetric method
Pressure, kPa	Temperature, K	Mole fraction of difluoromethane	uncertainty
106.5	288.15	.04684	.00004684
102.68	293.15	.04	.00004
103.09	298.15	.03761	.00003761
104.38	303.32	.03317	.00003317
105.88	308.21	.03055	.00003055
