Measured thermophysical data. Solubility of rutaecarpine and evodiamine in (ethanol + water) mixed solvents at temperatures from (288.2 to 328.2) K
Source: J. Chem. Thermodyn., 2015, 10.1016/j.jct.2014.12.004
Compound 1: Rutecarpine, C18H13N3O, purity 98%
Compound 2: evodiamine, C19H17N3O, purity 98%
Compound 3: ethanol, C2H6O, purity 99%
Compound 4: water, H2O

System: Rutecarpine; phases: Crystal, Liquid, Air at 1 atmosphere
Property: Normal melting temperature, K (Crystal); method: DSC/DTA
Normal melting temperature, K	uncertainty
532.2	.1

System: evodiamine; phases: Crystal, Liquid, Air at 1 atmosphere
Property: Normal melting temperature, K (Crystal); method: DSC/DTA
Normal melting temperature, K	uncertainty
548.2	.1

System: ethanol + Rutecarpine + water; phases: Liquid, Crystal
Fixed: Pressure, kPa = 101.1
Property: Mole fraction of Rutecarpine (Liquid); method: Chromatography
Temperature, K	Solvent: Mole fraction of ethanol	Mole fraction of Rutecarpine	uncertainty
288.2	.3	.00000939	.00000074
298.2	.3	.00001516	.0000006
308.2	.3	.00001892	.00000093
318.2	.3	.00003094	.00000058
328.2	.3	.0000485	.00000148
288.2	.4	.00002336	.00000072
298.2	.4	.0000372	.00000209
308.2	.4	.00004479	.00000083
318.2	.4	.00007406	.00000255
328.2	.4	.00011122	.00000279
288.2	.5	.00004787	.00000279
298.2	.5	.00006452	.00000267
308.2	.5	.00007524	.00000435
318.2	.5	.00011921	.00000328
328.2	.5	.00016952	.00000495
288.2	.6	.00007744	.00000261
298.2	.6	.00010099	.00000499
308.2	.6	.00012325	.00000444
318.2	.6	.00017517	.0000042
328.2	.6	.00025497	.00000245
288.2	.7	.00009139	.00000084
298.2	.7	.0001323	.0000062
308.2	.7	.00016344	.00000021
318.2	.7	.0002198	.00000739
328.2	.7	.00033049	.0000052
288.2	.8	.00011563	.00000703
298.2	.8	.00016095	.00000243
308.2	.8	.00018679	.00000306
318.2	.8	.00026568	.00000173
328.2	.8	.00036575	.00001546

System: ethanol + evodiamine + water; phases: Liquid, Crystal
Fixed: Pressure, kPa = 101.1
Property: Mole fraction of evodiamine (Liquid); method: Chromatography
Temperature, K	Solvent: Mole fraction of ethanol	Mole fraction of evodiamine	uncertainty
288.2	.3	.00000313	.00000024
298.2	.3	.00000498	.00000007
308.2	.3	.00000869	.00000013
318.2	.3	.00001405	.00000013
328.2	.3	.00002448	.00000097
288.2	.4	.00000828	.00000013
298.2	.4	.00001241	.00000014
308.2	.4	.00002086	.00000113
318.2	.4	.00003309	.00000039
328.2	.4	.0000522	.00000062
288.2	.5	.00001591	.00000066
298.2	.5	.00002321	.0000004
308.2	.5	.00003871	.00000112
318.2	.5	.0000583	.00000147
328.2	.5	.00009041	.00000206
288.2	.6	.00002511	.00000046
298.2	.6	.00003634	.00000069
308.2	.6	.00005783	.00000144
318.2	.6	.00008722	.00000199
328.2	.6	.0001311	.00000149
288.2	.7	.00003571	.00000043
298.2	.7	.00005105	.00000118
308.2	.7	.00008116	.00000164
318.2	.7	.00011709	.00000152
328.2	.7	.00017255	.00000083
288.2	.8	.00004681	.00000192
298.2	.8	.00006476	.00000073
308.2	.8	.00009549	.00000058
318.2	.8	.00014102	.00000153
328.2	.8	.00020922	.00000342
