Measured thermophysical data. 2,1,3-Benzothiadiazole: study of its structure, energetics and aromaticity
Source: J. Chem. Thermodyn., 2012, 10.1016/j.jct.2012.02.005
Compound 1: piazthiole, C6H4N2S, purity 98%
Compound 2: sulfuric acid, H2O4S
Compound 3: carbon dioxide, CO2
Compound 4: nitrogen, diatomic, N2
Compound 5: water, H2O
Compound 6: oxygen, O2

System: piazthiole; phases: Crystal, Liquid, Air at 1 atmosphere
Property: Molar enthalpy of transition or fusion, kJ/mol (Crystal); method: DSC/DTA
Molar enthalpy of transition or fusion, kJ/mol	uncertainty
16.3	.04

System: piazthiole; phases: Crystal, Liquid, Air at 1 atmosphere
Property: Triple point temperature, K (Crystal); method: DSC/DTA
Triple point temperature, K	uncertainty
316.96	.04

Reaction: -1 piazthiole + 1 sulfuric acid + 6 carbon dioxide + 1 nitrogen, diatomic + 1 water + -8.5 oxygen
Property: Specific internal energy of reaction at constant volume, J/g
-27402.8
