Measured thermophysical data. New Knudsen effusion apparatus with simultaneous gravimetric and quartz crystal microbalance mass loss detection
Source: J. Chem. Thermodyn., 2011, 10.1016/j.jct.2010.12.022
Compound 1: anthracene, C14H10, purity 99%
Compound 2: benzene, 1,3,5-triphenyl-, C24H18, purity 97%
Compound 3: 7-oxobenz[de]anthracene, C17H10O, purity 98%

System: anthracene; phases: Crystal, Gas
Property: Vapor or sublimation pressure, kPa (Crystal); method: Knudsen effusion method
Temperature, K	Vapor or sublimation pressure, kPa	uncertainty
323.31	.0000221	
327.16	.0000351	
335.32	.0000842	
339.31	.00013	
343.32	.000197	
347.33	.000289	
351.33	.000424	
351.33	.000426	
355.33	.000634	
357.34	.000783	
359.33	.000945	
363.34	.001374	
367.35	.001967	
331.27	.0000547	
347.26	.000281	
351.27	.00043	
355.26	.000604	
359.26	.000876	
367.27	.001898	
371.35	.002859	
375.36	.004145	

System: anthracene; phases: Crystal, Gas
Property: Molar enthalpy of vaporization or sublimation, kJ/mol (Crystal); method: Derived by Second law
Temperature, K	Molar enthalpy of vaporization or sublimation, kJ/mol	uncertainty
298.15	101.8	.3
298.15	100.6	.9

System: benzene, 1,3,5-triphenyl-; phases: Crystal, Gas
Property: Vapor or sublimation pressure, kPa (Crystal); method: Knudsen effusion method
Temperature, K	Vapor or sublimation pressure, kPa	uncertainty
407.27	.000136	
413.28	.000252	
418.28	.000412	
423.28	.000671	
428.29	.001087	
404.34	.0000995	
408.35	.0001487	
412.35	.0002238	
416.37	.0003361	
420.39	.0005004	
424.42	.0007385	
428.45	.0010957	
405.34	.0001076	
410.36	.0001809	
414.37	.0002718	
418.39	.000405	
422.41	.000601	
426.43	.0008947	
408.34	.0001462	
412.35	.0002202	
416.35	.0003305	
420.36	.0004929	
424.37	.000729	
428.38	.0010799	

System: benzene, 1,3,5-triphenyl-; phases: Crystal, Gas
Property: Molar enthalpy of vaporization or sublimation, kJ/mol (Crystal); method: Derived by Second law
Temperature, K	Molar enthalpy of vaporization or sublimation, kJ/mol	uncertainty
298.15	147.7	1
298.15	147.9	1.1
298.15	148.4	1
298.15	149.5	1

System: 7-oxobenz[de]anthracene; phases: Crystal, Gas
Property: Vapor or sublimation pressure, kPa (Crystal); method: Knudsen effusion method
Temperature, K	Vapor or sublimation pressure, kPa	uncertainty
388.22	.0001308	
390.22	.0001594	
392.22	.0001937	
394.23	.0002331	
396.23	.0002797	
398.23	.0003376	
400.24	.000412	
402.24	.0004922	
389.22	.0001419	
391.22	.0001742	
393.23	.0002126	
395.24	.0002574	
397.24	.0003067	
399.24	.0003702	
401.24	.0004472	
403.25	.000532	
392.19	.0001926	
394.2	.000232	
396.2	.0002786	
398.2	.0003364	
400.21	.0004108	
402.21	.0004911	
404.21	.0005813	
406.21	.0007014	
408.22	.0008383	

System: 7-oxobenz[de]anthracene; phases: Crystal, Gas
Property: Molar enthalpy of vaporization or sublimation, kJ/mol (Crystal); method: Derived by Second law
Temperature, K	Molar enthalpy of vaporization or sublimation, kJ/mol	uncertainty
298.15	125.3	1.1
298.15	125.4	1.1
298.15	125.4	1
