Measured thermophysical data. Volumetric studies on binary mixtures of surfactants N,N'-bis(dimethyldodecyl)-1,2-ethanediammonium dibromide and 1-dodecyl-3-methylimidazolium bromide in aqueous solutions
Source: J. Chem. Thermodyn., 2015, 10.1016/j.jct.2014.12.006
Compound 1: 1-dodecyl-3-methylimidazolium bromide, C16H31BrN2, purity 99%
Compound 2: water, H2O
Compound 3: 1,2-bis(dimethyldodecylammonium)ethane dibromide, C30H66Br2N2

System: water; phases: Liquid
Property: Mass density, kg/m3 (Liquid); method: Vibrating tube method
Pressure, kPa	Temperature, K	Mass density, kg/m3	uncertainty
102	298.15	997.038	.05

System: water + 1,2-bis(dimethyldodecylammonium)ethane dibromide + 1-dodecyl-3-methylimidazolium bromide; phases: Liquid
Fixed: Pressure, kPa = 102
Fixed: Temperature, K = 298.15
Property: Mass density, kg/m3 (Liquid); method: Vibrating tube method
Molality, mol/kg of 1,2-bis(dimethyldodecylammonium)ethane dibromide	Molality, mol/kg of 1-dodecyl-3-methylimidazolium bromide	Mass density, kg/m3	uncertainty
0	0	997.04	.05
0	.00525	997.226	.05
0	.00574	997.243	.05
0	.00615	997.258	.05
0	.007	997.288	.05
0	.00733	997.299	.05
0	.00816	997.329	.05
0	.00869	997.347	.05
0	.0092	997.365	.05
0	.01006	997.396	.05
0	.01063	997.412	.05
0	.01124	997.43	.05
0	.01196	997.451	.05
0	.01274	997.474	.05
0	.01356	997.498	.05
0	.01464	997.529	.05
0	.01526	997.545	.05
0	.01629	997.575	.05
0	.01707	997.595	.05
0	0	997.04	.05
.000113	.001017	997.089	.05
.000141	.001269	997.101	.05
.000163	.001467	997.11	.05
.000178	.001602	997.117	.05
.000195	.001755	997.124	.05
.00021	.00189	997.13	.05
.00024	.00216	997.143	.05
.000289	.002601	997.162	.05
.000336	.003024	997.182	.05
.000366	.003294	997.192	.05
.000386	.003474	997.2	.05
.000469	.004221	997.231	.05
.00058	.00522	997.269	.05
.000669	.006021	997.301	.05
.000731	.006579	997.323	.05
.001011	.009099	997.416	.05
.001248	.011232	997.5	.05
0	0	997.038	.05
.000206	.000824	997.091	.05
.000254	.001016	997.103	.05
.000274	.001096	997.107	.05
.000286	.001144	997.11	.05
.000316	.001264	997.118	.05
.00034	.00136	997.124	.05
.000354	.001416	997.128	.05
.000406	.001624	997.141	.05
.000424	.001696	997.144	.05
.000468	.001872	997.154	.05
.0005	.002	997.161	.05
.000556	.002224	997.171	.05
.000624	.002496	997.183	.05
.000718	.002872	997.202	.05
.000838	.003352	997.224	.05
.000996	.003984	997.254	.05
0	0	997.04	.05
.000159	.000371	997.069	.05
.000213	.000497	997.079	.05
.000252	.000588	997.086	.05
.0003	.0007	997.095	.05
.000333	.000777	997.101	.05
.000375	.000875	997.109	.05
.000423	.000987	997.118	.05
.000462	.001078	997.125	.05
.000501	.001169	997.131	.05
.000543	.001267	997.139	.05
.000564	.001316	997.14	.05
.000603	.001407	997.146	.05
.000663	.001547	997.153	.05
.00075	.00175	997.165	.05
.000852	.001988	997.18	.05
.001008	.002352	997.201	.05
.001176	.002744	997.225	.05
0	0	997.042	.05
.000376	.000564	997.096	.05
.00042	.00063	997.102	.05
.000444	.000666	997.105	.05
.000476	.000714	997.11	.05
.000536	.000804	997.119	.05
.00058	.00087	997.125	.05
.000628	.000942	997.13	.05
.000724	.001086	997.142	.05
.00082	.00123	997.153	.05
.000924	.001386	997.164	.05
.001064	.001596	997.18	.05
.001288	.001932	997.203	.05
0	0	997.04	.05
.00024	.00024	997.071	.05
.000325	.000325	997.082	.05
.00038	.00038	997.089	.05
.000405	.000405	997.092	.05
.00046	.00046	997.099	.05
.00054	.00054	997.11	.05
.0006	.0006	997.117	.05
.00067	.00067	997.125	.05
.00075	.00075	997.133	.05
.000875	.000875	997.145	.05
.00094	.00094	997.151	.05
.0011	.0011	997.167	.05
.00135	.00135	997.19	.05
.00172	.00172	997.225	.05
0	0	997.04	.05
.000354	.000236	997.08	.05
.00039	.00026	997.084	.05
.000426	.000284	997.088	.05
.000486	.000324	997.095	.05
.000558	.000372	997.103	.05
.000636	.000424	997.112	.05
.000708	.000472	997.119	.05
.000804	.000536	997.129	.05
.000876	.000584	997.136	.05
.00099	.00066	997.147	.05
.001062	.000708	997.152	.05
.001236	.000824	997.168	.05
.001494	.000996	997.19	.05
.001704	.001136	997.208	.05
.002088	.001392	997.243	.05
0	0	997.042	.05
.000315	.000135	997.073	.05
.000378	.000162	997.079	.05
.000427	.000183	997.084	.05
.000469	.000201	997.087	.05
.000553	.000237	997.096	.05
.000686	.000294	997.108	.05
.000714	.000306	997.111	.05
.000791	.000339	997.118	.05
.000924	.000396	997.13	.05
.001092	.000468	997.144	.05
.001288	.000552	997.162	.05
.001449	.000621	997.175	.05
.001792	.000768	997.205	.05
.002366	.001014	997.253	.05
.003367	.001443	997.336	.05
.004529	.001941	997.434	.05
.005152	.002208	997.48	.05
0	0	997.04	.05
.000432	.000108	997.081	.05
.000488	.000122	997.087	.05
.000544	.000136	997.092	.05
.000624	.000156	997.1	.05
.000696	.000174	997.106	.05
.000752	.000188	997.112	.05
.000824	.000206	997.119	.05
.000856	.000214	997.122	.05
.000976	.000244	997.132	.05
.001056	.000264	997.139	.05
.0012	.0003	997.151	.05
.001328	.000332	997.161	.05
.001448	.000362	997.17	.05
.001656	.000414	997.186	.05
.002048	.000512	997.217	.05
.00268	.00067	997.267	.05
.003864	.000966	997.361	.05
0	0	997.041	.05
.000423	.000047	997.08	.05
.000486	.000054	997.086	.05
.00054	.00006	997.091	.05
.000603	.000067	997.097	.05
.000693	.000077	997.106	.05
.000801	.000089	997.116	.05
.000864	.000096	997.122	.05
.000918	.000102	997.126	.05
.000963	.000107	997.129	.05
.001107	.000123	997.14	.05
.001314	.000146	997.155	.05
.001503	.000167	997.169	.05
.001683	.000187	997.18	.05
.001926	.000214	997.196	.05
0	0	997.034	.05
.0005	0	997.078	.05
.00056	0	997.083	.05
.00065	0	997.091	.05
.0007	0	997.095	.05
.00079	0	997.103	.05
.00089	0	997.112	.05
.00095	0	997.117	.05
.00104	0	997.124	.05
.00107	0	997.126	.05
.00119	0	997.136	.05
.0013	0	997.144	.05
.00142	0	997.153	.05
.00168	0	997.172	.05

System: water + 1-dodecyl-3-methylimidazolium bromide; phases: Liquid
Property: Mass density, kg/m3 (Liquid); method: Vibrating tube method
Molality, mol/kg of 1-dodecyl-3-methylimidazolium bromide	Pressure, kPa	Temperature, K	Mass density, kg/m3	uncertainty
.00525	102	298.15	997.226	.05
.00574	102	298.15	997.243	.05
.00615	102	298.15	997.258	.05
.007	102	298.15	997.288	.05
.00733	102	298.15	997.299	.05
.00816	102	298.15	997.329	.05
.00869	102	298.15	997.347	.05
.0092	102	298.15	997.365	.05
.01006	102	298.15	997.396	.05
.01063	102	298.15	997.412	.05
.01124	102	298.15	997.43	.05
.01196	102	298.15	997.451	.05
.01274	102	298.15	997.474	.05
.01356	102	298.15	997.498	.05
.01464	102	298.15	997.529	.05
.01526	102	298.15	997.545	.05
.01629	102	298.15	997.575	.05
.01707	102	298.15	997.595	.05

System: water + 1,2-bis(dimethyldodecylammonium)ethane dibromide; phases: Liquid
Property: Mass density, kg/m3 (Liquid); method: Vibrating tube method
Molality, mol/kg of 1,2-bis(dimethyldodecylammonium)ethane dibromide	Pressure, kPa	Temperature, K	Mass density, kg/m3	uncertainty
.0005	102	298.15	997.078	.05
.00056	102	298.15	997.083	.05
.00065	102	298.15	997.091	.05
.0007	102	298.15	997.095	.05
.00079	102	298.15	997.103	.05
.00089	102	298.15	997.112	.05
.00095	102	298.15	997.117	.05
.00104	102	298.15	997.124	.05
.00107	102	298.15	997.126	.05
.00119	102	298.15	997.136	.05
.0013	102	298.15	997.144	.05
.00142	102	298.15	997.153	.05
.00168	102	298.15	997.172	.05
