Measured thermophysical data. Bis(trifluoromethylsulfonyl)imide, or dicyanamide-based ionic liquids in the liquid liquid extraction of hex-1-ene from hexane and cyclohexene from cyclohexane
Source: J. Chem. Thermodyn., 2017, 10.1016/j.jct.2016.10.041
Compound 1: cyclohexane, C6H12, purity 99.5%
Compound 2: cyclohexene, C6H10, purity 99.5%
Compound 3: hexane, C6H14, purity 99.0%
Compound 4: hex-1-ene, C6H12, purity 98.0%
Compound 5: 1-allyl-3-methylimidazolium bis(trifluoromethylsulfonyl)imide, C9H11F6N3O4S2, purity 98.0%
Compound 6: 1-allyl-3-methylimidazolium dicyanamide, C9H11N5, purity 98.0%
Compound 7: 1-benzyl-3-methylimidazolium bis[(trifluoromethane)sulfonyl]amide, C13H13F6N3O4S2, purity 99.0%
Compound 8: 1-benzyl-3-methylimidazolium dicyanamide, C13H13N5, purity 98.0%

System: hexane + hex-1-ene + 1-allyl-3-methylimidazolium bis(trifluoromethylsulfonyl)imide; phases: Liquid mixture 2, Liquid mixture 1
Fixed: Temperature, K = 298.15
Fixed: Pressure, kPa = 101
Property: Mole fraction of 1-allyl-3-methylimidazolium bis(trifluoromethylsulfonyl)imide (Liquid mixture 2); method: Chromatography
Property: Mole fraction of hex-1-ene (Liquid mixture 1); method: Chromatography
Property: Mole fraction of 1-allyl-3-methylimidazolium bis(trifluoromethylsulfonyl)imide (Liquid mixture 1); method: Chromatography
Mole fraction of hex-1-ene	Mole fraction of 1-allyl-3-methylimidazolium bis(trifluoromethylsulfonyl)imide	uncertainty	Mole fraction of hex-1-ene	uncertainty	Mole fraction of 1-allyl-3-methylimidazolium bis(trifluoromethylsulfonyl)imide	uncertainty
0	.952	.005	0	.005	0	.005
.062	.919	.005	.601	.005	0	.005
.067	.916	.005	.656	.005	0	.005
.074	.912	.005	.723	.005	0	.005
.077	.911	.005	.753	.005	0	.005
.087	.906	.005	.84	.005	0	.005
.094	.902	.005	.921	.005	0	.005
.1	.899	.005	.979	.005	0	.005
.101	.899	.005	1	.005	0	.005
.001	.951	.005	.015	.005	0	.005
.005	.949	.005	.051	.005	0	.005
.013	.945	.005	.13	.005	0	.005
.02	.941	.005	.208	.005	0	.005
.028	.937	.005	.283	.005	0	.005
.039	.931	.005	.395	.005	0	.005
.048	.926	.005	.476	.005	0	.005
.054	.923	.005	.524	.005	0	.005

System: hexane + hex-1-ene + 1-allyl-3-methylimidazolium dicyanamide; phases: Liquid mixture 2, Liquid mixture 1
Fixed: Temperature, K = 298.15
Fixed: Pressure, kPa = 101
Property: Mole fraction of 1-allyl-3-methylimidazolium dicyanamide (Liquid mixture 2); method: Chromatography
Property: Mole fraction of hex-1-ene (Liquid mixture 1); method: Chromatography
Property: Mole fraction of 1-allyl-3-methylimidazolium dicyanamide (Liquid mixture 1); method: Chromatography
Mole fraction of hex-1-ene	Mole fraction of 1-allyl-3-methylimidazolium dicyanamide	uncertainty	Mole fraction of hex-1-ene	uncertainty	Mole fraction of 1-allyl-3-methylimidazolium dicyanamide	uncertainty
0	.995	.005	0	.005	0	.005
.007	.989	.005	.417	.005	0	.005
.008	.988	.005	.466	.005	0	.005
.009	.987	.005	.499	.005	0	.005
.01	.987	.005	.538	.005	0	.005
.012	.986	.005	.63	.005	0	.005
.013	.985	.005	.701	.005	0	.005
.013	.985	.005	.728	.005	0	.005
.014	.985	.005	.766	.005	0	.005
.014	.985	.005	.82	.005	0	.005
.015	.984	.005	.861	.005	0	.005
.001	.994	.005	.032	.005	0	.005
.015	.984	.005	.923	.005	0	.005
.015	.984	.005	.987	.005	0	.005
.016	.984	.005	1	.005	0	.005
.001	.993	.005	.106	.005	0	.005
.002	.993	.005	.13	.005	0	.005
.003	.993	.005	.193	.005	0	.005
.004	.992	.005	.22	.005	0	.005
.004	.991	.005	.255	.005	0	.005
.005	.991	.005	.315	.005	0	.005
.006	.99	.005	.358	.005	0	.005

System: hexane + hex-1-ene + 1-benzyl-3-methylimidazolium bis[(trifluoromethane)sulfonyl]amide; phases: Liquid mixture 2, Liquid mixture 1
Fixed: Temperature, K = 298.15
Fixed: Pressure, kPa = 101
Property: Mole fraction of 1-benzyl-3-methylimidazolium bis[(trifluoromethane)sulfonyl]amide (Liquid mixture 2); method: Chromatography
Property: Mole fraction of hex-1-ene (Liquid mixture 1); method: Chromatography
Property: Mole fraction of 1-benzyl-3-methylimidazolium bis[(trifluoromethane)sulfonyl]amide (Liquid mixture 1); method: Chromatography
Mole fraction of hex-1-ene	Mole fraction of 1-benzyl-3-methylimidazolium bis[(trifluoromethane)sulfonyl]amide	uncertainty	Mole fraction of hex-1-ene	uncertainty	Mole fraction of 1-benzyl-3-methylimidazolium bis[(trifluoromethane)sulfonyl]amide	uncertainty
0	.945	.005	0	.005	0	.005
.049	.921	.005	.445	.005	0	.005
.054	.918	.005	.491	.005	0	.005
.063	.914	.005	.566	.005	0	.005
.072	.909	.005	.667	.005	0	.005
.082	.905	.005	.764	.005	0	.005
.092	.9	.005	.848	.005	0	.005
.098	.897	.005	.908	.005	0	.005
.103	.895	.005	.956	.005	0	.005
.107	.893	.005	.986	.005	0	.005
.108	.892	.005	1	.005	0	.005
.002	.944	.005	.016	.005	0	.005
.004	.943	.005	.04	.005	0	.005
.008	.941	.005	.077	.005	0	.005
.015	.938	.005	.136	.005	0	.005
.023	.934	.005	.211	.005	0	.005
.03	.93	.005	.293	.005	0	.005
.038	.926	.005	.375	.005	0	.005
.044	.923	.005	.416	.005	0	.005

System: hexane + hex-1-ene + 1-benzyl-3-methylimidazolium dicyanamide; phases: Liquid mixture 2, Liquid mixture 1
Fixed: Temperature, K = 298.15
Fixed: Pressure, kPa = 101
Property: Mole fraction of 1-benzyl-3-methylimidazolium dicyanamide (Liquid mixture 2); method: Chromatography
Property: Mole fraction of hex-1-ene (Liquid mixture 1); method: Chromatography
Property: Mole fraction of 1-benzyl-3-methylimidazolium dicyanamide (Liquid mixture 1); method: Chromatography
Mole fraction of hex-1-ene	Mole fraction of 1-benzyl-3-methylimidazolium dicyanamide	uncertainty	Mole fraction of hex-1-ene	uncertainty	Mole fraction of 1-benzyl-3-methylimidazolium dicyanamide	uncertainty
0	.991	.005	0	.005	0	.005
.015	.981	.005	.618	.005	0	.005
.016	.981	.005	.695	.005	0	.005
.018	.98	.005	.77	.005	0	.005
.019	.979	.005	.834	.005	0	.005
.02	.979	.005	.887	.005	0	.005
.021	.978	.005	.929	.005	0	.005
.022	.977	.005	.96	.005	0	.005
.023	.977	.005	1	.005	0	.005
.001	.991	.005	.031	.005	0	.005
.002	.99	.005	.079	.005	0	.005
.003	.989	.005	.141	.005	0	.005
.005	.987	.005	.215	.005	0	.005
.007	.986	.005	.304	.005	0	.005
.01	.984	.005	.395	.005	0	.005
.011	.984	.005	.482	.005	0	.005
.013	.982	.005	.548	.005	0	.005

System: cyclohexane + cyclohexene + 1-allyl-3-methylimidazolium bis(trifluoromethylsulfonyl)imide; phases: Liquid mixture 2, Liquid mixture 1
Fixed: Temperature, K = 298.15
Fixed: Pressure, kPa = 101
Property: Mole fraction of 1-allyl-3-methylimidazolium bis(trifluoromethylsulfonyl)imide (Liquid mixture 2); method: Chromatography
Property: Mole fraction of cyclohexene (Liquid mixture 1); method: Chromatography
Property: Mole fraction of 1-allyl-3-methylimidazolium bis(trifluoromethylsulfonyl)imide (Liquid mixture 1); method: Chromatography
Mole fraction of cyclohexene	Mole fraction of 1-allyl-3-methylimidazolium bis(trifluoromethylsulfonyl)imide	uncertainty	Mole fraction of cyclohexene	uncertainty	Mole fraction of 1-allyl-3-methylimidazolium bis(trifluoromethylsulfonyl)imide	uncertainty
0	.924	.005	0	.005	0	.005
.102	.867	.005	.639	.005	0	.005
.11	.862	.005	.696	.005	0	.005
.123	.857	.005	.77	.005	0	.005
.136	.852	.005	.864	.005	0	.005
.146	.85	.005	.947	.005	0	.005
.152	.848	.005	1	.005	0	.005
.007	.919	.005	.051	.005	0	.005
.021	.911	.005	.139	.005	0	.005
.032	.904	.005	.216	.005	0	.005
.048	.895	.005	.315	.005	0	.005
.064	.885	.005	.417	.005	0	.005
.08	.878	.005	.514	.005	0	.005
.093	.871	.005	.588	.005	0	.005
.096	.869	.005	.606	.005	0	.005

System: cyclohexane + cyclohexene + 1-allyl-3-methylimidazolium dicyanamide; phases: Liquid mixture 2, Liquid mixture 1
Fixed: Temperature, K = 298.15
Fixed: Pressure, kPa = 101
Property: Mole fraction of 1-allyl-3-methylimidazolium dicyanamide (Liquid mixture 2); method: Chromatography
Property: Mole fraction of cyclohexene (Liquid mixture 1); method: Chromatography
Property: Mole fraction of 1-allyl-3-methylimidazolium dicyanamide (Liquid mixture 1); method: Chromatography
Mole fraction of cyclohexene	Mole fraction of 1-allyl-3-methylimidazolium dicyanamide	uncertainty	Mole fraction of cyclohexene	uncertainty	Mole fraction of 1-allyl-3-methylimidazolium dicyanamide	uncertainty
0	.984	.005	0	.005	0	.005
.018	.97	.005	.38	.005	0	.005
.021	.968	.005	.427	.005	0	.005
.024	.966	.005	.482	.005	0	.005
.025	.965	.005	.516	.005	0	.005
.027	.964	.005	.534	.005	0	.005
.03	.962	.005	.612	.005	0	.005
.034	.96	.005	.686	.005	0	.005
.035	.96	.005	.697	.005	0	.005
.038	.958	.005	.776	.005	0	.005
.04	.957	.005	.822	.005	0	.005
.001	.982	.005	.021	.005	0	.005
.042	.956	.005	.868	.005	0	.005
.043	.956	.005	.903	.005	0	.005
.044	.955	.005	.944	.005	0	.005
.046	.954	.005	1	.005	0	.005
.004	.98	.005	.079	.005	0	.005
.008	.977	.005	.159	.005	0	.005
.01	.976	.005	.212	.005	0	.005
.011	.975	.005	.23	.005	0	.005
.012	.974	.005	.252	.005	0	.005
.015	.972	.005	.31	.005	0	.005
.016	.971	.005	.33	.005	0	.005

System: cyclohexane + cyclohexene + 1-benzyl-3-methylimidazolium bis[(trifluoromethane)sulfonyl]amide; phases: Liquid mixture 2, Liquid mixture 1
Fixed: Temperature, K = 298.15
Fixed: Pressure, kPa = 101
Property: Mole fraction of 1-benzyl-3-methylimidazolium bis[(trifluoromethane)sulfonyl]amide (Liquid mixture 2); method: Chromatography
Property: Mole fraction of cyclohexene (Liquid mixture 1); method: Chromatography
Property: Mole fraction of 1-benzyl-3-methylimidazolium bis[(trifluoromethane)sulfonyl]amide (Liquid mixture 1); method: Chromatography
Mole fraction of cyclohexene	Mole fraction of 1-benzyl-3-methylimidazolium bis[(trifluoromethane)sulfonyl]amide	uncertainty	Mole fraction of cyclohexene	uncertainty	Mole fraction of 1-benzyl-3-methylimidazolium bis[(trifluoromethane)sulfonyl]amide	uncertainty
0	.899	.005	0	.005	0	.005
.107	.846	.005	.557	.005	0	.005
.121	.839	.005	.642	.005	0	.005
.143	.829	.005	.746	.005	0	.005
.163	.819	.005	.839	.005	0	.005
.178	.811	.005	.903	.005	0	.005
.188	.806	.005	.952	.005	0	.005
.195	.803	.005	.983	.005	0	.005
.198	.802	.005	1	.005	0	.005
.003	.898	.005	.022	.005	0	.005
.011	.894	.005	.059	.005	0	.005
.021	.889	.005	.113	.005	0	.005
.033	.883	.005	.177	.005	0	.005
.05	.874	.005	.263	.005	0	.005
.068	.866	.005	.361	.005	0	.005
.082	.859	.005	.435	.005	0	.005
.096	.851	.005	.497	.005	0	.005

System: cyclohexane + cyclohexene + 1-benzyl-3-methylimidazolium dicyanamide; phases: Liquid mixture 2, Liquid mixture 1
Fixed: Temperature, K = 298.15
Fixed: Pressure, kPa = 101
Property: Mole fraction of 1-benzyl-3-methylimidazolium dicyanamide (Liquid mixture 2); method: Chromatography
Property: Mole fraction of cyclohexene (Liquid mixture 1); method: Chromatography
Property: Mole fraction of 1-benzyl-3-methylimidazolium dicyanamide (Liquid mixture 1); method: Chromatography
Mole fraction of cyclohexene	Mole fraction of 1-benzyl-3-methylimidazolium dicyanamide	uncertainty	Mole fraction of cyclohexene	uncertainty	Mole fraction of 1-benzyl-3-methylimidazolium dicyanamide	uncertainty
0	.974	.005	0	.005	0	.005
.04	.952	.005	.666	.005	0	.005
.046	.949	.005	.774	.005	0	.005
.049	.948	.005	.866	.005	0	.005
.051	.947	.005	.927	.005	0	.005
.053	.946	.005	.969	.005	0	.005
.055	.945	.005	1	.005	0	.005
.002	.973	.005	.041	.005	0	.005
.006	.971	.005	.108	.005	0	.005
.013	.967	.005	.198	.005	0	.005
.019	.963	.005	.298	.005	0	.005
.026	.96	.005	.416	.005	0	.005
.03	.958	.005	.51	.005	0	.005
.034	.955	.005	.584	.005	0	.005
.037	.954	.005	.611	.005	0	.005

System: hexane + 1-allyl-3-methylimidazolium bis(trifluoromethylsulfonyl)imide; phases: Liquid mixture 2, Liquid mixture 1
Property: Mole fraction of 1-allyl-3-methylimidazolium bis(trifluoromethylsulfonyl)imide (Liquid mixture 2); method: Chromatography
Temperature, K	Pressure, kPa	Mole fraction of 1-allyl-3-methylimidazolium bis(trifluoromethylsulfonyl)imide	uncertainty
298.15	101	.952	

System: hex-1-ene + 1-allyl-3-methylimidazolium bis(trifluoromethylsulfonyl)imide; phases: Liquid mixture 2, Liquid mixture 1
Property: Mole fraction of 1-allyl-3-methylimidazolium bis(trifluoromethylsulfonyl)imide (Liquid mixture 2); method: Chromatography
Temperature, K	Pressure, kPa	Mole fraction of 1-allyl-3-methylimidazolium bis(trifluoromethylsulfonyl)imide	uncertainty
298.15	101	.899	

System: hexane + 1-allyl-3-methylimidazolium dicyanamide; phases: Liquid mixture 2, Liquid mixture 1
Property: Mole fraction of 1-allyl-3-methylimidazolium dicyanamide (Liquid mixture 2); method: Chromatography
Temperature, K	Pressure, kPa	Mole fraction of 1-allyl-3-methylimidazolium dicyanamide	uncertainty
298.15	101	.995	

System: hex-1-ene + 1-allyl-3-methylimidazolium dicyanamide; phases: Liquid mixture 2, Liquid mixture 1
Property: Mole fraction of hex-1-ene (Liquid mixture 2); method: Chromatography
Temperature, K	Pressure, kPa	Mole fraction of hex-1-ene	uncertainty
298.15	101	.016	

System: hexane + 1-benzyl-3-methylimidazolium bis[(trifluoromethane)sulfonyl]amide; phases: Liquid mixture 2, Liquid mixture 1
Property: Mole fraction of 1-benzyl-3-methylimidazolium bis[(trifluoromethane)sulfonyl]amide (Liquid mixture 2); method: Chromatography
Temperature, K	Pressure, kPa	Mole fraction of 1-benzyl-3-methylimidazolium bis[(trifluoromethane)sulfonyl]amide	uncertainty
298.15	101	.945	

System: hex-1-ene + 1-benzyl-3-methylimidazolium bis[(trifluoromethane)sulfonyl]amide; phases: Liquid mixture 2, Liquid mixture 1
Property: Mole fraction of 1-benzyl-3-methylimidazolium bis[(trifluoromethane)sulfonyl]amide (Liquid mixture 2); method: Chromatography
Temperature, K	Pressure, kPa	Mole fraction of 1-benzyl-3-methylimidazolium bis[(trifluoromethane)sulfonyl]amide	uncertainty
298.15	101	.892	

System: hexane + 1-benzyl-3-methylimidazolium dicyanamide; phases: Liquid mixture 2, Liquid mixture 1
Property: Mole fraction of 1-benzyl-3-methylimidazolium dicyanamide (Liquid mixture 2); method: Chromatography
Temperature, K	Pressure, kPa	Mole fraction of 1-benzyl-3-methylimidazolium dicyanamide	uncertainty
298.15	101	.991	

System: hex-1-ene + 1-benzyl-3-methylimidazolium dicyanamide; phases: Liquid mixture 2, Liquid mixture 1
Property: Mole fraction of 1-benzyl-3-methylimidazolium dicyanamide (Liquid mixture 2); method: Chromatography
Temperature, K	Pressure, kPa	Mole fraction of 1-benzyl-3-methylimidazolium dicyanamide	uncertainty
298.15	101	.977	

System: cyclohexane + 1-allyl-3-methylimidazolium bis(trifluoromethylsulfonyl)imide; phases: Liquid mixture 2, Liquid mixture 1
Property: Mole fraction of 1-allyl-3-methylimidazolium bis(trifluoromethylsulfonyl)imide (Liquid mixture 2); method: Chromatography
Temperature, K	Pressure, kPa	Mole fraction of 1-allyl-3-methylimidazolium bis(trifluoromethylsulfonyl)imide	uncertainty
298.15	101	.924	

System: cyclohexene + 1-allyl-3-methylimidazolium bis(trifluoromethylsulfonyl)imide; phases: Liquid mixture 2, Liquid mixture 1
Property: Mole fraction of 1-allyl-3-methylimidazolium bis(trifluoromethylsulfonyl)imide (Liquid mixture 2); method: Chromatography
Temperature, K	Pressure, kPa	Mole fraction of 1-allyl-3-methylimidazolium bis(trifluoromethylsulfonyl)imide	uncertainty
298.15	101	.848	

System: cyclohexane + 1-allyl-3-methylimidazolium dicyanamide; phases: Liquid mixture 2, Liquid mixture 1
Property: Mole fraction of 1-allyl-3-methylimidazolium dicyanamide (Liquid mixture 2); method: Chromatography
Temperature, K	Pressure, kPa	Mole fraction of 1-allyl-3-methylimidazolium dicyanamide	uncertainty
298.15	101	.984	

System: cyclohexene + 1-allyl-3-methylimidazolium dicyanamide; phases: Liquid mixture 2, Liquid mixture 1
Property: Mole fraction of 1-allyl-3-methylimidazolium dicyanamide (Liquid mixture 2); method: Chromatography
Temperature, K	Pressure, kPa	Mole fraction of 1-allyl-3-methylimidazolium dicyanamide	uncertainty
298.15	101	.954	

System: cyclohexane + 1-benzyl-3-methylimidazolium bis[(trifluoromethane)sulfonyl]amide; phases: Liquid mixture 2, Liquid mixture 1
Property: Mole fraction of 1-benzyl-3-methylimidazolium bis[(trifluoromethane)sulfonyl]amide (Liquid mixture 2); method: Chromatography
Temperature, K	Pressure, kPa	Mole fraction of 1-benzyl-3-methylimidazolium bis[(trifluoromethane)sulfonyl]amide	uncertainty
298.15	101	.899	

System: cyclohexene + 1-benzyl-3-methylimidazolium bis[(trifluoromethane)sulfonyl]amide; phases: Liquid mixture 2, Liquid mixture 1
Property: Mole fraction of 1-benzyl-3-methylimidazolium bis[(trifluoromethane)sulfonyl]amide (Liquid mixture 2); method: Chromatography
Temperature, K	Pressure, kPa	Mole fraction of 1-benzyl-3-methylimidazolium bis[(trifluoromethane)sulfonyl]amide	uncertainty
298.15	101	.802	

System: cyclohexane + 1-benzyl-3-methylimidazolium dicyanamide; phases: Liquid mixture 2, Liquid mixture 1
Property: Mole fraction of 1-benzyl-3-methylimidazolium dicyanamide (Liquid mixture 2); method: Chromatography
Temperature, K	Pressure, kPa	Mole fraction of 1-benzyl-3-methylimidazolium dicyanamide	uncertainty
298.15	101	.974	

System: cyclohexene + 1-benzyl-3-methylimidazolium dicyanamide; phases: Liquid mixture 2, Liquid mixture 1
Property: Mole fraction of 1-benzyl-3-methylimidazolium dicyanamide (Liquid mixture 2); method: Chromatography
Temperature, K	Pressure, kPa	Mole fraction of 1-benzyl-3-methylimidazolium dicyanamide	uncertainty
298.15	101	.945	
