Measured thermophysical data. Study of thermodynamic properties of aqueous binary mixtures of glycine, L-alanine and b-alanine at low temperatures (T = 275.15, 279.15, and 283.15) K
Source: J. Chem. Thermodyn., 2012, 10.1016/j.jct.2011.09.016
Compound 1: aminoethanoic acid, C2H5NO2, purity 99%
Compound 2: propanoic acid, 2-amino-, (S)-, C3H7NO2, purity 99%
Compound 3: .beta.-alanine, C3H7NO2, purity 99%
Compound 4: water, H2O, purity 99.8%

System: aminoethanoic acid + water; phases: Liquid, Crystal
Property: Speed of sound, m/s (Liquid); method: Variable pathlength with fixed frequency of 2 MHz
Temperature, K	Molality, mol/kg of aminoethanoic acid	Speed of sound, m/s	uncertainty
275.15	0	1412.2	.5
275.15	.0998	1417.9	.5
275.15	.1994	1423.8	.5
275.15	.2999	1429.8	.5
275.15	.3941	1435.4	.5
275.15	.4909	1441.1	.5
275.15	.596	1447.4	.5
275.15	.6913	1453	.5
275.15	.7885	1458.8	.5
275.15	.8912	1464.9	.5
275.15	.9872	1470.6	.5
275.15	1.0961	1477	.5
275.15	1.201	1483.2	.5
275.15	1.2821	1488.1	.5
275.15	1.3965	1494.8	.5
275.15	1.5002	1501	.5
279.15	0	1430.6	.5
279.15	.1037	1435.9	.5
279.15	.2045	1441.7	.5
279.15	.2988	1447	.5
279.15	.3967	1452.6	.5
279.15	.5003	1458.5	.5
279.15	.5907	1463.7	.5
279.15	.6966	1469.7	.5
279.15	.7892	1475	.5
279.15	.8941	1481	.5
279.15	.9919	1486.5	.5
279.15	1.1074	1493.1	.5
279.15	1.2214	1499.6	.5
279.15	1.2944	1503.8	.5
279.15	1.3898	1509.2	.5
279.15	1.4878	1514.8	.5
283.15	0	1447.3	.5
283.15	.0966	1452.3	.5
283.15	.1975	1457.9	.5
283.15	.2853	1462.7	.5
283.15	.3989	1469	.5
283.15	.4931	1474.2	.5
283.15	.5834	1479.1	.5
283.15	.6967	1485.4	.5
283.15	.7976	1490.9	.5
283.15	.8967	1496.4	.5
283.15	1.0006	1502.1	.5
283.15	1.0893	1507	.5
283.15	1.1845	1512.2	.5
283.15	1.2651	1516.7	.5
283.15	1.3602	1521.9	.5
283.15	1.4824	1528.6	.5

System: aminoethanoic acid + water; phases: Liquid, Crystal
Property: Mass density, kg/m3 (Liquid); method: Pycnometric method
Temperature, K	Molality, mol/kg of aminoethanoic acid	Mass density, kg/m3	uncertainty
275.15	0	999.94	.1
275.15	.0998	1003.41	.1
275.15	.1994	1007.24	.1
275.15	.2999	1010.08	.1
275.15	.3941	1013.08	.1
275.15	.4909	1016.11	.1
275.15	.596	1019.54	.1
275.15	.6913	1022.53	.1
275.15	.7885	1025.43	.1
275.15	.8912	1028.67	.1
275.15	.9872	1031.36	.1
275.15	1.0961	1034.4	.1
275.15	1.201	1037.65	.1
275.15	1.2821	1039.92	.1
275.15	1.3965	1043.02	.1
275.15	1.5002	1045.94	.1
279.15	0	999.94	.1
279.15	.1037	1003.46	.1
279.15	.2045	1006.75	.1
279.15	.2988	1009.85	.1
279.15	.3967	1012.9	.1
279.15	.5003	1016.2	.1
279.15	.5907	1019	.1
279.15	.6966	1022.16	.1
279.15	.7892	1024.96	.1
279.15	.8941	1028.06	.1
279.15	.9919	1031.04	.1
279.15	1.1074	1034.54	.1
279.15	1.2214	1037.65	.1
279.15	1.2944	1039.57	.1
279.15	1.3898	1042.21	.1
279.15	1.4878	1044.99	.1
283.15	0	999.7	.1
283.15	.0966	1002.89	.1
283.15	.1975	1006.17	.1
283.15	.2853	1009.04	.1
283.15	.3989	1012.55	.1
283.15	.4931	1015.71	.1
283.15	.5834	1018.31	.1
283.15	.6967	1021.72	.1
283.15	.7976	1024.75	.1
283.15	.8967	1027.71	.1
283.15	1.0006	1030.63	.1
283.15	1.0893	1033.1	.1
283.15	1.1845	1035.81	.1
283.15	1.2651	1038.08	.1
283.15	1.3602	1040.66	.1
283.15	1.4824	1044	.1

System: propanoic acid, 2-amino-, (S)- + water; phases: Liquid, Crystal
Property: Speed of sound, m/s (Liquid); method: Variable pathlength with fixed frequency of 2 MHz
Temperature, K	Molality, mol/kg of propanoic acid, 2-amino-, (S)-	Speed of sound, m/s	uncertainty
275.15	0	1412.2	.5
275.15	.104	1420	.5
275.15	.2122	1428.4	.5
275.15	.3131	1436.2	.5
275.15	.4209	1444.5	.5
275.15	.5242	1452.5	.5
275.15	.611	1459.2	.5
275.15	.7271	1468.2	.5
275.15	.8618	1478.6	.5
275.15	.9283	1483.7	.5
275.15	1.0446	1492.7	.5
275.15	1.1548	1501.3	.5
275.15	1.2745	1510.5	.5
279.15	0	1430.6	.5
279.15	.1036	1437.5	.5
279.15	.2065	1445	.5
279.15	.3194	1453.3	.5
279.15	.5267	1468.4	.5
279.15	.6275	1475.7	.5
279.15	.7296	1483.1	.5
279.15	.8198	1489.7	.5
279.15	.9297	1497.7	.5
279.15	1.0271	1504.8	.5
279.15	1.1452	1513.4	.5
279.15	1.2894	1523.9	.5
283.15	0	1447.3	.5
283.15	.103	1454.3	.5
283.15	.2102	1461.8	.5
283.15	.3159	1469.3	.5
283.15	.418	1476.5	.5
283.15	.519	1483.6	.5
283.15	.6312	1491.5	.5
283.15	.731	1498.5	.5
283.15	.8379	1506	.5
283.15	.9319	1512.7	.5
283.15	1.0385	1520.2	.5
283.15	1.1346	1526.9	.5
283.15	1.2566	1535.5	.5

System: propanoic acid, 2-amino-, (S)- + water; phases: Liquid, Crystal
Property: Mass density, kg/m3 (Liquid); method: Pycnometric method
Temperature, K	Molality, mol/kg of propanoic acid, 2-amino-, (S)-	Mass density, kg/m3	uncertainty
275.15	0	999.94	.1
275.15	.104	1003.05	.1
275.15	.2122	1006.2	.1
275.15	.3131	1009.27	.1
275.15	.4209	1012.29	.1
275.15	.5242	1015.17	.1
275.15	.611	1017.61	.1
275.15	.7271	1020.76	.1
275.15	.8618	1024.26	.1
275.15	.9283	1026.07	.1
275.15	1.0446	1029.1	.1
275.15	1.1548	1031.9	.1
275.15	1.2745	1034.81	.1
279.15	0	999.94	.1
279.15	.1036	1003.02	.1
279.15	.2065	1006.08	.1
279.15	.3194	1009.36	.1
279.15	.5267	1015.18	.1
279.15	.6275	1018.02	.1
279.15	.7296	1020.76	.1
279.15	.8198	1023.05	.1
279.15	.9297	1025.79	.1
279.15	1.0271	1028.12	.1
279.15	1.1452	1031.23	.1
279.15	1.2894	1034.78	.1
283.15	0	999.7	.1
283.15	.103	1002.74	.1
283.15	.2102	1005.87	.1
283.15	.3159	1008.83	.1
283.15	.418	1011.67	.1
283.15	.519	1014.45	.1
283.15	.6312	1017.5	.1
283.15	.731	1020.1	.1
283.15	.8379	1022.83	.1
283.15	.9319	1025.38	.1
283.15	1.0385	1028.11	.1
283.15	1.1346	1030.43	.1
283.15	1.2566	1033.39	.1

System: .beta.-alanine + water; phases: Liquid, Crystal
Property: Speed of sound, m/s (Liquid); method: Variable pathlength with fixed frequency of 2 MHz
Temperature, K	Molality, mol/kg of .beta.-alanine	Speed of sound, m/s	uncertainty
275.15	0	1412.2	.5
275.15	.0498	1415.5	.5
275.15	.0999	1419	.5
275.15	.172	1424.1	.5
275.15	.2504	1429.6	.5
275.15	.3871	1439.1	.5
275.15	.5616	1451.4	.5
275.15	.7226	1462.6	.5
275.15	.9133	1476	.5
275.15	1.0241	1483.8	.5
275.15	1.222	1497.6	.5
275.15	1.3636	1507.6	.5
275.15	1.5435	1520.2	.5
275.15	1.695	1530.8	.5
275.15	1.8988	1545.1	.5
275.15	2.0258	1554	.5
279.15	0	1430.6	.5
279.15	.0357	1432.4	.5
279.15	.1005	1436.9	.5
279.15	.1695	1441.6	.5
279.15	.2428	1446.6	.5
279.15	.4047	1457.7	.5
279.15	.5584	1468.3	.5
279.15	.7198	1479.3	.5
279.15	.8011	1484.9	.5
279.15	.906	1492.1	.5
279.15	1.2211	1513.7	.5
279.15	1.507	1533.2	.5
279.15	1.6649	1544.1	.5
279.15	1.8435	1556.3	.5
279.15	2.0331	1569.3	.5
283.15	0	1447.3	.5
283.15	.0357	1449.3	.5
283.15	.1019	1453.7	.5
283.15	.1666	1457.9	.5
283.15	.2366	1462.5	.5
283.15	.4108	1473.9	.5
283.15	.5785	1484.8	.5
283.15	.7305	1494.8	.5
283.15	.8918	1505.3	.5
283.15	1.0645	1516.6	.5
283.15	1.2262	1527.2	.5
283.15	1.4036	1538.8	.5
283.15	1.5377	1547.6	.5
283.15	1.7118	1559	.5
283.15	1.8801	1570	.5
283.15	2.0396	1580.4	.5

System: .beta.-alanine + water; phases: Liquid, Crystal
Property: Mass density, kg/m3 (Liquid); method: Pycnometric method
Temperature, K	Molality, mol/kg of .beta.-alanine	Mass density, kg/m3	uncertainty
275.15	0	999.94	.1
275.15	.0498	1001.6	.1
275.15	.0999	1003.27	.1
275.15	.172	1005.55	.1
275.15	.2504	1008.05	.1
275.15	.3871	1012.32	.1
275.15	.5616	1017.62	.1
275.15	.7226	1022.36	.1
275.15	.9133	1027.77	.1
275.15	1.0241	1030.81	.1
275.15	1.222	1036.69	.1
275.15	1.3636	1039.76	.1
275.15	1.5435	1044.95	.1
275.15	1.695	1048.46	.1
275.15	1.8988	1054.07	.1
275.15	2.0258	1056.19	.1
279.15	0	999.94	.1
279.15	.0357	1001.03	.1
279.15	.1005	1003.24	.1
279.15	.1695	1005.46	.1
279.15	.2428	1007.69	.1
279.15	.4047	1012.64	.1
279.15	.5584	1017.7	.1
279.15	.7198	1022.16	.1
279.15	.8011	1024.44	.1
279.15	.906	1027.32	.1
279.15	1.2211	1035.7	.1
279.15	1.507	1043.15	.1
279.15	1.6649	1047.17	.1
279.15	1.8435	1051.23	.1
279.15	2.0331	1055.38	.1
283.15	0	999.7	.1
283.15	.0357	1000.88	.1
283.15	.1019	1003	.1
283.15	.1666	1005.03	.1
283.15	.2366	1007.36	.1
283.15	.4108	1012.46	.1
283.15	.5785	1017.41	.1
283.15	.7305	1021.82	.1
283.15	.8918	1026.25	.1
283.15	1.0645	1030.93	.1
283.15	1.2262	1035.1	.1
283.15	1.4036	1039.49	.1
283.15	1.5377	1042.91	.1
283.15	1.7118	1047.17	.1
283.15	1.8801	1050.77	.1
283.15	2.0396	1054.97	.1
