Measured thermophysical data. Evaluation of (vapor + liquid) equilibria for the binary systems  (1-octanol + cyclohexane) and (1-octanol + n-hexane),  at low alcohol compositions
Source: J. Chem. Thermodyn., 2008, 10.1016/j.jct.2008.06.005
Compound 1: cyclohexane, C6H12, purity 99.7%
Compound 2: hexane, C6H14, purity 99%
Compound 3: 1-octanol, C8H18O, purity 99%

System: cyclohexane + 1-octanol; phases: Gas, Liquid
Fixed: Pressure, kPa = 101.3
Property: Mole fraction of 1-octanol (Gas); method: Chromatography
Mole fraction of 1-octanol	Mole fraction of 1-octanol	uncertainty
.01001	.00054	
.0133	.00068	
.01952	.00082	
.02877	.00105	
.03519	.00119	
.03649	.0012	
.04403	.00127	
.05645	.00142	
.05757	.00146	

System: cyclohexane + 1-octanol; phases: Gas, Liquid
Fixed: Pressure, kPa = 101.3
Property: Boiling temperature at pressure P, K (Gas); method: Ebulliometric method (Recirculating still)
Mole fraction of 1-octanol	Boiling temperature at pressure P, K	uncertainty
.01001	354.1	.1
.0133	354.1	.1
.01952	354.2	.1
.02877	354.4	.1
.03519	354.5	.1
.03649	354.6	.1
.04403	354.7	.1
.05645	354.8	.1
.05757	354.9	.1

System: hexane + 1-octanol; phases: Gas, Liquid
Fixed: Pressure, kPa = 101.3
Property: Mole fraction of 1-octanol (Gas); method: Chromatography
Mole fraction of 1-octanol	Mole fraction of 1-octanol	uncertainty
.0152	.00049	
.01588	.00049	
.01692	.00052	
.02332	.00057	
.02401	.00058	
.02467	.00058	
.02718	.00063	
.03668	.0007	
.03951	.00068	
.04052	.00069	
.04917	.00073	
.05192	.00073	
.05457	.00082	
.06575	.00091	

System: hexane + 1-octanol; phases: Gas, Liquid
Fixed: Pressure, kPa = 101.3
Property: Boiling temperature at pressure P, K (Gas); method: Ebulliometric method (Recirculating still)
Mole fraction of 1-octanol	Boiling temperature at pressure P, K	uncertainty
.0152	342.2	.1
.01588	342.2	.1
.01692	342.2	.1
.02332	342.4	.1
.02401	342.4	.1
.02467	342.3	.1
.02718	342.4	.1
.03668	342.4	.1
.03951	342.4	.1
.04052	342.4	.1
.04917	342.5	.1
.05192	342.5	.1
.05457	342.6	.1
.06575	342.6	.1
