Measured thermophysical data. Solution thermodynamics and preferential solvation of sulfamethazine in (methanol + water) mixtures
Source: J. Chem. Thermodyn., 2016, 10.1016/j.jct.2016.02.002
Compound 1: sulfamethazine, C12H14N4O2S, purity 99.0%
Compound 2: methanol, CH4O, purity 99.8%
Compound 3: water, H2O

System: sulfamethazine; phases: Crystal, Liquid, Air at 1 atmosphere
Property: Normal melting temperature, K (Crystal); method: DSC/DTA
Normal melting temperature, K	uncertainty
469.2	.4

System: sulfamethazine; phases: Crystal, Liquid, Air at 1 atmosphere
Property: Molar enthalpy of transition or fusion, kJ/mol (Crystal); method: DSC
Molar enthalpy of transition or fusion, kJ/mol	uncertainty
37.71389386	.723661432

System: sulfamethazine + methanol + water; phases: Liquid, Crystal
Fixed: Pressure, kPa = 73.9
Property: Mole fraction of sulfamethazine (Liquid); method: spectrophotometry
Temperature, K	Solvent: Mass fraction of methanol	Mole fraction of sulfamethazine	uncertainty
293.15	.1	.0000336	
293.15	.2	.0000565	
293.15	.3	.000101	
293.15	.4	.000185	
293.15	.5	.000293	
293.15	.6	.000459	
293.15	.7	.000702	
293.15	.8	.00109	
293.15	.9	.00139	
293.15	1	.00161	
298.15	.1	.0000431	
298.15	.2	.0000727	
298.15	.3	.000122	
298.15	.4	.00023	
298.15	.5	.000396	
298.15	.6	.000618	
298.15	.7	.00093	
298.15	.8	.00134	
298.15	.9	.00178	
298.15	1	.00201	
303.15	.1	.0000563	
303.15	.2	.0000905	
303.15	.3	.000162	
303.15	.4	.000305	
303.15	.5	.000514	
303.15	.6	.000776	
303.15	.7	.00124	
303.15	.8	.00184	
303.15	.9	.00231	
303.15	1	.00262	
308.15	.1	.0000694	
308.15	.2	.000119	
308.15	.3	.000217	
308.15	.4	.0004	
308.15	.5	.000658	
308.15	.6	.00105	
308.15	.7	.00157	
308.15	.8	.00224	
308.15	.9	.00277	
308.15	1	.0032	
313.15	.1	.0000873	
313.15	.2	.000151	
313.15	.3	.000268	
313.15	.4	.000508	
313.15	.5	.000851	
313.15	.6	.00133	
313.15	.7	.00205	
313.15	.8	.003	
313.15	.9	.00361	
313.15	1	.00395	

System: sulfamethazine + methanol + water; phases: Liquid, Crystal
Fixed: Pressure, kPa = 73.9
Property: Mass density, kg/m3 (Liquid); method: Vibrating tube method
Temperature, K	Solvent: Mass fraction of methanol	Mass density, kg/m3	uncertainty
293.15	0	998.3	
293.15	.1	981.6	
293.15	.2	967	
293.15	.3	952.2	
293.15	.4	935.6	
293.15	.5	919.7	
293.15	.6	900.5	
293.15	.7	875.5	
293.15	.8	851.1	
293.15	.9	825.5	
293.15	1	795.6	
298.15	0	997.2	
298.15	.1	980.2	
298.15	.2	965.4	
298.15	.3	949.8	
298.15	.4	932.9	
298.15	.5	917.1	
298.15	.6	896.7	
298.15	.7	872.2	
298.15	.8	847.2	
298.15	.9	821.3	
298.15	1	792	
303.15	0	995.9	
303.15	.1	978.8	
303.15	.2	963.4	
303.15	.3	947.1	
303.15	.4	929.6	
303.15	.5	915.2	
303.15	.6	893.2	
303.15	.7	868.9	
303.15	.8	845.6	
303.15	.9	817.7	
303.15	1	789.6	
308.15	0	994.3	
308.15	.1	976.7	
308.15	.2	961	
308.15	.3	944.6	
308.15	.4	927.1	
308.15	.5	912.5	
308.15	.6	890	
308.15	.7	865.5	
308.15	.8	840.4	
308.15	.9	813	
308.15	1	786.1	
313.15	0	992.5	
313.15	.1	975	
313.15	.2	959	
313.15	.3	942.4	
313.15	.4	923.5	
313.15	.5	909.9	
313.15	.6	887.3	
313.15	.7	862.7	
313.15	.8	838.1	
313.15	.9	808.9	
313.15	1	782.7	

System: sulfamethazine + methanol; phases: Liquid, Crystal
Property: Mole fraction of sulfamethazine (Liquid); method: spectrophotometry
Temperature, K	Pressure, kPa	Mole fraction of sulfamethazine	uncertainty
293.15	73.9	.00161	
298.15	73.9	.00201	
303.15	73.9	.00262	
308.15	73.9	.0032	
313.15	73.9	.00395	

System: sulfamethazine + methanol; phases: Liquid, Crystal
Property: Mass density, kg/m3 (Liquid); method: Vibrating tube method
Temperature, K	Pressure, kPa	Mass density, kg/m3	uncertainty
293.15	73.9	795.6	
298.15	73.9	792	
303.15	73.9	789.6	
308.15	73.9	786.1	
313.15	73.9	782.7	

System: sulfamethazine + water; phases: Liquid, Crystal
Property: Mass density, kg/m3 (Liquid); method: Vibrating tube method
Temperature, K	Pressure, kPa	Mass density, kg/m3	uncertainty
293.15	73.9	998.3	
298.15	73.9	997.2	
303.15	73.9	995.9	
308.15	73.9	994.3	
313.15	73.9	992.5	
