Measured thermophysical data. Apparent molar volumes and isentropic compressibilities  of benzyltrialkylammonium chlorides in water  at (293.15, 303.15, 313.15, 323.15, and 333.15) K
Source: J. Chem. Thermodyn., 2009, 10.1016/j.jct.2009.03.004
Compound 1: trimethylbenzylammonium chloride, C10H16ClN
Compound 2: benzyltriethylammonium chloride, C13H22ClN
Compound 3: benzyltributylammonium chloride, C19H34ClN
Compound 4: water, H2O

System: trimethylbenzylammonium chloride + water; phases: Liquid
Fixed: Pressure, kPa = 101
Property: Mass density, kg/m3 (Liquid); method: Vibrating tube method
Temperature, K	Molality, mol/kg of trimethylbenzylammonium chloride	Mass density, kg/m3	uncertainty
293.15	0	998.24	
293.15	.0509	999.141	
293.15	.0978	999.954	
293.15	.1457	1000.777	
293.15	.193	1001.582	
293.15	.243	1002.421	
293.15	.2913	1003.232	
293.15	.3413	1004.061	
293.15	.3893	1004.782	
293.15	.4887	1006.451	
303.15	0	995.681	
303.15	.0509	996.527	
303.15	.0978	997.29	
303.15	.1457	998.059	
303.15	.193	998.814	
303.15	.243	999.6	
303.15	.2913	1000.361	
303.15	.3413	1001.135	
303.15	.3893	1001.81	
303.15	.4887	1003.377	
313.12	0	992.248	
313.12	.0509	993.051	
313.12	.0978	993.775	
313.12	.1457	994.506	
313.12	.193	995.222	
313.12	.243	995.97	
313.12	.2913	996.689	
313.12	.3413	997.424	
313.12	.3893	998.067	
313.12	.4887	999.557	
323.15	0	988.07	
323.15	.0509	988.839	
323.15	.0978	989.535	
323.15	.1457	990.237	
323.15	.193	990.925	
323.15	.243	991.639	
323.15	.2913	992.331	
323.15	.3413	993.04	
323.15	.3893	993.657	
323.15	.4887	995.086	
333.15	0	983.232	
333.15	.0509	983.971	
333.15	.0978	984.654	
333.15	.1457	985.336	
333.15	.193	986	
333.15	.243	986.698	
333.15	.2913	987.369	
333.15	.3413	988.05	
333.15	.3893	988.653	
333.15	.4887	990.039	

System: trimethylbenzylammonium chloride + water; phases: Liquid
Fixed: Pressure, kPa = 101
Property: Speed of sound, m/s (Liquid); method: Single path-length method
Temperature, K	Molality, mol/kg of trimethylbenzylammonium chloride	Speed of sound, m/s	uncertainty
293.15	0	1482.55	
293.15	.0509	1490.15	
293.15	.0978	1497.18	
293.15	.1457	1504.44	
293.15	.193	1511.01	
293.15	.243	1517.77	
293.15	.2913	1524.42	
293.15	.3413	1531.05	
293.15	.3893	1536.8	
293.15	.4887	1550.14	
303.15	0	1509.29	
303.15	.0509	1515.97	
303.15	.0978	1522.12	
303.15	.1457	1528.61	
303.15	.193	1534.44	
303.15	.243	1540.41	
303.15	.2913	1546.31	
303.15	.3413	1552.26	
303.15	.3893	1557.38	
303.15	.4887	1569.27	
313.15	0	1529.03	
313.15	.0509	1535.02	
313.15	.0978	1540.49	
313.15	.1457	1546.35	
313.15	.193	1551.53	
313.15	.243	1556.8	
313.15	.2913	1562.08	
313.15	.3413	1567.4	
313.15	.3893	1571.99	
313.15	.4887	1582.63	
323.15	0	1542.74	
323.15	.0509	1548.15	
323.15	.0978	1553.03	
323.15	.1457	1558.31	
323.15	.193	1562.99	
323.15	.243	1567.67	
323.15	.2913	1572.41	
323.15	.3413	1577.17	
323.15	.3893	1581.29	
323.15	.4887	1590.86	
333.15	0	1551.18	
333.15	.0509	1556.04	
333.15	.0978	1560.42	
333.15	.1457	1565.27	
333.15	.193	1569.48	
333.15	.243	1573.58	
333.15	.2913	1577.85	
333.15	.3413	1582.17	
333.15	.3893	1585.9	
333.15	.4887	1594.49	

System: benzyltriethylammonium chloride + water; phases: Liquid
Fixed: Pressure, kPa = 101
Property: Mass density, kg/m3 (Liquid); method: Vibrating tube method
Temperature, K	Molality, mol/kg of benzyltriethylammonium chloride	Mass density, kg/m3	uncertainty
293.15	0	998.24	
293.15	.0497	999.065	
293.15	.0993	999.88	
293.15	.1485	1000.694	
293.15	.1984	1001.519	
293.15	.248	1002.339	
293.15	.2965	1003.146	
293.15	.3454	1003.958	
293.15	.3967	1004.802	
293.15	.4958	1006.427	
303.15	0	995.681	
303.15	.0497	996.445	
303.15	.0993	997.198	
303.15	.1485	997.95	
303.15	.1984	998.713	
303.15	.248	999.475	
303.15	.2965	1000.215	
303.15	.3454	1000.965	
303.15	.3967	1001.749	
303.15	.4958	1003.25	
313.15	0	992.248	
313.15	.0497	992.964	
313.15	.0993	993.67	
313.15	.1485	994.374	
313.15	.1984	995.088	
313.15	.248	995.8	
313.15	.2965	996.491	
313.15	.3454	997.192	
313.15	.3967	997.925	
313.15	.4958	999.331	
323.15	0	988.07	
323.15	.0497	988.745	
323.15	.0993	989.413	
323.15	.1485	990.079	
323.15	.1984	990.755	
323.15	.248	991.427	
323.15	.2965	992.081	
323.15	.3454	992.745	
323.15	.3967	993.438	
323.15	.4958	994.766	
333.15	0	983.232	
333.15	.0497	983.878	
333.15	.0993	984.516	
333.15	.1485	985.15	
333.15	.1984	985.792	
333.15	.248	986.436	
333.15	.2965	987.062	
333.15	.3454	987.695	
333.15	.3967	988.357	
333.15	.4958	989.624	

System: benzyltriethylammonium chloride + water; phases: Liquid
Fixed: Pressure, kPa = 101
Property: Speed of sound, m/s (Liquid); method: Single path-length method
Temperature, K	Molality, mol/kg of benzyltriethylammonium chloride	Speed of sound, m/s	uncertainty
293.15	0	1482.55	
293.15	.0497	1491.79	
293.15	.0993	1500.82	
293.15	.1485	1509.81	
293.15	.1984	1518.27	
293.15	.248	1526.54	
293.15	.2965	1534.51	
293.15	.3454	1542.47	
293.15	.3967	1550.8	
293.15	.4958	1566.26	
303.15	0	1509.29	
303.15	.0497	1517.36	
303.15	.0993	1525.28	
303.15	.1485	1533.43	
303.15	.1984	1540.76	
303.15	.248	1548.07	
303.15	.2965	1555.14	
303.15	.3454	1562.22	
303.15	.3967	1569.58	
303.15	.4958	1583.32	
313.15	0	1529.03	
313.15	.0497	1536.19	
313.15	.0993	1543.21	
313.15	.1485	1550.57	
313.15	.1984	1557.02	
313.15	.248	1563.47	
313.15	.2965	1569.74	
313.15	.3454	1576.04	
313.15	.3967	1582.57	
313.15	.4958	1594.77	
323.15	0	1542.74	
323.15	.0497	1549.14	
323.15	.0993	1555.38	
323.15	.1485	1561.9	
323.15	.1984	1567.78	
323.15	.248	1573.4	
323.15	.2965	1578.93	
323.15	.3454	1584.54	
323.15	.3967	1590.34	
323.15	.4958	1601.21	
333.15	0	1551.18	
333.15	.0497	1556.86	
333.15	.0993	1562.46	
333.15	.1485	1568.2	
333.15	.1984	1573.58	
333.15	.248	1578.47	
333.15	.2965	1583.35	
333.15	.3454	1588.31	
333.15	.3967	1593.49	
333.15	.4958	1603.17	

System: water + benzyltributylammonium chloride; phases: Liquid
Fixed: Pressure, kPa = 101
Property: Mass density, kg/m3 (Liquid); method: Vibrating tube method
Temperature, K	Molality, mol/kg of benzyltributylammonium chloride	Mass density, kg/m3	uncertainty
293.15	0	998.24	
293.15	.0496	998.568	
293.15	.0994	998.932	
293.15	.1483	999.312	
293.15	.1964	999.716	
293.15	.2452	1000.14	
293.15	.2935	1000.572	
293.15	.3425	1001.022	
293.15	.3907	1001.474	
293.15	.4904	1002.406	
303.15	0	995.681	
303.15	.0496	995.905	
303.15	.0994	996.155	
303.15	.1483	996.425	
303.15	.1964	996.714	
303.15	.2452	997.021	
303.15	.2935	997.337	
303.15	.3425	997.666	
303.15	.3907	998.002	
303.15	.4904	998.688	
313.15	0	992.248	
313.15	.0496	992.38	
313.15	.0994	992.53	
313.15	.1483	992.703	
313.15	.1964	992.894	
313.15	.2452	993.099	
313.15	.2935	993.317	
313.15	.3425	993.543	
313.15	.3907	993.777	
313.15	.4904	994.262	
323.15	0	988.07	
323.15	.0496	988.115	
323.15	.0994	988.18	
323.15	.1483	988.265	
323.15	.1964	988.371	
323.15	.2452	988.489	
323.15	.2935	988.618	
323.15	.3425	988.759	
323.15	.3907	988.904	
323.15	.4904	989.213	
333.15	0	983.232	
333.15	.0496	983.186	
333.15	.0994	983.188	
333.15	.1483	983.197	
333.15	.1964	983.225	
333.15	.2452	983.267	
333.15	.2935	983.321	
333.15	.3425	983.382	
333.15	.3907	983.456	
333.15	.4904	983.616	

System: water + benzyltributylammonium chloride; phases: Liquid
Fixed: Pressure, kPa = 101
Property: Speed of sound, m/s (Liquid); method: Single path-length method
Temperature, K	Molality, mol/kg of benzyltributylammonium chloride	Speed of sound, m/s	uncertainty
293.15	0	1482.55	
293.15	.0496	1496.74	
293.15	.0994	1510.25	
293.15	.1483	1522.87	
293.15	.1964	1535.2	
293.15	.2452	1546.81	
293.15	.2935	1558.25	
293.15	.3425	1569.39	
293.15	.3907	1579.91	
293.15	.4904	1600.64	
303.15	0	1509.29	
303.15	.0496	1515.97	
303.15	.0994	1522.12	
303.15	.1483	1528.61	
303.15	.1964	1534.44	
303.15	.2452	1540.41	
303.15	.2935	1546.31	
303.15	.3425	1552.26	
303.15	.3907	1557.38	
303.15	.4904	1569.27	
313.15	0	1529.03	
313.15	.0496	1539.54	
313.15	.0994	1549.65	
313.15	.1483	1558.99	
313.15	.1964	1568.16	
313.15	.2452	1576.5	
313.15	.2935	1584.67	
313.15	.3425	1592.65	
313.15	.3907	1600.16	
313.15	.4904	1614.72	
323.15	0	1542.74	
323.15	.0496	1551.78	
323.15	.0994	1560.42	
323.15	.1483	1568.34	
323.15	.1964	1576.11	
323.15	.2452	1583.13	
323.15	.2935	1589.96	
323.15	.3425	1596.66	
323.15	.3907	1602.91	
323.15	.4904	1614.99	
333.15	0	1551.18	
333.15	.0496	1558.87	
333.15	.0994	1566.19	
333.15	.1483	1572.8	
333.15	.1964	1579.28	
333.15	.2452	1585.15	
333.15	.2935	1590.8	
333.15	.3425	1596.3	
333.15	.3907	1601.44	
333.15	.4904	1611.31	
