Measured thermophysical data. Effect of temperature on the partial molar volume, isentropic compressibility and viscosity of DL-2-aminobutyric acid in water and in aqueous sodium chloride solutions
Source: J. Chem. Thermodyn., 2017, 10.1016/j.jct.2016.09.040
Compound 1: DL-2-aminobutyric acid, C4H9NO2, purity 99%
Compound 2: sodium chloride, ClNa, purity 99.5%
Compound 3: water, H2O, purity 99.8%

System: water; phases: Liquid
Property: Mass density, kg/m3 (Liquid); method: Vibrating tube method
Temperature, K	Pressure, kPa	Mass density, kg/m3	uncertainty
293.15	75	998.234	
298.15	75	997.073	
303.15	75	995.649	
308.15	75	994.063	
313.15	75	992.247	

System: water; phases: Liquid
Fixed: Frequency, MHz = 3
Property: Speed of sound, m/s (Liquid); method: Sing-around technique in a fixed-path interferometer
Temperature, K	Pressure, kPa	Speed of sound, m/s	uncertainty
293.15	75	1482.56	
298.15	75	1496.97	
303.15	75	1509.38	
308.15	75	1519.93	
313.15	75	1528.99	

System: water; phases: Liquid
Property: Viscosity, Pa*s (Liquid); method: Capillary tube (Ostwald; Ubbelohde) method
Temperature, K	Pressure, kPa	Viscosity, Pa*s	uncertainty
293.15	75	.001003	
298.15	75	.00089	
303.15	75	.000798	
308.15	75	.00072	
313.15	75	.000653	

System: DL-2-aminobutyric acid + sodium chloride + water; phases: Liquid
Fixed: Pressure, kPa = 75
Property: Mass density, kg/m3 (Liquid); method: Vibrating tube method
Temperature, K	Solvent: Molality, mol/kg of sodium chloride	Molality, mol/kg of DL-2-aminobutyric acid	Mass density, kg/m3	uncertainty
293.15	0	0	998.234	
293.15	0	.099991	1001.01	
293.15	0	.299937	1006.401	
293.15	0	.4999	1011.572	
293.15	0	.699984	1016.563	
293.15	0	.900089	1021.369	
293.15	0	1.000122	1023.703	
298.15	0	0	997.073	
298.15	0	.099991	999.805	
298.15	0	.299937	1005.12	
298.15	0	.4999	1010.247	
298.15	0	.699984	1015.202	
298.15	0	.900089	1019.98	
298.15	0	1.000122	1022.303	
303.15	0	0	995.649	
303.15	0	.099991	998.37	
303.15	0	.299937	1003.66	
303.15	0	.4999	1008.748	
303.15	0	.699984	1013.662	
303.15	0	.900089	1018.4	
303.15	0	1.000122	1020.703	
308.15	0	0	994.063	
308.15	0	.099991	996.759	
308.15	0	.299937	1002	
308.15	0	.4999	1007.048	
308.15	0	.699984	1011.922	
308.15	0	.900089	1016.62	
308.15	0	1.000122	1018.903	
313.15	0	0	992.247	
313.15	0	.099991	994.9	
313.15	0	.299937	999.99	
313.15	0	.4999	1004.828	
313.15	0	.699984	1009.411	
313.15	0	.900089	1013.715	
313.15	0	1.000122	1015.785	
293.15	.1502	0	1004.43	
293.15	.1502	.100082	1007.133	
293.15	.1502	.299995	1012.305	
293.15	.1502	.499964	1017.248	
293.15	.1502	.700204	1021.91	
293.15	.1502	.900344	1026.4	
293.15	.1502	1.00013	1028.6	
298.15	.1502	0	1003.212	
298.15	.1502	.100082	1005.87	
298.15	.1502	.299995	1011	
298.15	.1502	.499964	1015.924	
298.15	.1502	.700204	1020.67	
298.15	.1502	.900344	1025.213	
298.15	.1502	1.00013	1027.403	
303.15	.1502	0	1001.737	
303.15	.1502	.100082	1004.39	
303.15	.1502	.299995	1009.525	
303.15	.1502	.499964	1014.424	
303.15	.1502	.700204	1019.13	
303.15	.1502	.900344	1023.633	
303.15	.1502	1.00013	1025.803	
308.15	.1502	0	1000.103	
308.15	.1502	.100082	1002.727	
308.15	.1502	.299995	1007.795	
308.15	.1502	.499964	1012.674	
308.15	.1502	.700204	1017.36	
308.15	.1502	.900344	1021.843	
308.15	.1502	1.00013	1024.003	
313.15	.1502	0	998.234	
313.15	.1502	.100082	1000.84	
313.15	.1502	.299995	1005.903	
313.15	.1502	.499964	1010.754	
313.15	.1502	.700204	1015.41	
313.15	.1502	.900344	1019.862	
313.15	.1502	1.00013	1022.003	
293.15	.3004	0	1010.402	
293.15	.3004	.100361	1013.071	
293.15	.3004	.300324	1018.203	
293.15	.3004	.499928	1023.108	
293.15	.3004	.700062	1027.77	
293.15	.3004	.900073	1032.273	
293.15	.3004	.999963	1034.403	
298.15	.3004	0	1008.887	
298.15	.3004	.100361	1011.5	
298.15	.3004	.300324	1016.583	
298.15	.3004	.499928	1021.501	
298.15	.3004	.700062	1026.282	
298.15	.3004	.900073	1030.917	
298.15	.3004	.999963	1033.179	
303.15	.3004	0	1007.39	
303.15	.3004	.100361	1009.989	
303.15	.3004	.300324	1015.043	
303.15	.3004	.499928	1019.929	
303.15	.3004	.700062	1024.675	
303.15	.3004	.900073	1029.273	
303.15	.3004	.999963	1031.515	
308.15	.3004	0	1005.855	
308.15	.3004	.100361	1008.425	
308.15	.3004	.300324	1013.385	
308.15	.3004	.499928	1018.14	
308.15	.3004	.700062	1022.72	
308.15	.3004	.900073	1027.118	
308.15	.3004	.999963	1029.233	
313.15	.3004	0	1004.134	
313.15	.3004	.100361	1006.68	
313.15	.3004	.300324	1011.57	
313.15	.3004	.499928	1016.24	
313.15	.3004	.700062	1020.701	
313.15	.3004	.900073	1024.964	
313.15	.3004	.999963	1027.002	
293.15	.5002	0	1018.105	
293.15	.5002	.099991	1021	
293.15	.5002	.299937	1025.796	
293.15	.5002	.4999	1030.3	
293.15	.5002	.699984	1034.6	
293.15	.5002	.900089	1038.7	
293.15	.5002	1.000122	1040.707	
298.15	.5002	0	1016.992	
298.15	.5002	.099988	1019.6	
298.15	.5002	.301107	1024.446	
298.15	.5002	.500101	1029.011	
298.15	.5002	.70004	1033.4	
298.15	.5002	.900055	1037.673	
298.15	.5002	1.000124	1039.703	
303.15	.5002	0	1015.579	
303.15	.5002	.099988	1018.08	
303.15	.5002	.301107	1022.937	
303.15	.5002	.500101	1027.507	
303.15	.5002	.70004	1031.89	
303.15	.5002	.900055	1036.061	
303.15	.5002	1.000124	1038.054	
308.15	.5002	0	1013.867	
308.15	.5002	.099988	1016.245	
308.15	.5002	.301107	1021.045	
308.15	.5002	.500101	1025.616	
308.15	.5002	.70004	1029.95	
308.15	.5002	.900055	1034.104	
308.15	.5002	1.000124	1036.087	
313.15	.5002	0	1011.764	
313.15	.5002	.099988	1014.201	
313.15	.5002	.301107	1018.904	
313.15	.5002	.500101	1023.308	
313.15	.5002	.70004	1027.5	
313.15	.5002	.900055	1031.506	
313.15	.5002	1.000124	1033.404	
293.15	.7001	0	1026.187	
293.15	.7001	.1	1028.65	
293.15	.7001	.299994	1033.349	
293.15	.7001	.500001	1037.801	
293.15	.7001	.70001	1042.003	
293.15	.7001	.9002	1045.98	
293.15	.7001	.99989	1047.819	
298.15	.7001	0	1024.848	
298.15	.7001	.1	1027.262	
298.15	.7001	.299994	1031.813	
298.15	.7001	.500001	1036.105	
298.15	.7001	.70001	1040.188	
298.15	.7001	.9002	1044.05	
298.15	.7001	.99989	1045.9	
303.15	.7001	0	1023.122	
303.15	.7001	.1	1025.51	
303.15	.7001	.299994	1030.05	
303.15	.7001	.500001	1034.29	
303.15	.7001	.70001	1038.3	
303.15	.7001	.9002	1042.2	
303.15	.7001	.99989	1044.05	
308.15	.7001	0	1021.528	
308.15	.7001	.1	1023.9	
308.15	.7001	.299994	1028.35	
308.15	.7001	.500001	1032.508	
308.15	.7001	.70001	1036.5	
308.15	.7001	.9002	1040.3	
308.15	.7001	.99989	1042.09	
313.15	.7001	0	1019.728	
313.15	.7001	.1	1022.08	
313.15	.7001	.299994	1026.45	
313.15	.7001	.500001	1030.546	
313.15	.7001	.70001	1034.43	
313.15	.7001	.9002	1038.2	
313.15	.7001	.99989	1040.004	

System: DL-2-aminobutyric acid + sodium chloride + water; phases: Liquid
Fixed: Pressure, kPa = 75
Fixed: Frequency, MHz = 3
Property: Speed of sound, m/s (Liquid); method: Sing-around technique in a fixed-path interferometer
Temperature, K	Solvent: Molality, mol/kg of sodium chloride	Molality, mol/kg of DL-2-aminobutyric acid	Speed of sound, m/s	uncertainty
293.15	0	0	1482.56	
293.15	0	.099991	1490.7	
293.15	0	.299937	1506.79	
293.15	0	.4999	1522.58	
293.15	0	.699984	1538.49	
293.15	0	.900089	1554.23	
293.15	0	1.000122	1561.79	
298.15	0	0	1496.97	
298.15	0	.099991	1504.65	
298.15	0	.299937	1519.9	
298.15	0	.4999	1535.08	
298.15	0	.699984	1550.03	
298.15	0	.900089	1565.06	
298.15	0	1.000122	1572.42	
303.15	0	0	1509.38	
303.15	0	.099991	1516.78	
303.15	0	.299937	1531.3	
303.15	0	.4999	1545.8	
303.15	0	.699984	1560.04	
303.15	0	.900089	1574.46	
303.15	0	1.000122	1581.66	
308.15	0	0	1519.93	
308.15	0	.099991	1526.91	
308.15	0	.299937	1540.84	
308.15	0	.4999	1554.74	
308.15	0	.699984	1568.63	
308.15	0	.900089	1582.55	
308.15	0	1.000122	1589.47	
313.15	0	0	1528.99	
313.15	0	.099991	1535.65	
313.15	0	.299937	1548.73	
313.15	0	.4999	1561.8	
313.15	0	.699984	1574.69	
313.15	0	.900089	1587.98	
313.15	0	1.000122	1595.1	
293.15	.1502	0	1492.54	
293.15	.1502	.100082	1500.51	
293.15	.1502	.299995	1516.03	
293.15	.1502	.499964	1531.4	
293.15	.1502	.700204	1546.88	
293.15	.1502	.900344	1562.89	
293.15	.1502	1.00013	1570.89	
298.15	.1502	0	1506.25	
298.15	.1502	.100082	1513.81	
298.15	.1502	.299995	1528.76	
298.15	.1502	.499964	1543.43	
298.15	.1502	.700204	1558.37	
298.15	.1502	.900344	1573.52	
298.15	.1502	1.00013	1581	
303.15	.1502	0	1518.06	
303.15	.1502	.100082	1525.4	
303.15	.1502	.299995	1539.8	
303.15	.1502	.499964	1554.26	
303.15	.1502	.700204	1568.51	
303.15	.1502	.900344	1583.23	
303.15	.1502	1.00013	1590.66	
308.15	.1502	0	1528.47	
308.15	.1502	.100082	1535.55	
308.15	.1502	.299995	1549.63	
308.15	.1502	.499964	1563.6	
308.15	.1502	.700204	1577.38	
308.15	.1502	.900344	1591.02	
308.15	.1502	1.00013	1597.9	
313.15	.1502	0	1537.62	
313.15	.1502	.100082	1544.3	
313.15	.1502	.299995	1557.53	
313.15	.1502	.499964	1570.58	
313.15	.1502	.700204	1583.83	
313.15	.1502	.900344	1597.02	
313.15	.1502	1.00013	1603.61	
293.15	.3004	0	1502	
293.15	.3004	.100361	1509.81	
293.15	.3004	.300324	1525.33	
293.15	.3004	.499928	1540.75	
293.15	.3004	.700062	1556.31	
293.15	.3004	.900073	1571.58	
293.15	.3004	.999963	1579	
298.15	.3004	0	1515.26	
298.15	.3004	.100361	1522.51	
298.15	.3004	.300324	1536.99	
298.15	.3004	.499928	1551.5	
298.15	.3004	.700062	1566.16	
298.15	.3004	.900073	1581	
298.15	.3004	.999963	1588.52	
303.15	.3004	0	1526.99	
303.15	.3004	.100361	1534.06	
303.15	.3004	.300324	1548.01	
303.15	.3004	.499928	1561.76	
303.15	.3004	.700062	1575.52	
303.15	.3004	.900073	1589.03	
303.15	.3004	.999963	1596	
308.15	.3004	0	1537.11	
308.15	.3004	.100361	1543.91	
308.15	.3004	.300324	1557.51	
308.15	.3004	.499928	1571.12	
308.15	.3004	.700062	1584.76	
308.15	.3004	.900073	1598.54	
308.15	.3004	.999963	1605.5	
313.15	.3004	0	1545.69	
313.15	.3004	.100361	1552	
313.15	.3004	.300324	1564.69	
313.15	.3004	.499928	1577.52	
313.15	.3004	.700062	1590.39	
313.15	.3004	.900073	1603.37	
313.15	.3004	.999963	1609.89	
293.15	.5002	0	1514.43	
293.15	.5002	.099991	1522.03	
293.15	.5002	.299937	1537.18	
293.15	.5002	.4999	1552.26	
293.15	.5002	.699984	1566.85	
293.15	.5002	.900089	1581.91	
293.15	.5002	1.000122	1589	
298.15	.5002	0	1527.35	
298.15	.5002	.099988	1534.52	
298.15	.5002	.301107	1548.64	
298.15	.5002	.500101	1562.78	
298.15	.5002	.70004	1576.86	
298.15	.5002	.900055	1591.03	
298.15	.5002	1.000124	1598	
303.15	.5002	0	1538.56	
303.15	.5002	.099988	1545.51	
303.15	.5002	.301107	1559.13	
303.15	.5002	.500101	1572.75	
303.15	.5002	.70004	1586.09	
303.15	.5002	.900055	1599.15	
303.15	.5002	1.000124	1606.01	
308.15	.5002	0	1548.3	
308.15	.5002	.099988	1554.94	
308.15	.5002	.301107	1568.05	
308.15	.5002	.500101	1581.16	
308.15	.5002	.70004	1594.06	
308.15	.5002	.900055	1607.13	
308.15	.5002	1.000124	1613.5	
313.15	.5002	0	1556.53	
313.15	.5002	.099988	1562.73	
313.15	.5002	.301107	1574.88	
313.15	.5002	.500101	1587.03	
313.15	.5002	.70004	1599.07	
313.15	.5002	.900055	1610.8	
313.15	.5002	1.000124	1616.5	
293.15	.7001	0	1526.91	
293.15	.7001	.1	1534.58	
293.15	.7001	.299994	1549.48	
293.15	.7001	.500001	1564.09	
293.15	.7001	.70001	1578.44	
293.15	.7001	.9002	1593	
293.15	.7001	.99989	1600.5	
298.15	.7001	0	1539.25	
298.15	.7001	.1	1546.29	
298.15	.7001	.299994	1560.21	
298.15	.7001	.500001	1573.88	
298.15	.7001	.70001	1587.67	
298.15	.7001	.9002	1601.05	
298.15	.7001	.99989	1607.9	
303.15	.7001	0	1550.18	
303.15	.7001	.1	1557.01	
303.15	.7001	.299994	1570.48	
303.15	.7001	.500001	1583.77	
303.15	.7001	.70001	1596.79	
303.15	.7001	.9002	1609.7	
303.15	.7001	.99989	1616.1	
308.15	.7001	0	1559.47	
308.15	.7001	.1	1565.96	
308.15	.7001	.299994	1579.17	
308.15	.7001	.500001	1592.49	
308.15	.7001	.70001	1605.77	
308.15	.7001	.9002	1619.21	
308.15	.7001	.99989	1625.93	
313.15	.7001	0	1567.33	
313.15	.7001	.1	1573.38	
313.15	.7001	.299994	1585.58	
313.15	.7001	.500001	1597.72	
313.15	.7001	.70001	1610.03	
313.15	.7001	.9002	1622.3	
313.15	.7001	.99989	1628.45	

System: DL-2-aminobutyric acid + sodium chloride + water; phases: Liquid
Fixed: Pressure, kPa = 75
Property: Viscosity, Pa*s (Liquid); method: Capillary tube (Ostwald; Ubbelohde) method
Temperature, K	Solvent: Molality, mol/kg of sodium chloride	Molality, mol/kg of DL-2-aminobutyric acid	Viscosity, Pa*s	uncertainty
293.15	0	0	.001003	
293.15	0	.099991	.001042	
293.15	0	.299937	.001109	
293.15	0	.4999	.001181	
293.15	0	.699984	.001266	
293.15	0	.900089	.001358	
293.15	0	1.000122	.001416	
298.15	0	0	.00089	
298.15	0	.099991	.000905	
298.15	0	.299937	.00097	
298.15	0	.4999	.001057	
298.15	0	.699984	.001121	
298.15	0	.900089	.001199	
298.15	0	1.000122	.001243	
303.15	0	0	.000798	
303.15	0	.099991	.000813	
303.15	0	.299937	.000869	
303.15	0	.4999	.00093	
303.15	0	.699984	.000997	
303.15	0	.900089	.001061	
303.15	0	1.000122	.001097	
308.15	0	0	.00072	
308.15	0	.099991	.000731	
308.15	0	.299937	.000781	
308.15	0	.4999	.000834	
308.15	0	.699984	.000891	
308.15	0	.900089	.000949	
308.15	0	1.000122	.000979	
313.15	0	0	.000653	
313.15	0	.099991	.000661	
313.15	0	.299937	.000706	
313.15	0	.4999	.000754	
313.15	0	.699984	.000804	
313.15	0	.900089	.000853	
313.15	0	1.000122	.000895	
293.15	.1502	0	.001011	
293.15	.1502	.100082	.001052	
293.15	.1502	.299995	.001124	
293.15	.1502	.499964	.001212	
293.15	.1502	.700204	.001304	
293.15	.1502	.900344	.001395	
293.15	.1502	1.00013	.001439	
298.15	.1502	0	.000891	
298.15	.1502	.100082	.000916	
298.15	.1502	.299995	.00098	
298.15	.1502	.499964	.001076	
298.15	.1502	.700204	.00115	
298.15	.1502	.900344	.001228	
298.15	.1502	1.00013	.001267	
303.15	.1502	0	.000791	
303.15	.1502	.100082	.000818	
303.15	.1502	.299995	.00088	
303.15	.1502	.499964	.000948	
303.15	.1502	.700204	.001012	
303.15	.1502	.900344	.00109	
303.15	.1502	1.00013	.001123	
308.15	.1502	0	.000712	
308.15	.1502	.100082	.000742	
308.15	.1502	.299995	.000792	
308.15	.1502	.499964	.00085	
308.15	.1502	.700204	.000913	
308.15	.1502	.900344	.000975	
308.15	.1502	1.00013	.001013	
313.15	.1502	0	.000645	
313.15	.1502	.100082	.00067	
313.15	.1502	.299995	.000711	
313.15	.1502	.499964	.00077	
313.15	.1502	.700204	.000819	
313.15	.1502	.900344	.000875	
313.15	.1502	1.00013	.000915	
293.15	.3004	0	.001018	
293.15	.3004	.100361	.001074	
293.15	.3004	.300324	.001154	
293.15	.3004	.499928	.001232	
293.15	.3004	.700062	.00132	
293.15	.3004	.900073	.001415	
293.15	.3004	.999963	.001468	
298.15	.3004	0	.000908	
298.15	.3004	.100361	.000942	
298.15	.3004	.300324	.001009	
298.15	.3004	.499928	.001113	
298.15	.3004	.700062	.001172	
298.15	.3004	.900073	.001256	
298.15	.3004	.999963	.00129	
303.15	.3004	0	.000814	
303.15	.3004	.100361	.000847	
303.15	.3004	.300324	.000904	
303.15	.3004	.499928	.000979	
303.15	.3004	.700062	.00104	
303.15	.3004	.900073	.001121	
303.15	.3004	.999963	.001161	
308.15	.3004	0	.000738	
308.15	.3004	.100361	.000774	
308.15	.3004	.300324	.00082	
308.15	.3004	.499928	.000883	
308.15	.3004	.700062	.000934	
308.15	.3004	.900073	.001006	
308.15	.3004	.999963	.00104	
313.15	.3004	0	.000665	
313.15	.3004	.100361	.000702	
313.15	.3004	.300324	.000731	
313.15	.3004	.499928	.000789	
313.15	.3004	.700062	.000843	
313.15	.3004	.900073	.0009	
313.15	.3004	.999963	.000936	
293.15	.5002	0	.001034	
293.15	.5002	.099991	.001086	
293.15	.5002	.299937	.001167	
293.15	.5002	.4999	.001264	
293.15	.5002	.699984	.001351	
293.15	.5002	.900089	.001443	
293.15	.5002	1.000122	.001477	
298.15	.5002	0	.000933	
298.15	.5002	.099988	.00098	
298.15	.5002	.301107	.00105	
298.15	.5002	.500101	.001134	
298.15	.5002	.70004	.001197	
298.15	.5002	.900055	.001279	
298.15	.5002	1.000124	.001313	
303.15	.5002	0	.000835	
303.15	.5002	.099988	.000884	
303.15	.5002	.301107	.000942	
303.15	.5002	.500101	.000998	
303.15	.5002	.70004	.001069	
303.15	.5002	.900055	.001135	
303.15	.5002	1.000124	.001174	
308.15	.5002	0	.000755	
308.15	.5002	.099988	.000798	
308.15	.5002	.301107	.000849	
308.15	.5002	.500101	.000897	
308.15	.5002	.70004	.00096	
308.15	.5002	.900055	.001019	
308.15	.5002	1.000124	.001054	
313.15	.5002	0	.000687	
313.15	.5002	.099988	.00071	
313.15	.5002	.301107	.000759	
313.15	.5002	.500101	.000814	
313.15	.5002	.70004	.000865	
313.15	.5002	.900055	.000918	
313.15	.5002	1.000124	.000945	
293.15	.7001	0	.001059	
293.15	.7001	.1	.001131	
293.15	.7001	.299994	.001213	
293.15	.7001	.500001	.001293	
293.15	.7001	.70001	.001397	
293.15	.7001	.9002	.001481	
293.15	.7001	.99989	.001512	
298.15	.7001	0	.00095	
298.15	.7001	.1	.001012	
298.15	.7001	.299994	.001077	
298.15	.7001	.500001	.001151	
298.15	.7001	.70001	.00123	
298.15	.7001	.9002	.001306	
298.15	.7001	.99989	.00133	
303.15	.7001	0	.000852	
303.15	.7001	.1	.000901	
303.15	.7001	.299994	.000979	
303.15	.7001	.500001	.001029	
303.15	.7001	.70001	.001096	
303.15	.7001	.9002	.001159	
303.15	.7001	.99989	.001199	
308.15	.7001	0	.000768	
308.15	.7001	.1	.000807	
308.15	.7001	.299994	.000874	
308.15	.7001	.500001	.000927	
308.15	.7001	.70001	.000982	
308.15	.7001	.9002	.001042	
308.15	.7001	.99989	.001073	
313.15	.7001	0	.000701	
313.15	.7001	.1	.000724	
313.15	.7001	.299994	.000783	
313.15	.7001	.500001	.000844	
313.15	.7001	.70001	.000886	
313.15	.7001	.9002	.000938	
313.15	.7001	.99989	.000955	

System: DL-2-aminobutyric acid + water; phases: Liquid
Property: Mass density, kg/m3 (Liquid); method: Vibrating tube method
Temperature, K	Molality, mol/kg of DL-2-aminobutyric acid	Pressure, kPa	Mass density, kg/m3	uncertainty
293.15	.099991	75	1001.01	
293.15	.299937	75	1006.401	
293.15	.4999	75	1011.572	
293.15	.699984	75	1016.563	
293.15	.900089	75	1021.369	
293.15	1.000122	75	1023.703	
298.15	.099991	75	999.805	
298.15	.299937	75	1005.12	
298.15	.4999	75	1010.247	
298.15	.699984	75	1015.202	
298.15	.900089	75	1019.98	
298.15	1.000122	75	1022.303	
303.15	.099991	75	998.37	
303.15	.299937	75	1003.66	
303.15	.4999	75	1008.748	
303.15	.699984	75	1013.662	
303.15	.900089	75	1018.4	
303.15	1.000122	75	1020.703	
308.15	.099991	75	996.759	
308.15	.299937	75	1002	
308.15	.4999	75	1007.048	
308.15	.699984	75	1011.922	
308.15	.900089	75	1016.62	
308.15	1.000122	75	1018.903	
313.15	.099991	75	994.9	
313.15	.299937	75	999.99	
313.15	.4999	75	1004.828	
313.15	.699984	75	1009.411	
313.15	.900089	75	1013.715	
313.15	1.000122	75	1015.785	
293.15	0	75	998.234	
298.15	0	75	997.073	
303.15	0	75	995.649	
308.15	0	75	994.063	
313.15	0	75	992.247	

System: DL-2-aminobutyric acid + water; phases: Liquid
Fixed: Frequency, MHz = 3
Property: Speed of sound, m/s (Liquid); method: Sing-around technique in a fixed-path interferometer
Temperature, K	Molality, mol/kg of DL-2-aminobutyric acid	Pressure, kPa	Speed of sound, m/s	uncertainty
293.15	.099991	75	1490.7	
293.15	.299937	75	1506.79	
293.15	.4999	75	1522.58	
293.15	.699984	75	1538.49	
293.15	.900089	75	1554.23	
293.15	1.000122	75	1561.79	
298.15	.099991	75	1504.65	
298.15	.299937	75	1519.9	
298.15	.4999	75	1535.08	
298.15	.699984	75	1550.03	
298.15	.900089	75	1565.06	
298.15	1.000122	75	1572.42	
303.15	.099991	75	1516.78	
303.15	.299937	75	1531.3	
303.15	.4999	75	1545.8	
303.15	.699984	75	1560.04	
303.15	.900089	75	1574.46	
303.15	1.000122	75	1581.66	
308.15	.099991	75	1526.91	
308.15	.299937	75	1540.84	
308.15	.4999	75	1554.74	
308.15	.699984	75	1568.63	
308.15	.900089	75	1582.55	
308.15	1.000122	75	1589.47	
313.15	.099991	75	1535.65	
313.15	.299937	75	1548.73	
313.15	.4999	75	1561.8	
313.15	.699984	75	1574.69	
313.15	.900089	75	1587.98	
313.15	1.000122	75	1595.1	
293.15	0	75	1482.56	
298.15	0	75	1496.97	
303.15	0	75	1509.38	
308.15	0	75	1519.93	
313.15	0	75	1528.99	

System: DL-2-aminobutyric acid + water; phases: Liquid
Property: Viscosity, Pa*s (Liquid); method: Capillary tube (Ostwald; Ubbelohde) method
Temperature, K	Molality, mol/kg of DL-2-aminobutyric acid	Pressure, kPa	Viscosity, Pa*s	uncertainty
293.15	.099991	75	.001042	
293.15	.299937	75	.001109	
293.15	.4999	75	.001181	
293.15	.699984	75	.001266	
293.15	.900089	75	.001358	
293.15	1.000122	75	.001416	
298.15	.099991	75	.000905	
298.15	.299937	75	.00097	
298.15	.4999	75	.001057	
298.15	.699984	75	.001121	
298.15	.900089	75	.001199	
298.15	1.000122	75	.001243	
303.15	.099991	75	.000813	
303.15	.299937	75	.000869	
303.15	.4999	75	.00093	
303.15	.699984	75	.000997	
303.15	.900089	75	.001061	
303.15	1.000122	75	.001097	
308.15	.099991	75	.000731	
308.15	.299937	75	.000781	
308.15	.4999	75	.000834	
308.15	.699984	75	.000891	
308.15	.900089	75	.000949	
308.15	1.000122	75	.000979	
313.15	.099991	75	.000661	
313.15	.299937	75	.000706	
313.15	.4999	75	.000754	
313.15	.699984	75	.000804	
313.15	.900089	75	.000853	
313.15	1.000122	75	.000895	
293.15	0	75	.001003	
298.15	0	75	.00089	
303.15	0	75	.000798	
308.15	0	75	.00072	
313.15	0	75	.000653	

System: sodium chloride + water; phases: Liquid
Property: Mass density, kg/m3 (Liquid); method: Vibrating tube method
Temperature, K	Molality, mol/kg of sodium chloride	Pressure, kPa	Mass density, kg/m3	uncertainty
293.15	.1502	75	1004.43	
298.15	.1502	75	1003.212	
303.15	.1502	75	1001.737	
308.15	.1502	75	1000.103	
313.15	.1502	75	998.234	
293.15	.3004	75	1010.402	
298.15	.3004	75	1008.887	
303.15	.3004	75	1007.39	
308.15	.3004	75	1005.855	
313.15	.3004	75	1004.134	
293.15	.5002	75	1018.105	
298.15	.5002	75	1016.992	
303.15	.5002	75	1015.579	
308.15	.5002	75	1013.867	
313.15	.5002	75	1011.764	
293.15	.7001	75	1026.187	
298.15	.7001	75	1024.848	
303.15	.7001	75	1023.122	
308.15	.7001	75	1021.528	
313.15	.7001	75	1019.728	
293.15	0	75	998.234	
298.15	0	75	997.073	
303.15	0	75	995.649	
308.15	0	75	994.063	
313.15	0	75	992.247	

System: sodium chloride + water; phases: Liquid
Fixed: Frequency, MHz = 3
Property: Speed of sound, m/s (Liquid); method: Sing-around technique in a fixed-path interferometer
Temperature, K	Molality, mol/kg of sodium chloride	Pressure, kPa	Speed of sound, m/s	uncertainty
293.15	.1502	75	1492.54	
298.15	.1502	75	1506.25	
303.15	.1502	75	1518.06	
308.15	.1502	75	1528.47	
313.15	.1502	75	1537.62	
293.15	.3004	75	1502	
298.15	.3004	75	1515.26	
303.15	.3004	75	1526.99	
308.15	.3004	75	1537.11	
313.15	.3004	75	1545.69	
293.15	.5002	75	1514.43	
298.15	.5002	75	1527.35	
303.15	.5002	75	1538.56	
308.15	.5002	75	1548.3	
313.15	.5002	75	1556.53	
293.15	.7001	75	1526.91	
298.15	.7001	75	1539.25	
303.15	.7001	75	1550.18	
308.15	.7001	75	1559.47	
313.15	.7001	75	1567.33	
293.15	0	75	1482.56	
298.15	0	75	1496.97	
303.15	0	75	1509.38	
308.15	0	75	1519.93	
313.15	0	75	1528.99	

System: sodium chloride + water; phases: Liquid
Property: Viscosity, Pa*s (Liquid); method: Capillary tube (Ostwald; Ubbelohde) method
Temperature, K	Molality, mol/kg of sodium chloride	Pressure, kPa	Viscosity, Pa*s	uncertainty
293.15	.1502	75	.001011	
298.15	.1502	75	.000891	
303.15	.1502	75	.000791	
308.15	.1502	75	.000712	
313.15	.1502	75	.000645	
293.15	.3004	75	.001018	
298.15	.3004	75	.000908	
303.15	.3004	75	.000814	
308.15	.3004	75	.000738	
313.15	.3004	75	.000665	
293.15	.5002	75	.001034	
298.15	.5002	75	.000933	
303.15	.5002	75	.000835	
308.15	.5002	75	.000755	
313.15	.5002	75	.000687	
293.15	.7001	75	.001059	
298.15	.7001	75	.00095	
303.15	.7001	75	.000852	
308.15	.7001	75	.000768	
313.15	.7001	75	.000701	
293.15	0	75	.001003	
298.15	0	75	.00089	
303.15	0	75	.000798	
308.15	0	75	.00072	
313.15	0	75	.000653	
