Measured thermophysical data. Limiting diffusion coefficients of sodium octanoate, and octanoic acid in aqueous solutions without and with .alpha.-cyclodextrin
Source: J. Chem. Thermodyn., 2016, 10.1016/j.jct.2015.11.013
Compound 1: .alpha.-cyclodextrin, C36H60O30, purity 98%
Compound 2: sodium octanoate, C8H15NaO2, purity 99%
Compound 3: octanoic acid, C8H16O2, purity 98%
Compound 4: water, H2O

System: sodium octanoate + water; phases: Liquid
Fixed: Pressure, kPa = 101.3
Fixed: Temperature, K = 298.15
Property: Binary diffusion coefficient, m2/s (Liquid); method: Taylor dispersion method
Amount concentration (molarity), mol/dm3 of sodium octanoate	Binary diffusion coefficient, m2/s	uncertainty
.025	0.000000000856	
.05	0.000000000854	
.075	0.000000000852	
.085	0.000000000851	
.1	0.00000000085	

System: octanoic acid + water; phases: Liquid
Fixed: Pressure, kPa = 101.3
Fixed: Temperature, K = 298.15
Property: Binary diffusion coefficient, m2/s (Liquid); method: Taylor dispersion method
Amount concentration (molarity), mol/dm3 of octanoic acid	Binary diffusion coefficient, m2/s	uncertainty
.00075	0.000000001189	
.001	0.000000001077	
.0015	0.00000000095	
.002	0.000000000872	
.0025	0.000000000849	
.0025	0.00000000085	

System: octanoic acid + water + .alpha.-cyclodextrin; phases: Liquid
Fixed: Pressure, kPa = 101.3
Fixed: Temperature, K = 298.15
Property: Binary diffusion coefficient, m2/s (Liquid); method: Taylor dispersion method
Amount concentration (molarity), mol/dm3 of octanoic acid	Amount concentration (molarity), mol/dm3 of .alpha.-cyclodextrin	Binary diffusion coefficient, m2/s	uncertainty
0	.0025	0.000000000353	
.0005	.002	0.000000000353	
.0015	.0025	0.000000000357	
.0025	.004	0.000000000358	
.001	.0015	0.000000000359	
.00125	.00125	0.000000000365	
.0015	.001	0.000000000372	
.0025	.001	0.000000000381	
.003	.001	0.000000000386	
.0025	0	0.00000000085	

System: water + .alpha.-cyclodextrin; phases: Liquid
Property: Binary diffusion coefficient, m2/s (Liquid); method: Taylor dispersion method
Amount concentration (molarity), mol/dm3 of .alpha.-cyclodextrin	Pressure, kPa	Temperature, K	Binary diffusion coefficient, m2/s	uncertainty
.0025	101.3	298.15	0.000000000353	
