Measured thermophysical data. Phase diagrams of acetonitrile or (acetone + water + EPPS) buffer phase separation systems at 298.15 K and quantum chemical modeling
Source: J. Chem. Thermodyn., 2012, 10.1016/j.jct.2012.03.026
Compound 1: 4-(2-hydroxyethyl)-1-piperazinepropanesulfonic acid, C9H20N2O4S, purity 99.5%
Compound 2: cyanomethane, C2H3N, purity 99%
Compound 3: water, H2O, purity 99.9%
Compound 4: dimethyl ketone, C3H6O, purity 99.98%

System: cyanomethane + water + 4-(2-hydroxyethyl)-1-piperazinepropanesulfonic acid; phases: Liquid
Fixed: Temperature, K = 298.15
Fixed: Pressure, kPa = 101
Property: Mass density, kg/m3 (Liquid); method: Vibrating tube method
Solvent: Mass fraction of cyanomethane	Molality, mol/kg of 4-(2-hydroxyethyl)-1-piperazinepropanesulfonic acid	Mass density, kg/m3	uncertainty
.1	2.9473	1122.71	.05
.1	3.6858	1143.29	.05
.1	5.1017	1173.83	.05
.1	6.2845	1193.25	.05
.1	7.2775	1206.63	.05
.1	8.1103	1215.95	.05
.2	2.3041	1086.35	.05
.2	3.0017	1110.25	.05
.2	3.7646	1131.86	.05
.2	4.6992	1153.81	.05
.2	6.0502	1178.59	.05
.2	7.1234	1196.63	.05
.1	8.36	1218.6	.2
.2	7.42	1201.5	.2

System: cyanomethane + water + 4-(2-hydroxyethyl)-1-piperazinepropanesulfonic acid; phases: Liquid, Crystal
Fixed: Pressure, kPa = 101
Fixed: Temperature, K = 298.15
Property: Mass fraction of 4-(2-hydroxyethyl)-1-piperazinepropanesulfonic acid (Liquid); method: Titration method
Mass fraction of water	Mass fraction of 4-(2-hydroxyethyl)-1-piperazinepropanesulfonic acid	uncertainty
.3074	.6926	.0005
.2893	.6784	.0005
.2783	.6518	.0005

System: cyanomethane + water + 4-(2-hydroxyethyl)-1-piperazinepropanesulfonic acid; phases: Liquid mixture 1, Liquid mixture 2
Fixed: Pressure, kPa = 101
Fixed: Temperature, K = 298.15
Property: Mass fraction of 4-(2-hydroxyethyl)-1-piperazinepropanesulfonic acid (Liquid mixture 1); method: Titration method
Mass fraction of water	Mass fraction of 4-(2-hydroxyethyl)-1-piperazinepropanesulfonic acid	uncertainty
.0996	.0038	.0005
.1988	.0058	.0005
.2957	.0143	.0005
.388	.03	.0005
.5271	.1211	.0005
.5058	.317	.0005
.4322	.4332	.0005

System: cyanomethane + water + 4-(2-hydroxyethyl)-1-piperazinepropanesulfonic acid; phases: Liquid mixture 1, Crystal, Liquid mixture 2
Fixed: Temperature, K = 298.15
Property: Mass fraction of 4-(2-hydroxyethyl)-1-piperazinepropanesulfonic acid (Liquid mixture 1); method: Titration method
Mass fraction of water	Mass fraction of 4-(2-hydroxyethyl)-1-piperazinepropanesulfonic acid	uncertainty
.2712	.6449	.0005
.2677	.6395	.0005
.2592	.6296	.0005
.2466	.5888	.0005
.2333	.5334	.0005
.2134	.4666	.0005
.1852	.3825	.0005
.1444	.2778	.0005
.0898	.1016	.0005
.0785	.0272	.0005
.0802	.0014	.0005

System: cyanomethane + water + 4-(2-hydroxyethyl)-1-piperazinepropanesulfonic acid; phases: Liquid mixture 2, Liquid mixture 1
Fixed: Pressure, kPa = 101
Property: Mass fraction of water (Liquid mixture 2); method: Density calibration data
Property: Mass fraction of cyanomethane (Liquid mixture 1); method: Density calibration data
Property: Mass fraction of water (Liquid mixture 1); method: Density calibration data
Temperature, K	Mass fraction of cyanomethane	Mass fraction of water	uncertainty	Mass fraction of cyanomethane	uncertainty	Mass fraction of water	uncertainty
298.15	.2943	.5532	.0004	.684	.0004	.3021	.0004
298.15	.2501	.5632	.0004	.724	.0004	.2663	.0004
298.15	.206	.538	.0004	.7856	.0004	.2087	.0004
298.15	.1996	.5293	.0004	.7935	.0004	.2009	.0004
298.15	.1689	.4918	.0004	.8316	.0004	.1648	.0004
298.15	.1788	.5174	.0004	.8102	.0004	.1857	.0004

System: cyanomethane + water + 4-(2-hydroxyethyl)-1-piperazinepropanesulfonic acid; phases: Liquid mixture 2, Liquid mixture 1, Crystal
Fixed: Temperature, K = 298.15
Property: Mass fraction of water (Liquid mixture 2); method: Density calibration data
Mass fraction of cyanomethane	Mass fraction of water	uncertainty
.0816	.2837	.0004

System: dimethyl ketone + water + 4-(2-hydroxyethyl)-1-piperazinepropanesulfonic acid; phases: Liquid
Fixed: Temperature, K = 298.15
Fixed: Pressure, kPa = 101
Property: Mass density, kg/m3 (Liquid); method: Vibrating tube method
Solvent: Mass fraction of dimethyl ketone	Molality, mol/kg of 4-(2-hydroxyethyl)-1-piperazinepropanesulfonic acid	Mass density, kg/m3	uncertainty
.1	2.6822	1117.34	.05
.1	3.6191	1144.71	.05
.1	4.9918	1174.73	.05
.1	6.0701	1193.13	.05
.1	7.1971	1208.33	.05
.1	7.6378	1213.78	.05
.2	2.8464	1112.97	.05
.2	3.7186	1137.84	.05
.2	5.0395	1166.94	.05
.2	5.7867	1180.47	.05
.2	6.1947	1187.62	.05
.2	6.6477	1195.44	.05
.1	8.04	1218.5	.2
.2	6.91	1199.8	.2

System: dimethyl ketone + water + 4-(2-hydroxyethyl)-1-piperazinepropanesulfonic acid; phases: Liquid, Crystal
Fixed: Pressure, kPa = 101
Fixed: Temperature, K = 298.15
Property: Mass fraction of 4-(2-hydroxyethyl)-1-piperazinepropanesulfonic acid (Liquid); method: Titration method
Mass fraction of water	Mass fraction of 4-(2-hydroxyethyl)-1-piperazinepropanesulfonic acid	uncertainty
.3074	.6926	.0005
.2969	.6698	.0005
.2915	.6355	.0005

System: dimethyl ketone + water + 4-(2-hydroxyethyl)-1-piperazinepropanesulfonic acid; phases: Liquid mixture 1, Liquid mixture 2
Fixed: Pressure, kPa = 101
Fixed: Temperature, K = 298.15
Property: Mass fraction of 4-(2-hydroxyethyl)-1-piperazinepropanesulfonic acid (Liquid mixture 1); method: Titration method
Mass fraction of water	Mass fraction of 4-(2-hydroxyethyl)-1-piperazinepropanesulfonic acid	uncertainty
.372	.497	.0005
.4094	.4143	.0005
.434	.2757	.0005
.4124	.1753	.0005
.3657	.0863	.0005
.3153	.0335	.0005
.197	.0179	.0005
.0991	.0108	.0005

System: dimethyl ketone + water + 4-(2-hydroxyethyl)-1-piperazinepropanesulfonic acid; phases: Liquid mixture 1, Crystal, Liquid mixture 2
Fixed: Temperature, K = 298.15
Property: Mass fraction of 4-(2-hydroxyethyl)-1-piperazinepropanesulfonic acid (Liquid mixture 1); method: Titration method
Mass fraction of water	Mass fraction of 4-(2-hydroxyethyl)-1-piperazinepropanesulfonic acid	uncertainty
.2833	.6153	.0005
.2779	.6023	.0005
.2677	.5532	.0005
.2527	.4947	.0005
.2255	.4365	.0005
.2086	.3607	.0005
.1541	.2318	.0005
.0951	.0501	.0005

System: dimethyl ketone + water + 4-(2-hydroxyethyl)-1-piperazinepropanesulfonic acid; phases: Liquid mixture 2, Liquid mixture 1
Property: Mass fraction of water (Liquid mixture 2); method: Density calibration data
Property: Mass fraction of dimethyl ketone (Liquid mixture 1); method: Density calibration data
Property: Mass fraction of water (Liquid mixture 1); method: Density calibration data
Temperature, K	Pressure, kPa	Mass fraction of dimethyl ketone	Mass fraction of water	uncertainty	Mass fraction of dimethyl ketone	uncertainty	Mass fraction of water	uncertainty
298.15	101.325	.2802	.436	.0004	.6474	.0004	.3091	.0004
298.15	101.325	.2504	.4305	.0004	.68	.0004	.2888	.0004
298.15	101.325	.1833	.4153	.0004	.7712	.0004	.2182	.0004
298.15	101.325	.1813	.4147	.0004	.771	.0004	.219	.0004
298.15	101.325	.1298	.3823	.0004	.8485	.0004	.1482	.0004
298.15	101.325	.1227	.3603	.0004	.8622	.0004	.1355	.0004

System: dimethyl ketone + water + 4-(2-hydroxyethyl)-1-piperazinepropanesulfonic acid; phases: Liquid mixture 2, Crystal, Liquid mixture 1
Fixed: Temperature, K = 298.15
Property: Mass fraction of water (Liquid mixture 2); method: Density calibration data
Mass fraction of dimethyl ketone	Mass fraction of water	uncertainty
.1026	.2719	.0004
