Measured thermophysical data. Solubility of ionic liquids in water and octan-1-ol and octan-1-ol/water, or 2-phenylethanol/water partition coefficients
Source: J. Chem. Thermodyn., 2012, 10.1016/j.jct.2012.06.003
Compound 1: 1-methyl-3-ethylimidazolium tris(pentafluoroethyl)trifluorophosphate, C12H11F18N2P, purity 99%
Compound 2: 1-hexyl-3-methylpyridinium trifluoromethanesulfonate, C13H20F3NO3S
Compound 3: N-Octylisoquinolinium bis{tri(fluoromethyl)sulfonyl}imide, C19H24F6N2O4S2
Compound 4: octyl alcohol, C8H18O, purity 99.8%
Compound 5: 2-phenylethanol, C8H10O, purity 99.8%
Compound 6: water, H2O, purity 99.9%

System: 1-hexyl-3-methylpyridinium trifluoromethanesulfonate; phases: Crystal, Liquid, Air at 1 atmosphere
Property: Normal melting temperature, K (Crystal); method: DSC/DTA
Normal melting temperature, K	uncertainty
337.76	.05

System: 1-hexyl-3-methylpyridinium trifluoromethanesulfonate; phases: Crystal, Liquid, Air at 1 atmosphere
Property: Normal melting temperature, K (Crystal); method: Visual method
Normal melting temperature, K	uncertainty
336	.05

System: 1-hexyl-3-methylpyridinium trifluoromethanesulfonate; phases: Crystal, Liquid, Air at 1 atmosphere
Property: Molar enthalpy of transition or fusion, kJ/mol (Crystal); method: DSC/DTA
Molar enthalpy of transition or fusion, kJ/mol	uncertainty
41.968	.08

System: 1-hexyl-3-methylpyridinium trifluoromethanesulfonate; phases: Crystal 2, Crystal 1, Air at 1 atmosphere
Property: Molar enthalpy of transition or fusion, kJ/mol (Crystal 2); method: DSC/DTA
Molar enthalpy of transition or fusion, kJ/mol	uncertainty
1.952	.05

System: 1-hexyl-3-methylpyridinium trifluoromethanesulfonate; phases: Crystal 2, Crystal 1, Air at 1 atmosphere
Property: Triple point temperature, K (Crystal 2); method: DSC/DTA
Triple point temperature, K	uncertainty
310.3	.05

System: octyl alcohol + 1-methyl-3-ethylimidazolium tris(pentafluoroethyl)trifluorophosphate; phases: Liquid mixture 1, Liquid mixture 2
Fixed: Pressure, kPa = 101
Property: Liquid-liquid equilibrium temperature, K (Liquid mixture 1); method: Visual observation
Mole fraction of 1-methyl-3-ethylimidazolium tris(pentafluoroethyl)trifluorophosphate	Liquid-liquid equilibrium temperature, K	uncertainty
.9389	303	.1
.9202	315	.1
.9119	324.7	.1
.8989	329.6	.1
.8766	338.7	.1
.8648	344.7	.1
.8525	346.1	.1
.841	351.1	.1
.8307	356.6	.1
.8207	360.4	.1
.0029	348.9	.1
.0027	345.2	.1
.0023	340.5	.1
.0013	299.1	.1

System: water + 1-methyl-3-ethylimidazolium tris(pentafluoroethyl)trifluorophosphate; phases: Liquid mixture 1, Liquid mixture 2
Fixed: Pressure, kPa = 101
Property: Liquid-liquid equilibrium temperature, K (Liquid mixture 1); method: Visual observation
Mole fraction of 1-methyl-3-ethylimidazolium tris(pentafluoroethyl)trifluorophosphate	Liquid-liquid equilibrium temperature, K	uncertainty
.9492	287.6	.1
.9386	295.5	.1
.9275	305.7	.1
.9016	313.8	.1
.8883	321.1	.1
.8701	327.3	.1
.8549	331.9	.1
.8414	336.3	.1
.8275	338.7	.1
.8137	340.9	.1
.8028	342.9	.1
.7885	345.3	.1
.7644	349.5	.1
.00000781	293.2	.1
.00000846	298.2	.1
.0000108	303.2	.1
.0000124	308.2	.1
.0138	313.2	.1

System: octyl alcohol + 1-hexyl-3-methylpyridinium trifluoromethanesulfonate; phases: Liquid, Crystal
Fixed: Pressure, kPa = 101
Property: Solid-liquid equilibrium temperature, K (Liquid); method: Visual observation
Mole fraction of 1-hexyl-3-methylpyridinium trifluoromethanesulfonate	Solid-liquid equilibrium temperature, K	uncertainty
1	335.9	.1
.9192	332.6	.1
.8796	331.1	.1
.8469	329.1	.1
.823	328.9	.1
.7759	327.4	.1
.7244	325.7	.1
.7021	324.6	.1
.6574	322.9	.1
.6177	321.6	.1
.5846	320.4	.1
.5537	319.1	.1
.5134	317.7	.1
.472	316	.1
.4334	314.7	.1
.3924	312.8	.1
.3545	311.8	.1
.321	310.3	.1
.2772	308.7	.1
.231	307.2	.1
.1919	305.8	.1
.1609	304.8	.1
.1308	303.3	.1
.0706	301.1	.1
.067	300.4	.1
.0623	299.9	.1
.059	299.4	.1
.0555	299	.1
.0504	298.4	.1
.0425	297.7	.1
.0323	296.3	.1
.0258	294.5	.1
.0214	293.3	.1
.017	291.9	.1

System: 2-phenylethanol + 1-hexyl-3-methylpyridinium trifluoromethanesulfonate; phases: Liquid, Crystal
Fixed: Pressure, kPa = 101
Property: Solid-liquid equilibrium temperature, K (Liquid); method: Visual observation
Mole fraction of 1-hexyl-3-methylpyridinium trifluoromethanesulfonate	Solid-liquid equilibrium temperature, K	uncertainty
1	335.9	.1
.9356	333.3	.1
.8731	330.9	.1
.8163	328.1	.1
.7802	325.8	.1
.7014	320.6	.1
.6211	313.9	.1
.593	312.2	.1
.5713	309.3	.1
.5268	305.7	.1
.4868	301.8	.1
.4549	298.5	.1
.4106	293.2	.1
.3884	290.3	.1
.3572	285.2	.1
.2916	275.9	.1
.2207	262.9	.1

System: water + 1-hexyl-3-methylpyridinium trifluoromethanesulfonate; phases: Liquid, Crystal
Fixed: Pressure, kPa = 101
Property: Solid-liquid equilibrium temperature, K (Liquid); method: Visual observation
Mole fraction of 1-hexyl-3-methylpyridinium trifluoromethanesulfonate	Solid-liquid equilibrium temperature, K	uncertainty
1	335.9	.1
.7314	324.5	.1
.5786	315.5	.1
.4791	308.6	.1
.4021	304.1	.1
.3487	300.7	.1
.3102	297.9	.1
.2417	294.1	.1
.2155	294.9	.1

System: water + 1-hexyl-3-methylpyridinium trifluoromethanesulfonate; phases: Liquid mixture 1, Liquid mixture 2
Fixed: Pressure, kPa = 101
Property: Liquid-liquid equilibrium temperature, K (Liquid mixture 1); method: Visual observation
Mole fraction of 1-hexyl-3-methylpyridinium trifluoromethanesulfonate	Liquid-liquid equilibrium temperature, K	uncertainty
.1689	324.5	.1
.1631	330.8	.1
.1524	338	.1
.1441	344.2	.1
.1322	347.7	.1
.1194	350.3	.1
.1109	357	.1
.1006	359.1	.1
.00042	356.2	.1
.0003	349	.1
.1805	315.3	.1

System: octyl alcohol + water + 1-methyl-3-ethylimidazolium tris(pentafluoroethyl)trifluorophosphate; phases: Liquid mixture 2, Liquid mixture 1
Fixed: Temperature, K = 298.15
Fixed: Pressure, kPa = 101
Property: Amount concentration (molarity), mol/dm3 of 1-methyl-3-ethylimidazolium tris(pentafluoroethyl)trifluorophosphate (Liquid mixture 2); method: Spectrophotometry
Amount concentration (molarity), mol/dm3 of 1-methyl-3-ethylimidazolium tris(pentafluoroethyl)trifluorophosphate	Amount concentration (molarity), mol/dm3 of 1-methyl-3-ethylimidazolium tris(pentafluoroethyl)trifluorophosphate	uncertainty
.00735	.0685755	.0000001
.00489	.0401469	.0000001
.00219	.0142569	.0000001
.00096	.0055392	.0000001
.00075	.0041325	.0000001
.00049	.002646	.0000001

System: octyl alcohol + water + 1-hexyl-3-methylpyridinium trifluoromethanesulfonate; phases: Liquid mixture 2, Liquid mixture 1
Fixed: Temperature, K = 298.15
Fixed: Pressure, kPa = 101
Property: Amount concentration (molarity), mol/dm3 of 1-hexyl-3-methylpyridinium trifluoromethanesulfonate (Liquid mixture 2); method: Spectrophotometry
Amount concentration (molarity), mol/dm3 of 1-hexyl-3-methylpyridinium trifluoromethanesulfonate	Amount concentration (molarity), mol/dm3 of 1-hexyl-3-methylpyridinium trifluoromethanesulfonate	uncertainty
.00846	.010152	.0000001
.00796	.0089152	.0000001
.00706	.0068482	.0000001
.00487	.0033603	.0000001
.00311	.0014617	.0000001
.00224	.0006496	.0000001
.00163	.0003749	.0000001

System: octyl alcohol + water + N-Octylisoquinolinium bis{tri(fluoromethyl)sulfonyl}imide; phases: Liquid mixture 2, Liquid mixture 1
Fixed: Temperature, K = 298.15
Fixed: Pressure, kPa = 101
Property: Amount concentration (molarity), mol/dm3 of N-Octylisoquinolinium bis{tri(fluoromethyl)sulfonyl}imide (Liquid mixture 2); method: Spectrophotometry
Amount concentration (molarity), mol/dm3 of N-Octylisoquinolinium bis{tri(fluoromethyl)sulfonyl}imide	Amount concentration (molarity), mol/dm3 of N-Octylisoquinolinium bis{tri(fluoromethyl)sulfonyl}imide	uncertainty
.0000827	.01060214	.0000001
.0000774	.00799542	.0000001
.0000678	.00619692	.0000001
.0000596	.00542956	.0000001
.0000535	.00475615	.0000001
.0000458	.00290372	.0000001
.0000212	.00086284	.0000001

System: 2-phenylethanol + water + 1-methyl-3-ethylimidazolium tris(pentafluoroethyl)trifluorophosphate; phases: Liquid mixture 2, Liquid mixture 1
Fixed: Temperature, K = 298.15
Fixed: Pressure, kPa = 101
Property: Amount concentration (molarity), mol/dm3 of 1-methyl-3-ethylimidazolium tris(pentafluoroethyl)trifluorophosphate (Liquid mixture 2); method: Spectrophotometry
Amount concentration (molarity), mol/dm3 of 1-methyl-3-ethylimidazolium tris(pentafluoroethyl)trifluorophosphate	Amount concentration (molarity), mol/dm3 of 1-methyl-3-ethylimidazolium tris(pentafluoroethyl)trifluorophosphate	uncertainty
.001	.0033	.0000001
.000794	.003176	.0000001
.000768	.0016128	.0000001
.000685	.0015755	.0000001
.000617	.0016659	.0000001
.000573	.0026358	.0000001
.000495	.0019305	.0000001
.00048	.001968	.0000001
.000466	.0017242	.0000001
.000382	.0020628	.0000001

System: 2-phenylethanol + water + 1-hexyl-3-methylpyridinium trifluoromethanesulfonate; phases: Liquid mixture 2, Liquid mixture 1
Fixed: Temperature, K = 298.15
Fixed: Pressure, kPa = 101
Property: Amount concentration (molarity), mol/dm3 of 1-hexyl-3-methylpyridinium trifluoromethanesulfonate (Liquid mixture 2); method: Spectrophotometry
Amount concentration (molarity), mol/dm3 of 1-hexyl-3-methylpyridinium trifluoromethanesulfonate	Amount concentration (molarity), mol/dm3 of 1-hexyl-3-methylpyridinium trifluoromethanesulfonate	uncertainty
.00992	.042656	.0000001
.00876	.034164	.0000001
.00714	.025704	.0000001
.00672	.024864	.0000001
.00553	.021014	.0000001
.0054	.01944	.0000001
.00473	.019393	.0000001
.00366	.016104	.0000001
.00264	.010824	.0000001

System: 2-phenylethanol + water + N-Octylisoquinolinium bis{tri(fluoromethyl)sulfonyl}imide; phases: Liquid mixture 2, Liquid mixture 1
Fixed: Temperature, K = 298.15
Fixed: Pressure, kPa = 101
Property: Amount concentration (molarity), mol/dm3 of N-Octylisoquinolinium bis{tri(fluoromethyl)sulfonyl}imide (Liquid mixture 2); method: Spectrophotometry
Amount concentration (molarity), mol/dm3 of N-Octylisoquinolinium bis{tri(fluoromethyl)sulfonyl}imide	Amount concentration (molarity), mol/dm3 of N-Octylisoquinolinium bis{tri(fluoromethyl)sulfonyl}imide	uncertainty
.0001483	.03026803	.0000001
.0001063	.04110621	.0000001
.0000698	.04014198	.0000001
.0000378	.03257226	.0000001
.0000308	.02826516	.0000001
.0000188	.01814576	.0000001
.0000101	.01074741	.0000001
