Measured thermophysical data. Volumes, heat capacities, and compressibilities of the mixtures of acetonitrile and 2-methoxyethanol
Source: J. Chem. Thermodyn., 2011, 10.1016/j.jct.2011.04.010
Compound 1: ethanonitrile, C2H3N, purity 99.8%
Compound 2: ethylene glycol, monomethyl ether, C3H8O2, purity 99.9%

System: ethanonitrile + ethylene glycol, monomethyl ether; phases: Liquid
Fixed: Pressure, kPa = 101
Property: Mass density, kg/m3 (Liquid); method: Vibrating tube method
Temperature, K	Mole fraction of ethylene glycol, monomethyl ether	Mass density, kg/m3	uncertainty
308.15	0	765.735	.005
308.15	.00998	768.618	.005
308.15	.02137	771.87	.005
308.15	.03278	775.071	.005
308.15	.04058	777.238	.005
308.15	.0505	779.979	.005
308.15	.06827	784.813	.005
308.15	.07039	785.413	.005
308.15	.07541	786.728	.005
308.15	.09332	791.503	.005
308.15	.10188	793.744	.005
308.15	.15115	806.368	.005
308.15	.19499	817.055	.005
308.15	.24947	829.827	.005
308.15	.29811	840.655	.005
308.15	.40009	861.695	.005
308.15	.50055	880.458	.005
308.15	.6017	897.597	.005
308.15	.70414	913.484	.005
308.15	.80235	927.171	.005
308.15	.9066	940.325	.005
308.15	.91016	940.846	.005
308.15	.92134	942.098	.005
308.15	.93158	943.319	.005
308.15	.94169	944.49	.005
308.15	.95278	945.766	.005
308.15	.96324	946.944	.005
308.15	.97022	947.731	.005
308.15	.9814	948.974	.005
308.15	.99313	950.261	.005
308.15	1	951.01	.005
318.15	0	755.763	.005
318.15	.00977	758.593	.005
318.15	.02023	761.593	.005
318.15	.0304	764.483	.005
318.15	.04029	767.262	.005
318.15	.04893	769.671	.005
318.15	.05932	772.54	.005
318.15	.06681	774.593	.005
318.15	.07969	778.086	.005
318.15	.091	781.124	.005
318.15	.10152	783.904	.005
318.15	.15161	796.793	.005
318.15	.19502	807.486	.005
318.15	.25031	820.48	.005
318.15	.30396	832.469	.005
318.15	.40125	852.641	.005
318.15	.50074	871.365	.005
318.15	.6038	888.921	.005
318.15	.70311	904.33	.005
318.15	.80144	918.191	.005
318.15	.90342	931.153	.005
318.15	.91327	932.346	.005
318.15	.92351	933.569	.005
318.15	.93498	934.916	.005
318.15	.94341	935.911	.005
318.15	.95242	936.96	.005
318.15	.96351	938.217	.005
318.15	.97234	939.208	.005
318.15	.98137	940.219	.005
318.15	.9929	941.484	.005
318.15	1	942.253	.005

System: ethanonitrile + ethylene glycol, monomethyl ether; phases: Liquid
Fixed: Temperature, K = 298.15
Fixed: Pressure, kPa = 101
Property: Molar heat capacity at constant pressure, J/K/mol (Liquid); method: Flow calorimetry
Mole fraction of ethylene glycol, monomethyl ether	Molar heat capacity at constant pressure, J/K/mol	uncertainty
0	92.36	.27708
.0504	97.12	.29136
.10056	101.84	.30552
.15042	106.53	.31959
.16406	107.81	.32343
.19554	110.77	.33231
.19997	111.19	.33357
.30031	120.53	.36159
.40429	129.87	.38961
.45	133.82	.40146
.50068	138.04	.41412
.60211	146.04	.43812
.62866	148.03	.44409
.64967	149.58	.44874
.74534	156.4	.4692
.74931	156.67	.47001
.90642	167.3	.5019
.94983	170.12	.51036
1	173.25	.51975

System: ethanonitrile + ethylene glycol, monomethyl ether; phases: Liquid
Fixed: Temperature, K = 298.15
Fixed: Pressure, kPa = 101
Property: Speed of sound, m/s (Liquid); method: Ecolab MPFU speed of sound meter
Mole fraction of ethylene glycol, monomethyl ether	Speed of sound, m/s	uncertainty
0	1279.61	1
.09833	1281.26	1
.19359	1285.49	1
.29986	1292.42	1
.39891	1300.31	1
.50425	1309.46	1
.60497	1318.23	1
.73472	1328.43	1
.82946	1334.33	1
.9177	1338.08	1
1	1339.66	1
