Measured thermophysical data. Thermochemical study of the monobromonitrobenzene isomers
Source: J. Chem. Thermodyn., 2010, 10.1016/j.jct.2009.06.008
Compound 1: o-bromonitrobenzene, C6H4BrNO2, purity 99.4%
Compound 2: m-bromonitrobenzene, C6H4BrNO2, purity 99.5%
Compound 3: p-bromonitrobenzene, C6H4BrNO2, purity 99.4%
Compound 4: hydrogen bromide, BrH
Compound 5: carbon dioxide, CO2
Compound 6: nitrogen, N2
Compound 7: water, H2O
Compound 8: oxygen, O2
Compound 9: carbon, C
Compound 10: bromine, Br2
Compound 11: hydrogen, H2

System: o-bromonitrobenzene; phases: Crystal, Gas
Property: Vapor or sublimation pressure, kPa (Crystal); method: Knudsen effusion method
Temperature, K	Vapor or sublimation pressure, kPa	uncertainty
275.15	.000095	
277.15	.000124	
279.16	.000164	
281.17	.000208	
283.17	.000279	
285.17	.000351	
287.21	.000451	
289.17	.000581	
291.14	.000733	
293.14	.000913	
295.16	.001204	
275.15	.000094	
277.15	.000123	
279.16	.000165	
281.17	.00021	
283.17	.00028	
285.17	.000353	
287.21	.000459	
289.17	.000592	
291.14	.000729	
293.14	.000939	
295.16	.00121	
275.15	.000094	
277.15	.000123	
279.16	.000165	
281.17	.000212	
283.17	.000277	
285.17	.00035	
287.21	.000448	
289.17	.000594	
291.14	.000735	
293.14	.000925	
295.16	.001218	

System: o-bromonitrobenzene; phases: Gas
Property: Molar enthalpy, kJ/mol (Gas); method: Clausius-Clapeyron
Temperature, K	Pressure, kPa	Molar enthalpy, kJ/mol	uncertainty
285.16	100	85.5	

System: m-bromonitrobenzene; phases: Crystal, Gas
Property: Vapor or sublimation pressure, kPa (Crystal); method: Knudsen effusion method
Temperature, K	Vapor or sublimation pressure, kPa	uncertainty
279.57	.000143	
281.21	.000184	
283.14	.000238	
285.16	.000301	
287.19	.000398	
289.39	.000507	
291.16	.000649	
293.15	.000817	
295.17	.001067	
279.57	.000142	
281.21	.000183	
283.14	.000237	
285.16	.000299	
287.19	.000385	
289.39	.000506	
291.16	.00065	
293.15	.000815	
295.17	.001054	
279.57	.000141	
281.21	.000181	
283.14	.000236	
285.16	.000294	
287.19	.000381	
289.39	.000496	
291.16	.000635	
293.15	.00079	
295.17	.001033	

System: m-bromonitrobenzene; phases: Gas
Property: Molar enthalpy, kJ/mol (Gas); method: Clausius-Clapeyron
Temperature, K	Pressure, kPa	Molar enthalpy, kJ/mol	uncertainty
287.37	100	87	.5

System: p-bromonitrobenzene; phases: Crystal, Gas
Property: Vapor or sublimation pressure, kPa (Crystal); method: Knudsen effusion method
Temperature, K	Vapor or sublimation pressure, kPa	uncertainty
289.15	.000103	
291.12	.000122	
293.14	.00017	
295.15	.000209	
297.14	.000255	
299.15	.000332	
301.13	.000427	
303.14	.000526	
305.14	.000644	
307.14	.0008	
309.15	.00105	
289.15	.000101	
291.12	.000119	
293.14	.000165	
295.15	.000209	
297.14	.000255	
299.15	.000337	
301.13	.00041	
303.14	.000537	
305.14	.000653	
307.14	.000809	
309.15	.001036	
289.15	.000099	
291.12	.00012	
293.14	.000161	
295.15	.000202	
297.14	.000248	
299.15	.000333	
301.13	.000409	
303.14	.00052	
305.14	.000624	
307.14	.000788	
309.15	.00101	

System: p-bromonitrobenzene; phases: Gas
Property: Molar enthalpy, kJ/mol (Gas); method: Clausius-Clapeyron
Temperature, K	Pressure, kPa	Molar enthalpy, kJ/mol	uncertainty
299.15	100	86.6	.6

Reaction: -1 o-bromonitrobenzene + 1 hydrogen bromide + 6 carbon dioxide + 0.5 nitrogen + 1.5 water + -5.75 oxygen
Property: Specific internal energy of reaction at constant volume, J/g
-14551.7

Reaction: -1 m-bromonitrobenzene + 1 hydrogen bromide + 6 carbon dioxide + 0.5 nitrogen + 1.5 water + -5.75 oxygen
Property: Specific internal energy of reaction at constant volume, J/g
-14453.7

Reaction: -1 p-bromonitrobenzene + 1 hydrogen bromide + 6 carbon dioxide + 0.5 nitrogen + 1.5 water + -5.75 oxygen
Property: Specific internal energy of reaction at constant volume, J/g
-14420.7

Reaction: 1 o-bromonitrobenzene + -6 carbon + -0.5 bromine + -2 hydrogen + -0.5 nitrogen + -1 oxygen
Property: Molar enthalpy of reaction, kJ/mol
26.9

Reaction: 1 o-bromonitrobenzene + -6 carbon + -0.5 bromine + -2 hydrogen + -0.5 nitrogen + -1 oxygen
Property: Molar enthalpy of reaction, kJ/mol
112.1

Reaction: 1 m-bromonitrobenzene + -6 carbon + -0.5 bromine + -2 hydrogen + -0.5 nitrogen + -1 oxygen
Property: Molar enthalpy of reaction, kJ/mol
7.1

Reaction: 1 m-bromonitrobenzene + -6 carbon + -0.5 bromine + -2 hydrogen + -0.5 nitrogen + -1 oxygen
Property: Molar enthalpy of reaction, kJ/mol
93.9

Reaction: 1 p-bromonitrobenzene + -6 carbon + -0.5 bromine + -2 hydrogen + -0.5 nitrogen + -1 oxygen
Property: Molar enthalpy of reaction, kJ/mol
.5

Reaction: 1 p-bromonitrobenzene + -6 carbon + -0.5 bromine + -2 hydrogen + -0.5 nitrogen + -1 oxygen
Property: Molar enthalpy of reaction, kJ/mol
87.1
