Measured thermophysical data. Volumetric and viscometric study of aqueous binary mixtures of some glycol ethers at T = (275.15 and 283.15) K
Source: J. Chem. Thermodyn., 2011, 10.1016/j.jct.2011.07.008
Compound 1: ethylene glycol, monomethyl ether, C3H8O2, purity 98%
Compound 2: 2-ethoxyethanol, C4H10O2, purity 98%
Compound 3: diethylene glycol, methyl ether, C5H12O3, purity 98%
Compound 4: 3,6-dioxa-1-octanol, C6H14O3, purity 98%
Compound 5: water, H2O, purity 99.8%

System: ethylene glycol, monomethyl ether; phases: Liquid
Fixed: Pressure, kPa = 101.325
Property: Mass density, kg/m3 (Liquid); method: Pycnometric method
Temperature, K	Mass density, kg/m3	uncertainty
298.15	959.03	

System: ethylene glycol, monomethyl ether; phases: Liquid
Fixed: Pressure, kPa = 101.325
Property: Refractive index (Na D-line) (Liquid); method: Standard Abbe refractometry
Temperature, K	Refractive index (Na D-line)	uncertainty
298.15	1.4003	

System: 2-ethoxyethanol; phases: Liquid
Fixed: Pressure, kPa = 101.325
Property: Mass density, kg/m3 (Liquid); method: Pycnometric method
Temperature, K	Mass density, kg/m3	uncertainty
298.15	925.05	

System: 2-ethoxyethanol; phases: Liquid
Fixed: Pressure, kPa = 101.325
Property: Refractive index (Na D-line) (Liquid); method: Standard Abbe refractometry
Temperature, K	Refractive index (Na D-line)	uncertainty
298.15	1.4057	

System: diethylene glycol, methyl ether; phases: Liquid
Fixed: Pressure, kPa = 101.325
Property: Mass density, kg/m3 (Liquid); method: Pycnometric method
Temperature, K	Mass density, kg/m3	uncertainty
298.15	1014.39	

System: diethylene glycol, methyl ether; phases: Liquid
Fixed: Pressure, kPa = 101.325
Property: Refractive index (Na D-line) (Liquid); method: Standard Abbe refractometry
Temperature, K	Refractive index (Na D-line)	uncertainty
298.15	1.4245	

System: 3,6-dioxa-1-octanol; phases: Liquid
Fixed: Pressure, kPa = 101.325
Property: Mass density, kg/m3 (Liquid); method: Pycnometric method
Temperature, K	Mass density, kg/m3	uncertainty
298.15	984.045	

System: 3,6-dioxa-1-octanol; phases: Liquid
Fixed: Pressure, kPa = 101.325
Property: Refractive index (Na D-line) (Liquid); method: Standard Abbe refractometry
Temperature, K	Refractive index (Na D-line)	uncertainty
298.15	1.4253	

System: ethylene glycol, monomethyl ether + water; phases: Liquid
Fixed: Pressure, kPa = 101
Fixed: Temperature, K = 275.15
Property: Mass density, kg/m3 (Liquid); method: Pycnometric method
Molality, mol/kg of ethylene glycol, monomethyl ether	Mass density, kg/m3	uncertainty
0	999.94	.1
.0097	999.96	.1
.0205	999.99	.1
.0313	999.99	.1
.0393	1000.02	.1
.0487	1000.07	.1
.0638	1000.09	.1
.0719	1000.1	.1
.0813	1000.12	.1
.0905	1000.12	.1
.102	1000.17	.1

System: ethylene glycol, monomethyl ether + water; phases: Liquid
Fixed: Pressure, kPa = 101
Fixed: Temperature, K = 283.15
Property: Mass density, kg/m3 (Liquid); method: Buoyancy - hydrostatic balance with magnetic suspension - one sinker
Molality, mol/kg of ethylene glycol, monomethyl ether	Mass density, kg/m3	uncertainty
0	999.7	.1
.0104	999.73	.1
.0193	999.73	.1
.0326	999.76	.1
.0417	999.81	.1
.0492	999.79	.1
.0599	999.88	.1
.0698	999.93	.1
.0804	999.91	.1
.0893	999.94	.1
.0901	999.94	.1
.1	999.95	.1
.1013	999.97	.1

System: ethylene glycol, monomethyl ether + water; phases: Liquid
Fixed: Pressure, kPa = 101
Property: Viscosity, Pa*s (Liquid); method: Capillary tube (Ostwald; Ubbelohde) method
Temperature, K	Molality, mol/kg of ethylene glycol, monomethyl ether	Viscosity, Pa*s	uncertainty
275.15	0	.001674	.00003348
275.15	.0097	.001006	.00002012
275.15	.0205	.001011	.00002022
275.15	.0313	.001016	.00002032
275.15	.0393	.00102	.0000204
275.15	.0487	.001023	.00002046
275.15	.0638	.001028	.00002056
275.15	.0719	.00103	.0000206
275.15	.0813	.001032	.00002064
275.15	.0905	.001034	.00002068
275.15	.102	.001035	.0000207
283.15	0	.0013097	.000026194
283.15	.0104	.001001	.00002002
283.15	.0193	.001002	.00002004
283.15	.0326	.001005	.0000201
283.15	.0417	.001006	.00002012
283.15	.0492	.001008	.00002016
283.15	.0599	.001011	.00002022
283.15	.0698	.001013	.00002026
283.15	.0804	.001016	.00002032
283.15	.0893	.001019	.00002038
283.15	.0901	.001019	.00002038
283.15	.1	.001023	.00002046
283.15	.1013	.001023	.00002046

System: 2-ethoxyethanol + water; phases: Liquid
Fixed: Pressure, kPa = 101
Fixed: Temperature, K = 275.15
Property: Mass density, kg/m3 (Liquid); method: Pycnometric method
Molality, mol/kg of 2-ethoxyethanol	Mass density, kg/m3	uncertainty
0	999.94	.1
.0102	999.95	.1
.0202	999.95	.1
.0294	999.95	.1
.0459	999.96	.1
.0502	999.96	.1
.0602	999.97	.1
.071	1000	.1
.0818	1000	.1
.0902	1000.01	.1
.1008	1000.03	.1

System: 2-ethoxyethanol + water; phases: Liquid
Fixed: Pressure, kPa = 101
Fixed: Temperature, K = 283.15
Property: Mass density, kg/m3 (Liquid); method: Buoyancy - hydrostatic balance with magnetic suspension - one sinker
Molality, mol/kg of 2-ethoxyethanol	Mass density, kg/m3	uncertainty
0	999.7	.1
.0067	999.7	.1
.0191	999.71	.1
.0303	999.71	.1
.0392	999.74	.1
.0492	999.72	.1
.0598	999.72	.1
.0682	999.73	.1
.0799	999.73	.1
.0885	999.73	.1
.0906	999.73	.1
.0996	999.76	.1
.1004	999.78	.1

System: 2-ethoxyethanol + water; phases: Liquid
Fixed: Pressure, kPa = 101
Property: Viscosity, Pa*s (Liquid); method: Capillary tube (Ostwald; Ubbelohde) method
Temperature, K	Molality, mol/kg of 2-ethoxyethanol	Viscosity, Pa*s	uncertainty
283.15	0	.0013097	.000026194
283.15	.0067	.001002	.00002004
283.15	.0191	.001006	.00002012
283.15	.0303	.00101	.0000202
283.15	.0392	.001014	.00002028
283.15	.0492	.001018	.00002036
283.15	.0598	.001022	.00002044
283.15	.0682	.001026	.00002052
283.15	.0799	.001032	.00002064
283.15	.0885	.001036	.00002072
283.15	.0906	.001037	.00002074
283.15	.0996	.001042	.00002084
283.15	.1004	.001043	.00002086
275.15	0	.001674	.00003348
275.15	.0102	.001005	.0000201
275.15	.0202	.00101	.0000202
275.15	.0294	.001015	.0000203
275.15	.0459	.001025	.0000205
275.15	.0502	.001028	.00002056
275.15	.0602	.001035	.0000207
275.15	.071	.001042	.00002084
275.15	.0818	.00105	.000021
275.15	.0902	.001057	.00002114
275.15	.1008	.001065	.0000213

System: diethylene glycol, methyl ether + water; phases: Liquid
Fixed: Pressure, kPa = 101
Fixed: Temperature, K = 275.15
Property: Mass density, kg/m3 (Liquid); method: Pycnometric method
Molality, mol/kg of diethylene glycol, methyl ether	Mass density, kg/m3	uncertainty
0	999.94	.1
.0099	1000.07	.1
.0209	1000.18	.1
.0309	1000.32	.1
.0396	1000.42	.1
.052	1000.56	.1
.061	1000.66	.1
.0706	1000.76	.1
.0799	1000.86	.1
.093	1000.98	.1
.1057	1001.12	.1

System: diethylene glycol, methyl ether + water; phases: Liquid
Fixed: Pressure, kPa = 101
Fixed: Temperature, K = 283.15
Property: Mass density, kg/m3 (Liquid); method: Buoyancy - hydrostatic balance with magnetic suspension - one sinker
Molality, mol/kg of diethylene glycol, methyl ether	Mass density, kg/m3	uncertainty
0	999.7	.1
.0109	999.8	.1
.0191	999.93	.1
.0303	1000.04	.1
.0406	1000.11	.1
.0487	1000.17	.1
.0599	1000.27	.1
.0709	1000.38	.1
.0806	1000.47	.1
.09	1000.56	.1
.0901	1000.59	.1
.1009	1000.68	.1

System: diethylene glycol, methyl ether + water; phases: Liquid
Fixed: Pressure, kPa = 101
Property: Viscosity, Pa*s (Liquid); method: Capillary tube (Ostwald; Ubbelohde) method
Temperature, K	Molality, mol/kg of diethylene glycol, methyl ether	Viscosity, Pa*s	uncertainty
275.15	0	.001674	.00003348
275.15	.0099	.001004	.00002008
275.15	.0209	.001009	.00002018
275.15	.0309	.001014	.00002028
275.15	.0396	.001018	.00002036
275.15	.052	.001023	.00002046
275.15	.061	.001028	.00002056
275.15	.0706	.001032	.00002064
275.15	.0799	.001037	.00002074
275.15	.093	.001044	.00002088
275.15	.1057	.00105	.000021
283.15	0	.0013097	.000026194
283.15	.0109	.001004	.00002008
283.15	.0191	.001008	.00002016
283.15	.0303	.001012	.00002024
283.15	.0406	.001016	.00002032
283.15	.0487	.00102	.0000204
283.15	.0599	.001024	.00002048
283.15	.0709	.001029	.00002058
283.15	.0806	.001033	.00002066
283.15	.09	.001037	.00002074
283.15	.0901	.001037	.00002074
283.15	.1009	.001041	.00002082

System: 3,6-dioxa-1-octanol + water; phases: Liquid
Fixed: Pressure, kPa = 101
Fixed: Temperature, K = 275.15
Property: Mass density, kg/m3 (Liquid); method: Pycnometric method
Molality, mol/kg of 3,6-dioxa-1-octanol	Mass density, kg/m3	uncertainty
0	999.94	.1
.0108	1000.05	.1
.0203	1000.15	.1
.0306	1000.23	.1
.0409	1000.34	.1
.0504	1000.42	.1
.0625	1000.52	.1
.0707	1000.62	.1
.0809	1000.69	.1
.0904	1000.79	.1
.1025	1000.86	.1

System: 3,6-dioxa-1-octanol + water; phases: Liquid
Fixed: Pressure, kPa = 101
Fixed: Temperature, K = 283.15
Property: Mass density, kg/m3 (Liquid); method: Buoyancy - hydrostatic balance with magnetic suspension - one sinker
Molality, mol/kg of 3,6-dioxa-1-octanol	Mass density, kg/m3	uncertainty
0	999.7	.1
.0092	999.77	.1
.019	999.8	.1
.0291	999.96	.1
.0416	1000.08	.1
.0482	1000.09	.1
.062	1000.22	.1
.0687	1000.23	.1
.0796	1000.34	.1
.0904	1000.41	.1
.091	1000.39	.1
.0998	1000.48	.1
.1019	1000.46	.1

System: 3,6-dioxa-1-octanol + water; phases: Liquid
Fixed: Pressure, kPa = 101
Property: Viscosity, Pa*s (Liquid); method: Capillary tube (Ostwald; Ubbelohde) method
Temperature, K	Molality, mol/kg of 3,6-dioxa-1-octanol	Viscosity, Pa*s	uncertainty
283.15	0	.0013097	.000026194
283.15	.0092	.001004	.00002008
283.15	.019	.001008	.00002016
283.15	.0291	.001013	.00002026
283.15	.0416	.001019	.00002038
283.15	.0482	.001023	.00002046
283.15	.062	.00103	.0000206
283.15	.0687	.001034	.00002068
283.15	.0796	.001041	.00002082
283.15	.0904	.001047	.00002094
283.15	.091	.001047	.00002094
283.15	.0998	.001053	.00002106
283.15	.1019	.001054	.00002108
275.15	0	.001674	.00003348
275.15	.0108	.001008	.00002016
275.15	.0203	.001015	.0000203
275.15	.0306	.001022	.00002044
275.15	.0409	.001029	.00002058
275.15	.0504	.001035	.0000207
275.15	.0625	.001043	.00002086
275.15	.0707	.001048	.00002096
275.15	.0809	.001053	.00002106
275.15	.0904	.001058	.00002116
275.15	.1025	.001047	.00002094
