Measured thermophysical data. Physicochemical properties of low viscous lactam based ionic liquids
Source: J. Chem. Thermodyn., 2014, 10.1016/j.jct.2014.02.009
Compound 1: .gamma.-butyrolactam formate, C5H9NO3
Compound 2: .gamma.-butyrolactam acetate, C6H11NO3
Compound 3: .gamma.-butyrolactam hexanoate, C10H19NO3
Compound 4: .epsilon.-caprolactam formate, C7H13NO3
Compound 5: .epsilon.-caprolactam acetate, C8H15NO3
Compound 6: .epsilon.-caprolactam hexanoate, C12H23NO3

System: .gamma.-butyrolactam formate; phases: Liquid
Property: Mass density, kg/m3 (Liquid); method: Vibrating tube method
Pressure, kPa	Temperature, K	Mass density, kg/m3	uncertainty
100	293.15	1140.78	.05
100	298.15	1136.14	.05
100	303.15	1131.51	.05
100	308.15	1126.89	.05
100	313.15	1122.25	.05
100	318.15	1117.61	.05
100	323.15	1112.99	.05
100	328.15	1108.35	.05
100	333.15	1103.72	.05

System: .gamma.-butyrolactam formate; phases: Liquid
Property: Viscosity, Pa*s (Liquid); method: Falling or rolling sphere viscometry
Pressure, kPa	Temperature, K	Viscosity, Pa*s	uncertainty
100	293.15	.00717	.0000717
100	298.15	.00614	.0000614
100	303.15	.00532	.0000532
100	308.15	.00464	.0000464
100	313.15	.00409	.0000409
100	318.15	.00363	.0000363
100	323.15	.00325	.0000325
100	328.15	.00292	.0000292
100	333.15	.00265	.0000265

System: .gamma.-butyrolactam formate; phases: Liquid
Property: Speed of sound, m/s (Liquid); method: Sing-around technique in a fixed-path interferometer
Pressure, kPa	Temperature, K	Speed of sound, m/s	uncertainty
100	293.15	1531.18	.5
100	298.15	1515.7	.5
100	303.15	1500.02	.5
100	308.15	1484.38	.5
100	313.15	1468.45	.5
100	318.15	1452.9	.5
100	323.15	1437.45	.5
100	328.15	1422.07	.5
100	333.15	1406.8	.5

System: .gamma.-butyrolactam acetate; phases: Liquid
Property: Mass density, kg/m3 (Liquid); method: Vibrating tube method
Pressure, kPa	Temperature, K	Mass density, kg/m3	uncertainty
100	293.15	1099.8	.05
100	298.15	1095.35	.05
100	303.15	1090.91	.05
100	308.15	1086.47	.05
100	313.15	1082.03	.05
100	318.15	1077.57	.05
100	323.15	1073.12	.05
100	328.15	1068.69	.05
100	333.15	1064.24	.05

System: .gamma.-butyrolactam acetate; phases: Liquid
Property: Viscosity, Pa*s (Liquid); method: Falling or rolling sphere viscometry
Pressure, kPa	Temperature, K	Viscosity, Pa*s	uncertainty
100	293.15	.00936	.0000936
100	298.15	.00784	.0000784
100	303.15	.00666	.0000666
100	308.15	.00572	.0000572
100	313.15	.00496	.0000496
100	318.15	.00435	.0000435
100	323.15	.00383	.0000383
100	328.15	.0034	.000034
100	333.15	.00306	.0000306

System: .gamma.-butyrolactam acetate; phases: Liquid
Property: Speed of sound, m/s (Liquid); method: Sing-around technique in a fixed-path interferometer
Pressure, kPa	Temperature, K	Speed of sound, m/s	uncertainty
100	293.15	1514.48	.5
100	298.15	1496.73	.5
100	303.15	1480.86	.5
100	308.15	1463.96	.5
100	313.15	1447.15	.5
100	318.15	1429.33	.5
100	323.15	1412.54	.5
100	328.15	1395.74	.5
100	333.15	1378.97	.5

System: .gamma.-butyrolactam hexanoate; phases: Liquid
Property: Mass density, kg/m3 (Liquid); method: Vibrating tube method
Pressure, kPa	Temperature, K	Mass density, kg/m3	uncertainty
100	293.15	1018.78	.05
100	298.15	1014.67	.05
100	303.15	1010.57	.05
100	308.15	1006.47	.05
100	313.15	1002.37	.05
100	318.15	998.27	.05
100	323.15	994.17	.05
100	328.15	990.08	.05
100	333.15	985.98	.05

System: .gamma.-butyrolactam hexanoate; phases: Liquid
Property: Viscosity, Pa*s (Liquid); method: Falling or rolling sphere viscometry
Pressure, kPa	Temperature, K	Viscosity, Pa*s	uncertainty
100	293.15	.01467	.0001467
100	298.15	.01213	.0001213
100	303.15	.01016	.0001016
100	308.15	.00863	.0000863
100	313.15	.0074	.000074
100	318.15	.00642	.0000642
100	323.15	.00561	.0000561
100	328.15	.00494	.0000494
100	333.15	.00439	.0000439

System: .gamma.-butyrolactam hexanoate; phases: Liquid
Property: Speed of sound, m/s (Liquid); method: Sing-around technique in a fixed-path interferometer
Pressure, kPa	Temperature, K	Speed of sound, m/s	uncertainty
100	293.15	1429.33	.5
100	298.15	1412.8	.5
100	303.15	1396.2	.5
100	308.15	1379.64	.5
100	313.15	1363.22	.5
100	318.15	1346.92	.5
100	323.15	1330.72	.5
100	328.15	1314.67	.5
100	333.15	1298.59	.5

System: .epsilon.-caprolactam formate; phases: Liquid
Property: Mass density, kg/m3 (Liquid); method: Vibrating tube method
Pressure, kPa	Temperature, K	Mass density, kg/m3	uncertainty
100	293.15	1087.05	.05
100	298.15	1082.87	.05
100	303.15	1078.69	.05
100	308.15	1074.51	.05
100	313.15	1070.32	.05
100	318.15	1066.13	.05
100	323.15	1061.95	.05
100	328.15	1057.77	.05
100	333.15	1053.59	.05

System: .epsilon.-caprolactam formate; phases: Liquid
Property: Viscosity, Pa*s (Liquid); method: Falling or rolling sphere viscometry
Pressure, kPa	Temperature, K	Viscosity, Pa*s	uncertainty
100	293.15	.03096	.0003096
100	298.15	.02392	.0002392
100	303.15	.01886	.0001886
100	308.15	.01514	.0001514
100	313.15	.01236	.0001236
100	318.15	.01024	.0001024
100	323.15	.00859	.0000859
100	328.15	.0073	.000073
100	333.15	.00627	.0000627

System: .epsilon.-caprolactam formate; phases: Liquid
Property: Speed of sound, m/s (Liquid); method: Sing-around technique in a fixed-path interferometer
Pressure, kPa	Temperature, K	Speed of sound, m/s	uncertainty
100	293.15	1551.98	.5
100	298.15	1535.98	.5
100	303.15	1520.15	.5
100	308.15	1504.37	.5
100	313.15	1488.45	.5
100	318.15	1472.8	.5
100	323.15	1457.93	.5
100	328.15	1441.09	.5
100	333.15	1425.08	.5

System: .epsilon.-caprolactam acetate; phases: Liquid
Property: Mass density, kg/m3 (Liquid); method: Vibrating tube method
Pressure, kPa	Temperature, K	Mass density, kg/m3	uncertainty
100	293.15	1060.03	.05
100	298.15	1055.92	.05
100	303.15	1051.83	.05
100	308.15	1047.74	.05
100	313.15	1043.65	.05
100	318.15	1039.56	.05
100	323.15	1035.46	.05
100	328.15	1031.37	.05
100	333.15	1027.28	.05

System: .epsilon.-caprolactam acetate; phases: Liquid
Property: Viscosity, Pa*s (Liquid); method: Falling or rolling sphere viscometry
Pressure, kPa	Temperature, K	Viscosity, Pa*s	uncertainty
100	293.15	.03981	.0003981
100	298.15	.02903	.0002903
100	303.15	.02192	.0002192
100	308.15	.01703	.0001703
100	313.15	.01368	.0001368
100	318.15	.0111	.000111
100	323.15	.00919	.0000919
100	328.15	.00767	.0000767
100	333.15	.00648	.0000648

System: .epsilon.-caprolactam acetate; phases: Liquid
Property: Speed of sound, m/s (Liquid); method: Sing-around technique in a fixed-path interferometer
Pressure, kPa	Temperature, K	Speed of sound, m/s	uncertainty
100	293.15	1523.08	.5
100	298.15	1507.01	.5
100	303.15	1489.7	.5
100	308.15	1472.85	.5
100	313.15	1456.08	.5
100	318.15	1439.26	.5
100	323.15	1422.59	.5
100	328.15	1406.04	.5
100	333.15	1389.49	.5

System: .epsilon.-caprolactam hexanoate; phases: Liquid
Property: Mass density, kg/m3 (Liquid); method: Vibrating tube method
Pressure, kPa	Temperature, K	Mass density, kg/m3	uncertainty
100	293.15	998.59	.05
100	298.15	994.69	.05
100	303.15	990.78	.05
100	308.15	986.88	.05
100	313.15	982.97	.05
100	318.15	979.04	.05
100	323.15	975.15	.05
100	328.15	971.24	.05
100	333.15	967.34	.05

System: .epsilon.-caprolactam hexanoate; phases: Liquid
Property: Viscosity, Pa*s (Liquid); method: Falling or rolling sphere viscometry
Pressure, kPa	Temperature, K	Viscosity, Pa*s	uncertainty
100	293.15	.042	.00042
100	298.15	.03085	.0003085
100	303.15	.0234	.000234
100	308.15	.01811	.0001811
100	313.15	.01425	.0001425
100	318.15	.01159	.0001159
100	323.15	.00944	.0000944
100	328.15	.00791	.0000791
100	333.15	.00664	.0000664

System: .epsilon.-caprolactam hexanoate; phases: Liquid
Property: Speed of sound, m/s (Liquid); method: Sing-around technique in a fixed-path interferometer
Pressure, kPa	Temperature, K	Speed of sound, m/s	uncertainty
100	293.15	1472.69	.5
100	298.15	1455.95	.5
100	303.15	1439.03	.5
100	308.15	1421.93	.5
100	313.15	1404.8	.5
100	318.15	1387.83	.5
100	323.15	1370.84	.5
100	328.15	1353.43	.5
100	333.15	1336.79	.5
