Measured thermophysical data. Thermochemistry of a-D-xylose(cr)
Source: J. Chem. Thermodyn., 2013, 10.1016/j.jct.2012.09.028
Compound 1: xylose, C5H10O5, purity 99%
Compound 2: hydrogen, H2
Compound 3: graphite, C
Compound 4: oxygen, O2
Compound 5: carbon dioxide, CO2
Compound 6: water, H2O

System: xylose; phases: Crystal
Fixed: Pressure, kPa = 101.325
Property: Molar heat capacity at constant pressure, J/K/mol (Crystal); method: Vacuum adiabatic calorimetry
Temperature, K	Molar heat capacity at constant pressure, J/K/mol	uncertainty
1.9001	.006645	.02
2.0829	.0087877	.02
2.2997	.011872	.02
2.5385	.01596	.02
2.7871	.021242	.02
3.0782	.029069	.02
3.4135	.040371	.02
3.7729	.055612	.02
4.2031	.079312	.02
4.6605	.11237	.02
5.1791	.16193	.02
5.7752	.23856	.02
6.4662	.35907	.02
7.1587	.51889	.02
7.9594	.75843	.02
8.8628	1.1009	.02
9.8635	1.5685	.02
10.97	2.2125	.02
12.188	2.7359	.02
13.562	4.0281	.02
15.067	5.2376	.02
16.591	6.4705	.02
18.418	8.1942	.02
20.269	9.9692	.02
22.576	12.061	.006
25.132	14.387	.006
27.981	16.854	.006
31.146	19.422	.006
34.685	22.144	.006
38.593	25.087	.006
42.932	27.975	.006
47.756	31.183	.006
53.125	34.565	.006
59.085	38.301	.006
65.768	42.388	.006
73.117	46.673	.006
81.258	51.824	.006
90.302	57.699	.006
100.35	63.676	.006
110.61	69.547	.006
120.64	75.357	.006
130.77	81.561	.006
140.87	87.466	.006
151.03	93.154	.006
161.11	99.114	.006
171.25	104.92	.006
181.48	110.56	.006
191.69	116.09	.006
201.94	122.16	.006
212.26	128.07	.006
222.61	134.51	.006
232.87	140.48	.006
243.02	146.31	.006
253.18	152.43	.006
263.22	158.02	.006
273.41	163.59	.006
283.51	169.47	.006
293.61	175.31	.006
303.66	181.61	.006
2.0404	.0082424	.02
2.2425	.010966	.02
2.4717	.014708	.02
2.6324	.017828	.02
2.9014	.024009	.02
3.2037	.032882	.02
3.5443	.045253	.02
3.939	.06374	.02
4.3835	.090965	.02
4.8696	.13054	.02
5.4361	.19159	.02
6.0817	.28662	.02
6.7445	.41814	.02
7.4966	.61191	.02
8.3533	.89694	.02
9.2999	1.2924	.02
10.354	1.8302	.02
11.523	2.5459	.02
12.718	3.4082	.02
14.253	4.5512	.02
15.841	5.8725	.02
17.611	7.4369	.02
18.989	8.794	.02
21.17	10.744	.006
23.637	13.081	.006
26.286	15.413	.006
29.319	17.967	.006
32.679	20.558	.006
36.332	23.551	.006
40.526	26.514	.006
45.127	29.461	.006
50.198	32.512	.006
55.822	36.429	.006
62.207	40.201	.006
69.146	44.367	.006
76.877	49.051	.006
85.507	54.655	.006
95.148	60.594	.006
105.25	66.606	.006
115.43	72.274	.006
125.54	78.608	.006
135.74	84.749	.006
145.76	90.112	.006
155.98	95.918	.006
166.15	102.13	.006
176.34	107.5	.006
186.59	113.51	.006
196.81	119.53	.006
207.17	125.24	.006
217.5	130.91	.006
227.74	137.35	.006
237.95	142.93	.006
248.07	148.9	.006
258.24	154.94	.006
268.36	160.56	.006
278.46	166.47	.006
288.47	172.37	.006
298.67	177.87	.006

System: xylose; phases: Crystal
Fixed: Pressure, kPa = 101.325
Property: Molar entropy, J/K/mol (Crystal); method: Vacuum adiabatic calorimetry
Temperature, K	Molar entropy, J/K/mol	uncertainty
.5	.00027828	
1	.00075791	
1.5	.001652	
2	.0031965	
2.5	.0056608	
3	.0093563	
3.5	.014643	
4	.021936	
4.5	.031705	
5	.044475	
5.5	.060823	
6	.081372	
6.5	.10678	
7	.13772	
7.5	.17489	
8	.21896	
8.5	.27057	
9	.33032	
9.5	.39875	
10	.47627	
11	.65979	
12	.8803	
13	1.1381	
14	1.4322	
15	1.7609	
16	2.1224	
17	2.5146	
18	2.9354	
19	3.3826	
20	3.8541	
25	6.5048	
30	9.4889	
35	12.648	
40	15.884	
45	19.144	
50	22.405	
55	25.656	
60	28.895	
65	32.125	
70	35.347	
75	38.561	
80	41.765	
85	44.962	
90	48.15	
95	51.329	
100	54.5	
110	60.815	
120	67.096	
130	73.345	
140	79.562	
150	85.75	
160	91.911	
170	98.046	
180	104.16	
190	110.25	
200	116.32	
210	122.38	
220	128.42	
230	134.45	
240	140.47	
250	146.47	
260	152.47	
270	158.46	
273.15	160.35	
280	164.44	
290	170.42	
298.15	175.29	
300	176.4	

System: xylose; phases: Crystal
Fixed: Pressure, kPa = 101.325
Property: Molar enthalpy, kJ/mol (Crystal); method: Vacuum adiabatic calorimetry
Temperature, K	Molar enthalpy, kJ/mol	uncertainty
.5	.00000007372	
1	.00000044614	
1.5	.0000015857	
2	.0000043211	
2.5	.0000099103	
3	.000020131	
3.5	.000037389	
4	.00006483	
4.5	.00010646	
5	.00016725	
5.5	.00025324	
6	.00037159	
6.5	.00053059	
7	.00073971	
7.5	.0010094	
8	.0013513	
8.5	.0017774	
9	.0023006	
9.5	.0029339	
10	.0036901	
11	.0056203	
12	.0081593	
13	.011385	
14	.015358	
15	.020127	
16	.025733	
17	.032207	
18	.039574	
19	.047849	
20	.057044	
25	.11687	
30	.19903	
35	.30175	
40	.42312	
45	.56168	
50	.71656	
55	.88722	
60	1.0735	
65	1.2754	
70	1.4928	
75	1.7258	
80	1.9742	
85	2.2379	
90	2.5168	
95	2.8109	
100	3.12	
110	3.7831	
120	4.5055	
130	5.2865	
140	6.1258	
150	7.023	
160	7.9779	
170	8.9902	
180	10.06	
190	11.187	
200	12.371	
210	13.613	
220	14.912	
230	16.268	
240	17.682	
250	19.153	
260	20.683	
270	22.27	
273.15	22.782	
280	23.915	
290	25.619	
298.15	27.051	
300	27.382	

Reaction: -1 xylose + 5 carbon dioxide + 5 water + -5 oxygen
Property: Specific internal energy of reaction at constant volume, J/g
-15601.3

Reaction: 1 xylose + -5 hydrogen + -5 graphite + -2.5 oxygen
Property: Molar enthalpy of reaction, kJ/mol
-1054.5
