Measured thermophysical data. Physical properties of phosphonium ionic liquid and its mixtures with dodecane and water
Source: J. Chem. Thermodyn., 2014, 10.1016/j.jct.2013.12.022
Compound 1: water, H2O, purity 99%
Compound 2: trihexyltetradecylphosphonium bis(2,4,4-trimethylpentyl)phosphinate, C48H102O2P2, purity 95%
Compound 3: dodecane, C12H26, purity 98%

System: trihexyltetradecylphosphonium bis(2,4,4-trimethylpentyl)phosphinate; phases: Liquid
Property: Viscosity, Pa*s (Liquid); method: Cone and plate viscometry
Temperature, K	Pressure, kPa	Viscosity, Pa*s	uncertainty
288.15	100	1.95295	.0585885
293.15	100	1.44633	.0433899
298.15	100	1.05822	.0317466
303.15	100	.78272	.0234816
308.15	100	.58762	.0176286
313.15	100	.44795	.0134385
318.15	100	.34695	.0104085
323.15	100	.27237	.0081711
328.15	100	.2174	.006522
333.15	100	.17507	.0052521
353.15	100	.08099	.0024297
373.15	100	.04279	.0012837
393.15	100	.02453	.0007359
413.15	100	.01544	.0004632
433.15	100	.01017	.0003051

System: trihexyltetradecylphosphonium bis(2,4,4-trimethylpentyl)phosphinate; phases: Liquid
Property: Mass density, kg/m3 (Liquid); method: Vibrating tube method
Temperature, K	Pressure, kPa	Mass density, kg/m3	uncertainty
288.15	100	890.86	.05
293.15	100	887.72	.05
298.15	100	884.55	.05
303.15	100	881.54	.05
308.15	100	878.58	.05
313.15	100	875.62	.05
318.15	100	872.67	.05
323.15	100	869.72	.05
328.15	100	866.77	.05
333.15	100	863.87	.05
338.15	100	860.99	.05
343.15	100	858.1	.05
348.15	100	855.22	.05
353.15	100	852.33	.05
358.15	100	849.44	.05
363.15	100	846.56	.05

System: dodecane; phases: Liquid
Property: Viscosity, Pa*s (Liquid); method: Cone and plate viscometry
Temperature, K	Pressure, kPa	Viscosity, Pa*s	uncertainty
288.15	100	.00158	.0000474
293.15	100	.00147	.0000441
298.15	100	.00135	.0000405
303.15	100	.00124	.0000372
308.15	100	.00114	.0000342
313.15	100	.00106	.0000318
318.15	100	.00099	.0000297
323.15	100	.00093	.0000279
328.15	100	.00087	.0000261
333.15	100	.00082	.0000246

System: dodecane; phases: Liquid
Property: Mass density, kg/m3 (Liquid); method: Vibrating tube method
Temperature, K	Pressure, kPa	Mass density, kg/m3	uncertainty
288.15	100	753.43	.05
293.15	100	749.81	.05
298.15	100	746.18	.05
303.15	100	742.55	.05
308.15	100	738.91	.05
313.15	100	735.26	.05
318.15	100	731.61	.05
323.15	100	727.95	.05
328.15	100	724.29	.05
333.15	100	720.61	.05

System: dodecane + water + trihexyltetradecylphosphonium bis(2,4,4-trimethylpentyl)phosphinate; phases: Liquid mixture 1, Liquid mixture 2
Fixed: Temperature, K = 298.15
Fixed: Pressure, kPa = 100
Property: Mass fraction of water (Liquid mixture 1); method: Titration method
Mass fraction of trihexyltetradecylphosphonium bis(2,4,4-trimethylpentyl)phosphinate	Mass fraction of water	uncertainty
.1003	.0062	
.2919	.0261	
.4691	.0649	
.5502	.0823	
.6329	.0956	
.7093	.1059	
.7945	.1168	
.8233	.1335	
.8465	.1535	

System: dodecane + water + trihexyltetradecylphosphonium bis(2,4,4-trimethylpentyl)phosphinate; phases: Liquid
Fixed: Pressure, kPa = 100
Property: Viscosity, Pa*s (Liquid); method: Cone and plate viscometry
Mass fraction of trihexyltetradecylphosphonium bis(2,4,4-trimethylpentyl)phosphinate	Mass fraction of water	Temperature, K	Viscosity, Pa*s	uncertainty
0	0	288.15	.00158	.0000474
0	0	293.15	.00147	.0000441
0	0	298.15	.00135	.0000405
0	0	303.15	.00124	.0000372
0	0	308.15	.00114	.0000342
0	0	313.15	.00106	.0000318
0	0	318.15	.00099	.0000297
0	0	323.15	.00093	.0000279
0	0	328.15	.00087	.0000261
0	0	333.15	.00082	.0000246
.101	.00009	288.15	.0022	.000066
.101	.00009	293.15	.00199	.0000597
.101	.00009	298.15	.0018	.000054
.101	.00009	303.15	.00164	.0000492
.101	.00009	308.15	.0015	.000045
.101	.00009	313.15	.00137	.0000411
.101	.00009	318.15	.00127	.0000381
.101	.00009	323.15	.00119	.0000357
.101	.00009	328.15	.00113	.0000339
.101	.00009	333.15	.00108	.0000324
.2996	.00026	288.15	.00621	.0001863
.2996	.00026	293.15	.00553	.0001659
.2996	.00026	298.15	.0049	.000147
.2996	.00026	303.15	.00435	.0001305
.2996	.00026	308.15	.00386	.0001158
.2996	.00026	313.15	.00347	.0001041
.2996	.00026	318.15	.00312	.0000936
.2996	.00026	323.15	.00284	.0000852
.2996	.00026	328.15	.00258	.0000774
.2996	.00026	333.15	.00235	.0000705
.5015	.00043	288.15	.02724	.0008172
.5015	.00043	293.15	.02306	.0006918
.5015	.00043	298.15	.01942	.0005826
.5015	.00043	303.15	.01624	.0004872
.5015	.00043	308.15	.01368	.0004104
.5015	.00043	313.15	.01169	.0003507
.5015	.00043	318.15	.01004	.0003012
.5015	.00043	323.15	.00872	.0002616
.5015	.00043	328.15	.00766	.0002298
.5015	.00043	333.15	.00677	.0002031
.5994	.00034	288.15	.03942	.0011826
.5994	.00034	293.15	.03205	.0009615
.5994	.00034	298.15	.02668	.0008004
.5994	.00034	303.15	.02237	.0006711
.5994	.00034	308.15	.01888	.0005664
.5994	.00034	313.15	.01619	.0004857
.5994	.00034	318.15	.01403	.0004209
.5994	.00034	323.15	.0121	.000363
.5994	.00034	328.15	.01063	.0003189
.5994	.00034	333.15	.00942	.0002826
.6994	.0004	288.15	.05768	.0017304
.6994	.0004	293.15	.04815	.0014445
.6994	.0004	298.15	.04018	.0012054
.6994	.0004	303.15	.03365	.0010095
.6994	.0004	308.15	.02845	.0008535
.6994	.0004	313.15	.02432	.0007296
.6994	.0004	318.15	.02086	.0006258
.6994	.0004	323.15	.0181	.000543
.6994	.0004	328.15	.01581	.0004743
.6994	.0004	333.15	.01385	.0004155
.7972	.00046	288.15	.1374	.004122
.7972	.00046	293.15	.11053	.0033159
.7972	.00046	298.15	.09094	.0027282
.7972	.00046	303.15	.07431	.0022293
.7972	.00046	308.15	.06125	.0018375
.7972	.00046	313.15	.05107	.0015321
.7972	.00046	318.15	.04292	.0012876
.7972	.00046	323.15	.03635	.0010905
.7972	.00046	328.15	.03116	.0009348
.7972	.00046	333.15	.02686	.0008058
.8981	.00051	288.15	.42125	.0126375
.8981	.00051	293.15	.31148	.0093444
.8981	.00051	298.15	.2441	.007323
.8981	.00051	303.15	.19078	.0057234
.8981	.00051	308.15	.1504	.004512
.8981	.00051	313.15	.12117	.0036351
.8981	.00051	318.15	.09878	.0029634
.8981	.00051	323.15	.08113	.0024339
.8981	.00051	328.15	.06773	.0020319
.8981	.00051	333.15	.05721	.0017163
.9437	.00054	288.15	.88235	.0264705
.9437	.00054	293.15	.65871	.0197613
.9437	.00054	298.15	.50501	.0151503
.9437	.00054	303.15	.38385	.0115155
.9437	.00054	308.15	.29825	.0089475
.9437	.00054	313.15	.23398	.0070194
.9437	.00054	318.15	.18543	.0055629
.9437	.00054	323.15	.14911	.0044733
.9437	.00054	328.15	.12159	.0036477
.9437	.00054	333.15	.09983	.0029949
.9994	.00057	288.15	1.95295	.0585885
.9994	.00057	293.15	1.44633	.0433899
.9994	.00057	298.15	1.05822	.0317466
.9994	.00057	303.15	.78272	.0234816
.9994	.00057	308.15	.58762	.0176286
.9994	.00057	313.15	.44795	.0134385
.9994	.00057	318.15	.34695	.0104085
.9994	.00057	323.15	.27237	.0081711
.9994	.00057	328.15	.2174	.006522
.9994	.00057	333.15	.17507	.0052521
.9994	.00057	353.15	.08099	.0024297
.9994	.00057	373.15	.04279	.0012837
.9994	.00057	393.15	.02453	.0007359
.9994	.00057	413.15	.01544	.0004632
.9994	.00057	433.15	.01017	.0003051
.1003	.0062	288.15	.00218	.0000654
.1003	.0062	293.15	.00202	.0000606
.1003	.0062	298.15	.00188	.0000564
.1003	.0062	303.15	.00172	.0000516
.1003	.0062	308.15	.00157	.0000471
.1003	.0062	313.15	.00142	.0000426
.1003	.0062	318.15	.00129	.0000387
.1003	.0062	323.15	.00119	.0000357
.1003	.0062	328.15	.00109	.0000327
.1003	.0062	333.15	.00103	.0000309
.2919	.0261	288.15	.01019	.0003057
.2919	.0261	293.15	.00881	.0002643
.2919	.0261	298.15	.00767	.0002301
.2919	.0261	303.15	.00657	.0001971
.2919	.0261	308.15	.0057	.000171
.2919	.0261	313.15	.00493	.0001479
.2919	.0261	318.15	.00438	.0001314
.2919	.0261	323.15	.00391	.0001173
.2919	.0261	328.15	.00346	.0001038
.2919	.0261	333.15	.00312	.0000936
.4691	.0649	288.15	.0227	.000681
.4691	.0649	293.15	.01791	.0005373
.4691	.0649	298.15	.01469	.0004407
.4691	.0649	303.15	.01218	.0003654
.4691	.0649	308.15	.01019	.0003057
.4691	.0649	313.15	.00867	.0002601
.4691	.0649	318.15	.00746	.0002238
.4691	.0649	323.15	.00646	.0001938
.4691	.0649	328.15	.00569	.0001707
.4691	.0649	333.15	.00504	.0001512
.5502	.0823	288.15	.03541	.0010623
.5502	.0823	293.15	.02729	.0008187
.5502	.0823	298.15	.02173	.0006519
.5502	.0823	303.15	.01757	.0005271
.5502	.0823	308.15	.0144	.000432
.5502	.0823	313.15	.01207	.0003621
.5502	.0823	318.15	.01022	.0003066
.5502	.0823	323.15	.00871	.0002613
.5502	.0823	328.15	.00757	.0002271
.5502	.0823	333.15	.00662	.0001986
.6329	.0956	288.15	.05576	.0016728
.6329	.0956	293.15	.04208	.0012624
.6329	.0956	298.15	.03314	.0009942
.6329	.0956	303.15	.02647	.0007941
.6329	.0956	308.15	.02145	.0006435
.6329	.0956	313.15	.01766	.0005298
.6329	.0956	318.15	.01483	.0004449
.6329	.0956	323.15	.01252	.0003756
.6329	.0956	328.15	.01075	.0003225
.6329	.0956	333.15	.00936	.0002808
.7093	.1059	288.15	.08819	.0026457
.7093	.1059	293.15	.06679	.0020037
.7093	.1059	298.15	.0523	.001569
.7093	.1059	303.15	.04158	.0012474
.7093	.1059	308.15	.03351	.0010053
.7093	.1059	313.15	.02741	.0008223
.7093	.1059	318.15	.02277	.0006831
.7093	.1059	323.15	.01909	.0005727
.7093	.1059	328.15	.01621	.0004863
.7093	.1059	333.15	.01392	.0004176
.7945	.1168	288.15	.14838	.0044514
.7945	.1168	293.15	.1158	.003474
.7945	.1168	298.15	.09026	.0027078
.7945	.1168	303.15	.07062	.0021186
.7945	.1168	308.15	.05622	.0016866
.7945	.1168	313.15	.04539	.0013617
.7945	.1168	318.15	.03706	.0011118
.7945	.1168	323.15	.03068	.0009204
.7945	.1168	328.15	.02582	.0007746
.7945	.1168	333.15	.02185	.0006555
.8233	.1335	288.15	.21118	.0063354
.8233	.1335	293.15	.16004	.0048012
.8233	.1335	298.15	.12127	.0036381
.8233	.1335	303.15	.0934	.002802
.8233	.1335	308.15	.07304	.0021912
.8233	.1335	313.15	.05806	.0017418
.8233	.1335	318.15	.04686	.0014058
.8233	.1335	323.15	.0382	.001146
.8233	.1335	328.15	.03166	.0009498
.8233	.1335	333.15	.02653	.0007959
.8465	.1535	288.15	.28696	.0086088
.8465	.1535	293.15	.21113	.0063339
.8465	.1535	298.15	.15674	.0047022
.8465	.1535	303.15	.11954	.0035862
.8465	.1535	308.15	.09322	.0027966
.8465	.1535	313.15	.07408	.0022224
.8465	.1535	318.15	.06001	.0018003
.8465	.1535	323.15	.04903	.0014709
.8465	.1535	328.15	.0407	.001221
.8465	.1535	333.15	.03416	.0010248

System: dodecane + water + trihexyltetradecylphosphonium bis(2,4,4-trimethylpentyl)phosphinate; phases: Liquid
Fixed: Pressure, kPa = 100
Property: Mass density, kg/m3 (Liquid); method: Vibrating tube method
Mass fraction of trihexyltetradecylphosphonium bis(2,4,4-trimethylpentyl)phosphinate	Mass fraction of water	Temperature, K	Mass density, kg/m3	uncertainty
0	0	288.15	753.43	.05
0	0	293.15	749.81	.05
0	0	298.15	746.18	.05
0	0	303.15	742.55	.05
0	0	308.15	738.91	.05
0	0	313.15	735.26	.05
0	0	318.15	731.61	.05
0	0	323.15	727.95	.05
0	0	328.15	724.29	.05
0	0	333.15	720.61	.05
.101	.00009	288.15	767.36	.05
.101	.00009	293.15	763.78	.05
.101	.00009	298.15	760.19	.05
.101	.00009	303.15	756.6	.05
.101	.00009	308.15	753	.05
.101	.00009	313.15	749.4	.05
.101	.00009	318.15	745.79	.05
.101	.00009	323.15	742.18	.05
.101	.00009	328.15	738.56	.05
.101	.00009	333.15	734.93	.05
.2996	.00026	288.15	791.26	.05
.2996	.00026	293.15	787.76	.05
.2996	.00026	298.15	784.25	.05
.2996	.00026	303.15	780.74	.05
.2996	.00026	308.15	777.23	.05
.2996	.00026	313.15	773.72	.05
.2996	.00026	318.15	770.2	.05
.2996	.00026	323.15	766.68	.05
.2996	.00026	328.15	763.16	.05
.2996	.00026	333.15	759.63	.05
.5015	.00043	288.15	817.74	.05
.5015	.00043	293.15	814.36	.05
.5015	.00043	298.15	810.99	.05
.5015	.00043	303.15	807.61	.05
.5015	.00043	308.15	804.23	.05
.5015	.00043	313.15	800.84	.05
.5015	.00043	318.15	797.46	.05
.5015	.00043	323.15	794.08	.05
.5015	.00043	328.15	790.69	.05
.5015	.00043	333.15	787.3	.05
.5994	.00034	288.15	831.58	.05
.5994	.00034	293.15	828.27	.05
.5994	.00034	298.15	825.02	.05
.5994	.00034	303.15	821.74	.05
.5994	.00034	308.15	818.44	.05
.5994	.00034	313.15	815.13	.05
.5994	.00034	318.15	811.83	.05
.5994	.00034	323.15	808.52	.05
.5994	.00034	328.15	805.21	.05
.5994	.00034	333.15	801.89	.05
.6994	.0004	288.15	846.15	.05
.6994	.0004	293.15	842.96	.05
.6994	.0004	298.15	839.75	.05
.6994	.0004	303.15	836.53	.05
.6994	.0004	308.15	833.3	.05
.6994	.0004	313.15	830.07	.05
.6994	.0004	318.15	826.84	.05
.6994	.0004	323.15	823.6	.05
.6994	.0004	328.15	820.37	.05
.6994	.0004	333.15	817.14	.05
.7972	.00046	288.15	862.46	.05
.7972	.00046	293.15	859.34	.05
.7972	.00046	298.15	856.22	.05
.7972	.00046	303.15	853.08	.05
.7972	.00046	308.15	849.93	.05
.7972	.00046	313.15	846.79	.05
.7972	.00046	318.15	843.64	.05
.7972	.00046	323.15	840.49	.05
.7972	.00046	328.15	837.35	.05
.7972	.00046	333.15	834.21	.05
.8981	.00051	288.15	886.63	.05
.8981	.00051	293.15	883.41	.05
.8981	.00051	298.15	880.31	.05
.8981	.00051	303.15	877.22	.05
.8981	.00051	308.15	874.13	.05
.8981	.00051	313.15	871.04	.05
.8981	.00051	318.15	867.95	.05
.8981	.00051	323.15	864.94	.05
.8981	.00051	328.15	861.91	.05
.8981	.00051	333.15	858.88	.05
.9437	.00054	288.15	892.17	.05
.9437	.00054	293.15	889.07	.05
.9437	.00054	298.15	885.9	.05
.9437	.00054	303.15	882.71	.05
.9437	.00054	308.15	879.65	.05
.9437	.00054	313.15	876.65	.05
.9437	.00054	318.15	873.65	.05
.9437	.00054	323.15	870.66	.05
.9437	.00054	328.15	867.67	.05
.9437	.00054	333.15	864.67	.05
.9994	.00057	288.15	890.86	.05
.9994	.00057	293.15	887.72	.05
.9994	.00057	298.15	884.55	.05
.9994	.00057	303.15	881.54	.05
.9994	.00057	308.15	878.58	.05
.9994	.00057	313.15	875.62	.05
.9994	.00057	318.15	872.67	.05
.9994	.00057	323.15	869.72	.05
.9994	.00057	328.15	866.77	.05
.9994	.00057	333.15	863.87	.05
.9994	.00057	338.15	860.99	.05
.9994	.00057	343.15	858.1	.05
.9994	.00057	348.15	855.22	.05
.9994	.00057	353.15	852.33	.05
.9994	.00057	358.15	849.44	.05
.9994	.00057	363.15	846.56	.05
.1003	.0062	288.15	765.05	.05
.1003	.0062	293.15	761.47	.05
.1003	.0062	298.15	757.87	.05
.1003	.0062	303.15	754.27	.05
.1003	.0062	308.15	750.71	.05
.1003	.0062	313.15	747.17	.05
.1003	.0062	318.15	743.66	.05
.1003	.0062	323.15	740.07	.05
.1003	.0062	328.15	736.43	.05
.1003	.0062	333.15	732.76	.05
.2919	.0261	288.15	808.72	.05
.2919	.0261	293.15	805.94	.05
.2919	.0261	298.15	803.03	.05
.2919	.0261	303.15	799.78	.05
.2919	.0261	308.15	796.49	.05
.2919	.0261	313.15	793.1	.05
.2919	.0261	318.15	789.64	.05
.2919	.0261	323.15	786.12	.05
.2919	.0261	328.15	782.55	.05
.2919	.0261	333.15	778.94	.05
.4691	.0649	288.15	836.13	.05
.4691	.0649	293.15	832.63	.05
.4691	.0649	298.15	829.13	.05
.4691	.0649	303.15	825.6	.05
.4691	.0649	308.15	822.07	.05
.4691	.0649	313.15	818.54	.05
.4691	.0649	318.15	815.15	.05
.4691	.0649	323.15	811.67	.05
.4691	.0649	328.15	808.13	.05
.4691	.0649	333.15	804.57	.05
.5502	.0823	288.15	848.89	.05
.5502	.0823	293.15	845.14	.05
.5502	.0823	298.15	841.76	.05
.5502	.0823	303.15	837.96	.05
.5502	.0823	308.15	834.47	.05
.5502	.0823	313.15	830.87	.05
.5502	.0823	318.15	827.7	.05
.5502	.0823	323.15	824.52	.05
.5502	.0823	328.15	820.98	.05
.5502	.0823	333.15	817.43	.05
.6329	.0956	288.15	865.15	.05
.6329	.0956	293.15	861.8	.05
.6329	.0956	298.15	858.42	.05
.6329	.0956	303.15	854.97	.05
.6329	.0956	308.15	851.49	.05
.6329	.0956	313.15	847.98	.05
.6329	.0956	318.15	844.24	.05
.6329	.0956	323.15	840.71	.05
.6329	.0956	328.15	837.33	.05
.6329	.0956	333.15	834.21	.05
.7093	.1059	288.15	881.44	.05
.7093	.1059	293.15	878.02	.05
.7093	.1059	298.15	874.56	.05
.7093	.1059	303.15	871.04	.05
.7093	.1059	308.15	867.48	.05
.7093	.1059	313.15	863.82	.05
.7093	.1059	318.15	860.09	.05
.7093	.1059	323.15	856.02	.05
.7093	.1059	328.15	851.29	.05
.7093	.1059	333.15	845.29	.05
.7945	.1168	288.15	902.98	.05
.7945	.1168	293.15	899.54	.05
.7945	.1168	298.15	895.99	.05
.7945	.1168	303.15	892.21	.05
.7945	.1168	308.15	888.34	.05
.7945	.1168	313.15	884.44	.05
.7945	.1168	318.15	880.19	.05
.7945	.1168	323.15	875.33	.05
.7945	.1168	328.15	869.6	.05
.7945	.1168	333.15	862.29	.05
.8233	.1335	288.15	910.17	.05
.8233	.1335	293.15	906.77	.05
.8233	.1335	298.15	903.38	.05
.8233	.1335	303.15	899.9	.05
.8233	.1335	308.15	896.26	.05
.8233	.1335	313.15	892.49	.05
.8233	.1335	318.15	888.67	.05
.8233	.1335	323.15	884.71	.05
.8233	.1335	328.15	880.38	.05
.8233	.1335	333.15	875.39	.05
.8465	.1535	288.15	921.09	.05
.8465	.1535	293.15	917.76	.05
.8465	.1535	298.15	914.4	.05
.8465	.1535	303.15	911.03	.05
.8465	.1535	308.15	907.66	.05
.8465	.1535	313.15	904.29	.05
.8465	.1535	318.15	900.95	.05
.8465	.1535	323.15	897.66	.05
.8465	.1535	328.15	894.18	.05
.8465	.1535	333.15	890.61	.05

System: water + trihexyltetradecylphosphonium bis(2,4,4-trimethylpentyl)phosphinate; phases: Liquid
Fixed: Mass fraction of trihexyltetradecylphosphonium bis(2,4,4-trimethylpentyl)phosphinate = .8465
Fixed: Pressure, kPa = 100
Property: Viscosity, Pa*s (Liquid); method: Cone and plate viscometry
Temperature, K	Viscosity, Pa*s	uncertainty
288.15	.28696	.0086088
293.15	.21113	.0063339
298.15	.15674	.0047022
303.15	.11954	.0035862
308.15	.09322	.0027966
313.15	.07408	.0022224
318.15	.06001	.0018003
323.15	.04903	.0014709
328.15	.0407	.001221
333.15	.03416	.0010248

System: water + trihexyltetradecylphosphonium bis(2,4,4-trimethylpentyl)phosphinate; phases: Liquid
Fixed: Mass fraction of trihexyltetradecylphosphonium bis(2,4,4-trimethylpentyl)phosphinate = .8465
Fixed: Pressure, kPa = 100
Property: Mass density, kg/m3 (Liquid); method: Vibrating tube method
Temperature, K	Mass density, kg/m3	uncertainty
288.15	921.09	.05
293.15	917.76	.05
298.15	914.4	.05
303.15	911.03	.05
308.15	907.66	.05
313.15	904.29	.05
318.15	900.95	.05
323.15	897.66	.05
328.15	894.18	.05
333.15	890.61	.05

System: water + trihexyltetradecylphosphonium bis(2,4,4-trimethylpentyl)phosphinate; phases: Liquid mixture 1, Liquid mixture 2
Property: Mass fraction of water (Liquid mixture 1); method: Titration method
Temperature, K	Pressure, kPa	Mass fraction of water	uncertainty
298.15	100	.1535	
