Measured thermophysical data. Effect of ionic liquid, 1-hexyl-3-methylimidazolium bromide on the volumetric, acoustic and viscometric behavior of aqueous sucrose solutions at different temperatures
Source: J. Chem. Thermodyn., 2016, 10.1016/j.jct.2015.09.021
Compound 1: 1-hexyl-3-methylimidazolium bromide, C10H19BrN2
Compound 2: D-Sucrose, C12H22O11, purity 99.5%
Compound 3: water, H2O

System: D-Sucrose + water + 1-hexyl-3-methylimidazolium bromide; phases: Liquid
Fixed: Pressure, kPa = 100
Property: Mass density, kg/m3 (Liquid); method: Vibrating tube method
Temperature, K	Solvent: Molality, mol/kg of 1-hexyl-3-methylimidazolium bromide	Molality, mol/kg of D-Sucrose	Mass density, kg/m3	uncertainty
288.15	0	.1011	1012.092	.05
288.15	0	.1492	1018.271	.05
288.15	0	.2002	1024.551	.05
288.15	0	.2499	1030.528	.05
288.15	0	.3497	1042.12	.05
288.15	0	.3997	1047.744	.05
288.15	0	.4978	1058.512	.05
298.15	0	.1011	1009.908	.05
298.15	0	.1492	1015.997	.05
298.15	0	.2002	1022.217	.05
298.15	0	.2499	1028.133	.05
298.15	0	.3497	1039.595	.05
298.15	0	.3997	1045.191	.05
298.15	0	.4978	1055.815	.05
308.15	0	.1011	1006.786	.05
308.15	0	.1492	1012.83	.05
308.15	0	.2002	1018.995	.05
308.15	0	.2499	1024.853	.05
308.15	0	.3497	1036.234	.05
308.15	0	.3997	1041.758	.05
308.15	0	.4978	1052.309	.05
318.15	0	.1011	1002.86	.05
318.15	0	.1492	1008.85	.05
318.15	0	.2002	1014.964	.05
318.15	0	.2499	1020.786	.05
318.15	0	.3497	1032.087	.05
318.15	0	.3997	1037.593	.05
318.15	0	.4978	1048.074	.05
288.15	.1	.0503	1010.346	.05
288.15	.1	.1009	1016.82	.05
288.15	.1	.1486	1022.805	.05
288.15	.1	.1989	1028.918	.05
288.15	.1	.2957	1040.468	.05
288.15	.1	.3366	1045.207	.05
288.15	.1	.3999	1052.29	.05
288.15	.1	.4309	1055.625	.05
298.15	.1	.0503	1007.995	.05
298.15	.1	.1009	1014.388	.05
298.15	.1	.1486	1020.297	.05
298.15	.1	.1989	1026.394	.05
298.15	.1	.2957	1037.758	.05
298.15	.1	.3366	1042.44	.05
298.15	.1	.3999	1049.54	.05
298.15	.1	.4309	1052.832	.05
308.15	.1	.0503	1004.779	.05
308.15	.1	.1009	1011.128	.05
308.15	.1	.1486	1017	.05
308.15	.1	.1989	1023.035	.05
308.15	.1	.2957	1034.286	.05
308.15	.1	.3366	1038.938	.05
308.15	.1	.3999	1045.957	.05
308.15	.1	.4309	1049.25	.05
318.15	.1	.0503	1000.78	.05
318.15	.1	.1009	1007.084	.05
318.15	.1	.1486	1012.906	.05
318.15	.1	.1989	1018.882	.05
318.15	.1	.2957	1030.125	.05
318.15	.1	.3366	1034.722	.05
318.15	.1	.3999	1041.657	.05
318.15	.1	.4309	1044.971	.05
288.15	.2	.0502	1014.715	.05
288.15	.2	.1011	1021.197	.05
288.15	.2	.1492	1027.207	.05
288.15	.2	.1977	1033.113	.05
288.15	.2	.2374	1037.861	.05
288.15	.2	.2957	1044.675	.05
288.15	.2	.3352	1049.208	.05
288.15	.2	.407	1057.268	.05
288.15	.2	.4305	1059.865	.05
298.15	.2	.0502	1012.237	.05
298.15	.2	.1011	1018.649	.05
298.15	.2	.1492	1024.572	.05
298.15	.2	.1977	1030.378	.05
298.15	.2	.2374	1035.067	.05
298.15	.2	.2957	1041.832	.05
298.15	.2	.3352	1046.289	.05
298.15	.2	.407	1054.241	.05
298.15	.2	.4305	1056.801	.05
308.15	.2	.0502	1008.864	.05
308.15	.2	.1011	1015.22	.05
308.15	.2	.1492	1021.105	.05
308.15	.2	.1977	1026.92	.05
308.15	.2	.2374	1031.588	.05
308.15	.2	.2957	1038.23	.05
308.15	.2	.3352	1042.681	.05
308.15	.2	.407	1050.566	.05
308.15	.2	.4305	1053.124	.05
318.15	.2	.0502	1004.798	.05
318.15	.2	.1011	1011.12	.05
318.15	.2	.1492	1016.976	.05
318.15	.2	.1977	1022.756	.05
318.15	.2	.2374	1027.364	.05
318.15	.2	.2957	1034.025	.05
318.15	.2	.3352	1038.369	.05
318.15	.2	.407	1046.241	.05
318.15	.2	.4305	1048.773	.05
288.15	.3	.1013	1025.64	.05
288.15	.3	.1489	1031.542	.05
288.15	.3	.1968	1037.372	.05
288.15	.3	.2375	1042.197	.05
288.15	.3	.2923	1048.599	.05
288.15	.3	.3331	1053.29	.05
288.15	.3	.3873	1059.4	.05
288.15	.3	.4636	1067.702	.05
298.15	.3	.1013	1022.818	.05
298.15	.3	.1489	1028.659	.05
298.15	.3	.1968	1034.419	.05
298.15	.3	.2375	1039.199	.05
298.15	.3	.2923	1045.541	.05
298.15	.3	.3331	1050.184	.05
298.15	.3	.3873	1056.233	.05
298.15	.3	.4636	1064.354	.05
308.15	.3	.1013	1019.274	.05
308.15	.3	.1489	1025.072	.05
308.15	.3	.1968	1030.782	.05
308.15	.3	.2375	1035.555	.05
308.15	.3	.2923	1041.831	.05
308.15	.3	.3331	1046.423	.05
308.15	.3	.3873	1052.415	.05
308.15	.3	.4636	1060.575	.05
318.15	.3	.1013	1015.22	.05
318.15	.3	.1489	1021.004	.05
318.15	.3	.1968	1026.698	.05
318.15	.3	.2375	1031.455	.05
318.15	.3	.2923	1037.718	.05
318.15	.3	.3331	1042.197	.05
318.15	.3	.3873	1048.159	.05
318.15	.3	.4636	1056.205	.05

System: D-Sucrose + water + 1-hexyl-3-methylimidazolium bromide; phases: Liquid
Fixed: Pressure, kPa = 100
Fixed: Frequency, MHz = 3
Property: Speed of sound, m/s (Liquid); method: Sing-around technique in a fixed-path interferometer
Temperature, K	Solvent: Molality, mol/kg of 1-hexyl-3-methylimidazolium bromide	Molality, mol/kg of D-Sucrose	Speed of sound, m/s	uncertainty
288.15	0	.1011	1476.3	.5
288.15	0	.1492	1481.11	.5
288.15	0	.2002	1486.13	.5
288.15	0	.2499	1491.01	.5
288.15	0	.3497	1500.72	.5
288.15	0	.3997	1505.56	.5
288.15	0	.4978	1515.12	.5
298.15	0	.1011	1505.65	.5
298.15	0	.1492	1510.16	.5
298.15	0	.2002	1514.75	.5
298.15	0	.2499	1519.21	.5
298.15	0	.3497	1528.1	.5
298.15	0	.3997	1532.54	.5
298.15	0	.4978	1541.25	.5
308.15	0	.1011	1527.63	.5
308.15	0	.1492	1531.66	.5
308.15	0	.2002	1535.86	.5
308.15	0	.2499	1539.98	.5
308.15	0	.3497	1548.14	.5
308.15	0	.3997	1552.23	.5
308.15	0	.4978	1560.29	.5
318.15	0	.1011	1544.56	.5
318.15	0	.1492	1547.86	.5
318.15	0	.2002	1551.2	.5
318.15	0	.2499	1554.5	.5
318.15	0	.3497	1562	.5
318.15	0	.3997	1565.71	.5
318.15	0	.4978	1573.21	.5
288.15	.1	.0503	1486.59	.5
288.15	.1	.1009	1491.42	.5
288.15	.1	.1486	1496.07	.5
288.15	.1	.1989	1500.69	.5
288.15	.1	.2957	1510.19	.5
288.15	.1	.3366	1514.27	.5
288.15	.1	.3999	1520	.5
288.15	.1	.4309	1522.88	.5
298.15	.1	.0503	1513.69	.5
298.15	.1	.1009	1518.15	.5
298.15	.1	.1486	1522.39	.5
298.15	.1	.1989	1526.76	.5
298.15	.1	.2957	1535.27	.5
298.15	.1	.3366	1538.96	.5
298.15	.1	.3999	1544.44	.5
298.15	.1	.4309	1547.05	.5
308.15	.1	.0503	1533.76	.5
308.15	.1	.1009	1537.81	.5
308.15	.1	.1486	1541.72	.5
308.15	.1	.1989	1545.71	.5
308.15	.1	.2957	1553.62	.5
308.15	.1	.3366	1556.93	.5
308.15	.1	.3999	1562.01	.5
308.15	.1	.4309	1564.43	.5
318.15	.1	.0503	1547.74	.5
318.15	.1	.1009	1551.57	.5
318.15	.1	.1486	1554.98	.5
318.15	.1	.1989	1558.78	.5
318.15	.1	.2957	1566.05	.5
318.15	.1	.3366	1569.18	.5
318.15	.1	.3999	1573.78	.5
318.15	.1	.4309	1576.03	.5
288.15	.2	.0502	1500.35	.5
288.15	.2	.1011	1505.16	.5
288.15	.2	.1492	1509.7	.5
288.15	.2	.1977	1514.27	.5
288.15	.2	.2374	1518	.5
288.15	.2	.2957	1523.5	.5
288.15	.2	.3352	1527.15	.5
288.15	.2	.407	1533.97	.5
288.15	.2	.4305	1536.17	.5
298.15	.2	.0502	1524.96	.5
298.15	.2	.1011	1529.38	.5
298.15	.2	.1492	1533.61	.5
298.15	.2	.1977	1537.76	.5
298.15	.2	.2374	1541.2	.5
298.15	.2	.2957	1546.27	.5
298.15	.2	.3352	1549.65	.5
298.15	.2	.407	1555.83	.5
298.15	.2	.4305	1557.83	.5
308.15	.2	.0502	1543.03	.5
308.15	.2	.1011	1547.08	.5
308.15	.2	.1492	1550.98	.5
308.15	.2	.1977	1554.84	.5
308.15	.2	.2374	1558.01	.5
308.15	.2	.2957	1562.91	.5
308.15	.2	.3352	1565.76	.5
308.15	.2	.407	1571.41	.5
308.15	.2	.4305	1573.25	.5
318.15	.2	.0502	1555.06	.5
318.15	.2	.1011	1558.71	.5
318.15	.2	.1492	1562.35	.5
318.15	.2	.1977	1565.9	.5
318.15	.2	.2374	1568.78	.5
318.15	.2	.2957	1573.06	.5
318.15	.2	.3352	1575.93	.5
318.15	.2	.407	1581.21	.5
318.15	.2	.4305	1583.04	.5
288.15	.3	.1013	1518.65	.5
288.15	.3	.1489	1522.98	.5
288.15	.3	.1968	1527.41	.5
288.15	.3	.2375	1531.15	.5
288.15	.3	.2923	1536.15	.5
288.15	.3	.3331	1540.02	.5
288.15	.3	.3873	1545.13	.5
288.15	.3	.4636	1552.06	.5
298.15	.3	.1013	1540.25	.5
298.15	.3	.1489	1544.32	.5
298.15	.3	.1968	1548.42	.5
298.15	.3	.2375	1551.85	.5
298.15	.3	.2923	1556.51	.5
298.15	.3	.3331	1560	.5
298.15	.3	.3873	1564.68	.5
298.15	.3	.4636	1571	.5
308.15	.3	.1013	1555.83	.5
308.15	.3	.1489	1559.54	.5
308.15	.3	.1968	1563.31	.5
308.15	.3	.2375	1566.45	.5
308.15	.3	.2923	1570.78	.5
308.15	.3	.3331	1573.99	.5
308.15	.3	.3873	1578.36	.5
308.15	.3	.4636	1584.29	.5
318.15	.3	.1013	1566.15	.5
318.15	.3	.1489	1569.42	.5
318.15	.3	.1968	1572.85	.5
318.15	.3	.2375	1575.8	.5
318.15	.3	.2923	1579.9	.5
318.15	.3	.3331	1583.13	.5
318.15	.3	.3873	1587.12	.5
318.15	.3	.4636	1592.47	.5

System: D-Sucrose + water + 1-hexyl-3-methylimidazolium bromide; phases: Liquid
Fixed: Pressure, kPa = 100
Property: Viscosity, Pa*s (Liquid); method: Capillary tube (Ostwald; Ubbelohde) method
Temperature, K	Solvent: Molality, mol/kg of 1-hexyl-3-methylimidazolium bromide	Molality, mol/kg of D-Sucrose	Viscosity, Pa*s	uncertainty
288.15	0	.1011	.001252	.00001252
288.15	0	.1492	.001306	.00001306
288.15	0	.2002	.001362	.00001362
288.15	0	.2499	.001414	.00001414
288.15	0	.3497	.001517	.00001517
288.15	0	.3997	.001571	.00001571
288.15	0	.4978	.001678	.00001678
298.15	0	.1011	.00098	.0000098
298.15	0	.1492	.001021	.00001021
298.15	0	.2002	.001065	.00001065
298.15	0	.2499	.001104	.00001104
298.15	0	.3497	.001182	.00001182
298.15	0	.3997	.001222	.00001222
298.15	0	.4978	.001295	.00001295
308.15	0	.1011	.000789	.00000789
308.15	0	.1492	.000822	.00000822
308.15	0	.2002	.000855	.00000855
308.15	0	.2499	.000886	.00000886
308.15	0	.3497	.000949	.00000949
308.15	0	.3997	.000978	.00000978
308.15	0	.4978	.001035	.00001035
318.15	0	.1011	.000657	.00000657
318.15	0	.1492	.000683	.00000683
318.15	0	.2002	.000709	.00000709
318.15	0	.2499	.000733	.00000733
318.15	0	.3497	.000783	.00000783
318.15	0	.3997	.000805	.00000805
318.15	0	.4978	.00086	.0000086
288.15	.1	.0503	.001271	.00001271
288.15	.1	.1009	.001334	.00001334
288.15	.1	.1486	.001394	.00001394
288.15	.1	.1989	.001453	.00001453
288.15	.1	.2957	.001601	.00001601
288.15	.1	.3366	.001649	.00001649
288.15	.1	.3999	.001761	.00001761
288.15	.1	.4309	.001826	.00001826
298.15	.1	.0503	.000986	.00000986
298.15	.1	.1009	.001034	.00001034
298.15	.1	.1486	.001074	.00001074
298.15	.1	.1989	.001124	.00001124
298.15	.1	.2957	.001229	.00001229
298.15	.1	.3366	.001272	.00001272
298.15	.1	.3999	.001347	.00001347
298.15	.1	.4309	.001395	.00001395
308.15	.1	.0503	.000785	.00000785
308.15	.1	.1009	.000826	.00000826
308.15	.1	.1486	.000859	.00000859
308.15	.1	.1989	.000897	.00000897
308.15	.1	.2957	.000975	.00000975
308.15	.1	.3366	.00101	.0000101
308.15	.1	.3999	.001059	.00001059
308.15	.1	.4309	.001088	.00001088
318.15	.1	.0503	.000651	.00000651
318.15	.1	.1009	.000681	.00000681
318.15	.1	.1486	.000711	.00000711
318.15	.1	.1989	.000735	.00000735
318.15	.1	.2957	.000793	.00000793
318.15	.1	.3366	.00082	.0000082
318.15	.1	.3999	.000863	.00000863
318.15	.1	.4309	.000894	.00000894
288.15	.2	.0502	.00133	.0000133
288.15	.2	.1011	.001403	.00001403
288.15	.2	.1492	.001468	.00001468
288.15	.2	.1977	.001538	.00001538
288.15	.2	.2374	.001596	.00001596
288.15	.2	.2957	.001672	.00001672
288.15	.2	.3352	.001745	.00001745
288.15	.2	.407	.001874	.00001874
288.15	.2	.4305	.001908	.00001908
298.15	.2	.0502	.001022	.00001022
298.15	.2	.1011	.00107	.0000107
298.15	.2	.1492	.001123	.00001123
298.15	.2	.1977	.001173	.00001173
298.15	.2	.2374	.001222	.00001222
298.15	.2	.2957	.001287	.00001287
298.15	.2	.3352	.001342	.00001342
298.15	.2	.407	.001438	.00001438
298.15	.2	.4305	.001463	.00001463
308.15	.2	.0502	.000827	.00000827
308.15	.2	.1011	.00087	.0000087
308.15	.2	.1492	.000904	.00000904
308.15	.2	.1977	.000941	.00000941
308.15	.2	.2374	.000975	.00000975
308.15	.2	.2957	.001018	.00001018
308.15	.2	.3352	.001061	.00001061
308.15	.2	.407	.00113	.0000113
308.15	.2	.4305	.001152	.00001152
318.15	.2	.0502	.000683	.00000683
318.15	.2	.1011	.000711	.00000711
318.15	.2	.1492	.00074	.0000074
318.15	.2	.1977	.000775	.00000775
318.15	.2	.2374	.000805	.00000805
318.15	.2	.2957	.000835	.00000835
318.15	.2	.3352	.000868	.00000868
318.15	.2	.407	.000917	.00000917
318.15	.2	.4305	.000928	.00000928
288.15	.3	.1013	.001495	.00001495
288.15	.3	.1489	.001568	.00001568
288.15	.3	.1968	.001637	.00001637
288.15	.3	.2375	.001699	.00001699
288.15	.3	.2923	.001794	.00001794
288.15	.3	.3331	.001862	.00001862
288.15	.3	.3873	.001984	.00001984
288.15	.3	.4636	.002121	.00002121
298.15	.3	.1013	.001142	.00001142
298.15	.3	.1489	.001191	.00001191
298.15	.3	.1968	.001245	.00001245
298.15	.3	.2375	.001293	.00001293
298.15	.3	.2923	.001365	.00001365
298.15	.3	.3331	.001416	.00001416
298.15	.3	.3873	.001498	.00001498
298.15	.3	.4636	.001595	.00001595
308.15	.3	.1013	.000891	.00000891
308.15	.3	.1489	.000949	.00000949
308.15	.3	.1968	.00099	.0000099
308.15	.3	.2375	.001023	.00001023
308.15	.3	.2923	.001078	.00001078
308.15	.3	.3331	.001114	.00001114
308.15	.3	.3873	.001184	.00001184
308.15	.3	.4636	.00125	.0000125
318.15	.3	.1013	.00074	.0000074
318.15	.3	.1489	.00078	.0000078
318.15	.3	.1968	.000807	.00000807
318.15	.3	.2375	.000834	.00000834
318.15	.3	.2923	.000875	.00000875
318.15	.3	.3331	.000906	.00000906
318.15	.3	.3873	.000952	.00000952
318.15	.3	.4636	.001009	.00001009

System: D-Sucrose + water; phases: Liquid
Property: Mass density, kg/m3 (Liquid); method: Vibrating tube method
Temperature, K	Molality, mol/kg of D-Sucrose	Pressure, kPa	Mass density, kg/m3	uncertainty
288.15	.1011	100	1012.092	.05
288.15	.1492	100	1018.271	.05
288.15	.2002	100	1024.551	.05
288.15	.2499	100	1030.528	.05
288.15	.3497	100	1042.12	.05
288.15	.3997	100	1047.744	.05
288.15	.4978	100	1058.512	.05
298.15	.1011	100	1009.908	.05
298.15	.1492	100	1015.997	.05
298.15	.2002	100	1022.217	.05
298.15	.2499	100	1028.133	.05
298.15	.3497	100	1039.595	.05
298.15	.3997	100	1045.191	.05
298.15	.4978	100	1055.815	.05
308.15	.1011	100	1006.786	.05
308.15	.1492	100	1012.83	.05
308.15	.2002	100	1018.995	.05
308.15	.2499	100	1024.853	.05
308.15	.3497	100	1036.234	.05
308.15	.3997	100	1041.758	.05
308.15	.4978	100	1052.309	.05
318.15	.1011	100	1002.86	.05
318.15	.1492	100	1008.85	.05
318.15	.2002	100	1014.964	.05
318.15	.2499	100	1020.786	.05
318.15	.3497	100	1032.087	.05
318.15	.3997	100	1037.593	.05
318.15	.4978	100	1048.074	.05

System: D-Sucrose + water; phases: Liquid
Fixed: Frequency, MHz = 3
Property: Speed of sound, m/s (Liquid); method: Sing-around technique in a fixed-path interferometer
Temperature, K	Molality, mol/kg of D-Sucrose	Pressure, kPa	Speed of sound, m/s	uncertainty
288.15	.1011	100	1476.3	.5
288.15	.1492	100	1481.11	.5
288.15	.2002	100	1486.13	.5
288.15	.2499	100	1491.01	.5
288.15	.3497	100	1500.72	.5
288.15	.3997	100	1505.56	.5
288.15	.4978	100	1515.12	.5
298.15	.1011	100	1505.65	.5
298.15	.1492	100	1510.16	.5
298.15	.2002	100	1514.75	.5
298.15	.2499	100	1519.21	.5
298.15	.3497	100	1528.1	.5
298.15	.3997	100	1532.54	.5
298.15	.4978	100	1541.25	.5
308.15	.1011	100	1527.63	.5
308.15	.1492	100	1531.66	.5
308.15	.2002	100	1535.86	.5
308.15	.2499	100	1539.98	.5
308.15	.3497	100	1548.14	.5
308.15	.3997	100	1552.23	.5
308.15	.4978	100	1560.29	.5
318.15	.1011	100	1544.56	.5
318.15	.1492	100	1547.86	.5
318.15	.2002	100	1551.2	.5
318.15	.2499	100	1554.5	.5
318.15	.3497	100	1562	.5
318.15	.3997	100	1565.71	.5
318.15	.4978	100	1573.21	.5

System: D-Sucrose + water; phases: Liquid
Property: Viscosity, Pa*s (Liquid); method: Capillary tube (Ostwald; Ubbelohde) method
Temperature, K	Molality, mol/kg of D-Sucrose	Pressure, kPa	Viscosity, Pa*s	uncertainty
288.15	.1011	100	.001252	.00001252
288.15	.1492	100	.001306	.00001306
288.15	.2002	100	.001362	.00001362
288.15	.2499	100	.001414	.00001414
288.15	.3497	100	.001517	.00001517
288.15	.3997	100	.001571	.00001571
288.15	.4978	100	.001678	.00001678
298.15	.1011	100	.00098	.0000098
298.15	.1492	100	.001021	.00001021
298.15	.2002	100	.001065	.00001065
298.15	.2499	100	.001104	.00001104
298.15	.3497	100	.001182	.00001182
298.15	.3997	100	.001222	.00001222
298.15	.4978	100	.001295	.00001295
308.15	.1011	100	.000789	.00000789
308.15	.1492	100	.000822	.00000822
308.15	.2002	100	.000855	.00000855
308.15	.2499	100	.000886	.00000886
308.15	.3497	100	.000949	.00000949
308.15	.3997	100	.000978	.00000978
308.15	.4978	100	.001035	.00001035
318.15	.1011	100	.000657	.00000657
318.15	.1492	100	.000683	.00000683
318.15	.2002	100	.000709	.00000709
318.15	.2499	100	.000733	.00000733
318.15	.3497	100	.000783	.00000783
318.15	.3997	100	.000805	.00000805
318.15	.4978	100	.00086	.0000086
