Measured thermophysical data. Thermochemistry of uracil and thymine revisited
Source: J. Chem. Thermodyn., 2015, 10.1016/j.jct.2015.03.015
Compound 1: uracil, C4H4N2O2, purity 99%
Compound 2: thymine, C5H6N2O2, purity 99%
Compound 3: carbon dioxide, CO2
Compound 4: nitrogen, N2
Compound 5: water, H2O
Compound 6: oxygen, O2

System: uracil; phases: Crystal, Gas
Property: Vapor or sublimation pressure, kPa (Crystal); method: Transpiration method
Temperature, K	Vapor or sublimation pressure, kPa	uncertainty
424	.00022	.00001
434.1	.00051	.00002
440	.00086	.00003
446	.00135	.00004
451.9	.00212	.00006
457.7	.00317	.00008
462.6	.0047	.00012
467.4	.00673	.00019
472.4	.00905	.00025

System: thymine; phases: Crystal, Gas
Property: Vapor or sublimation pressure, kPa (Crystal); method: Transpiration method
Temperature, K	Vapor or sublimation pressure, kPa	uncertainty
426.4	.00061	.00002
430.5	.00086	.00003
436.2	.00134	.00004
440.5	.00183	.00005
447.6	.00314	.00008
450.8	.00397	.0001
456.5	.00601	.00018
460.6	.00813	.00023
464.8	.01106	.0003
468.9	.01464	.00039
472.3	.01767	.00047

Reaction: -1 uracil + 4 carbon dioxide + 1 nitrogen + 2 water + -4 oxygen
Property: Specific internal energy of reaction at constant volume, J/g
-15334.4

Reaction: -1 thymine + 5 carbon dioxide + 1 nitrogen + 3 water + -5.5 oxygen
Property: Specific internal energy of reaction at constant volume, J/g
-18721.9
