Measured thermophysical data. Volumetric and conductometric studies on the interactions of dipeptides with  sodium acetate and sodium butyrate in aqueous solutions at T = 298.15 K
Source: J. Chem. Thermodyn., 2009, 10.1016/j.jct.2009.06.010
Compound 1: glycyl-l-glutamine, C7H13N3O4
Compound 2: L-alanyl-L-glutamine, C8H15N3O4
Compound 3: acetic acid, sodium salt, C2H3NaO2
Compound 4: Sodium butyrate, C4H7NaO2
Compound 5: water, H2O, purity 99.9%

System: water + glycyl-l-glutamine; phases: Liquid
Fixed: Pressure, kPa = 101
Fixed: Temperature, K = 298.15
Property: Mass density, kg/m3 (Liquid); method: Vibrating tube method
Molality, mol/kg of glycyl-l-glutamine	Mass density, kg/m3	uncertainty
0	997.045	.003
.03879	1000.009	.003
.06116	1001.698	.003
.08141	1003.222	.003
.1008	1004.665	.003
.1497	1008.279	.003
.1987	1011.85	.003
.2522	1015.682	.003

System: water + glycyl-l-glutamine; phases: Liquid
Fixed: Pressure, kPa = 101
Fixed: Temperature, K = 298.15
Property: Viscosity, Pa*s (Liquid); method: Capillary tube (Ostwald; Ubbelohde) method
Molality, mol/kg of glycyl-l-glutamine	Viscosity, Pa*s	uncertainty
.05	.000913	.00001826
.1	.000936	.00001872
.15	.000961	.00001922
.2	.000985	.0000197

System: water + L-alanyl-L-glutamine; phases: Liquid
Fixed: Pressure, kPa = 101
Fixed: Temperature, K = 298.15
Property: Mass density, kg/m3 (Liquid); method: Vibrating tube method
Molality, mol/kg of L-alanyl-L-glutamine	Mass density, kg/m3	uncertainty
0	997.045	.003
.0401	999.957	.003
.08086	1002.877	.003
.1012	1004.315	.003
.148	1007.595	.003
.2002	1011.175	.003
.2448	1014.222	.003
.2993	1017.767	.003

System: water + L-alanyl-L-glutamine; phases: Liquid
Fixed: Pressure, kPa = 101
Fixed: Temperature, K = 298.15
Property: Viscosity, Pa*s (Liquid); method: Capillary tube (Ostwald; Ubbelohde) method
Molality, mol/kg of L-alanyl-L-glutamine	Viscosity, Pa*s	uncertainty
.05	.000918	.00001836
.1	.000948	.00001896
.15	.000978	.00001956
.2	.001008	.00002016

System: acetic acid, sodium salt + water + glycyl-l-glutamine; phases: Liquid
Fixed: Temperature, K = 298.15
Fixed: Pressure, kPa = 101
Property: Mass density, kg/m3 (Liquid); method: Vibrating tube method
Molality, mol/kg of acetic acid, sodium salt	Molality, mol/kg of glycyl-l-glutamine	Mass density, kg/m3	uncertainty
.5	0	1017.259	.003
.5	.02197	1018.86	.003
.5	.06192	1021.737	.003
.5	.08073	1023.088	.003
.5	.1079	1025.014	.003
.5	.1453	1027.635	.003
.5	.1968	1031.212	.003
.5	.2247	1033.105	.003
1	0	1036.28	.003
1	.04451	1039.358	.003
1	.06656	1040.871	.003
1	.1109	1043.891	.003
1	.1604	1047.218	.003
1	.1927	1049.36	.003
1	.225	1051.493	.003
1.5	0	1053.93	.003
1.5	.02495	1055.593	.003
1.5	.04006	1056.588	.003
1.5	.05884	1057.824	.003
1.5	.08116	1059.279	.003
1.5	.1035	1060.724	.003
1.5	.1492	1063.655	.003
1.5	.19	1066.252	.003
2	0	1070.608	.003
2	.02723	1072.312	.003
2	.04404	1073.354	.003
2	.06646	1074.759	.003
2	.09054	1076.256	.003
2	.108	1077.346	.003
2	.1458	1079.669	.003
2	.1848	1082.048	.003

System: acetic acid, sodium salt + water + glycyl-l-glutamine; phases: Liquid
Fixed: Temperature, K = 298.15
Fixed: Pressure, kPa = 101
Property: Molar conductivity, S*m2/mol (Liquid); method: Other
Solvent: Molality, mol/kg of glycyl-l-glutamine	Amount concentration (molarity), mol/dm3 of acetic acid, sodium salt	Molar conductivity, S*m2/mol	uncertainty
.05	.0036705	.0077108	.000038554
.05	.0049855	.0076928	.000038464
.05	.0065725	.0076804	.000038402
.05	.008014	.0076622	.000038311
.05	.0094986	.007638	.00003819
.05	.010887	.0076275	.0000381375
.05	.012151	.0076079	.0000380395
.05	.013353	.0075859	.0000379295
.05	.014831	.0075592	.000037796
.05	.016065	.0075504	.000037752
.05	.017219	.0075267	.0000376335
.05	.018481	.0075097	.0000375485
.05	.019734	.007487	.000037435
.05	.021058	.0074627	.0000373135
.05	.022286	.0074439	.0000372195
.05	.023467	.0074236	.000037118
.05	.024624	.0074076	.000037038
.1	.0032593	.0075873	.0000379365
.1	.0052728	.0075491	.0000377455
.1	.0071857	.0075312	.000037656
.1	.0086855	.0075138	.000037569
.1	.010199	.007492	.00003746
.1	.011771	.0074749	.0000373745
.1	.012949	.0074534	.000037267
.1	.014394	.0074339	.0000371695
.1	.015958	.0074111	.0000370555
.1	.017352	.0074078	.000037039
.1	.018612	.0073878	.000036939
.1	.01997	.0073671	.0000368355
.1	.021214	.0073528	.000036764
.1	.022473	.0073299	.0000366495
.1	.023579	.0073153	.0000365765
.1	.024848	.0072983	.0000364915
.1	.025745	.0072819	.0000364095
.15	.00222	.0074411	.0000372055
.15	.0036826	.0074301	.0000371505
.15	.0051389	.0074078	.000037039
.15	.0067351	.0073879	.0000369395
.15	.0082712	.0073764	.000036882
.15	.0097201	.0073559	.0000367795
.15	.011068	.0073389	.0000366945
.15	.012475	.0073169	.0000365845
.15	.013874	.0072962	.000036481
.15	.016706	.0072698	.000036349
.15	.018	.0072449	.0000362245
.15	.019311	.0072287	.0000361435
.15	.020603	.0072105	.0000360525
.15	.021882	.0071937	.0000359685
.15	.023182	.0071725	.0000358625
.15	.024242	.0071609	.0000358045
.15	.025426	.0071458	.000035729
.2	.00278	.007247	.000036235
.2	.0034616	.007226	.00003613
.2	.0048326	.0072104	.000036052
.2	.0063717	.0071834	.000035917
.2	.0076445	.0071736	.000035868
.2	.0090913	.0071497	.0000357485
.2	.010388	.0071406	.000035703
.2	.01167	.007124	.00003562
.2	.012899	.0071063	.0000355315
.2	.014173	.0070921	.0000354605
.2	.015372	.0070791	.0000353955
.2	.017721	.0070599	.0000352995
.2	.018838	.0070476	.000035238
.2	.020118	.0070284	.000035142
.2	.021307	.0070158	.000035079
.2	.022382	.0070013	.0000350065
.2	.023529	.00699	.00003495

System: acetic acid, sodium salt + water + L-alanyl-L-glutamine; phases: Liquid
Fixed: Temperature, K = 298.15
Fixed: Pressure, kPa = 101
Property: Mass density, kg/m3 (Liquid); method: Vibrating tube method
Molality, mol/kg of acetic acid, sodium salt	Molality, mol/kg of L-alanyl-L-glutamine	Mass density, kg/m3	uncertainty
.5	0	1017.259	.003
.5	.0294	1019.284	.003
.5	.04651	1020.454	.003
.5	.06637	1021.805	.003
.5	.08651	1023.165	.003
.5	.1063	1024.501	.003
.5	.1528	1027.598	.003
.5	.1846	1029.698	.003
.5	.232	1032.781	.003
1	0	1036.28	.003
1	.04544	1039.246	.003
1	.06487	1040.507	.003
1	.08092	1041.545	.003
1	.09893	1042.707	.003
1	.1413	1045.415	.003
1	.182	1047.993	.003
1	.2276	1050.818	.003
1.5	0	1053.93	.003
1.5	.04415	1056.659	.003
1.5	.0622	1057.768	.003
1.5	.07753	1058.718	.003
1.5	.09358	1059.704	.003
1.5	.1334	1062.136	.003
1.5	.173	1064.524	.003
1.5	.2179	1067.196	.003
2	0	1070.608	.003
2	.03965	1072.943	.003
2	.06117	1074.214	.003
2	.07918	1075.278	.003
2	.1044	1076.755	.003
2	.1431	1079.028	.003
2	.1862	1081.519	.003
2	.2224	1083.594	.003

System: acetic acid, sodium salt + water + L-alanyl-L-glutamine; phases: Liquid
Fixed: Temperature, K = 298.15
Fixed: Pressure, kPa = 101
Property: Molar conductivity, S*m2/mol (Liquid); method: Other
Solvent: Molality, mol/kg of L-alanyl-L-glutamine	Amount concentration (molarity), mol/dm3 of acetic acid, sodium salt	Molar conductivity, S*m2/mol	uncertainty
.05	.0038235	.0076363	.0000381815
.05	.0059376	.0076036	.000038018
.05	.0079132	.007583	.000037915
.05	.0096272	.0075609	.0000378045
.05	.011298	.0075455	.0000377275
.05	.013098	.007527	.000037635
.05	.014549	.0075192	.000037596
.05	.016283	.0075044	.000037522
.05	.017797	.007486	.00003743
.05	.019339	.0074659	.0000373295
.05	.020789	.0074553	.0000372765
.05	.022235	.0074423	.0000372115
.05	.023364	.0074292	.000037146
.05	.024762	.0074116	.000037058
.05	.026399	.0073911	.0000369555
.1	.003233	.0073857	.0000369285
.1	.0050714	.0074009	.0000370045
.1	.0067009	.0073784	.000036892
.1	.0081938	.0073674	.000036837
.1	.0096282	.0073594	.000036797
.1	.011316	.0073434	.000036717
.1	.013009	.0073202	.000036601
.1	.014598	.0073017	.0000365085
.1	.016175	.0072994	.000036497
.1	.017721	.0072795	.0000363975
.1	.019195	.0072615	.0000363075
.1	.020056	.0072496	.000036248
.1	.021204	.0072387	.0000361935
.1	.022376	.0072212	.000036106
.1	.023333	.0072108	.000036054
.1	.02443	.0072005	.0000360025
.1	.025182	.0071894	.000035947
.15	.0030389	.0072175	.0000360875
.15	.0045165	.0072025	.0000360125
.15	.0061901	.0071966	.000035983
.15	.0078607	.0071822	.000035911
.15	.0093786	.0071732	.000035866
.15	.01102	.0071558	.000035779
.15	.012602	.0071419	.0000357095
.15	.014212	.0071329	.0000356645
.15	.015894	.0071276	.000035638
.15	.017287	.0071095	.0000355475
.15	.018659	.0070908	.000035454
.15	.020012	.0070812	.000035406
.15	.021582	.0070625	.0000353125
.15	.023087	.0070471	.0000352355
.15	.024323	.0070351	.0000351755
.2	.0031075	.0070161	.0000350805
.2	.0048515	.0070159	.0000350795
.2	.0067719	.0069946	.000034973
.2	.0085791	.0069858	.000034929
.2	.010312	.006967	.000034835
.2	.012193	.0069584	.000034792
.2	.013766	.0069495	.0000347475
.2	.014886	.0069405	.0000347025
.2	.016189	.0069297	.0000346485
.2	.017581	.0069148	.000034574
.2	.018675	.0069079	.0000345395
.2	.019799	.0068968	.000034484
.2	.020708	.0068897	.0000344485
.2	.021895	.0068806	.000034403
.2	.023036	.0068719	.0000343595
.2	.024146	.0068596	.000034298

System: Sodium butyrate + water + glycyl-l-glutamine; phases: Liquid
Fixed: Temperature, K = 298.15
Fixed: Pressure, kPa = 101
Property: Mass density, kg/m3 (Liquid); method: Vibrating tube method
Molality, mol/kg of Sodium butyrate	Molality, mol/kg of glycyl-l-glutamine	Mass density, kg/m3	uncertainty
.5	0	1016.224	.003
.5	.02601	1018.101	.003
.5	.04168	1019.228	.003
.5	.05942	1020.497	.003
.5	.07786	1021.816	.003
.5	.09223	1022.835	.003
.5	.1403	1026.207	.003
.5	.1842	1029.266	.003
.5	.2253	1032.061	.003
1	0	1033.494	.003
1	.02758	1035.37	.003
1	.0419	1036.341	.003
1	.06014	1037.578	.003
1	.07959	1038.908	.003
1	.09848	1040.18	.003
1	.1404	1042.995	.003
1	.1764	1045.387	.003
1	.2212	1048.321	.003
1.5	0	1049.137	.003
1.5	.04445	1052.025	.003
1.5	.06135	1053.123	.003
1.5	.08155	1054.433	.003
1.5	.1079	1056.128	.003
1.5	.1571	1059.265	.003
1.5	.1875	1061.189	.003
1.5	.2294	1063.812	.003
2	0	1063.581	.003
2	.03748	1065.877	.003
2	.05657	1067.048	.003
2	.07299	1068.066	.003
2	.1038	1069.959	.003
2	.139	1072.121	.003
2	.1764	1074.391	.003
2	.2202	1077.069	.003

System: Sodium butyrate + water + glycyl-l-glutamine; phases: Liquid
Fixed: Temperature, K = 298.15
Fixed: Pressure, kPa = 101
Property: Molar conductivity, S*m2/mol (Liquid); method: Other
Solvent: Molality, mol/kg of glycyl-l-glutamine	Amount concentration (molarity), mol/dm3 of Sodium butyrate	Molar conductivity, S*m2/mol	uncertainty
.05	.0048359	.0070094	.000035047
.05	.0065425	.0069843	.0000349215
.05	.0082727	.0069368	.000034684
.05	.0097442	.0069097	.0000345485
.05	.011238	.0068859	.0000344295
.05	.012864	.0068476	.000034238
.05	.014177	.0068151	.0000340755
.05	.015864	.0067793	.0000338965
.05	.017329	.0067547	.0000337735
.05	.018716	.0067449	.0000337245
.05	.020286	.0067186	.000033593
.05	.021551	.0066945	.0000334725
.05	.02306	.0066688	.000033344
.05	.024334	.0066477	.0000332385
.05	.025605	.0066252	.000033126
.05	.026204	.0066197	.0000330985
.1	.00271	.0068626	.000034313
.1	.0044744	.0068236	.000034118
.1	.0059929	.0067933	.0000339665
.1	.007433	.0067558	.000033779
.1	.0089772	.0067379	.0000336895
.1	.010542	.0067122	.000033561
.1	.012041	.0066843	.0000334215
.1	.01334	.0066641	.0000333205
.1	.014832	.0066345	.0000331725
.1	.01614	.0066118	.000033059
.1	.017403	.0065904	.000032952
.1	.018839	.0065812	.000032906
.1	.020193	.0065619	.0000328095
.1	.021571	.0065433	.0000327165
.1	.022951	.0065212	.000032606
.1	.024108	.0065031	.0000325155
.1	.025302	.0064859	.0000324295
.15	.0040206	.0066423	.0000332115
.15	.0056954	.0066264	.000033132
.15	.0072885	.006602	.00003301
.15	.0089272	.0065651	.0000328255
.15	.010462	.0065421	.0000327105
.15	.011963	.0065159	.0000325795
.15	.013375	.0064895	.0000324475
.15	.014818	.00647	.00003235
.15	.01624	.0064419	.0000322095
.15	.017562	.0064236	.000032118
.15	.019028	.0064168	.000032084
.15	.020399	.0063982	.000031991
.15	.021718	.006377	.000031885
.15	.023095	.0063566	.000031783
.15	.024016	.0063451	.0000317255
.15	.025279	.0063309	.0000316545
.15	.026311	.0063153	.0000315765
.2	.0028317	.0065613	.0000328065
.2	.0045716	.0065491	.0000327455
.2	.0058172	.0065366	.000032683
.2	.007385	.0065246	.000032623
.2	.0090409	.0065019	.0000325095
.2	.010542	.0064883	.0000324415
.2	.012001	.0064643	.0000323215
.2	.013458	.0064464	.000032232
.2	.014965	.0064182	.000032091
.2	.016338	.0064003	.0000320015
.2	.017681	.0063841	.0000319205
.2	.019005	.0063765	.0000318825
.2	.020385	.0063629	.0000318145
.2	.021617	.0063443	.0000317215
.2	.022809	.0063291	.0000316455
.2	.023964	.0063114	.000031557
.2	.025166	.0062968	.000031484

System: Sodium butyrate + water + L-alanyl-L-glutamine; phases: Liquid
Fixed: Temperature, K = 298.15
Fixed: Pressure, kPa = 101
Property: Mass density, kg/m3 (Liquid); method: Vibrating tube method
Molality, mol/kg of Sodium butyrate	Molality, mol/kg of L-alanyl-L-glutamine	Mass density, kg/m3	uncertainty
.5	0	1016.224	.003
.5	.04755	1019.495	.003
.5	.06344	1020.577	.003
.5	.08164	1021.807	.003
.5	.1152	1024.066	.003
.5	.1514	1026.464	.003
.5	.1887	1028.917	.003
.5	.2346	1031.89	.003
1	0	1033.494	.003
1	.0273	1035.276	.003
1	.04477	1036.415	.003
1	.06017	1037.412	.003
1	.07983	1038.686	.003
1	.1102	1040.633	.003
1	.1479	1043.032	.003
1	.1833	1045.263	.003
1	.2255	1047.885	.003
1.5	0	1049.137	.003
1.5	.02743	1050.835	.003
1.5	.04161	1051.713	.003
1.5	.0607	1052.9	.003
1.5	.07782	1053.956	.003
1.5	.1029	1055.497	.003
1.5	.1429	1057.941	.003
1.5	.1948	1061.063	.003
1.5	.2264	1062.933	.003
2	0	1063.581	.003
2	.03777	1065.791	.003
2	.05563	1066.845	.003
2	.06763	1067.545	.003
2	.09986	1069.432	.003
2	.1335	1071.396	.003
2	.1738	1073.745	.003
2	.2155	1076.119	.003

System: Sodium butyrate + water + L-alanyl-L-glutamine; phases: Liquid
Fixed: Temperature, K = 298.15
Fixed: Pressure, kPa = 101
Property: Molar conductivity, S*m2/mol (Liquid); method: Other
Solvent: Molality, mol/kg of L-alanyl-L-glutamine	Amount concentration (molarity), mol/dm3 of Sodium butyrate	Molar conductivity, S*m2/mol	uncertainty
.05	.038689	.0068606	.000034303
.05	.054739	.0068447	.0000342235
.05	.070035	.0068317	.0000341585
.05	.084709	.0068091	.0000340455
.05	.099678	.0067841	.0000339205
.05	.11444	.0067684	.000033842
.05	.12871	.0067396	.000033698
.05	.14287	.0067219	.0000336095
.05	.15715	.0067023	.0000335115
.05	.17144	.0066792	.000033396
.05	.18528	.0066755	.0000333775
.05	.1976	.0066579	.0000332895
.05	.21011	.0066412	.000033206
.05	.22241	.0066228	.000033114
.05	.23551	.0066027	.0000330135
.05	.24624	.0065859	.0000329295
.05	.25989	.0065681	.0000328405
.1	.024531	.00663	.00003315
.1	.039293	.0066134	.000033067
.1	.055047	.0066061	.0000330305
.1	.070722	.0065939	.0000329695
.1	.08645	.0065823	.0000329115
.1	.10196	.0065669	.0000328345
.1	.11611	.0065476	.000032738
.1	.13002	.0065363	.0000326815
.1	.14338	.0065145	.0000325725
.1	.15844	.0064954	.000032477
.1	.17261	.006475	.000032375
.1	.18662	.0064633	.0000323165
.1	.19992	.0064488	.000032244
.1	.21312	.0064289	.0000321445
.1	.22522	.0064136	.000032068
.1	.23771	.0063941	.0000319705
.1	.25039	.0063847	.0000319235
.1	.2622	.0063682	.000031841
.15	.0429	.0063273	.0000316365
.15	.05973	.0063003	.0000315015
.15	.075306	.0063029	.0000315145
.15	.089921	.006287	.000031435
.15	.10484	.0062782	.000031391
.15	.11882	.0062661	.0000313305
.15	.13335	.0062471	.0000312355
.15	.14668	.0062308	.000031154
.15	.16024	.0062151	.0000310755
.15	.17362	.0062018	.000031009
.15	.18709	.0061995	.0000309975
.15	.20032	.0061828	.000030914
.15	.21108	.0061782	.000030891
.15	.22348	.0061633	.0000308165
.15	.2364	.0061502	.000030751
.15	.24909	.0061354	.000030677
.15	.262	.006121	.000030605
.2	.023484	.0062137	.0000310685
.2	.041821	.0061276	.000030638
.2	.057368	.0060856	.000030428
.2	.070948	.0060757	.0000303785
.2	.087312	.0060632	.000030316
.2	.10231	.0060501	.0000302505
.2	.11692	.006051	.000030255
.2	.13097	.0060276	.000030138
.2	.14558	.006016	.00003008
.2	.15903	.0060017	.0000300085
.2	.17353	.0059853	.0000299265
.2	.18705	.0059852	.000029926
.2	.2008	.0059725	.0000298625
.2	.21394	.0059585	.0000297925
.2	.22666	.0059471	.0000297355
.2	.2393	.0059299	.0000296495
.2	.25233	.0059183	.0000295915
.2	.25968	.0059109	.0000295545

System: Sodium butyrate + water; phases: Liquid
Fixed: Temperature, K = 298.15
Fixed: Pressure, kPa = 101
Property: Molar conductivity, S*m2/mol (Liquid); method: Other
Amount concentration (molarity), mol/dm3 of Sodium butyrate	Molar conductivity, S*m2/mol	uncertainty
.00032342	.0079621	.0000398105
.0011161	.0079503	.0000397515
.0012729	.0079357	.0000396785
.0014883	.0079148	.000039574
.0018798	.0078833	.0000394165
.002454	.0078679	.0000393395
.0024303	.0078423	.0000392115
.0031665	.0076556	.000038278
.0062982	.0075262	.000037631
.0088494	.007443	.000037215
.011243	.0073743	.0000368715
.01353	.0073153	.0000365765
.015498	.0072676	.000036338
.017206	.0072391	.0000361955
.019159	.0072027	.0000360135
.02091	.0071694	.000035847
.022843	.0071373	.0000356865
.02481	.0071001	.0000355005
.026472	.0070718	.000035359

System: acetic acid, sodium salt + water; phases: Liquid
Fixed: Temperature, K = 298.15
Fixed: Pressure, kPa = 101
Property: Molar conductivity, S*m2/mol (Liquid); method: Other
Amount concentration (molarity), mol/dm3 of acetic acid, sodium salt	Molar conductivity, S*m2/mol	uncertainty
.00027257	.0087991	.0000439955
.00048234	.0088075	.0000440375
.00077224	.0088058	.000044029
.00096719	.008787	.000043935
.001191	.0087747	.0000438735
.0013821	.0087201	.0000436005
.0015673	.0087394	.000043697
.0017874	.0087202	.000043601
.0020551	.0087013	.0000435065
.0022536	.0086858	.000043429
.002454	.008671	.000043355
.0033052	.0084911	.0000424555
.0046304	.0084203	.0000421015
.0061338	.0083513	.0000417565
.0077844	.0082929	.0000414645
.0087164	.0082586	.000041293
.010142	.0082074	.000041037
.011381	.008169	.000040845
.012678	.0081349	.0000406745
.014036	.0081029	.0000405145
.015276	.008082	.00004041
.016479	.0080557	.0000402785
.017885	.00802	.0000401
.019155	.0079978	.000039989
.020253	.0079745	.0000398725
.021635	.0079452	.000039726
.023374	.0079106	.000039553
.02523	.0078749	.0000393745
.026958	.0078487	.0000392435
