Measured thermophysical data. Experiment and model for the surface tension of amine - ionic liquids aqueous solutions
Source: J. Chem. Thermodyn., 2014, 10.1016/j.jct.2014.03.032
Compound 1: water, H2O
Compound 2: 1-butyl-3-methylimidazolium tetrafluoroborate, C8H15BF4N2, purity 99%
Compound 3: 1-butyl-3-methylimidazolium bromide, C8H15BrN2, purity 99%
Compound 4: monoethanolamine, C2H7NO, purity 99%
Compound 5: diethanolamine, C4H11NO2, purity 99.7%

System: monoethanolamine + water + 1-butyl-3-methylimidazolium tetrafluoroborate; phases: Liquid, Air at 1 atmosphere
Property: Surface tension liquid-gas, N/m (Liquid); method: Wilhemy plate method
Temperature, K	Mass fraction of monoethanolamine	Mass fraction of 1-butyl-3-methylimidazolium tetrafluoroborate	Surface tension liquid-gas, N/m	uncertainty
293.2	.15	.05	.0532	.0005
293.2	.15	.1	.0494	.0005
293.2	.2	.05	.0535	.0005
293.2	.2	.1	.0498	.0005
293.2	.25	.05	.0543	.0005
293.2	.25	.1	.0502	.0005
293.2	.3	.05	.0545	.0005
293.2	.3	.1	.0506	.0005
303.2	.15	.05	.0525	.0005
303.2	.15	.1	.0492	.0005
303.2	.2	.05	.0528	.0005
303.2	.2	.1	.0495	.0005
303.2	.25	.05	.0537	.0005
303.2	.25	.1	.0501	.0005
303.2	.3	.05	.0539	.0005
303.2	.3	.1	.0505	.0005
313.2	.15	.05	.0518	.0005
313.2	.15	.1	.049	.0005
313.2	.2	.05	.0524	.0005
313.2	.2	.1	.0494	.0005
313.2	.25	.05	.0533	.0005
313.2	.25	.1	.05	.0005
313.2	.3	.05	.0536	.0005
313.2	.3	.1	.0504	.0005
323.2	.15	.05	.0512	.0005
323.2	.15	.1	.0488	.0005
323.2	.2	.05	.0518	.0005
323.2	.2	.1	.0492	.0005
323.2	.25	.05	.0529	.0005
323.2	.25	.1	.0498	.0005
323.2	.3	.05	.0531	.0005
323.2	.3	.1	.0503	.0005

System: monoethanolamine + water + 1-butyl-3-methylimidazolium bromide; phases: Liquid, Air at 1 atmosphere
Property: Surface tension liquid-gas, N/m (Liquid); method: Wilhemy plate method
Temperature, K	Mass fraction of monoethanolamine	Mass fraction of 1-butyl-3-methylimidazolium bromide	Surface tension liquid-gas, N/m	uncertainty
293.2	.15	.05	.0646	.0005
293.2	.15	.1	.0625	.0005
293.2	.2	.05	.0639	.0005
293.2	.2	.1	.0621	.0005
293.2	.25	.05	.063	.0005
293.2	.25	.1	.0613	.0005
293.2	.3	.05	.0625	.0005
293.2	.3	.1	.0608	.0005
303.2	.15	.05	.0628	.0005
303.2	.15	.1	.0604	.0005
303.2	.2	.05	.062	.0005
303.2	.2	.1	.0599	.0005
303.2	.25	.05	.0611	.0005
303.2	.25	.1	.0596	.0005
303.2	.3	.05	.0608	.0005
303.2	.3	.1	.0591	.0005
313.2	.15	.05	.0613	.0005
313.2	.15	.1	.0589	.0005
313.2	.2	.05	.0599	.0005
313.2	.2	.1	.0582	.0005
313.2	.25	.05	.0594	.0005
313.2	.25	.1	.0575	.0005
313.2	.3	.05	.0592	.0005
313.2	.3	.1	.0569	.0005
323.2	.15	.05	.0595	.0005
323.2	.15	.1	.0568	.0005
323.2	.2	.05	.0583	.0005
323.2	.2	.1	.056	.0005
323.2	.25	.05	.0576	.0005
323.2	.25	.1	.0555	.0005
323.2	.3	.05	.0573	.0005
323.2	.3	.1	.055	.0005

System: diethanolamine + water + 1-butyl-3-methylimidazolium tetrafluoroborate; phases: Liquid, Air at 1 atmosphere
Property: Surface tension liquid-gas, N/m (Liquid); method: Wilhemy plate method
Temperature, K	Mass fraction of diethanolamine	Mass fraction of 1-butyl-3-methylimidazolium tetrafluoroborate	Surface tension liquid-gas, N/m	uncertainty
293.2	.15	.05	.0525	.0005
293.2	.15	.1	.0471	.0005
293.2	.2	.05	.0528	.0005
293.2	.2	.1	.0478	.0005
293.2	.25	.05	.0529	.0005
293.2	.25	.1	.0481	.0005
293.2	.3	.05	.0533	.0005
293.2	.3	.1	.0482	.0005
303.2	.15	.05	.0516	.0005
303.2	.15	.1	.0467	.0005
303.2	.2	.05	.0519	.0005
303.2	.2	.1	.0473	.0005
303.2	.25	.05	.0522	.0005
303.2	.25	.1	.0478	.0005
303.2	.3	.05	.0526	.0005
303.2	.3	.1	.0479	.0005
313.2	.15	.05	.051	.0005
313.2	.15	.1	.0464	.0005
313.2	.2	.05	.0512	.0005
313.2	.2	.1	.047	.0005
313.2	.25	.05	.0514	.0005
313.2	.25	.1	.0475	.0005
313.2	.3	.05	.0519	.0005
313.2	.3	.1	.0477	.0005
323.2	.15	.05	.0501	.0005
323.2	.15	.1	.046	.0005
323.2	.2	.05	.0504	.0005
323.2	.2	.1	.0467	.0005
323.2	.25	.05	.0507	.0005
323.2	.25	.1	.0473	.0005
323.2	.3	.05	.0512	.0005
323.2	.3	.1	.0475	.0005

System: diethanolamine + water + 1-butyl-3-methylimidazolium bromide; phases: Liquid, Air at 1 atmosphere
Property: Surface tension liquid-gas, N/m (Liquid); method: Wilhemy plate method
Temperature, K	Mass fraction of diethanolamine	Mass fraction of 1-butyl-3-methylimidazolium bromide	Surface tension liquid-gas, N/m	uncertainty
293.2	.15	.05	.0644	.0005
293.2	.15	.1	.0621	.0005
293.2	.2	.05	.0634	.0005
293.2	.2	.1	.0614	.0005
293.2	.25	.05	.0621	.0005
293.2	.25	.1	.0603	.0005
293.2	.3	.05	.061	.0005
293.2	.3	.1	.0595	.0005
303.2	.15	.05	.0624	.0005
303.2	.15	.1	.0599	.0005
303.2	.2	.05	.0615	.0005
303.2	.2	.1	.0592	.0005
303.2	.25	.05	.0605	.0005
303.2	.25	.1	.0582	.0005
303.2	.3	.05	.0591	.0005
303.2	.3	.1	.0578	.0005
313.2	.15	.05	.0603	.0005
313.2	.15	.1	.0575	.0005
313.2	.2	.05	.0596	.0005
313.2	.2	.1	.057	.0005
313.2	.25	.05	.0587	.0005
313.2	.25	.1	.0565	.0005
313.2	.3	.05	.0578	.0005
313.2	.3	.1	.056	.0005
323.2	.15	.05	.0584	.0005
323.2	.15	.1	.0551	.0005
323.2	.2	.05	.0576	.0005
323.2	.2	.1	.0548	.0005
323.2	.25	.05	.0573	.0005
323.2	.25	.1	.0543	.0005
323.2	.3	.05	.0565	.0005
323.2	.3	.1	.0538	.0005
