Measured thermophysical data. Deuterium isotope effect on molar heat capacities and apparent molar heat  capacities in dilute aqueous solutions: A multi-channel heat-flow  microcalorimeter study
Source: J. Chem. Thermodyn., 2008, 10.1016/j.jct.2008.06.008
Compound 1: chloroform, CHCl3, purity 99%
Compound 2: dichloromethane, CH2Cl2, purity 98%
Compound 3: methanol, CH4O, purity 99.9%
Compound 4: acetonitrile, C2H3N, purity 99.8%
Compound 5: propanone, C3H6O, purity 99.8%
Compound 6: methyl sulfoxide, C2H6OS, purity 99.5%
Compound 7: benzene, C6H6, purity 99.5%
Compound 8: N,N-dimethylformamide, C3H7NO, purity 99.8%
Compound 9: toluene, C7H8, purity 99.9%
Compound 10: cyclohexane, C6H12, purity 99.5%
Compound 11: chloroform-d, CDCl3, purity 99.8%
Compound 12: dichloromethane-d2, CD2Cl2, purity 99.9%
Compound 13: methanol-d3, CHD3O, purity 99.5%
Compound 14: methanol-d4, CD4O, purity 99.8%
Compound 15: acetonitrile-d3, C2D3N, purity 99.8%
Compound 16: hexadeuteroacetone, C3D6O, purity 99.9%
Compound 17: dimethyl-d6 sulfoxide, C2D6OS, purity 99.8%
Compound 18: benzene-d6, C6D6, purity 99.5%
Compound 19: formamide-1-d, N,N-di(methyl-d3)-, C3D7NO, purity 99.5%
Compound 20: toluene-d8, C7D8, purity 99.5%
Compound 21: cyclohexane-d12, C6D12, purity 99.5%

System: chloroform; phases: Liquid
Fixed: Pressure, kPa = 101.325
Property: Molar heat capacity at constant pressure, J/K/mol (Liquid); method: Large sample (1 g) DSC
Temperature, K	Molar heat capacity at constant pressure, J/K/mol	uncertainty
298.15	112.71	
298.15	110.74	

System: dichloromethane; phases: Liquid
Fixed: Pressure, kPa = 101.325
Property: Molar heat capacity at constant pressure, J/K/mol (Liquid); method: Large sample (1 g) DSC
Temperature, K	Molar heat capacity at constant pressure, J/K/mol	uncertainty
298.15	97.97	
298.15	95.61	

System: methanol; phases: Liquid
Fixed: Pressure, kPa = 101.325
Property: Molar heat capacity at constant pressure, J/K/mol (Liquid); method: Large sample (1 g) DSC
Temperature, K	Molar heat capacity at constant pressure, J/K/mol	uncertainty
298.15	80.58	
298.15	79.07	

System: acetonitrile; phases: Liquid
Fixed: Pressure, kPa = 101.325
Property: Molar heat capacity at constant pressure, J/K/mol (Liquid); method: Large sample (1 g) DSC
Temperature, K	Molar heat capacity at constant pressure, J/K/mol	uncertainty
298.15	89.62	
298.15	88.57	

System: propanone; phases: Liquid
Fixed: Pressure, kPa = 101.325
Property: Molar heat capacity at constant pressure, J/K/mol (Liquid); method: Large sample (1 g) DSC
Temperature, K	Molar heat capacity at constant pressure, J/K/mol	uncertainty
298.15	122.74	
298.15	120.73	

System: methyl sulfoxide; phases: Liquid
Fixed: Pressure, kPa = 101.325
Property: Molar heat capacity at constant pressure, J/K/mol (Liquid); method: Large sample (1 g) DSC
Temperature, K	Molar heat capacity at constant pressure, J/K/mol	uncertainty
298.15	150.74	
298.15	149.05	

System: benzene; phases: Liquid
Fixed: Pressure, kPa = 101.325
Property: Molar heat capacity at constant pressure, J/K/mol (Liquid); method: Large sample (1 g) DSC
Temperature, K	Molar heat capacity at constant pressure, J/K/mol	uncertainty
298.15	133.82	
298.15	132.11	

System: N,N-dimethylformamide; phases: Liquid
Fixed: Pressure, kPa = 101.325
Property: Molar heat capacity at constant pressure, J/K/mol (Liquid); method: Large sample (1 g) DSC
Temperature, K	Molar heat capacity at constant pressure, J/K/mol	uncertainty
298.15	145.78	
298.15	144.02	

System: toluene; phases: Liquid
Fixed: Pressure, kPa = 101.325
Property: Molar heat capacity at constant pressure, J/K/mol (Liquid); method: Large sample (1 g) DSC
Temperature, K	Molar heat capacity at constant pressure, J/K/mol	uncertainty
298.15	154.75	
298.15	152.53	

System: cyclohexane; phases: Liquid
Fixed: Pressure, kPa = 101.325
Property: Molar heat capacity at constant pressure, J/K/mol (Liquid); method: Large sample (1 g) DSC
Temperature, K	Molar heat capacity at constant pressure, J/K/mol	uncertainty
298.15	154.34	
298.15	150.73	

System: chloroform-d; phases: Liquid
Fixed: Pressure, kPa = 101.325
Property: Molar heat capacity at constant pressure, J/K/mol (Liquid); method: Large sample (1 g) DSC
Temperature, K	Molar heat capacity at constant pressure, J/K/mol	uncertainty
298.15	114.94	
298.15	111.98	

System: dichloromethane-d2; phases: Liquid
Fixed: Pressure, kPa = 101.325
Property: Molar heat capacity at constant pressure, J/K/mol (Liquid); method: Large sample (1 g) DSC
Temperature, K	Molar heat capacity at constant pressure, J/K/mol	uncertainty
298.15	103.08	
298.15	101.49	

System: methanol-d3; phases: Liquid
Fixed: Pressure, kPa = 101.325
Property: Molar heat capacity at constant pressure, J/K/mol (Liquid); method: Large sample (1 g) DSC
Temperature, K	Molar heat capacity at constant pressure, J/K/mol	uncertainty
298.15	86.07	
298.15	84.91	

System: methanol-d4; phases: Liquid
Fixed: Pressure, kPa = 101.325
Property: Molar heat capacity at constant pressure, J/K/mol (Liquid); method: Large sample (1 g) DSC
Temperature, K	Molar heat capacity at constant pressure, J/K/mol	uncertainty
298.15	89.03	
298.15	87.75	

System: acetonitrile-d3; phases: Liquid
Fixed: Pressure, kPa = 101.325
Property: Molar heat capacity at constant pressure, J/K/mol (Liquid); method: Large sample (1 g) DSC
Temperature, K	Molar heat capacity at constant pressure, J/K/mol	uncertainty
298.15	95.74	
298.15	95.02	

System: hexadeuteroacetone; phases: Liquid
Fixed: Pressure, kPa = 101.325
Property: Molar heat capacity at constant pressure, J/K/mol (Liquid); method: Large sample (1 g) DSC
Temperature, K	Molar heat capacity at constant pressure, J/K/mol	uncertainty
298.15	134.94	
298.15	133.6	

System: dimethyl-d6 sulfoxide; phases: Liquid
Fixed: Pressure, kPa = 101.325
Property: Molar heat capacity at constant pressure, J/K/mol (Liquid); method: Large sample (1 g) DSC
Temperature, K	Molar heat capacity at constant pressure, J/K/mol	uncertainty
298.15	165.76	
298.15	163.87	

System: benzene-d6; phases: Liquid
Fixed: Pressure, kPa = 101.325
Property: Molar heat capacity at constant pressure, J/K/mol (Liquid); method: Large sample (1 g) DSC
Temperature, K	Molar heat capacity at constant pressure, J/K/mol	uncertainty
298.15	152.18	
298.15	149.82	

System: formamide-1-d, N,N-di(methyl-d3)-; phases: Liquid
Fixed: Pressure, kPa = 101.325
Property: Molar heat capacity at constant pressure, J/K/mol (Liquid); method: Large sample (1 g) DSC
Temperature, K	Molar heat capacity at constant pressure, J/K/mol	uncertainty
298.15	160.5	
298.15	159.47	

System: toluene-d8; phases: Liquid
Fixed: Pressure, kPa = 101.325
Property: Molar heat capacity at constant pressure, J/K/mol (Liquid); method: Large sample (1 g) DSC
Temperature, K	Molar heat capacity at constant pressure, J/K/mol	uncertainty
298.15	176.77	
298.15	174.28	

System: cyclohexane-d12; phases: Liquid
Fixed: Pressure, kPa = 101.325
Property: Molar heat capacity at constant pressure, J/K/mol (Liquid); method: Large sample (1 g) DSC
Temperature, K	Molar heat capacity at constant pressure, J/K/mol	uncertainty
298.15	185.6	
298.15	182.57	
