Measured thermophysical data. Density, conductivity, viscosity, and excess properties of (pyrrolidinium  nitrate-based Protic Ionic Liquid + propylene carbonate) binary mixture
Source: J. Chem. Thermodyn., 2013, 10.1016/j.jct.2012.11.020
Compound 1: cyclic 1,2-propylene carbonate, C4H6O3, purity 99.99%
Compound 2: pyrrolidinium nitrate, C4H10N2O3

System: cyclic 1,2-propylene carbonate; phases: Liquid
Property: Mass density, kg/m3 (Liquid); method: Vibrating tube method
Temperature, K	Pressure, kPa	Mass density, kg/m3	uncertainty
283.15	100	1216.3	1.2163
293.15	100	1205.2	1.2052
303.15	100	1194.5	1.1945
313.15	100	1183.9	1.1839
323.15	100	1173.4	1.1734
333.15	100	1162.9	1.1629
343.15	100	1152.3	1.1523
353.15	100	1141.6	1.1416

System: cyclic 1,2-propylene carbonate; phases: Liquid
Property: Viscosity, Pa*s (Liquid); method: Cone and plate viscometry
Temperature, K	Pressure, kPa	Viscosity, Pa*s	uncertainty
283.15	100	.00425	.0002125
293.15	100	.00296	.000148
303.15	100	.0022	.00011
313.15	100	.0018	.00009
323.15	100	.00156	.000078
333.15	100	.0014	.00007
343.15	100	.00126	.000063
353.15	100	.00115	.0000575

System: pyrrolidinium nitrate; phases: Liquid
Property: Mass density, kg/m3 (Liquid); method: Vibrating tube method
Temperature, K	Pressure, kPa	Mass density, kg/m3	uncertainty
283.15	100	1235	1.235
293.15	100	1228	1.228
303.15	100	1220.4	1.2204
313.15	100	1213.1	1.2131
323.15	100	1205.5	1.2055
333.15	100	1197.2	1.1972
343.15	100	1190.2	1.1902
353.15	100	1182	1.182

System: pyrrolidinium nitrate; phases: Liquid
Property: Viscosity, Pa*s (Liquid); method: Cone and plate viscometry
Temperature, K	Pressure, kPa	Viscosity, Pa*s	uncertainty
283.15	100	.05887	.0029435
293.15	100	.04029	.0020145
303.15	100	.02881	.0014405
313.15	100	.02091	.0010455
323.15	100	.0167	.000835
333.15	100	.0133	.000665
343.15	100	.01117	.0005585
353.15	100	.00928	.000464

System: pyrrolidinium nitrate; phases: Liquid
Property: Electrical conductivity, S/m (Liquid); method: Alternating current cell with electrodes
Temperature, K	Pressure, kPa	Electrical conductivity, S/m	uncertainty
284.15	100	2.93	.1172
293.15	100	3.71	.1484
298.15	100	4.22	.1688
304.15	100	4.94	.1976
313.15	100	5.97	.2388
323.15	100	7.17	.2868
333.15	100	8.51	.3404
344.95	100	9.3	.372
353.65	100	10.48	.4192

System: cyclic 1,2-propylene carbonate + pyrrolidinium nitrate; phases: Liquid
Fixed: Pressure, kPa = 100
Property: Mass density, kg/m3 (Liquid); method: Vibrating tube method
Temperature, K	Mole fraction of pyrrolidinium nitrate	Mass density, kg/m3	uncertainty
283.15	0	1216.3	1.2163
283.15	.1	1221	1.221
283.15	.22	1225.2	1.2252
283.15	.3	1227.5	1.2275
283.15	.4	1229.8	1.2298
283.15	.5	1231.5	1.2315
283.15	.62	1233	1.233
283.15	.7	1233.3	1.2333
283.15	.8	1234	1.234
283.15	1	1235	1.235
293.15	0	1205.2	1.2052
293.15	.1	1211	1.211
293.15	.22	1215.8	1.2158
293.15	.3	1218.5	1.2185
293.15	.4	1221.2	1.2212
293.15	.5	1223.1	1.2231
293.15	.62	1225	1.225
293.15	.7	1225.6	1.2256
293.15	.8	1226.5	1.2265
293.15	1	1228	1.228
303.15	0	1194.5	1.1945
303.15	.1	1200.9	1.2009
303.15	.22	1206.4	1.2064
303.15	.3	1209.5	1.2095
303.15	.4	1212.6	1.2126
303.15	.5	1214.9	1.2149
303.15	.62	1216.9	1.2169
303.15	.7	1218	1.218
303.15	.8	1218.9	1.2189
303.15	1	1220.4	1.2204
313.15	0	1183.9	1.1839
313.15	.1	1191	1.191
313.15	.22	1197	1.197
313.15	.3	1200.6	1.2006
313.15	.4	1204.1	1.2041
313.15	.5	1206.7	1.2067
313.15	.62	1209.1	1.2091
313.15	.7	1210.4	1.2104
313.15	.8	1212	1.212
313.15	1	1213.1	1.2131
323.15	0	1173.4	1.1734
323.15	.1	1181.1	1.1811
323.15	.22	1187.7	1.1877
323.15	.3	1191.7	1.1917
323.15	.4	1195.7	1.1957
323.15	.5	1198.6	1.1986
323.15	.62	1201.4	1.2014
323.15	.7	1203	1.203
323.15	.8	1204	1.204
323.15	1	1205.5	1.2055
333.15	0	1162.9	1.1629
333.15	.1	1171.2	1.1712
333.15	.22	1178.5	1.1785
333.15	.3	1182.9	1.1829
333.15	.4	1187.4	1.1874
333.15	.5	1190.6	1.1906
333.15	.62	1193.8	1.1938
333.15	.7	1195.6	1.1956
333.15	.8	1196.5	1.1965
333.15	1	1197.2	1.1972
343.15	0	1152.3	1.1523
343.15	.1	1161.4	1.1614
343.15	.22	1169.3	1.1693
343.15	.3	1174.2	1.1742
343.15	.4	1179.1	1.1791
343.15	.5	1182.7	1.1827
343.15	.62	1186.2	1.1862
343.15	.7	1188	1.188
343.15	.8	1189.5	1.1895
343.15	1	1190.2	1.1902
353.15	0	1141.6	1.1416
353.15	.1	1151.6	1.1516
353.15	.22	1160.1	1.1601
353.15	.3	1165.4	1.1654
353.15	.4	1170.8	1.1708
353.15	.5	1174.9	1.1749
353.15	.62	1178.7	1.1787
353.15	.7	1180	1.18
353.15	.8	1181.5	1.1815
353.15	1	1182	1.182

System: cyclic 1,2-propylene carbonate + pyrrolidinium nitrate; phases: Liquid
Fixed: Pressure, kPa = 100
Property: Viscosity, Pa*s (Liquid); method: Cone and plate viscometry
Temperature, K	Mole fraction of pyrrolidinium nitrate	Viscosity, Pa*s	uncertainty
283.15	0	.00425	.0002125
283.15	.1	.00597	.0002985
283.15	.22	.00755	.0003775
283.15	.3	.00998	.000499
283.15	.4	.0141	.000705
283.15	.5	.01885	.0009425
283.15	.62	.02336	.001168
283.15	.7	.02876	.001438
283.15	.8	.03556	.001778
283.15	1	.05887	.0029435
293.15	0	.00296	.000148
293.15	.1	.00471	.0002355
293.15	.22	.00573	.0002865
293.15	.3	.00737	.0003685
293.15	.4	.01017	.0005085
293.15	.5	.01306	.000653
293.15	.62	.01716	.000858
293.15	.7	.02039	.0010195
293.15	.8	.02465	.0012325
293.15	1	.04029	.0020145
303.15	0	.0022	.00011
303.15	.1	.0036	.00018
303.15	.22	.0045	.000225
303.15	.3	.00571	.0002855
303.15	.4	.00773	.0003865
303.15	.5	.00978	.000489
303.15	.62	.01255	.0006275
303.15	.7	.01517	.0007585
303.15	.8	.01853	.0009265
303.15	1	.02881	.0014405
313.15	0	.0018	.00009
313.15	.1	.00266	.000133
313.15	.22	.00364	.000182
313.15	.3	.00457	.0002285
313.15	.4	.00607	.0003035
313.15	.5	.00759	.0003795
313.15	.62	.0096	.00048
313.15	.7	.01172	.000586
313.15	.8	.01449	.0007245
313.15	1	.02091	.0010455
323.15	0	.00156	.000078
323.15	.1	.00224	.000112
323.15	.22	.00304	.000152
323.15	.3	.00375	.0001875
323.15	.4	.00491	.0002455
323.15	.5	.00607	.0003035
323.15	.62	.00757	.0003785
323.15	.7	.00933	.0004665
323.15	.8	.01097	.0005485
323.15	1	.0167	.000835
333.15	0	.0014	.00007
333.15	.1	.00191	.0000955
333.15	.22	.00257	.0001285
333.15	.3	.00314	.000157
333.15	.4	.00406	.000203
333.15	.5	.00497	.0002485
333.15	.62	.00615	.0003075
333.15	.7	.00761	.0003805
333.15	.8	.00883	.0004415
333.15	1	.0133	.000665
343.15	0	.00126	.000063
343.15	.1	.00165	.0000825
343.15	.22	.0022	.00011
343.15	.3	.00268	.000134
343.15	.4	.00344	.000172
343.15	.5	.00416	.000208
343.15	.62	.00519	.0002595
343.15	.7	.00642	.000321
343.15	.8	.00791	.0003955
343.15	1	.01117	.0005585
353.15	0	.00115	.0000575
353.15	.1	.00145	.0000725
353.15	.22	.00191	.0000955
353.15	.3	.00232	.000116
353.15	.4	.00295	.0001475
353.15	.5	.00354	.000177
353.15	.62	.0043	.000215
353.15	.7	.0052	.00026
353.15	.8	.00635	.0003175
353.15	1	.00928	.000464

System: cyclic 1,2-propylene carbonate + pyrrolidinium nitrate; phases: Liquid
Fixed: Pressure, kPa = 100
Property: Electrical conductivity, S/m (Liquid); method: Alternating current cell with electrodes
Temperature, K	Mole fraction of pyrrolidinium nitrate	Electrical conductivity, S/m	uncertainty
260.15	.1	.142	.00568
268.15	.1	.207	.00828
273.15	.1	.243	.00972
278.15	.1	.281	.01124
283.15	.1	.322	.01288
288.15	.1	.362	.01448
293.15	.1	.405	.0162
298.15	.1	.449	.01796
303.15	.1	.497	.01988
308.15	.1	.546	.02184
313.15	.1	.597	.02388
318.15	.1	.65	.026
323.15	.1	.704	.02816
328.15	.1	.759	.03036
333.15	.1	.816	.03264
338.15	.1	.874	.03496
343.15	.1	.932	.03728
348.15	.1	.992	.03968
353.15	.1	1.053	.04212
358.15	.1	1.112	.04448
260.15	.22	.315	.0126
266.45	.22	.376	.01504
273.15	.22	.446	.01784
278.15	.22	.505	.0202
283.15	.22	.562	.02248
288.15	.22	.606	.02424
293.15	.22	.702	.02808
298.15	.22	.745	.0298
303.15	.22	.832	.03328
308.15	.22	.93	.0372
313.15	.22	1.029	.04116
318.15	.22	1.129	.04516
323.15	.22	1.228	.04912
328.15	.22	1.335	.0534
333.15	.22	1.437	.05748
338.15	.22	1.543	.06172
343.15	.22	1.661	.06644
348.15	.22	1.773	.07092
353.15	.22	1.875	.075
358.15	.22	1.989	.07956
258.15	.3	.387	.01548
263.15	.3	.481	.01924
268.15	.3	.585	.0234
273.15	.3	.694	.02776
278.15	.3	.807	.03228
283.15	.3	.92	.0368
288.15	.3	1.04	.0416
293.15	.3	1.166	.04664
298.15	.3	1.298	.05192
303.15	.3	1.436	.05744
308.15	.3	1.592	.06368
313.15	.3	1.739	.06956
318.15	.3	1.896	.07584
323.15	.3	2.06	.0824
328.15	.3	2.22	.0888
333.15	.3	2.39	.0956
338.15	.3	2.56	.1024
343.15	.3	2.73	.1092
348.15	.3	2.91	.1164
353.15	.3	3.09	.1236
358.15	.3	3.19	.1276
362.15	.3	3.35	.134
262.15	.5	.673	.02692
268.15	.5	.91	.0364
273.15	.5	1.1	.044
278.15	.5	1.189	.04756
283.15	.5	1.487	.05948
288.15	.5	1.696	.06784
293.15	.5	1.912	.07648
298.15	.5	2.13	.0852
303.15	.5	2.37	.0948
308.15	.5	2.62	.1048
313.15	.5	2.88	.1152
318.15	.5	3.15	.126
323.15	.5	3.43	.1372
328.15	.5	3.72	.1488
333.15	.5	4.01	.1604
338.15	.5	4.32	.1728
343.15	.5	4.62	.1848
348.15	.5	4.93	.1972
353.15	.5	5.24	.2096
358.15	.5	5.55	.222
363.15	.5	5.83	.2332
270.15	.8	.0803	.003212
273.15	.8	.118	.00472
278.15	.8	.206	.00824
283.15	.8	.352	.01408
288.15	.8	.644	.02576
293.15	.8	1.437	.05748
298.15	.8	2.49	.0996
303.15	.8	2.8	.112
308.15	.8	3.13	.1252
313.15	.8	3.46	.1384
318.15	.8	3.81	.1524
323.15	.8	4.18	.1672
328.15	.8	4.57	.1828
333.15	.8	4.97	.1988
338.15	.8	5.38	.2152
343.15	.8	5.8	.232
348.15	.8	6.24	.2496
353.15	.8	6.68	.2672
358.15	.8	7.12	.2848
363.15	.8	7.57	.3028
284.15	1	2.93	.1172
293.15	1	3.71	.1484
298.15	1	4.22	.1688
304.15	1	4.94	.1976
313.15	1	5.97	.2388
323.15	1	7.17	.2868
333.15	1	8.51	.3404
344.95	1	9.3	.372
353.65	1	10.48	.4192

System: cyclic 1,2-propylene carbonate + pyrrolidinium nitrate; phases: Liquid
Fixed: Pressure, kPa = 100
Fixed: Temperature, K = 298.15
Property: Electrical conductivity, S/m (Liquid); method: Alternating current cell with electrodes
Mass fraction of pyrrolidinium nitrate	Electrical conductivity, S/m	uncertainty
1	4.22	.1688
.89127	4.47	.1788
.80645	4.28	.1712
.74074	4.12	.1648
.68966	3.92	.1568
.62112	3.74	.1496
.58343	3.62	.1448
.54526	3.46	.1384
.49164	3.21	.1284
.44763	3.05	.122
.42123	2.86	.1144
.39154	2.71	.1084
.37679	2.63	.1052
.34795	2.46	.0984
.32744	2.32	.0928
.30731	2.2	.088
.2862	2.05	.082
.26925	1.94	.0776
.25291	1.697	.06788
.23958	1.616	.06464
.21487	1.45	.058
.19478	1.319	.05276
.17876	1.24	.0496
.16464	1.125	.045
.15432	1.057	.04228
.14409	.989	.03956
.13477	.927	.03708
.12658	.874	.03496
