Measured thermophysical data. Activity coefficients at infinite dilution of alkanes, alkenes, alkyl benzenes in dimethylphosphate based ionic liquids using gas liquid chromatography
Source: J. Chem. Thermodyn., 2015, 10.1016/j.jct.2015.07.046
Compound 1: 1,3-dimethylimidazolium dimethylphosphate, C7H15N2O4P, purity 99%
Compound 2: 1-ethyl-3-methylimidazolium dimethylphosphate, C8H17N2O4P, purity 99%
Compound 3: pentane, C5H12, purity 99%
Compound 4: hexane, C6H14, purity 99%
Compound 5: heptane, C7H16, purity 99%
Compound 6: octane, C8H18, purity 99%
Compound 7: nonane, C9H20, purity 99%
Compound 8: decane, C10H22, purity 99%
Compound 9: cyclohexane, C6H12, purity 98%
Compound 10: methylcyclohexane, C7H14, purity 98%
Compound 11: 2,2,4-trimethylpentane, C8H18, purity 99%
Compound 12: cyclohexene, C6H10, purity 99%
Compound 13: styrene, C8H8, purity 99%
Compound 14: benzene, C6H6, purity 99%
Compound 15: toluene, C7H8, purity 99%
Compound 16: o-xylene, C8H10, purity 98%
Compound 17: m-xylene, C8H10, purity 98%
Compound 18: p-xylene, C8H10, purity 99%

System: pentane + 1,3-dimethylimidazolium dimethylphosphate; phases: Liquid
Fixed: Pressure, kPa = 101.3
Fixed: Mole fraction of pentane = 0
Property: Activity coefficient of pentane (Liquid); method: Chromatography
Temperature, K	Activity coefficient of pentane	uncertainty
313.15	245.3	12.265
323.15	230.1	11.505
333.15	217.4	10.87
343.15	200.9	10.045
353.15	183.8	9.19
363.15	170.5	8.525

System: hexane + 1,3-dimethylimidazolium dimethylphosphate; phases: Liquid
Fixed: Pressure, kPa = 101.3
Fixed: Mole fraction of hexane = 0
Property: Activity coefficient of hexane (Liquid); method: Chromatography
Temperature, K	Activity coefficient of hexane	uncertainty
313.15	259.6	12.98
323.15	246.3	12.315
333.15	229.9	11.495
343.15	218.5	10.925
353.15	203.4	10.17
363.15	186.7	9.335

System: heptane + 1,3-dimethylimidazolium dimethylphosphate; phases: Liquid
Fixed: Pressure, kPa = 101.3
Fixed: Mole fraction of heptane = 0
Property: Activity coefficient of heptane (Liquid); method: Chromatography
Temperature, K	Activity coefficient of heptane	uncertainty
313.15	296.9	14.845
323.15	278.6	13.93
333.15	258.3	12.915
343.15	243.4	12.17
353.15	231.4	11.57
363.15	215.9	10.795

System: octane + 1,3-dimethylimidazolium dimethylphosphate; phases: Liquid
Fixed: Pressure, kPa = 101.3
Fixed: Mole fraction of octane = 0
Property: Activity coefficient of octane (Liquid); method: Chromatography
Temperature, K	Activity coefficient of octane	uncertainty
313.15	339.9	16.995
323.15	325.1	16.255
333.15	301.8	15.09
343.15	284.7	14.235
353.15	270.1	13.505
363.15	247.8	12.39

System: nonane + 1,3-dimethylimidazolium dimethylphosphate; phases: Liquid
Fixed: Pressure, kPa = 101.3
Fixed: Mole fraction of nonane = 0
Property: Activity coefficient of nonane (Liquid); method: Chromatography
Temperature, K	Activity coefficient of nonane	uncertainty
313.15	400.2	20.01
323.15	383.9	19.195
333.15	368.2	18.41
343.15	350.9	17.545
353.15	345.1	17.255
363.15	326.8	16.34

System: decane + 1,3-dimethylimidazolium dimethylphosphate; phases: Liquid
Fixed: Pressure, kPa = 101.3
Fixed: Mole fraction of decane = 0
Property: Activity coefficient of decane (Liquid); method: Chromatography
Temperature, K	Activity coefficient of decane	uncertainty
313.15	502.6	25.13
323.15	480.3	24.015
333.15	465.7	23.285
343.15	448.4	22.42
353.15	430.8	21.54
363.15	413.7	20.685

System: cyclohexane + 1,3-dimethylimidazolium dimethylphosphate; phases: Liquid
Fixed: Pressure, kPa = 101.3
Fixed: Mole fraction of cyclohexane = 0
Property: Activity coefficient of cyclohexane (Liquid); method: Chromatography
Temperature, K	Activity coefficient of cyclohexane	uncertainty
313.15	58.37	2.9185
323.15	55.98	2.799
333.15	52.56	2.628
343.15	50.94	2.547
353.15	48.03	2.4015
363.15	45.68	2.284

System: methylcyclohexane + 1,3-dimethylimidazolium dimethylphosphate; phases: Liquid
Fixed: Pressure, kPa = 101.3
Fixed: Mole fraction of methylcyclohexane = 0
Property: Activity coefficient of methylcyclohexane (Liquid); method: Chromatography
Temperature, K	Activity coefficient of methylcyclohexane	uncertainty
313.15	83.41	4.1705
323.15	80.82	4.041
333.15	78.33	3.9165
343.15	75.38	3.769
353.15	73.02	3.651
363.15	69.91	3.4955

System: 2,2,4-trimethylpentane + 1,3-dimethylimidazolium dimethylphosphate; phases: Liquid
Fixed: Pressure, kPa = 101.3
Fixed: Mole fraction of 2,2,4-trimethylpentane = 0
Property: Activity coefficient of 2,2,4-trimethylpentane (Liquid); method: Chromatography
Temperature, K	Activity coefficient of 2,2,4-trimethylpentane	uncertainty
313.15	318.3	15.915
323.15	300.6	15.03
333.15	283.9	14.195
343.15	269.5	13.475
353.15	244.2	12.21
363.15	228.8	11.44

System: cyclohexene + 1,3-dimethylimidazolium dimethylphosphate; phases: Liquid
Fixed: Pressure, kPa = 101.3
Fixed: Mole fraction of cyclohexene = 0
Property: Activity coefficient of cyclohexene (Liquid); method: Chromatography
Temperature, K	Activity coefficient of cyclohexene	uncertainty
313.15	32.74	1.637
323.15	31.64	1.582
333.15	30.67	1.5335
343.15	30.05	1.5025
353.15	29.12	1.456
363.15	28.27	1.4135

System: styrene + 1,3-dimethylimidazolium dimethylphosphate; phases: Liquid
Fixed: Pressure, kPa = 101.3
Fixed: Mole fraction of styrene = 0
Property: Activity coefficient of styrene (Liquid); method: Chromatography
Temperature, K	Activity coefficient of styrene	uncertainty
323.15	6.622	.3311
333.15	6.608	.3304
343.15	6.597	.32985
353.15	6.581	.32905
363.15	6.571	.32855

System: benzene + 1,3-dimethylimidazolium dimethylphosphate; phases: Liquid
Fixed: Pressure, kPa = 101.3
Fixed: Mole fraction of benzene = 0
Property: Activity coefficient of benzene (Liquid); method: Chromatography
Temperature, K	Activity coefficient of benzene	uncertainty
313.15	3.637	.18185
323.15	3.622	.1811
333.15	3.613	.18065
343.15	3.588	.1794
353.15	3.572	.1786
363.15	3.562	.1781

System: toluene + 1,3-dimethylimidazolium dimethylphosphate; phases: Liquid
Fixed: Pressure, kPa = 101.3
Fixed: Mole fraction of toluene = 0
Property: Activity coefficient of toluene (Liquid); method: Chromatography
Temperature, K	Activity coefficient of toluene	uncertainty
313.15	7.567	.37835
323.15	7.538	.3769
333.15	7.511	.37555
343.15	7.483	.37415
353.15	7.468	.3734
363.15	7.445	.37225

System: o-xylene + 1,3-dimethylimidazolium dimethylphosphate; phases: Liquid
Fixed: Pressure, kPa = 101.3
Fixed: Mole fraction of o-xylene = 0
Property: Activity coefficient of o-xylene (Liquid); method: Chromatography
Temperature, K	Activity coefficient of o-xylene	uncertainty
313.15	12.66	.633
323.15	12.49	.6245
333.15	12.38	.619
343.15	12.23	.6115
353.15	12.12	.606
363.15	11.98	.599

System: m-xylene + 1,3-dimethylimidazolium dimethylphosphate; phases: Liquid
Fixed: Pressure, kPa = 101.3
Fixed: Mole fraction of m-xylene = 0
Property: Activity coefficient of m-xylene (Liquid); method: Chromatography
Temperature, K	Activity coefficient of m-xylene	uncertainty
313.15	14.55	.7275
323.15	14.38	.719
333.15	14.24	.712
343.15	14.17	.7085
353.15	14.05	.7025
363.15	13.93	.6965

System: p-xylene + 1,3-dimethylimidazolium dimethylphosphate; phases: Liquid
Fixed: Pressure, kPa = 101.3
Fixed: Mole fraction of p-xylene = 0
Property: Activity coefficient of p-xylene (Liquid); method: Chromatography
Temperature, K	Activity coefficient of p-xylene	uncertainty
313.15	13.75	.6875
323.15	13.58	.679
333.15	13.48	.674
343.15	13.37	.6685
353.15	13.21	.6605
363.15	13.13	.6565

System: pentane + 1-ethyl-3-methylimidazolium dimethylphosphate; phases: Liquid
Fixed: Pressure, kPa = 101.3
Fixed: Mole fraction of pentane = 0
Property: Activity coefficient of pentane (Liquid); method: Chromatography
Temperature, K	Activity coefficient of pentane	uncertainty
313.15	124.8	6.24
323.15	106.5	5.325
333.15	88.5	4.425
343.15	69.8	3.49
353.15	60.5	3.025
363.15	52.9	2.645

System: hexane + 1-ethyl-3-methylimidazolium dimethylphosphate; phases: Liquid
Fixed: Pressure, kPa = 101.3
Fixed: Mole fraction of hexane = 0
Property: Activity coefficient of hexane (Liquid); method: Chromatography
Temperature, K	Activity coefficient of hexane	uncertainty
313.15	138.7	6.935
323.15	122.1	6.105
333.15	107.1	5.355
343.15	87.6	4.38
353.15	72.2	3.61
363.15	61.5	3.075

System: heptane + 1-ethyl-3-methylimidazolium dimethylphosphate; phases: Liquid
Fixed: Pressure, kPa = 101.3
Fixed: Mole fraction of heptane = 0
Property: Activity coefficient of heptane (Liquid); method: Chromatography
Temperature, K	Activity coefficient of heptane	uncertainty
313.15	162.5	8.125
323.15	150.6	7.53
333.15	138.4	6.92
343.15	123.5	6.175
353.15	110.6	5.53
363.15	97.7	4.885

System: octane + 1-ethyl-3-methylimidazolium dimethylphosphate; phases: Liquid
Fixed: Pressure, kPa = 101.3
Fixed: Mole fraction of octane = 0
Property: Activity coefficient of octane (Liquid); method: Chromatography
Temperature, K	Activity coefficient of octane	uncertainty
313.15	201.9	10.095
323.15	187.2	9.36
333.15	173.3	8.665
343.15	158.2	7.91
353.15	143.7	7.185
363.15	132.1	6.605

System: nonane + 1-ethyl-3-methylimidazolium dimethylphosphate; phases: Liquid
Fixed: Pressure, kPa = 101.3
Fixed: Mole fraction of nonane = 0
Property: Activity coefficient of nonane (Liquid); method: Chromatography
Temperature, K	Activity coefficient of nonane	uncertainty
313.15	271.8	13.59
323.15	242.9	12.145
333.15	224.8	11.24
343.15	206.8	10.34
353.15	196.8	9.84
363.15	182.3	9.115

System: decane + 1-ethyl-3-methylimidazolium dimethylphosphate; phases: Liquid
Fixed: Pressure, kPa = 101.3
Fixed: Mole fraction of decane = 0
Property: Activity coefficient of decane (Liquid); method: Chromatography
Temperature, K	Activity coefficient of decane	uncertainty
313.15	429.9	21.495
323.15	388.1	19.405
333.15	354.4	17.72
343.15	316	15.8
353.15	294.3	14.715
363.15	245.4	12.27

System: cyclohexane + 1-ethyl-3-methylimidazolium dimethylphosphate; phases: Liquid
Fixed: Pressure, kPa = 101.3
Fixed: Mole fraction of cyclohexane = 0
Property: Activity coefficient of cyclohexane (Liquid); method: Chromatography
Temperature, K	Activity coefficient of cyclohexane	uncertainty
313.15	53.9	2.695
323.15	48.92	2.446
333.15	44	2.2
343.15	40.57	2.0285
353.15	37.7	1.885
363.15	32.88	1.644

System: methylcyclohexane + 1-ethyl-3-methylimidazolium dimethylphosphate; phases: Liquid
Fixed: Pressure, kPa = 101.3
Fixed: Mole fraction of methylcyclohexane = 0
Property: Activity coefficient of methylcyclohexane (Liquid); method: Chromatography
Temperature, K	Activity coefficient of methylcyclohexane	uncertainty
313.15	77.65	3.8825
323.15	68.34	3.417
333.15	61.54	3.077
343.15	55.93	2.7965
353.15	50.45	2.5225
363.15	45.48	2.274

System: 2,2,4-trimethylpentane + 1-ethyl-3-methylimidazolium dimethylphosphate; phases: Liquid
Fixed: Pressure, kPa = 101.3
Fixed: Mole fraction of 2,2,4-trimethylpentane = 0
Property: Activity coefficient of 2,2,4-trimethylpentane (Liquid); method: Chromatography
Temperature, K	Activity coefficient of 2,2,4-trimethylpentane	uncertainty
313.15	182.8	9.14
323.15	170.3	8.515
333.15	157.5	7.875
343.15	143.3	7.165
353.15	131.9	6.595
363.15	119.1	5.955

System: cyclohexene + 1-ethyl-3-methylimidazolium dimethylphosphate; phases: Liquid
Fixed: Pressure, kPa = 101.3
Fixed: Mole fraction of cyclohexene = 0
Property: Activity coefficient of cyclohexene (Liquid); method: Chromatography
Temperature, K	Activity coefficient of cyclohexene	uncertainty
313.15	25.37	1.2685
323.15	22.4	1.12
333.15	20.03	1.0015
343.15	18.7	.935
353.15	16.87	.8435
363.15	15.52	.776

System: styrene + 1-ethyl-3-methylimidazolium dimethylphosphate; phases: Liquid
Fixed: Pressure, kPa = 101.3
Fixed: Mole fraction of styrene = 0
Property: Activity coefficient of styrene (Liquid); method: Chromatography
Temperature, K	Activity coefficient of styrene	uncertainty
313.15	5.45	.2725
323.15	5.29	.2645
333.15	5.16	.258
343.15	5.01	.2505
353.15	4.86	.243
363.15	4.71	.2355

System: benzene + 1-ethyl-3-methylimidazolium dimethylphosphate; phases: Liquid
Fixed: Pressure, kPa = 101.3
Fixed: Mole fraction of benzene = 0
Property: Activity coefficient of benzene (Liquid); method: Chromatography
Temperature, K	Activity coefficient of benzene	uncertainty
313.15	3.51	.1755
323.15	3.33	.1665
333.15	3.2	.16
343.15	3.12	.156
353.15	3.02	.151
363.15	2.87	.1435

System: toluene + 1-ethyl-3-methylimidazolium dimethylphosphate; phases: Liquid
Fixed: Pressure, kPa = 101.3
Fixed: Mole fraction of toluene = 0
Property: Activity coefficient of toluene (Liquid); method: Chromatography
Temperature, K	Activity coefficient of toluene	uncertainty
313.15	6.45	.3225
323.15	6.14	.307
333.15	5.94	.297
343.15	5.73	.2865
353.15	5.56	.278
363.15	5.4	.27

System: o-xylene + 1-ethyl-3-methylimidazolium dimethylphosphate; phases: Liquid
Fixed: Pressure, kPa = 101.3
Fixed: Mole fraction of o-xylene = 0
Property: Activity coefficient of o-xylene (Liquid); method: Chromatography
Temperature, K	Activity coefficient of o-xylene	uncertainty
313.15	10.2	.51
323.15	9.8	.49
333.15	9.59	.4795
343.15	9.3	.465
353.15	9.14	.457
363.15	9	.45

System: m-xylene + 1-ethyl-3-methylimidazolium dimethylphosphate; phases: Liquid
Fixed: Pressure, kPa = 101.3
Fixed: Mole fraction of m-xylene = 0
Property: Activity coefficient of m-xylene (Liquid); method: Chromatography
Temperature, K	Activity coefficient of m-xylene	uncertainty
313.15	12.42	.621
323.15	11.76	.588
333.15	11.24	.562
343.15	10.85	.5425
353.15	10.5	.525
363.15	9.99	.4995

System: p-xylene + 1-ethyl-3-methylimidazolium dimethylphosphate; phases: Liquid
Fixed: Pressure, kPa = 101.3
Fixed: Mole fraction of p-xylene = 0
Property: Activity coefficient of p-xylene (Liquid); method: Chromatography
Temperature, K	Activity coefficient of p-xylene	uncertainty
313.15	12.07	.6035
323.15	11.46	.573
333.15	10.92	.546
343.15	10.52	.526
353.15	9.99	.4995
363.15	9.53	.4765
