Measured thermophysical data. Properties of pure n-butylammonium nitrate ionic liquid and its binary mixtures  of with alcohols at T = (293.15 to 313.15) K
Source: J. Chem. Thermodyn., 2013, 10.1016/j.jct.2012.10.008
Compound 1: methyl alcohol, CH4O, purity 99.5%
Compound 2: ethanol, C2H6O, purity 99.5%
Compound 3: n-propyl alcohol, C3H8O, purity 99.5%
Compound 4: n-butanol, C4H10O, purity 99.5%
Compound 5: n-butylammonium nitrate, C4H12N2O3, purity 95%

System: methyl alcohol; phases: Liquid
Fixed: Pressure, kPa = 101.325
Property: Refractive index (Na D-line) (Liquid); method: Standard Abbe refractometry
Temperature, K	Refractive index (Na D-line)	uncertainty
298.15	1.3264	.0001

System: methyl alcohol; phases: Liquid
Fixed: Pressure, kPa = 101.325
Property: Mass density, kg/m3 (Liquid); method: Vibrating tube method
Temperature, K	Mass density, kg/m3	uncertainty
293.15	791.23	.05
298.15	786.54	.05
303.15	781.81	.05
308.15	777.05	.05
313.15	772.25	.05

System: methyl alcohol; phases: Liquid
Fixed: Pressure, kPa = 101.325
Property: Viscosity, Pa*s (Liquid); method: Falling or rolling sphere viscometry
Temperature, K	Viscosity, Pa*s	uncertainty
293.15	.000588	.000002
298.15	.000552	.000002
303.15	.000516	.000002
308.15	.000486	.000002
313.15	.000461	.000002

System: ethanol; phases: Liquid
Fixed: Pressure, kPa = 101.325
Property: Refractive index (Na D-line) (Liquid); method: Standard Abbe refractometry
Temperature, K	Refractive index (Na D-line)	uncertainty
298.15	1.3594	.0001

System: ethanol; phases: Liquid
Fixed: Pressure, kPa = 101.325
Property: Mass density, kg/m3 (Liquid); method: Vibrating tube method
Temperature, K	Mass density, kg/m3	uncertainty
293.15	789.5	.05
298.15	785.39	.05
303.15	780.69	.05
308.15	776.35	.05
313.15	772.11	.05

System: ethanol; phases: Liquid
Fixed: Pressure, kPa = 101.325
Property: Viscosity, Pa*s (Liquid); method: Falling or rolling sphere viscometry
Temperature, K	Viscosity, Pa*s	uncertainty
293.15	.001218	.000002
298.15	.001134	.000002
303.15	.001015	.000002
308.15	.00091	.000002
313.15	.000836	.000002

System: ethanol; phases: Liquid
Property: Viscosity, Pa*s (Liquid); method: Falling or rolling sphere viscometry
Temperature, K	Pressure, kPa	Viscosity, Pa*s	uncertainty
303.15	101	.00101	.000002
308.15	101	.000907	.000002

System: n-propyl alcohol; phases: Liquid
Fixed: Pressure, kPa = 101.325
Property: Refractive index (Na D-line) (Liquid); method: Standard Abbe refractometry
Temperature, K	Refractive index (Na D-line)	uncertainty
298.15	1.3833	.0001

System: n-propyl alcohol; phases: Liquid
Fixed: Pressure, kPa = 101.325
Property: Mass density, kg/m3 (Liquid); method: Vibrating tube method
Temperature, K	Mass density, kg/m3	uncertainty
293.15	803.56	.05
298.15	799.58	.05
303.15	795.59	.05
308.15	791.48	.05
313.15	787.36	.05

System: n-propyl alcohol; phases: Liquid
Fixed: Pressure, kPa = 101.325
Property: Viscosity, Pa*s (Liquid); method: Falling or rolling sphere viscometry
Temperature, K	Viscosity, Pa*s	uncertainty
293.15	.002208	.000002
298.15	.001975	.000002
303.15	.001738	.000002
308.15	.001549	.000002
313.15	.001382	.000002

System: n-butanol; phases: Liquid
Fixed: Pressure, kPa = 101.325
Property: Refractive index (Na D-line) (Liquid); method: Standard Abbe refractometry
Temperature, K	Refractive index (Na D-line)	uncertainty
298.15	1.3972	.0001

System: n-butanol; phases: Liquid
Fixed: Pressure, kPa = 101.325
Property: Mass density, kg/m3 (Liquid); method: Vibrating tube method
Temperature, K	Mass density, kg/m3	uncertainty
293.15	809.76	.05
298.15	805.96	.05
303.15	802.11	.05
308.15	798.18	.05
313.15	794.39	.05

System: n-butanol; phases: Liquid
Fixed: Pressure, kPa = 101.325
Property: Viscosity, Pa*s (Liquid); method: Falling or rolling sphere viscometry
Temperature, K	Viscosity, Pa*s	uncertainty
293.15	.002942	.000002
298.15	.002572	.000002
303.15	.002265	.000002
308.15	.002002	.000002
313.15	.001787	.000002

System: n-butanol; phases: Liquid
Property: Mass density, kg/m3 (Liquid); method: Vibrating tube method
Temperature, K	Pressure, kPa	Mass density, kg/m3	uncertainty
298.15	101	805.94	.05

System: n-butylammonium nitrate; phases: Liquid
Fixed: Pressure, kPa = 101.325
Property: Refractive index (Na D-line) (Liquid); method: Standard Abbe refractometry
Temperature, K	Refractive index (Na D-line)	uncertainty
298.15	1.4458	.0001

System: n-butylammonium nitrate; phases: Liquid
Fixed: Pressure, kPa = 101.325
Property: Mass density, kg/m3 (Liquid); method: Vibrating tube method
Temperature, K	Mass density, kg/m3	uncertainty
293.15	1104.68	.05
298.15	1101.52	.05
303.15	1098.38	.05
308.15	1095.26	.05
313.15	1092.17	.05

System: n-butylammonium nitrate; phases: Liquid
Fixed: Pressure, kPa = 101.325
Property: Viscosity, Pa*s (Liquid); method: Falling or rolling sphere viscometry
Temperature, K	Viscosity, Pa*s	uncertainty
293.15	.111348	.000002
298.15	.089954	.000002
303.15	.073038	.000002
308.15	.060248	.000002
313.15	.050116	.000002

System: methyl alcohol + n-butylammonium nitrate; phases: Liquid
Fixed: Pressure, kPa = 101
Property: Mass density, kg/m3 (Liquid); method: Vibrating tube method
Temperature, K	Mole fraction of n-butylammonium nitrate	Mass density, kg/m3	uncertainty
293.15	0	791.23	.05
293.15	.0999	884.86	.05
293.15	.1998	944.76	.05
293.15	.3012	987.04	.05
293.15	.4005	1016.59	.05
293.15	.5015	1039.93	.05
293.15	.6507	1065.48	.05
293.15	.8007	1085.18	.05
293.15	.9007	1096.21	.05
293.15	1	1104.68	.05
298.15	0	786.54	.05
298.15	.0999	880.73	.05
298.15	.1998	940.97	.05
298.15	.3012	983.43	.05
298.15	.4005	1013.11	.05
298.15	.5015	1036.55	.05
298.15	.6507	1062.21	.05
298.15	.8007	1081.98	.05
298.15	.9007	1093.04	.05
298.15	1	1101.52	.05
303.15	0	781.81	.05
303.15	.0999	876.67	.05
303.15	.1998	937.17	.05
303.15	.3012	979.82	.05
303.15	.4005	1009.64	.05
303.15	.5015	1033.17	.05
303.15	.6507	1058.95	.05
303.15	.8007	1078.78	.05
303.15	.9007	1089.88	.05
303.15	1	1098.38	.05
308.15	0	777.05	.05
308.15	.0999	872.57	.05
308.15	.1998	933.38	.05
308.15	.3012	976.23	.05
308.15	.4005	1006.18	.05
308.15	.5015	1029.82	.05
308.15	.6507	1055.7	.05
308.15	.8007	1075.61	.05
308.15	.9007	1086.74	.05
308.15	1	1095.26	.05
313.15	0	772.25	.05
313.15	.0999	868.45	.05
313.15	.1998	929.59	.05
313.15	.3012	972.64	.05
313.15	.4005	1002.74	.05
313.15	.5015	1026.48	.05
313.15	.6507	1052.47	.05
313.15	.8007	1072.46	.05
313.15	.9007	1083.63	.05
313.15	1	1092.17	.05

System: methyl alcohol + n-butylammonium nitrate; phases: Liquid
Fixed: Pressure, kPa = 101
Property: Viscosity, Pa*s (Liquid); method: Falling or rolling sphere viscometry
Temperature, K	Mole fraction of n-butylammonium nitrate	Viscosity, Pa*s	uncertainty
293.15	0	.000588	.000002
293.15	.0999	.001377	.000002
293.15	.1998	.002723	.000002
293.15	.3012	.004923	.000002
293.15	.4005	.009129	.000002
293.15	.5015	.014787	.000002
293.15	.6507	.028643	.000002
293.15	.8007	.051333	.000002
293.15	.9007	.07773	.000002
293.15	1	.111348	.000002
298.15	0	.000552	.000002
298.15	.0999	.001267	.000002
298.15	.1998	.002466	.000002
298.15	.3012	.004382	.000002
298.15	.4005	.008	.000002
298.15	.5015	.012805	.000002
298.15	.6507	.024079	.000002
298.15	.8007	.042073	.000002
298.15	.9007	.064337	.000002
298.15	1	.089954	.000002
303.15	0	.000516	.000002
303.15	.0999	.001173	.000002
303.15	.1998	.002248	.000002
303.15	.3012	.003934	.000002
303.15	.4005	.007037	.000002
303.15	.5015	.011164	.000002
303.15	.6507	.020592	.000002
303.15	.8007	.035229	.000002
303.15	.9007	.053019	.000002
303.15	1	.073038	.000002
308.15	0	.000486	.000002
308.15	.0999	.001119	.000002
308.15	.1998	.002058	.000002
308.15	.3012	.003555	.000002
308.15	.4005	.006242	.000002
308.15	.5015	.009779	.000002
308.15	.6507	.017769	.000002
308.15	.8007	.029653	.000002
308.15	.9007	.04424	.000002
308.15	1	.060248	.000002
313.15	0	.000461	.000002
313.15	.0999	.001014	.000002
313.15	.1998	.001893	.000002
313.15	.3012	.003229	.000002
313.15	.4005	.005584	.000002
313.15	.5015	.00866	.000002
313.15	.6507	.015497	.000002
313.15	.8007	.025405	.000002
313.15	.9007	.037207	.000002
313.15	1	.050116	.000002

System: ethanol + n-butylammonium nitrate; phases: Liquid
Fixed: Pressure, kPa = 101
Property: Mass density, kg/m3 (Liquid); method: Vibrating tube method
Temperature, K	Mole fraction of n-butylammonium nitrate	Mass density, kg/m3	uncertainty
293.15	0	789.5	.05
293.15	.0995	858.45	.05
293.15	.1997	910.07	.05
293.15	.2999	951.56	.05
293.15	.3998	985.07	.05
293.15	.5005	1012.9	.05
293.15	.6501	1047.63	.05
293.15	.8003	1075.57	.05
293.15	.8989	1090.94	.05
293.15	1	1104.68	.05
298.15	0	785.39	.05
298.15	.0995	854.53	.05
298.15	.1997	906.36	.05
298.15	.2999	947.99	.05
298.15	.3998	981.61	.05
298.15	.5005	1009.57	.05
298.15	.6501	1044.37	.05
298.15	.8003	1072.36	.05
298.15	.8989	1087.76	.05
298.15	1	1101.52	.05
303.15	0	780.69	.05
303.15	.0995	850.59	.05
303.15	.1997	902.64	.05
303.15	.2999	944.41	.05
303.15	.3998	978.16	.05
303.15	.5005	1006.2	.05
303.15	.6501	1041.1	.05
303.15	.8003	1069.17	.05
303.15	.8989	1084.6	.05
303.15	1	1098.38	.05
308.15	0	776.35	.05
308.15	.0995	846.63	.05
308.15	.1997	898.9	.05
308.15	.2999	940.85	.05
308.15	.3998	974.71	.05
308.15	.5005	1003.2	.05
308.15	.6501	1037.86	.05
308.15	.8003	1066	.05
308.15	.8989	1081.46	.05
308.15	1	1095.26	.05
313.15	0	772.11	.05
313.15	.0995	842.66	.05
313.15	.1997	895.16	.05
313.15	.2999	937.28	.05
313.15	.3998	971.27	.05
313.15	.5005	999.76	.05
313.15	.6501	1034.62	.05
313.15	.8003	1062.84	.05
313.15	.8989	1078.34	.05
313.15	1	1092.17	.05

System: ethanol + n-butylammonium nitrate; phases: Liquid
Fixed: Pressure, kPa = 101
Property: Viscosity, Pa*s (Liquid); method: Falling or rolling sphere viscometry
Temperature, K	Mole fraction of n-butylammonium nitrate	Viscosity, Pa*s	uncertainty
293.15	0	.001218	.000002
293.15	.0995	.0025	.000002
293.15	.1997	.004379	.000002
293.15	.2999	.007388	.000002
293.15	.3998	.012293	.000002
293.15	.5005	.018528	.000002
293.15	.6501	.032659	.000002
293.15	.8003	.056974	.000002
293.15	.8989	.079512	.000002
293.15	1	.111348	.000002
298.15	0	.001134	.000002
298.15	.0995	.002251	.000002
298.15	.1997	.003895	.000002
298.15	.2999	.006633	.000002
298.15	.3998	.010667	.000002
298.15	.5005	.015886	.000002
298.15	.6501	.027417	.000002
298.15	.8003	.046574	.000002
298.15	.8989	.065338	.000002
298.15	1	.089954	.000002
303.15	0	.00101	.000002
303.15	.0995	.002036	.000002
303.15	.1997	.003486	.000002
303.15	.2999	.005868	.000002
303.15	.3998	.009285	.000002
303.15	.5005	.013775	.000002
303.15	.6501	.023147	.000002
303.15	.8003	.038817	.000002
303.15	.8989	.053932	.000002
303.15	1	.073038	.000002
308.15	0	.000907	.000002
308.15	.0995	.001846	.000002
308.15	.1997	.003134	.000002
308.15	.2999	.005192	.000002
308.15	.3998	.008205	.000002
308.15	.5005	.012038	.000002
308.15	.6501	.019832	.000002
308.15	.8003	.032553	.000002
308.15	.8989	.044858	.000002
308.15	1	.060248	.000002
313.15	0	.000836	.000002
313.15	.0995	.001682	.000002
313.15	.1997	.002827	.000002
313.15	.2999	.004591	.000002
313.15	.3998	.00725	.000002
313.15	.5005	.010571	.000002
313.15	.6501	.017124	.000002
313.15	.8003	.027741	.000002
313.15	.8989	.037863	.000002
313.15	1	.050116	.000002

System: n-propyl alcohol + n-butylammonium nitrate; phases: Liquid
Fixed: Pressure, kPa = 101
Property: Mass density, kg/m3 (Liquid); method: Vibrating tube method
Temperature, K	Mole fraction of n-butylammonium nitrate	Mass density, kg/m3	uncertainty
293.15	0	803.56	.05
293.15	.0999	855.12	.05
293.15	.2004	898.27	.05
293.15	.2994	935.27	.05
293.15	.4007	968.52	.05
293.15	.4995	997.32	.05
293.15	.6495	1035.44	.05
293.15	.7978	1067.64	.05
293.15	.9008	1087.69	.05
293.15	1	1104.68	.05
298.15	0	799.58	.05
298.15	.0999	851.36	.05
298.15	.2004	894.64	.05
298.15	.2994	931.74	.05
298.15	.4007	965.08	.05
298.15	.4995	993.96	.05
298.15	.6495	1032.16	.05
298.15	.7978	1064.42	.05
298.15	.9008	1084.51	.05
298.15	1	1101.52	.05
303.15	0	795.59	.05
303.15	.0999	847.56	.05
303.15	.2004	890.99	.05
303.15	.2994	928.19	.05
303.15	.4007	961.63	.05
303.15	.4995	990.59	.05
303.15	.6495	1028.88	.05
303.15	.7978	1061.21	.05
303.15	.9008	1081.34	.05
303.15	1	1098.38	.05
308.15	0	791.48	.05
308.15	.0999	843.75	.05
308.15	.2004	887.32	.05
308.15	.2994	924.64	.05
308.15	.4007	958.18	.05
308.15	.4995	987.23	.05
308.15	.6495	1025.62	.05
308.15	.7978	1058.02	.05
308.15	.9008	1078.19	.05
308.15	1	1095.26	.05
313.15	0	787.36	.05
313.15	.0999	839.91	.05
313.15	.2004	883.65	.05
313.15	.2994	921.09	.05
313.15	.4007	954.74	.05
313.15	.4995	983.88	.05
313.15	.6495	1022.36	.05
313.15	.7978	1054.86	.05
313.15	.9008	1075.07	.05
313.15	1	1092.17	.05

System: n-propyl alcohol + n-butylammonium nitrate; phases: Liquid
Fixed: Pressure, kPa = 101
Property: Viscosity, Pa*s (Liquid); method: Falling or rolling sphere viscometry
Temperature, K	Mole fraction of n-butylammonium nitrate	Viscosity, Pa*s	uncertainty
293.15	0	.002208	.000002
293.15	.0999	.004091	.000002
293.15	.2004	.006691	.000002
293.15	.2994	.010453	.000002
293.15	.4007	.016541	.000002
293.15	.4995	.022525	.000002
293.15	.6495	.038053	.000002
293.15	.7978	.061013	.000002
293.15	.9008	.083355	.000002
293.15	1	.111348	.000002
298.15	0	.001975	.000002
298.15	.0999	.003599	.000002
298.15	.2004	.005828	.000002
298.15	.2994	.008998	.000002
298.15	.4007	.014112	.000002
298.15	.4995	.019077	.000002
298.15	.6495	.031624	.000002
298.15	.7978	.049826	.000002
298.15	.9008	.067139	.000002
298.15	1	.089954	.000002
303.15	0	.001738	.000002
303.15	.0999	.003182	.000002
303.15	.2004	.005108	.000002
303.15	.2994	.00781	.000002
303.15	.4007	.012111	.000002
303.15	.4995	.016285	.000002
303.15	.6495	.026593	.000002
303.15	.7978	.041195	.000002
303.15	.9008	.055163	.000002
303.15	1	.073038	.000002
308.15	0	.001549	.000002
308.15	.0999	.002824	.000002
308.15	.2004	.004503	.000002
308.15	.2994	.006822	.000002
308.15	.4007	.010494	.000002
308.15	.4995	.014049	.000002
308.15	.6495	.022592	.000002
308.15	.7978	.034543	.000002
308.15	.9008	.046109	.000002
308.15	1	.060248	.000002
313.15	0	.001382	.000002
313.15	.0999	.002516	.000002
313.15	.2004	.003989	.000002
313.15	.2994	.006009	.000002
313.15	.4007	.009207	.000002
313.15	.4995	.012186	.000002
313.15	.6495	.019394	.000002
313.15	.7978	.029207	.000002
313.15	.9008	.040086	.000002
313.15	1	.050116	.000002

System: n-butanol + n-butylammonium nitrate; phases: Liquid
Fixed: Pressure, kPa = 101
Property: Mass density, kg/m3 (Liquid); method: Vibrating tube method
Temperature, K	Mole fraction of n-butylammonium nitrate	Mass density, kg/m3	uncertainty
293.15	0	809.76	.05
293.15	.1004	851.35	.05
293.15	.1999	888.16	.05
293.15	.2993	922.05	.05
293.15	.3992	953.58	.05
293.15	.4955	982.07	.05
293.15	.6508	1024.4	.05
293.15	.801	1061.11	.05
293.15	.8998	1083.71	.05
293.15	1	1104.68	.05
298.15	0	805.94	.05
298.15	.1004	847.7	.05
298.15	.1999	884.59	.05
298.15	.2993	918.6	.05
298.15	.3992	950.14	.05
298.15	.4955	978.69	.05
298.15	.6508	1021.11	.05
298.15	.801	1057.88	.05
298.15	.8998	1080.52	.05
298.15	1	1101.52	.05
303.15	0	802.11	.05
303.15	.1004	844.02	.05
303.15	.1999	881	.05
303.15	.2993	915.12	.05
303.15	.3992	946.7	.05
303.15	.4955	975.31	.05
303.15	.6508	1017.81	.05
303.15	.801	1054.67	.05
303.15	.8998	1077.34	.05
303.15	1	1098.38	.05
308.15	0	798.18	.05
308.15	.1004	840.32	.05
308.15	.1999	877.4	.05
308.15	.2993	911.54	.05
308.15	.3992	943.25	.05
308.15	.4955	971.93	.05
308.15	.6508	1014.53	.05
308.15	.801	1051.47	.05
308.15	.8998	1074.19	.05
308.15	1	1095.26	.05
313.15	0	794.39	.05
313.15	.1004	836.6	.05
313.15	.1999	873.79	.05
313.15	.2993	908.03	.05
313.15	.3992	939.81	.05
313.15	.4955	968.56	.05
313.15	.6508	1011.26	.05
313.15	.801	1048.29	.05
313.15	.8998	1071.05	.05
313.15	1	1092.17	.05

System: n-butanol + n-butylammonium nitrate; phases: Liquid
Fixed: Pressure, kPa = 101
Property: Viscosity, Pa*s (Liquid); method: Falling or rolling sphere viscometry
Temperature, K	Mole fraction of n-butylammonium nitrate	Viscosity, Pa*s	uncertainty
293.15	0	.002942	.000002
298.15	0	.002572	.000002
303.15	0	.002265	.000002
308.15	0	.002002	.000002
313.15	0	.001787	.000002
293.15	.1004	.005242	.000002
298.15	.1004	.004554	.000002
303.15	.1004	.003985	.000002
308.15	.1004	.003506	.000002
313.15	.1004	.003099	.000002
298.15	.1999	.006852	.000002
293.15	.1999	.009769	.000002
303.15	.1999	.005961	.000002
308.15	.1999	.005217	.000002
313.15	.1999	.004592	.000002
303.15	.2993	.008447	.000002
293.15	.2993	.011358	.000002
298.15	.2993	.009747	.000002
308.15	.2993	.007302	.000002
313.15	.2993	.006344	.000002
303.15	.3992	.012757	.000002
308.15	.3992	.011033	.000002
293.15	.3992	.017511	.000002
298.15	.3992	.014952	.000002
313.15	.3992	.009601	.000002
303.15	.4955	.017343	.000002
308.15	.4955	.014863	.000002
293.15	.4955	.024224	.000002
298.15	.4955	.020339	.000002
313.15	.4955	.012881	.000002
298.15	.6508	.031952	.000002
303.15	.6508	.026787	.000002
308.15	.6508	.022662	.000002
293.15	.6508	.038673	.000002
313.15	.6508	.019509	.000002
298.15	.801	.049395	.000002
308.15	.801	.034199	.000002
303.15	.801	.040818	.000002
293.15	.801	.060584	.000002
313.15	.801	.028957	.000002
293.15	.8998	.083122	.000002
303.15	.8998	.056148	.000002
298.15	.8998	.068135	.000002
308.15	.8998	.046688	.000002
313.15	.8998	.039111	.000002
303.15	1	.073038	.000002
298.15	1	.089954	.000002
308.15	1	.060248	.000002
293.15	1	.111348	.000002
313.15	1	.050116	.000002
