Measured thermophysical data. On the viscosity of two 1-butyl-1-methylpyrrolidinium ionic liquids: Effect of the temperature and pressure
Source: J. Chem. Thermodyn., 2015, 10.1016/j.jct.2015.03.002
Compound 1: 1-butyl-1-methylpyrrolidinium tris(pentafluoroethyl)trifluorophosphate, C15H20F18NP, purity 99%
Compound 2: 1-butyl-1-methylpyrrolidinium trifluoromethanesulfonate, C10H20F3NO3S, purity 98%
Compound 3: squalane, C30H62, purity 99%

System: 1-butyl-1-methylpyrrolidinium tris(pentafluoroethyl)trifluorophosphate; phases: Liquid
Property: Viscosity, Pa*s (Liquid); method: Falling or rolling sphere viscometry
Temperature, K	Pressure, kPa	Viscosity, Pa*s	uncertainty
303.15	10000	.1895	.0066325
303.15	15000	.2124	.007434
303.15	25000	.2655	.0092925
303.15	50000	.4547	.0159145
303.15	75000	.7651	.0267785
303.15	100000	1.274	.04459
303.15	125000	2.111	.073885
303.15	150000	3.485	.121975
313.15	10000	.1135	.0039725
313.15	15000	.1247	.0043645
313.15	25000	.1506	.005271
313.15	50000	.2413	.0084455
313.15	75000	.3868	.013538
313.15	100000	.6203	.0217105
313.15	125000	.9951	.0348285
313.15	150000	1.597	.055895
323.15	10000	.0734	.002569
323.15	15000	.08	.0028
323.15	25000	.0949	.0033215
323.15	50000	.1454	.005089
323.15	75000	.2226	.007791
323.15	100000	.3405	.0119175
323.15	125000	.5209	.0182315
323.15	150000	.797	.027895
333.15	10000	.048	.00168
333.15	15000	.052	.00182
333.15	25000	.061	.002135
333.15	50000	.0907	.0031745
333.15	75000	.1343	.0047005
333.15	100000	.1981	.0069335
333.15	125000	.2917	.0102095
333.15	150000	.4291	.0150185
343.15	10000	.0339	.0011865
343.15	15000	.0365	.0012775
343.15	25000	.0422	.001477
343.15	50000	.0605	.0021175
343.15	75000	.0869	.0030415
343.15	100000	.1245	.0043575
343.15	125000	.1785	.0062475
343.15	150000	.2558	.008953
353.15	10000	.0247	.0008645
353.15	15000	.0266	.000931
353.15	25000	.0307	.0010745
353.15	50000	.0434	.001519
353.15	75000	.0606	.002121
353.15	100000	.0841	.0029435
353.15	125000	.116	.00406
353.15	150000	.1593	.0055755

System: 1-butyl-1-methylpyrrolidinium tris(pentafluoroethyl)trifluorophosphate; phases: Liquid
Property: Viscosity, Pa*s (Liquid); method: Concentric cylinders viscometry
Temperature, K	Pressure, kPa	Viscosity, Pa*s	uncertainty
303.15	10000	.1989	.01989
303.15	15000	.2218	.02218
303.15	25000	.2731	.02731
303.15	50000	.4655	.04655
303.15	75000	.7916	.07916
313.15	10000	.1189	.01189
313.15	15000	.1313	.01313
313.15	25000	.1626	.01626
313.15	50000	.2635	.02635
313.15	75000	.4348	.04348
323.15	75000	.2347	.02347

System: 1-butyl-1-methylpyrrolidinium trifluoromethanesulfonate; phases: Liquid
Property: Viscosity, Pa*s (Liquid); method: Falling or rolling sphere viscometry
Temperature, K	Pressure, kPa	Viscosity, Pa*s	uncertainty
303.15	10000	.1448	.005068
303.15	15000	.1543	.0054005
303.15	25000	.1749	.0061215
303.15	50000	.2369	.0082915
303.15	75000	.3177	.0111195
303.15	100000	.4228	.014798
303.15	125000	.5595	.0195825
303.15	150000	.7377	.0258195
313.15	10000	.0892	.003122
313.15	15000	.0948	.003318
313.15	25000	.1069	.0037415
313.15	50000	.1427	.0049945
313.15	75000	.1881	.0065835
313.15	100000	.2454	.008589
313.15	125000	.3181	.0111335
313.15	150000	.4101	.0143535
323.15	10000	.0589	.0020615
323.15	15000	.0625	.0021875
323.15	25000	.0702	.002457
323.15	50000	.0923	.0032305
323.15	75000	.1195	.0041825
323.15	100000	.153	.005355
323.15	125000	.1941	.0067935
323.15	150000	.2447	.0085645
333.15	10000	.0417	.0014595
333.15	15000	.0439	.0015365
333.15	25000	.0486	.001701
333.15	50000	.0623	.0021805
333.15	75000	.079	.002765
333.15	100000	.0996	.003486
333.15	125000	.1249	.0043715
333.15	150000	.156	.00546
343.15	10000	.0299	.0010465
343.15	15000	.0314	.001099
343.15	25000	.0347	.0012145
343.15	50000	.0442	.001547
343.15	75000	.0557	.0019495
343.15	100000	.0696	.002436
343.15	125000	.0864	.003024
343.15	150000	.1068	.003738
353.15	10000	.0225	.0007875
353.15	15000	.0237	.0008295
353.15	25000	.0261	.0009135
353.15	50000	.0327	.0011445
353.15	75000	.0405	.0014175
353.15	100000	.0494	.001729
353.15	125000	.0599	.0020965
353.15	150000	.072	.00252

System: 1-butyl-1-methylpyrrolidinium trifluoromethanesulfonate; phases: Liquid
Property: Viscosity, Pa*s (Liquid); method: Concentric cylinders viscometry
Temperature, K	Pressure, kPa	Viscosity, Pa*s	uncertainty
303.15	10000	.1472	.01472
303.15	15000	.1584	.01584
303.15	25000	.1818	.01818
303.15	50000	.2495	.02495
303.15	75000	.3411	.03411
313.15	50000	.1481	.01481
313.15	75000	.2022	.02022

System: squalane; phases: Liquid
Property: Viscosity, Pa*s (Liquid); method: Falling or rolling sphere viscometry
Temperature, K	Pressure, kPa	Viscosity, Pa*s	uncertainty
303.15	10000	.0274	.000959
303.15	15000	.0308	.001078
303.15	25000	.0382	.001337
303.15	50000	.0627	.0021945
303.15	75000	.0985	.0034475
303.15	100000	.1508	.005278
303.15	125000	.2274	.007959
303.15	150000	.3395	.0118825
313.15	10000	.0184	.000644
313.15	15000	.0204	.000714
313.15	25000	.0248	.000868
313.15	50000	.0391	.0013685
313.15	75000	.0595	.0020825
313.15	100000	.0887	.0031045
313.15	125000	.1303	.0045605
313.15	150000	.1898	.006643
323.15	10000	.013	.000455
323.15	15000	.0143	.0005005
323.15	25000	.0171	.0005985
323.15	50000	.0261	.0009135
323.15	75000	.0387	.0013545
323.15	100000	.0563	.0019705
323.15	125000	.0809	.0028315
323.15	150000	.1154	.004039
333.15	10000	.0092	.000322
333.15	15000	.0101	.0003535
333.15	25000	.0121	.0004235
333.15	50000	.0182	.000637
333.15	75000	.0265	.0009275
333.15	100000	.0378	.001323
333.15	125000	.0532	.001862
333.15	150000	.074	.00259
343.15	10000	.007	.000245
343.15	15000	.0076	.000266
343.15	25000	.009	.000315
343.15	50000	.0133	.0004655
343.15	75000	.019	.000665
343.15	100000	.0267	.0009345
343.15	125000	.037	.001295
343.15	150000	.0508	.001778
353.15	10000	.0054	.000189
353.15	15000	.0059	.0002065
353.15	25000	.0069	.0002415
353.15	50000	.0101	.0003535
353.15	75000	.0142	.000497
353.15	100000	.0195	.0006825
353.15	125000	.0264	.000924
353.15	150000	.0355	.0012425
