Measured thermophysical data. Extraction of butan-1-ol from water with ionic liquids at T = 308.15 K
Source: J. Chem. Thermodyn., 2012, 10.1016/j.jct.2012.04.017
Compound 1: 1-hexyl-3-methylimidazolium tetracyanoborate, C14H19BN6, purity 99%
Compound 2: 1-decyl-3-methylimidazolium tetracyanoborate, C18H27BN6, purity 99%
Compound 3: trihexyltetradecylphosphonium tetracyanoborate, C36H68BN4P, purity 99%
Compound 4: water, H2O, purity 99.8%
Compound 5: 1-butanol, C4H10O, purity 99%

System: 1-hexyl-3-methylimidazolium tetracyanoborate; phases: Liquid
Fixed: Pressure, kPa = 101.325
Property: Mass density, kg/m3 (Liquid); method: Vibrating tube method
Temperature, K	Mass density, kg/m3	uncertainty
298.15	983.03	.05

System: 1-decyl-3-methylimidazolium tetracyanoborate; phases: Liquid
Fixed: Pressure, kPa = 101.325
Property: Mass density, kg/m3 (Liquid); method: Vibrating tube method
Temperature, K	Mass density, kg/m3	uncertainty
298.15	955.57	.05

System: trihexyltetradecylphosphonium tetracyanoborate; phases: Liquid
Fixed: Pressure, kPa = 101.325
Property: Mass density, kg/m3 (Liquid); method: Vibrating tube method
Temperature, K	Mass density, kg/m3	uncertainty
298.15	891.05	.05
308.15	884.97	.05
318.15	879.06	.05
328.15	873.16	.05
338.15	867.25	.05
348.15	861.36	.05

System: 1-butanol; phases: Liquid
Fixed: Pressure, kPa = 101.325
Property: Mass density, kg/m3 (Liquid); method: Vibrating tube method
Temperature, K	Mass density, kg/m3	uncertainty
298.15	798.06	.05

System: 1-butanol + water + 1-hexyl-3-methylimidazolium tetracyanoborate; phases: Liquid mixture 2, Liquid mixture 1
Property: Mole fraction of water (Liquid mixture 2); method: Chromatography
Property: Mole fraction of 1-butanol (Liquid mixture 1); method: Chromatography
Property: Mole fraction of water (Liquid mixture 1); method: Chromatography
Temperature, K	Pressure, kPa	Mole fraction of 1-butanol	Mole fraction of water	uncertainty	Mole fraction of 1-butanol	uncertainty	Mole fraction of water	uncertainty
308.15	101	0	.5103	.003	0	.003	1	.003
308.15	101	.0163	.5081	.003	0	.003	1	.003
308.15	101	.0667	.5022	.003	.002	.003	.997	.003
308.15	101	.0869	.5031	.003	.0027	.003	.9954	.003
308.15	101	.1148	.5033	.003	.0037	.003	.9944	.003
308.15	101	.146	.5043	.003	.0047	.003	.9934	.003
308.15	101	.1987	.5106	.003	.0066	.003	.9918	.003
308.15	101	.2537	.5238	.003	.0084	.003	.9901	.003
308.15	101	.2715	.5272	.003	.0096	.003	.9889	.003
308.15	101	.2855	.5341	.003	.0103	.003	.9883	.003
308.15	101	.3166	.5426	.003	.0117	.003	.9871	.003
308.15	101	.3368	.5566	.003	.0125	.003	.9863	.003
308.15	101	.3507	.5572	.003	.0131	.003	.9858	.003
308.15	101	.3982	.5587	.003	.0149	.003	.9842	.003
308.15	101	.4065	.5595	.003	.0152	.003	.984	.003
308.15	101	.4287	.5552	.003	.0163	.003	.9834	.003
308.15	101	.4395	.5483	.003	.0166	.003	.9829	.003
308.15	101	.4867	.513	.003	.0186	.003	.9813	.003
308.15	101	.522	.478	.003	.018	.003	.982	.003

System: 1-butanol + water + 1-decyl-3-methylimidazolium tetracyanoborate; phases: Liquid mixture 2, Liquid mixture 1
Property: Mole fraction of water (Liquid mixture 2); method: Chromatography
Property: Mole fraction of 1-butanol (Liquid mixture 1); method: Chromatography
Property: Mole fraction of water (Liquid mixture 1); method: Chromatography
Temperature, K	Pressure, kPa	Mole fraction of 1-butanol	Mole fraction of water	uncertainty	Mole fraction of 1-butanol	uncertainty	Mole fraction of water	uncertainty
308.15	101	0	.378	.003	0	.003	.9991	.003
308.15	101	.059	.3149	.003	.0006	.003	.9985	.003
308.15	101	.19	.242	.003	.0029	.003	.9961	.003
308.15	101	.253	.2311	.003	.0046	.003	.9944	.003
308.15	101	.289	.23	.003	.0054	.003	.9936	.003
308.15	101	.3501	.256	.003	.0067	.003	.9922	.003
308.15	101	.393	.284	.003	.008	.003	.9909	.003
308.15	101	.4018	.313	.003	.009	.003	.9899	.003
308.15	101	.435	.319	.003	.011	.003	.9878	.003
308.15	101	.451	.351	.003	.011	.003	.9877	.003
308.15	101	.4691	.3672	.003	.013	.003	.9857	.003
308.15	101	.4778	.399	.003	.014	.003	.9847	.003
308.15	101	.4808	.4633	.003	.016	.003	.9827	.003
308.15	101	.522	.478	.003	.018	.003	.982	.003

System: 1-butanol + water + trihexyltetradecylphosphonium tetracyanoborate; phases: Liquid mixture 1, Liquid mixture 2
Property: Mole fraction of water (Liquid mixture 1); method: Chromatography
Property: Mole fraction of 1-butanol (Liquid mixture 2); method: Chromatography
Property: Mole fraction of water (Liquid mixture 2); method: Chromatography
Temperature, K	Pressure, kPa	Mole fraction of 1-butanol	Mole fraction of water	uncertainty	Mole fraction of 1-butanol	uncertainty	Mole fraction of water	uncertainty
308.15	101	0	.9967	.003	0	.003	.134	.003
308.15	101	.0015	.9952	.003	.1269	.003	.1396	.003
308.15	101	.0026	.9942	.003	.2087	.003	.1503	.003
308.15	101	.0045	.9922	.003	.3036	.003	.1629	.003
308.15	101	.0067	.9904	.003	.3858	.003	.1775	.003
308.15	101	.0073	.9897	.003	.3911	.003	.1862	.003
308.15	101	.0087	.9885	.003	.4501	.003	.1919	.003
308.15	101	.0104	.9869	.003	.4829	.003	.1961	.003
308.15	101	.0119	.9858	.003	.5162	.003	.2188	.003
308.15	101	.013	.9848	.003	.5583	.003	.2531	.003
308.15	101	.0139	.9841	.003	.5708	.003	.2572	.003
308.15	101	.0156	.9826	.003	.5943	.003	.2864	.003
308.15	101	.0164	.9826	.003	.6077	.003	.3091	.003
308.15	101	.0167	.9829	.003	.606	.003	.364	.003
308.15	101	.018	.982	.003	.522	.003	.478	.003

System: water + 1-hexyl-3-methylimidazolium tetracyanoborate; phases: Liquid mixture 2, Liquid mixture 1
Property: Mole fraction of water (Liquid mixture 2); method: Chromatography
Temperature, K	Pressure, kPa	Mole fraction of water	uncertainty
308.15	101	.5103	.003

System: 1-butanol + water; phases: Liquid mixture 2, Liquid mixture 1
Property: Mole fraction of water (Liquid mixture 2); method: Chromatography
Temperature, K	Pressure, kPa	Mole fraction of water	uncertainty
308.15	101	.478	.003

System: 1-butanol + water; phases: Liquid mixture 1, Liquid mixture 2
Property: Mole fraction of water (Liquid mixture 1); method: Chromatography
Temperature, K	Pressure, kPa	Mole fraction of water	uncertainty
308.15	101	.982	.003

System: water + 1-decyl-3-methylimidazolium tetracyanoborate; phases: Liquid mixture 2, Liquid mixture 1
Property: Mole fraction of water (Liquid mixture 2); method: Chromatography
Temperature, K	Pressure, kPa	Mole fraction of water	uncertainty
308.15	101	.378	.003

System: water + 1-decyl-3-methylimidazolium tetracyanoborate; phases: Liquid mixture 1, Liquid mixture 2
Property: Mole fraction of water (Liquid mixture 1); method: Chromatography
Temperature, K	Pressure, kPa	Mole fraction of water	uncertainty
308.15	101	.9991	.003

System: water + trihexyltetradecylphosphonium tetracyanoborate; phases: Liquid mixture 1, Liquid mixture 2
Property: Mole fraction of water (Liquid mixture 1); method: Chromatography
Temperature, K	Pressure, kPa	Mole fraction of water	uncertainty
308.15	101	.9967	.003

System: water + trihexyltetradecylphosphonium tetracyanoborate; phases: Liquid mixture 2, Liquid mixture 1
Property: Mole fraction of water (Liquid mixture 2); method: Chromatography
Temperature, K	Pressure, kPa	Mole fraction of water	uncertainty
308.15	101	.134	.003
