Measured thermophysical data. Measurement and prediction of the solubilities of aromatic polyimide monomers in supercritical carbon dioxide with acetone
Source: J. Chem. Thermodyn., 2012, 10.1016/j.jct.2012.04.013
Compound 1: 4-aminophenyl ether, C12H12N2O, purity 99%
Compound 2: pyromellitic dianhydride, C10H2O6, purity 97%
Compound 3: dimethyl ketone, C3H6O
Compound 4: carbon dioxide, CO2

System: dimethyl ketone + 4-aminophenyl ether + carbon dioxide; phases: Fluid (supercritical or subcritical phases), Crystal
Fixed: Temperature, K = 323
Fixed: Pressure, kPa = 20000
Property: Mole fraction of 4-aminophenyl ether (Fluid (supercritical or subcritical phases)); method: UV vis-spectrometer
Solvent: Mole fraction of dimethyl ketone	Mole fraction of 4-aminophenyl ether	uncertainty
.056	.0000287	.0000035
.1	.0000601	.0000036
.153	.000121	.000003
.189	.000193	.000003

System: dimethyl ketone + pyromellitic dianhydride + carbon dioxide; phases: Fluid (supercritical or subcritical phases), Crystal
Fixed: Temperature, K = 323
Fixed: Pressure, kPa = 20000
Property: Mole fraction of pyromellitic dianhydride (Fluid (supercritical or subcritical phases)); method: UV vis-spectrometer
Solvent: Mole fraction of dimethyl ketone	Mole fraction of pyromellitic dianhydride	uncertainty
.049	.000129	.00001
.101	.000356	.000015
.149	.000728	.00005
.203	.00133	.00001
