Measured thermophysical data. Thermodynamic studies of molecular interactions in mixtures of o-toulidine with pyridine and picolines: Excess molar volumes, excess molar enthalpies, and excess isentropic compressibilities
Source: J. Chem. Thermodyn., 2011, 10.1016/j.jct.2010.12.028
Compound 1: 2-methylaniline, C7H9N, purity 99%
Compound 2: azine, C5H5N, purity 99%
Compound 3: 2-methylpyridine, C6H7N, purity 98%
Compound 4: 3-methylpyridine, C6H7N, purity 99%
Compound 5: 4-methylpyridine, C6H7N, purity 99%

System: 2-methylaniline; phases: Liquid
Fixed: Pressure, kPa = 101.325
Property: Mass density, kg/m3 (Liquid); method: Vibrating tube method
Temperature, K	Mass density, kg/m3	uncertainty
298.15	994.351	.05

System: 2-methylaniline; phases: Liquid
Fixed: Pressure, kPa = 101.325
Property: Speed of sound, m/s (Liquid); method: Sing-around technique in a fixed-path interferometer
Temperature, K	Speed of sound, m/s	uncertainty
298.15	1602.57	1

System: azine; phases: Liquid
Fixed: Pressure, kPa = 101.325
Property: Mass density, kg/m3 (Liquid); method: Vibrating tube method
Temperature, K	Mass density, kg/m3	uncertainty
298.15	978.249	.05

System: azine; phases: Liquid
Fixed: Pressure, kPa = 101.325
Property: Speed of sound, m/s (Liquid); method: Sing-around technique in a fixed-path interferometer
Temperature, K	Speed of sound, m/s	uncertainty
298.15	1417.81	1

System: 2-methylpyridine; phases: Liquid
Fixed: Pressure, kPa = 101.325
Property: Mass density, kg/m3 (Liquid); method: Vibrating tube method
Temperature, K	Mass density, kg/m3	uncertainty
298.15	939.802	.05

System: 2-methylpyridine; phases: Liquid
Fixed: Pressure, kPa = 101.325
Property: Speed of sound, m/s (Liquid); method: Sing-around technique in a fixed-path interferometer
Temperature, K	Speed of sound, m/s	uncertainty
298.15	1380.12	1

System: 3-methylpyridine; phases: Liquid
Fixed: Pressure, kPa = 101.325
Property: Mass density, kg/m3 (Liquid); method: Vibrating tube method
Temperature, K	Mass density, kg/m3	uncertainty
298.15	952.002	.05

System: 3-methylpyridine; phases: Liquid
Fixed: Pressure, kPa = 101.325
Property: Speed of sound, m/s (Liquid); method: Sing-around technique in a fixed-path interferometer
Temperature, K	Speed of sound, m/s	uncertainty
298.15	1424.01	1

System: 4-methylpyridine; phases: Liquid
Fixed: Pressure, kPa = 101.325
Property: Mass density, kg/m3 (Liquid); method: Vibrating tube method
Temperature, K	Mass density, kg/m3	uncertainty
298.15	950.179	.05

System: 4-methylpyridine; phases: Liquid
Fixed: Pressure, kPa = 101.325
Property: Speed of sound, m/s (Liquid); method: Sing-around technique in a fixed-path interferometer
Temperature, K	Speed of sound, m/s	uncertainty
298.15	1431.5	1

System: 2-methylaniline + azine; phases: Liquid
Fixed: Pressure, kPa = 101
Property: Mass density, kg/m3 (Liquid); method: Vibrating tube method
Temperature, K	Mole fraction of 2-methylaniline	Mass density, kg/m3	uncertainty
298.15	.0652	980.854	.05
298.15	.1138	982.607	.05
298.15	.1477	983.731	.05
298.15	.1853	984.895	.05
298.15	.2374	986.375	.05
298.15	.2686	987.172	.05
298.15	.3005	987.937	.05
298.15	.3526	989.058	.05
298.15	.4104	990.119	.05
298.15	.4837	991.237	.05
298.15	.5238	991.751	.05
298.15	.5641	992.187	.05
298.15	.6231	992.73	.05
298.15	.6974	993.253	.05
298.15	.7678	993.622	.05
298.15	.8236	993.838	.05
298.15	.8622	993.969	.05
298.15	.9621	994.245	.05
303.15	.0652	975.904	.05
303.15	.1138	977.714	.05
303.15	.1277	978.889	.05
303.15	.1853	980.111	.05
303.15	.2374	981.65	.05
303.15	.2686	982.485	.05
303.15	.3005	983.289	.05
303.15	.3526	984.461	.05
303.15	.4104	985.592	.05
303.15	.4837	986.789	.05
303.15	.5238	987.335	.05
303.15	.5641	987.803	.05
303.15	.6231	988.386	.05
303.15	.6974	988.955	.05
303.15	.7678	989.362	.05
303.15	.8236	989.613	.05
303.15	.8622	989.756	.05
303.15	.9621	990.097	.05
308.15	.0652	970.897	.05
308.15	.1138	972.767	.05
308.15	.1477	973.991	.05
308.15	.1853	975.253	.05
308.15	.2374	976.858	.05
308.15	.2686	977.748	.05
308.15	.3005	978.587	.05
308.15	.3526	979.835	.05
308.15	.4104	981.051	.05
308.15	.4837	982.322	.05
308.15	.5238	982.917	.05
308.15	.5641	983.434	.05
308.15	.6231	984.067	.05
308.15	.6974	984.698	.05
308.15	.7678	985.142	.05
308.15	.8236	985.416	.05
308.15	.8622	985.573	.05
308.15	.9621	985.933	.05

System: 2-methylaniline + azine; phases: Liquid
Fixed: Pressure, kPa = 101
Property: Excess molar volume, m3/mol (Liquid); method: Calculated with densities of this investigation
Temperature, K	Mole fraction of 2-methylaniline	Excess molar volume, m3/mol	uncertainty
298.15	.0652	-.0000001014	.000000001
298.15	.1138	-.000000167	.000000001
298.15	.1477	-.0000002071	.000000001
298.15	.1853	-.0000002469	.000000001
298.15	.2374	-.0000002944	.000000001
298.15	.2686	-.0000003169	.000000001
298.15	.3005	-.0000003371	.000000001
298.15	.3526	-.0000003611	.000000001
298.15	.4104	-.0000003748	.000000001
298.15	.4837	-.0000003759	.000000001
298.15	.5238	-.0000003692	.000000001
298.15	.5641	-.0000003559	.000000001
298.15	.6231	-.0000003289	.000000001
298.15	.6974	-.0000002815	.000000001
298.15	.7678	-.0000002258	.000000001
298.15	.8236	-.0000001749	.000000001
298.15	.8622	-.0000001381	.000000001
298.15	.9621	-.0000000376	.000000001
303.15	.0652	-.0000001024	.000000001
303.15	.1138	-.0000001688	.000000001
303.15	.1477	-.0000002105	.000000001
303.15	.1853	-.0000002522	.000000001
303.15	.2374	-.0000003006	.000000001
303.15	.2686	-.0000003239	.000000001
303.15	.3005	-.0000003448	.000000001
303.15	.3526	-.0000003692	.000000001
303.15	.4104	-.0000003846	.000000001
303.15	.4837	-.0000003869	.000000001
303.15	.5238	-.0000003798	.000000001
303.15	.5641	-.0000003662	.000000001
303.15	.6231	-.0000003382	.000000001
303.15	.6974	-.0000002891	.000000001
303.15	.7678	-.0000002313	.000000001
303.15	.8236	-.0000001792	.000000001
303.15	.8622	-.0000001404	.000000001
303.15	.9621	-.0000000384	.000000001
308.15	.0652	-.0000001013	.000000001
308.15	.1138	-.0000001688	.000000001
308.15	.1477	-.0000002118	.000000001
308.15	.1853	-.000000254	.000000001
308.15	.2374	-.0000003038	.000000001
308.15	.2686	-.0000003294	.000000001
308.15	.3005	-.0000003508	.000000001
308.15	.3526	-.0000003777	.000000001
308.15	.4104	-.0000003961	.000000001
308.15	.4837	-.0000003992	.000000001
308.15	.5238	-.0000003935	.000000001
308.15	.5641	-.0000003812	.000000001
308.15	.6231	-.0000003531	.000000001
308.15	.6974	-.0000003039	.000000001
308.15	.7678	-.000000244	.000000001
308.15	.8236	-.0000001896	.000000001
308.15	.8622	-.0000001491	.000000001
308.15	.9621	-.0000000406	.000000001

System: 2-methylaniline + azine; phases: Liquid
Fixed: Pressure, kPa = 101
Property: Speed of sound, m/s (Liquid); method: Sing-around technique in a fixed-path interferometer
Temperature, K	Mole fraction of 2-methylaniline	Speed of sound, m/s	uncertainty
298.15	.0652	1431.72	1
298.15	.1138	1442.06	1
298.15	.1477	1449.23	1
298.15	.1853	1457.01	1
298.15	.2374	1467.73	1
298.15	.2686	1473.95	1
298.15	.3005	1480.34	1
298.15	.3526	1490.47	1
298.15	.4104	1501.39	1
298.15	.4837	1514.85	1
298.15	.5238	1522.01	1
298.15	.5641	1529.11	1
298.15	.6231	1539.31	1
298.15	.6974	1551.71	1
298.15	.7678	1563.44	1
298.15	.8236	1572.55	1
298.15	.8622	1578.94	1
298.15	.9621	1595.93	1
303.15	.0652	1411.49	1
303.15	.1138	1421.81	1
303.15	.1477	1429.04	1
303.15	.1853	1436.87	1
303.15	.2374	1447.69	1
303.15	.2686	1453.97	1
303.15	.3005	1460.44	1
303.15	.3526	1470.64	1
303.15	.4104	1481.74	1
303.15	.4837	1495.34	1
303.15	.5238	1502.58	1
303.15	.5641	1509.59	1
303.15	.6231	1519.65	1
303.15	.6974	1531.83	1
303.15	.7678	1542.92	1
303.15	.8236	1551.56	1
303.15	.8622	1557.36	1
303.15	.9621	1572.16	1
308.15	.0652	1391.77	1
308.15	.1138	1402.44	1
308.15	.1477	1409.81	1
308.15	.1853	1417.75	1
308.15	.2374	1428.57	1
308.15	.2686	1435.01	1
308.15	.3005	1441.42	1
308.15	.3526	1451.69	1
308.15	.4104	1462.71	1
308.15	.4837	1476.35	1
308.15	.5238	1483.57	1
308.15	.5641	1490.61	1
308.15	.6231	1500.74	1
308.15	.6974	1513.11	1
308.15	.7678	1524.32	1
308.15	.8236	1532.9	1
308.15	.8622	1538.64	1
308.15	.9621	1553.17	1

System: 2-methylaniline + azine; phases: Liquid
Fixed: Pressure, kPa = 101
Fixed: Temperature, K = 308.15
Property: Excess molar enthalpy (molar enthalpy of mixing), kJ/mol (Liquid); method: two-drop calorimeter
Mole fraction of 2-methylaniline	Excess molar enthalpy (molar enthalpy of mixing), kJ/mol	uncertainty
.0397	-.2174	-.004348
.0728	-.3741	-.007482
.1263	-.5716	-.011432
.1742	-.7163	-.014326
.2163	-.8046	-.016092
.2681	-.8915	-.01783
.3192	-.9615	-.01923
.3707	-1.0021	-.020042
.4212	-1.0254	-.020508
.4826	-1.0329	-.020658
.5261	-1.0253	-.020506
.5815	-1.0066	-.020132
.6327	-.9633	-.019266
.7026	-.8931	-.017862
.7735	-.7828	-.015656
.8177	-.6899	-.013798
.8802	-.5159	-.010318
.9723	-.1446	-.002892

System: 2-methylaniline + 2-methylpyridine; phases: Liquid
Fixed: Pressure, kPa = 101
Property: Mass density, kg/m3 (Liquid); method: Vibrating tube method
Temperature, K	Mole fraction of 2-methylaniline	Mass density, kg/m3	uncertainty
298.15	.0588	944.871	.05
298.15	.1226	950.051	.05
298.15	.1427	951.609	.05
298.15	.1759	954.117	.05
298.15	.2258	957.721	.05
298.15	.2557	959.793	.05
298.15	.3113	963.447	.05
298.15	.3629	966.623	.05
298.15	.4213	969.995	.05
298.15	.4743	972.843	.05
298.15	.5146	974.899	.05
298.15	.5732	977.707	.05
298.15	.6182	979.733	.05
298.15	.6862	982.621	.05
298.15	.7571	985.441	.05
298.15	.8344	988.355	.05
298.15	.8737	989.787	.05
298.15	.9527	992.636	.05
303.15	.0588	940.204	.05
303.15	.1226	945.414	.05
303.15	.1427	946.996	.05
303.15	.1759	949.518	.05
303.15	.2258	953.161	.05
303.15	.2557	955.24	.05
303.15	.3113	958.931	.05
303.15	.3629	962.158	.05
303.15	.4213	965.568	.05
303.15	.4743	968.45	.05
303.15	.5146	970.527	.05
303.15	.5732	973.382	.05
303.15	.6182	975.431	.05
303.15	.6862	978.364	.05
303.15	.7571	981.219	.05
303.15	.8344	984.158	.05
303.15	.8737	985.611	.05
303.15	.9527	988.492	.05
308.15	.0588	935.521	.05
308.15	.1226	940.771	.05
308.15	.1427	942.357	.05
308.15	.1759	944.908	.05
308.15	.2258	948.573	.05
308.15	.2557	950.677	.05
308.15	.3113	954.409	.05
308.15	.3629	957.666	.05
308.15	.4213	961.112	.05
308.15	.4743	964.025	.05
308.15	.5146	966.122	.05
308.15	.5732	968.998	.05
308.15	.6182	971.079	.05
308.15	.6862	974.033	.05
308.15	.7571	976.909	.05
308.15	.8344	979.889	.05
308.15	.8737	981.361	.05
308.15	.9527	984.295	.05

System: 2-methylaniline + 2-methylpyridine; phases: Liquid
Fixed: Pressure, kPa = 101
Property: Excess molar volume, m3/mol (Liquid); method: Calculated with densities of this investigation
Temperature, K	Mole fraction of 2-methylaniline	Excess molar volume, m3/mol	uncertainty
298.15	.0588	-.0000001683	.000000001
298.15	.1226	-.0000003215	.000000001
298.15	.1427	-.0000003629	.000000001
298.15	.1759	-.0000004254	.000000001
298.15	.2258	-.0000005041	.000000001
298.15	.2557	-.0000005434	.000000001
298.15	.3113	-.0000005981	.000000001
298.15	.3629	-.0000006291	.000000001
298.15	.4213	-.0000006442	.000000001
298.15	.4743	-.0000006385	.000000001
298.15	.5146	-.0000006244	.000000001
298.15	.5732	-.0000005874	.000000001
298.15	.6182	-.0000005473	.000000001
298.15	.6862	-.0000004717	.000000001
298.15	.7571	-.0000003766	.000000001
298.15	.8344	-.0000002603	.000000001
298.15	.8737	-.0000001976	.000000001
298.15	.9527	-.0000000721	.000000001
303.15	.0588	-.0000001684	.000000001
303.15	.1226	-.0000003225	.000000001
303.15	.1427	-.0000003656	.000000001
303.15	.1759	-.0000004282	.000000001
303.15	.2258	-.0000005089	.000000001
303.15	.2557	-.0000005475	.000000001
303.15	.3113	-.0000006032	.000000001
303.15	.3629	-.0000006369	.000000001
303.15	.4213	-.0000006526	.000000001
303.15	.4743	-.0000006472	.000000001
303.15	.5146	-.0000006328	.000000001
303.15	.5732	-.0000005969	.000000001
303.15	.6182	-.0000005563	.000000001
303.15	.6862	-.0000004807	.000000001
303.15	.7571	-.0000003842	.000000001
303.15	.8344	-.0000002649	.000000001
303.15	.8737	-.0000002016	.000000001
303.15	.9527	-.0000000736	.000000001
308.15	.0588	-.0000001688	.000000001
308.15	.1226	-.0000003249	.000000001
308.15	.1427	-.0000003678	.000000001
308.15	.1759	-.0000004321	.000000001
308.15	.2258	-.0000005129	.000000001
308.15	.2557	-.0000005528	.000000001
308.15	.3113	-.0000006102	.000000001
308.15	.3629	-.0000006443	.000000001
308.15	.4213	-.0000006604	.000000001
308.15	.4743	-.0000006552	.000000001
308.15	.5146	-.0000006403	.000000001
308.15	.5732	-.0000006029	.000000001
308.15	.6182	-.0000005626	.000000001
308.15	.6862	-.0000004845	.000000001
308.15	.7571	-.0000003852	.000000001
308.15	.8344	-.0000002647	.000000001
308.15	.8737	-.0000002006	.000000001
308.15	.9527	-.0000000725	.000000001

System: 2-methylaniline + 2-methylpyridine; phases: Liquid
Fixed: Pressure, kPa = 101
Property: Speed of sound, m/s (Liquid); method: Sing-around technique in a fixed-path interferometer
Temperature, K	Mole fraction of 2-methylaniline	Speed of sound, m/s	uncertainty
298.15	.0588	1395.56	1
298.15	.1226	1412.03	1
298.15	.1427	1417.29	1
298.15	.1759	1425.77	1
298.15	.2258	1438.27	1
298.15	.2557	1445.73	1
298.15	.3113	1459.47	1
298.15	.3629	1471.84	1
298.15	.4213	1485.38	1
298.15	.4743	1497.54	1
298.15	.5146	1506.33	1
298.15	.5732	1519.09	1
298.15	.6182	1528.42	1
298.15	.6862	1542.24	1
298.15	.7571	1556.35	1
298.15	.8344	1571.07	1
298.15	.8737	1578.51	1
298.15	.9527	1593.47	1
303.15	.0588	1376.18	1
303.15	.1226	1392.48	1
303.15	.1427	1397.54	1
303.15	.1759	1405.85	1
303.15	.2258	1418.11	1
303.15	.2557	1425.39	1
303.15	.3113	1438.74	1
303.15	.3629	1450.78	1
303.15	.4213	1464.02	1
303.15	.4743	1475.72	1
303.15	.5146	1484.41	1
303.15	.5732	1496.75	1
303.15	.6182	1505.93	1
303.15	.6862	1519.4	1
303.15	.7571	1532.92	1
303.15	.8344	1547.42	1
303.15	.8737	1554.63	1
303.15	.9527	1569.11	1
308.15	.0588	1355.66	1
308.15	.1226	1372.33	1
308.15	.1427	1377.42	1
308.15	.1759	1385.82	1
308.15	.2258	1398.28	1
308.15	.2557	1405.57	1
308.15	.3113	1418.71	1
308.15	.3629	1430.77	1
308.15	.4213	1443.92	1
308.15	.4743	1455.39	1
308.15	.5146	1464.02	1
308.15	.5732	1476.22	1
308.15	.6182	1485.46	1
308.15	.6862	1498.84	1
308.15	.7571	1508.04	1
308.15	.8344	1522.47	1
308.15	.8737	1538.09	1
308.15	.9527	1555.07	1

System: 2-methylaniline + 2-methylpyridine; phases: Liquid
Fixed: Pressure, kPa = 101
Fixed: Temperature, K = 308.15
Property: Excess molar enthalpy (molar enthalpy of mixing), kJ/mol (Liquid); method: two-drop calorimeter
Mole fraction of 2-methylaniline	Excess molar enthalpy (molar enthalpy of mixing), kJ/mol	uncertainty
.0496	-.2851	-.005702
.0772	-.4304	-.008608
.1356	-.7252	-.014504
.1802	-.9211	-.018422
.2234	-1.0867	-.021734
.2736	-1.2462	-.024924
.3294	-1.3679	-.027358
.3813	-1.4517	-.029034
.4326	-1.5099	-.030198
.4882	-1.4976	-.029952
.5321	-1.469	-.02938
.5735	-1.4315	-.02863
.6423	-1.2834	-.025668
.7152	-1.0824	-.021648
.7821	-.8656	-.017312
.8293	-.6805	-.01361
.8916	-.437	-.00874
.9676	-.1247	-.002494

System: 2-methylaniline + 3-methylpyridine; phases: Liquid
Fixed: Pressure, kPa = 101
Property: Mass density, kg/m3 (Liquid); method: Vibrating tube method
Temperature, K	Mole fraction of 2-methylaniline	Mass density, kg/m3	uncertainty
298.15	.0447	955.059	.05
298.15	.1132	959.404	.05
298.15	.1771	963.134	.05
298.15	.2069	964.775	.05
298.15	.2467	966.875	.05
298.15	.2888	968.994	.05
298.15	.3112	970.081	.05
298.15	.3624	972.469	.05
298.15	.4182	974.916	.05
298.15	.4632	976.799	.05
298.15	.5336	979.577	.05
298.15	.5778	981.226	.05
298.15	.6334	983.223	.05
298.15	.6967	985.375	.05
298.15	.7372	986.701	.05
298.15	.8156	989.151	.05
298.15	.8842	991.171	.05
298.15	.9711	993.588	.05
303.15	.0447	950.551	.05
303.15	.1132	954.953	.05
303.15	.1771	958.721	.05
303.15	.2069	960.381	.05
303.15	.2467	962.502	.05
303.15	.2888	964.629	.05
303.15	.3112	965.722	.05
303.15	.3624	968.119	.05
303.15	.4182	970.586	.05
303.15	.4632	972.478	.05
303.15	.5336	975.273	.05
303.15	.5778	976.931	.05
303.15	.6334	978.936	.05
303.15	.6967	981.112	.05
303.15	.7372	982.449	.05
303.15	.8156	984.927	.05
303.15	.8842	986.982	.05
303.15	.9711	989.441	.05
308.15	.0447	945.98	.05
308.15	.1132	950.452	.05
308.15	.1771	954.262	.05
308.15	.2069	955.934	.05
308.15	.2467	958.079	.05
308.15	.2888	960.232	.05
308.15	.3112	961.335	.05
308.15	.3624	963.751	.05
308.15	.4182	966.234	.05
308.15	.4632	968.134	.05
308.15	.5336	970.94	.05
308.15	.5778	972.616	.05
308.15	.6334	974.642	.05
308.15	.6967	976.836	.05
308.15	.7372	978.187	.05
308.15	.8156	980.689	.05
308.15	.8842	982.772	.05
308.15	.9711	985.272	.05

System: 2-methylaniline + 3-methylpyridine; phases: Liquid
Fixed: Pressure, kPa = 101
Property: Excess molar volume, m3/mol (Liquid); method: Calculated with densities of this investigation
Temperature, K	Mole fraction of 2-methylaniline	Excess molar volume, m3/mol	uncertainty
298.15	.0447	-.0000001008	.000000001
298.15	.1132	-.0000002247	.000000001
298.15	.1771	-.0000003114	.000000001
298.15	.2069	-.0000003432	.000000001
298.15	.2467	-.0000003776	.000000001
298.15	.2888	-.0000004051	.000000001
298.15	.3112	-.0000004161	.000000001
298.15	.3624	-.0000004334	.000000001
298.15	.4182	-.0000004387	.000000001
298.15	.4632	-.0000004356	.000000001
298.15	.5336	-.0000004166	.000000001
298.15	.5778	-.0000003967	.000000001
298.15	.6334	-.0000003658	.000000001
298.15	.6967	-.0000003206	.000000001
298.15	.7372	-.0000002877	.000000001
298.15	.8156	-.0000002152	.000000001
298.15	.8842	-.0000001418	.000000001
298.15	.9711	-.0000000379	.000000001
303.15	.0447	-.0000001044	.000000001
303.15	.1132	-.0000002322	.000000001
303.15	.1771	-.0000003209	.000000001
303.15	.2069	-.0000003536	.000000001
303.15	.2467	-.0000003886	.000000001
303.15	.2888	-.0000004153	.000000001
303.15	.3112	-.0000004261	.000000001
303.15	.3624	-.0000004421	.000000001
303.15	.4182	-.000000447	.000000001
303.15	.4632	-.0000004428	.000000001
303.15	.5336	-.0000004222	.000000001
303.15	.5778	-.0000004011	.000000001
303.15	.6334	-.0000003682	.000000001
303.15	.6967	-.0000003223	.000000001
303.15	.7372	-.0000002886	.000000001
303.15	.8156	-.0000002148	.000000001
303.15	.8842	-.0000001414	.000000001
303.15	.9711	-.0000000373	.000000001
308.15	.0447	-.0000001081	.000000001
308.15	.1132	-.0000002411	.000000001
308.15	.1771	-.0000003318	.000000001
308.15	.2069	-.0000003646	.000000001
308.15	.2467	-.0000004005	.000000001
308.15	.2888	-.0000004281	.000000001
308.15	.3112	-.0000004389	.000000001
308.15	.3624	-.0000004545	.000000001
308.15	.4182	-.0000004584	.000000001
308.15	.4632	-.0000004527	.000000001
308.15	.5336	-.0000004296	.000000001
308.15	.5778	-.0000004081	.000000001
308.15	.6334	-.0000003744	.000000001
308.15	.6967	-.0000003269	.000000001
308.15	.7372	-.0000002924	.000000001
308.15	.8156	-.0000002166	.000000001
308.15	.8842	-.0000001423	.000000001
308.15	.9711	-.0000000375	.000000001

System: 2-methylaniline + 3-methylpyridine; phases: Liquid
Fixed: Pressure, kPa = 101
Property: Speed of sound, m/s (Liquid); method: Sing-around technique in a fixed-path interferometer
Temperature, K	Mole fraction of 2-methylaniline	Speed of sound, m/s	uncertainty
298.15	.0447	1432.98	1
298.15	.1132	1446.42	1
298.15	.1771	1458.59	1
298.15	.2069	1464.11	1
298.15	.2467	1471.52	1
298.15	.2888	1479.12	1
298.15	.3112	1483.11	1
298.15	.3624	1492.21	1
298.15	.4182	1502.03	1
298.15	.4632	1509.71	1
298.15	.5336	1521.67	1
298.15	.5778	1529.16	1
298.15	.6334	1538.58	1
298.15	.6967	1549.18	1
298.15	.7372	1556.03	1
298.15	.8156	1569.46	1
298.15	.8842	1581.45	1
298.15	.9711	1597.23	1
303.15	.0447	1412.98	1
303.15	.1132	1426.41	1
303.15	.1771	1438.83	1
303.15	.2069	1444.51	1
303.15	.2467	1451.94	1
303.15	.2888	1459.75	1
303.15	.3112	1463.92	1
303.15	.3624	1473.09	1
303.15	.4182	1482.97	1
303.15	.4632	1490.64	1
303.15	.5336	1502.6	1
303.15	.5778	1509.72	1
303.15	.6334	1518.75	1
303.15	.6967	1528.8	1
303.15	.7372	1535.13	1
303.15	.8156	1547.54	1
303.15	.8842	1558.44	1
303.15	.9711	1572.85	1
308.15	.0447	1393.26	1
308.15	.1132	1406.99	1
308.15	.1771	1419.45	1
308.15	.2069	1425.06	1
308.15	.2467	1432.51	1
308.15	.2888	1440.37	1
308.15	.3112	1444.31	1
308.15	.3624	1453.42	1
308.15	.4182	1463.21	1
308.15	.4632	1470.88	1
308.15	.5336	1482.71	1
308.15	.5778	1489.9	1
308.15	.6334	1499.03	1
308.15	.6967	1509.34	1
308.15	.7372	1515.79	1
308.15	.8156	1528.39	1
308.15	.8842	1539.52	1
308.15	.9711	1553.6	1

System: 2-methylaniline + 3-methylpyridine; phases: Liquid
Fixed: Pressure, kPa = 101
Fixed: Temperature, K = 308.15
Property: Excess molar enthalpy (molar enthalpy of mixing), kJ/mol (Liquid); method: two-drop calorimeter
Mole fraction of 2-methylaniline	Excess molar enthalpy (molar enthalpy of mixing), kJ/mol	uncertainty
.0503	-.3324	-.006648
.0843	-.5221	-.010442
.1425	-.8114	-.016228
.1901	-.9878	-.019756
.2323	-1.1196	-.022392
.2837	-1.2581	-.025162
.3334	-1.3436	-.026872
.3783	-1.3982	-.027964
.4436	-1.4102	-.028204
.4926	-1.4091	-.028182
.5487	-1.3495	-.02699
.5902	-1.3061	-.026122
.6643	-1.174	-.02348
.7182	-1.0361	-.020722
.7789	-.8735	-.01747
.8348	-.6805	-.01361
.8937	-.4608	-.009216

System: 2-methylaniline + 4-methylpyridine; phases: Liquid
Fixed: Pressure, kPa = 101
Property: Mass density, kg/m3 (Liquid); method: Vibrating tube method
Temperature, K	Mole fraction of 2-methylaniline	Mass density, kg/m3	uncertainty
298.15	.0525	953.707	.05
298.15	.1236	958.201	.05
298.15	.1357	958.939	.05
298.15	.1839	961.774	.05
298.15	.2328	964.507	.05
298.15	.2655	966.252	.05
298.15	.3023	968.154	.05
298.15	.3539	970.688	.05
298.15	.4133	973.431	.05
298.15	.4863	976.578	.05
298.15	.5256	978.183	.05
298.15	.5671	979.804	.05
298.15	.6272	982.039	.05
298.15	.6963	984.487	.05
298.15	.7674	986.874	.05
298.15	.8234	988.699	.05
298.15	.8657	990.061	.05
298.15	.9537	992.867	.05
303.15	.0525	949.033	.05
303.15	.1236	953.635	.05
303.15	.1357	954.384	.05
303.15	.1839	957.264	.05
303.15	.2328	960.045	.05
303.15	.2655	961.821	.05
303.15	.3023	963.746	.05
303.15	.3539	966.314	.05
303.15	.4133	969.1	.05
303.15	.4863	972.285	.05
303.15	.5256	973.912	.05
303.15	.5671	975.56	.05
303.15	.6272	977.832	.05
303.15	.6963	980.309	.05
303.15	.7674	982.738	.05
303.15	.8234	984.584	.05
303.15	.8657	985.955	.05
303.15	.9537	988.752	.05
308.15	.0525	944.539	.05
308.15	.1236	949.213	.05
308.15	.1357	949.974	.05
308.15	.1839	952.886	.05
308.15	.2328	955.673	.05
308.15	.2655	957.455	.05
308.15	.3023	959.382	.05
308.15	.3539	961.964	.05
308.15	.4133	964.753	.05
308.15	.4863	967.972	.05
308.15	.5256	969.611	.05
308.15	.5671	971.274	.05
308.15	.6272	973.587	.05
308.15	.6963	976.116	.05
308.15	.7674	978.601	.05
308.15	.8234	980.475	.05
308.15	.8657	981.851	.05
308.15	.9537	984.639	.05

System: 2-methylaniline + 4-methylpyridine; phases: Liquid
Fixed: Pressure, kPa = 101
Property: Excess molar volume, m3/mol (Liquid); method: Calculated with densities of this investigation
Temperature, K	Mole fraction of 2-methylaniline	Excess molar volume, m3/mol	uncertainty
298.15	.0525	-.0000001023	.000000001
298.15	.1236	-.0000002163	.000000001
298.15	.1357	-.0000002335	.000000001
298.15	.1839	-.0000002927	.000000001
298.15	.2328	-.0000003404	.000000001
298.15	.2655	-.000000365	.000000001
298.15	.3023	-.0000003876	.000000001
298.15	.3539	-.0000004078	.000000001
298.15	.4133	-.0000004159	.000000001
298.15	.4863	-.0000004068	.000000001
298.15	.5256	-.0000003945	.000000001
298.15	.5671	-.0000003751	.000000001
298.15	.6272	-.0000003376	.000000001
298.15	.6963	-.0000002851	.000000001
298.15	.7674	-.0000002209	.000000001
298.15	.8234	-.0000001669	.000000001
298.15	.8657	-.0000001259	.000000001
298.15	.9537	-.0000000414	.000000001
303.15	.0525	-.0000001093	.000000001
303.15	.1236	-.0000002309	.000000001
303.15	.1357	-.0000002485	.000000001
303.15	.1839	-.0000003097	.000000001
303.15	.2328	-.0000003595	.000000001
303.15	.2655	-.0000003854	.000000001
303.15	.3023	-.0000004081	.000000001
303.15	.3539	-.0000004285	.000000001
303.15	.4133	-.0000004372	.000000001
303.15	.4863	-.0000004271	.000000001
303.15	.5256	-.0000004143	.000000001
303.15	.5671	-.0000003948	.000000001
303.15	.6272	-.0000003569	.000000001
303.15	.6963	-.0000003025	.000000001
303.15	.7674	-.0000002374	.000000001
303.15	.8234	-.0000001815	.000000001
303.15	.8657	-.0000001382	.000000001
303.15	.9537	-.0000000462	.000000001
308.15	.0525	-.0000001182	.000000001
308.15	.1236	-.0000002451	.000000001
308.15	.1357	-.0000002637	.000000001
308.15	.1839	-.0000003265	.000000001
308.15	.2328	-.0000003751	.000000001
308.15	.2655	-.0000004004	.000000001
308.15	.3023	-.0000004218	.000000001
308.15	.3539	-.0000004414	.000000001
308.15	.4133	-.0000004477	.000000001
308.15	.4863	-.0000004378	.000000001
308.15	.5256	-.0000004243	.000000001
308.15	.5671	-.0000004043	.000000001
308.15	.6272	-.0000003677	.000000001
308.15	.6963	-.0000003151	.000000001
308.15	.7674	-.0000002521	.000000001
308.15	.8234	-.0000001962	.000000001
308.15	.8657	-.0000001511	.000000001
308.15	.9537	-.0000000534	.000000001

System: 2-methylaniline + 4-methylpyridine; phases: Liquid
Fixed: Pressure, kPa = 101
Property: Speed of sound, m/s (Liquid); method: Sing-around technique in a fixed-path interferometer
Temperature, K	Mole fraction of 2-methylaniline	Speed of sound, m/s	uncertainty
298.15	.0525	1440.47	1
298.15	.1236	1452.63	1
298.15	.1357	1454.76	1
298.15	.1839	1463.07	1
298.15	.2328	1471.42	1
298.15	.2655	1477.06	1
298.15	.3023	1483.43	1
298.15	.3539	1492.21	1
298.15	.4133	1502.38	1
298.15	.4863	1514.71	1
298.15	.5256	1521.3	1
298.15	.5671	1528.18	1
298.15	.6272	1538.27	1
298.15	.6963	1549.77	1
298.15	.7674	1561.7	1
298.15	.8234	1571.19	1
298.15	.8657	1578.4	1
298.15	.9537	1594.01	1
303.15	.0525	1419.49	1
303.15	.1236	1431.8	1
303.15	.1357	1433.88	1
303.15	.1839	1442.48	1
303.15	.2328	1451.15	1
303.15	.2655	1457.05	1
303.15	.3023	1463.54	1
303.15	.3539	1472.66	1
303.15	.4133	1482.95	1
303.15	.4863	1495.46	1
303.15	.5256	1501.91	1
303.15	.5671	1508.74	1
303.15	.6272	1518.44	1
303.15	.6963	1529.17	1
303.15	.7674	1540.2	1
303.15	.8234	1548.77	1
303.15	.8657	1555.38	1
303.15	.9537	1569.8	1
308.15	.0525	1399.3	1
308.15	.1236	1412.25	1
308.15	.1357	1414.39	1
308.15	.1839	1423.22	1
308.15	.2328	1432.14	1
308.15	.2655	1438.07	1
308.15	.3023	1444.65	1
308.15	.3539	1453.88	1
308.15	.4133	1464.36	1
308.15	.4863	1476.8	1
308.15	.5256	1483.19	1
308.15	.5671	1490.05	1
308.15	.6272	1499.66	1
308.15	.6963	1510.43	1
308.15	.7674	1521.35	1
308.15	.8234	1529.96	1
308.15	.8657	1536.57	1
308.15	.9537	1550.6	1

System: 2-methylaniline + 4-methylpyridine; phases: Liquid
Fixed: Pressure, kPa = 101
Fixed: Temperature, K = 308.15
Property: Excess molar enthalpy (molar enthalpy of mixing), kJ/mol (Liquid); method: Other
Mole fraction of 2-methylaniline	Excess molar enthalpy (molar enthalpy of mixing), kJ/mol	uncertainty
.0426	-.2441	-.004882
.0815	-.4442	-.008884
.1339	-.6958	-.013916
.1824	-.8847	-.017694
.2243	-1.0299	-.020598
.2715	-1.1791	-.023582
.3196	-1.276	-.02552
.3825	-1.3884	-.027768
.4238	-1.4251	-.028502
.4783	-1.4295	-.02859
.5362	-1.4159	-.028318
.5915	-1.3452	-.026904
.6426	-1.2669	-.025338
.7121	-1.0918	-.021836
.7827	-.8885	-.01777
.8211	-.7456	-.014912
.8916	-.4779	-.009558
.9672	-.1509	-.003018
