Measured thermophysical data. Thermodynamics of (ketone + amine) mixtures. Part VI. Volumetric and speed of sound data at (293.15, 298.15, and 303.15) K for (2-heptanone + dipropylamine,  +dibutylamine, or +triethylamine) systems
Source: J. Chem. Thermodyn., 2011, 10.1016/j.jct.2011.05.003
Compound 1: 2-heptanone, C7H14O, purity 99%
Compound 2: dipropylamine, C6H15N, purity 99%
Compound 3: N-butylbutanamine, C8H19N, purity 99.5%
Compound 4: N,N-diethylethanamine, C6H15N, purity 99.5%

System: 2-heptanone; phases: Liquid
Fixed: Pressure, kPa = 101.325
Property: Mass density, kg/m3 (Liquid); method: Vibrating tube method
Temperature, K	Mass density, kg/m3	uncertainty
293.15	815.433	.01
298.15	811.139	.01
303.15	806.827	.01

System: 2-heptanone; phases: Liquid
Fixed: Pressure, kPa = 101.325
Property: Speed of sound, m/s (Liquid); method: Sing-around technique in a fixed-path interferometer
Temperature, K	Speed of sound, m/s	uncertainty
293.15	1281.92	.1
298.15	1262.49	.1
303.15	1244.14	.1

System: dipropylamine; phases: Liquid
Fixed: Pressure, kPa = 101.325
Property: Mass density, kg/m3 (Liquid); method: Vibrating tube method
Temperature, K	Mass density, kg/m3	uncertainty
293.15	738.259	.01
298.15	733.81	.01

System: dipropylamine; phases: Liquid
Fixed: Pressure, kPa = 101.325
Property: Speed of sound, m/s (Liquid); method: Sing-around technique in a fixed-path interferometer
Temperature, K	Speed of sound, m/s	uncertainty
293.15	1209.38	.1
298.15	1188	.1
303.15	1167.57	.1

System: N-butylbutanamine; phases: Liquid
Fixed: Pressure, kPa = 101.325
Property: Mass density, kg/m3 (Liquid); method: Vibrating tube method
Temperature, K	Mass density, kg/m3	uncertainty
293.15	759.529	.01
298.15	755.577	.01
303.15	751.407	.01

System: N-butylbutanamine; phases: Liquid
Fixed: Pressure, kPa = 101.325
Property: Speed of sound, m/s (Liquid); method: Sing-around technique in a fixed-path interferometer
Temperature, K	Speed of sound, m/s	uncertainty
293.15	1261.23	.1
298.15	1241.38	.1
303.15	1222.21	.1

System: N,N-diethylethanamine; phases: Liquid
Fixed: Pressure, kPa = 101.325
Property: Mass density, kg/m3 (Liquid); method: Vibrating tube method
Temperature, K	Mass density, kg/m3	uncertainty
293.15	727.333	.01
298.15	722.729	.01
303.15	718.092	.01

System: N,N-diethylethanamine; phases: Liquid
Fixed: Pressure, kPa = 101.325
Property: Speed of sound, m/s (Liquid); method: Sing-around technique in a fixed-path interferometer
Temperature, K	Speed of sound, m/s	uncertainty
293.15	1132.47	.1
298.15	1110.9	.1
303.15	1090.65	.1

System: 2-heptanone + dipropylamine; phases: Liquid
Fixed: Pressure, kPa = 101.3
Property: Mass density, kg/m3 (Liquid); method: Vibrating tube method
Temperature, K	Mole fraction of 2-heptanone	Mass density, kg/m3	uncertainty
293.15	.0603	743.175	.01
293.15	.1045	746.717	.01
293.15	.1559	750.817	.01
293.15	.2013	754.413	.01
293.15	.2526	758.468	.01
293.15	.2936	761.7	.01
293.15	.3492	766.042	.01
293.15	.4579	774.494	.01
293.15	.493	777.204	.01
298.15	.0521	738.054	.01
298.15	.1048	742.273	.01
298.15	.1557	746.324	.01
298.15	.2	749.853	.01
298.15	.2526	754.005	.01
298.15	.2962	757.449	.01
298.15	.3436	761.173	.01
298.15	.385	764.422	.01
298.15	.4478	769.307	.01
303.15	.0578	733.883	.01
303.15	.1054	737.733	.01
303.15	.1579	741.943	.01
303.15	.2005	745.356	.01
303.15	.2497	749.277	.01
303.15	.2951	752.865	.01
303.15	.3476	756.998	.01
303.15	.3856	759.993	.01
303.15	.4504	765.062	.01
293.15	.5494	781.554	.01
293.15	.5894	784.624	.01
293.15	.6478	789.087	.01
293.15	.6896	792.266	.01
293.15	.7615	797.717	.01
293.15	.8025	800.833	.01
293.15	.8139	801.69	.01
293.15	.8993	808.079	.01
293.15	.948	811.684	.01
298.15	.5427	776.662	.01
298.15	.6003	781.222	.01
298.15	.6436	784.41	.01
298.15	.69	787.95	.01
298.15	.7418	791.892	.01
298.15	.8061	796.768	.01
298.15	.8548	800.432	.01
298.15	.8993	803.773	.01
298.15	.9528	807.724	.01
303.15	.5442	772.346	.01
303.15	.5891	775.815	.01
303.15	.642	779.872	.01
303.15	.687	783.319	.01
303.15	.7413	787.465	.01
303.15	.7994	791.897	.01
303.15	.8564	796.191	.01
303.15	.8993	799.423	.01
303.15	.9497	803.188	.01

System: 2-heptanone + dipropylamine; phases: Liquid
Fixed: Pressure, kPa = 101
Property: Speed of sound, m/s (Liquid); method: Sing-around technique in a fixed-path interferometer
Temperature, K	Mole fraction of 2-heptanone	Speed of sound, m/s	uncertainty
293.15	.0603	1213.92	.1
293.15	.1045	1217.16	.1
293.15	.1559	1220.98	.1
293.15	.2013	1224.34	.1
293.15	.2526	1228.07	.1
293.15	.2936	1231.1	.1
293.15	.3492	1235.18	.1
293.15	.4579	1243	.1
293.15	.493	1245.63	.1
293.15	.5494	1249.63	.1
293.15	.5894	1252.58	.1
293.15	.6478	1256.87	.1
293.15	.6896	1259.89	.1
293.15	.7615	1265.06	.1
293.15	.8025	1267.98	.1
293.15	.8139	1268.79	.1
293.15	.8993	1274.99	.1
293.15	.948	1278.43	.1
298.15	.0521	1191.83	.1
298.15	.1048	1195.99	.1
298.15	.1557	1199.81	.1
298.15	.2	1203.17	.1
298.15	.2526	1207.08	.1
298.15	.2962	1210.38	.1
298.15	.3436	1213.91	.1
298.15	.385	1217.04	.1
298.15	.4478	1221.7	.1
298.15	.5427	1228.84	.1
298.15	.6436	1236.36	.1
298.15	.69	1239.82	.1
298.15	.7418	1243.63	.1
298.15	.8061	1248.48	.1
298.15	.8548	1251.96	.1
298.15	.8993	1255.34	.1
298.15	.9528	1259.09	.1
303.15	.0578	1172.14	.1
303.15	.1054	1175.85	.1
303.15	.1579	1179.93	.1
303.15	.2005	1183.24	.1
303.15	.2497	1187.1	.1
303.15	.2951	1190.6	.1
303.15	.3476	1194.66	.1
303.15	.3856	1197.65	.1
303.15	.4504	1202.61	.1
303.15	.5442	1209.82	.1
303.15	.5891	1213.37	.1
303.15	.642	1217.32	.1
303.15	.687	1220.79	.1
303.15	.7413	1224.95	.1
303.15	.7994	1229.37	.1
303.15	.8564	1233.66	.1
303.15	.8993	1236.92	.1
303.15	.9497	1239.96	.1

System: 2-heptanone + dipropylamine; phases: Liquid
Fixed: Pressure, kPa = 101
Property: Excess molar volume, m3/mol (Liquid); method: Calculated with densities of this investigation
Temperature, K	Mole fraction of 2-heptanone	Excess molar volume, m3/mol	uncertainty
293.15	.0603	-.00000003	-.00000000015
293.15	.1045	-.0000000419	-.0000000002095
293.15	.1559	-.0000000546	-.000000000273
293.15	.2013	-.000000063	-.000000000315
293.15	.2526	-.000000071	-.000000000355
293.15	.2936	-.0000000775	-.0000000003875
293.15	.3492	-.0000000809	-.0000000004045
293.15	.4579	-.0000000838	-.000000000419
293.15	.493	-.0000000833	-.0000000004165
293.15	.5494	-.0000000822	-.000000000411
293.15	.5894	-.0000000798	-.000000000399
293.15	.6478	-.0000000772	-.000000000386
293.15	.6896	-.0000000727	-.0000000003635
293.15	.7615	-.0000000647	-.0000000003235
293.15	.8025	-.0000000584	-.000000000292
293.15	.8139	-.0000000561	-.0000000002805
293.15	.8993	-.0000000423	-.0000000002115
293.15	.948	-.000000028	-.00000000014
298.15	.0521	-.0000000215	-.0000000001075
298.15	.1048	-.0000000389	-.0000000001945
298.15	.1557	-.0000000498	-.000000000249
298.15	.2	-.0000000596	-.000000000298
298.15	.2526	-.0000000664	-.000000000332
298.15	.2962	-.0000000741	-.0000000003705
298.15	.3436	-.0000000798	-.000000000399
298.15	.385	-.0000000846	-.000000000423
298.15	.4478	-.0000000868	-.000000000434
298.15	.5427	-.0000000877	-.0000000004385
298.15	.6003	-.0000000858	-.000000000429
298.15	.6436	-.0000000832	-.000000000416
298.15	.69	-.0000000787	-.0000000003935
298.15	.7418	-.0000000732	-.000000000366
298.15	.8061	-.0000000658	-.000000000329
298.15	.8548	-.0000000574	-.000000000287
298.15	.8993	-.0000000486	-.000000000243
298.15	.9528	-.0000000291	-.0000000001455
303.15	.0578	-.0000000273	-.0000000001365
303.15	.1054	-.0000000441	-.0000000002205
303.15	.1579	-.0000000581	-.0000000002905
303.15	.2005	-.0000000693	-.0000000003465
303.15	.2497	-.0000000798	-.000000000399
303.15	.2951	-.0000000855	-.0000000004275
303.15	.3476	-.0000000905	-.0000000004525
303.15	.3856	-.0000000955	-.0000000004775
303.15	.4504	-.0000000975	-.0000000004875
303.15	.5442	-.0000000973	-.0000000004865
303.15	.5891	-.0000000956	-.000000000478
303.15	.642	-.0000000897	-.0000000004485
303.15	.687	-.0000000841	-.0000000004205
303.15	.7413	-.0000000781	-.0000000003905
303.15	.7994	-.0000000707	-.0000000003535
303.15	.8564	-.0000000572	-.000000000286
303.15	.8993	-.0000000488	-.000000000244
303.15	.9497	-.0000000328	-.000000000164

System: 2-heptanone + N-butylbutanamine; phases: Liquid
Fixed: Pressure, kPa = 101.3
Property: Mass density, kg/m3 (Liquid); method: Vibrating tube method
Temperature, K	Mole fraction of 2-heptanone	Mass density, kg/m3	uncertainty
293.15	.064	762.405	.01
293.15	.1633	767.21	.01
293.15	.2061	769.239	.01
293.15	.2606	772.046	.01
293.15	.4493	781.952	.01
298.15	.0624	758.343	.01
298.15	.1107	760.603	.01
298.15	.2097	765.511	.01
298.15	.3613	773.119	.01
298.15	.4049	775.426	.01
298.15	.4499	777.849	.01
303.15	.1122	756.507	.01
303.15	.1605	758.79	.01
303.15	.2587	763.614	.01
303.15	.3597	768.787	.01
303.15	.4096	771.421	.01
303.15	.4986	776.259	.01
293.15	.5094	785.255	.01
293.15	.644	792.949	.01
293.15	.7511	799.387	.01
293.15	.9018	808.899	.01
298.15	.5496	783.354	.01
298.15	.6482	789.026	.01
298.15	.7509	795.166	.01
298.15	.7987	798.112	.01
298.15	.8986	804.449	.01
298.15	.9488	807.773	.01
303.15	.6478	784.736	.01
303.15	.747	790.673	.01
303.15	.7997	793.928	.01
303.15	.852	797.226	.01
303.15	.8984	800.193	.01

System: 2-heptanone + N-butylbutanamine; phases: Liquid
Fixed: Pressure, kPa = 101
Property: Speed of sound, m/s (Liquid); method: Sing-around technique in a fixed-path interferometer
Temperature, K	Mole fraction of 2-heptanone	Speed of sound, m/s	uncertainty
293.15	.064	1261.7	.1
293.15	.1633	1262.99	.1
293.15	.2061	1263.42	.1
293.15	.2606	1264.49	.1
293.15	.4493	1267.85	.1
293.15	.5094	1269.08	.1
293.15	.644	1272.07	.1
293.15	.7511	1274.73	.1
293.15	.9018	1278.8	.1
298.15	.0624	1241.68	.1
298.15	.1107	1242.21	.1
298.15	.2097	1243.84	.1
298.15	.3613	1246.27	.1
298.15	.4049	1247.12	.1
298.15	.4499	1248.03	.1
298.15	.5496	1250.18	.1
298.15	.6482	1252.46	.1
298.15	.7509	1255.09	.1
298.15	.7987	1256.41	.1
298.15	.8986	1259.29	.1
298.15	.9488	1260.98	.1
303.15	.1122	1223.27	.1
303.15	.1605	1223.89	.1
303.15	.2587	1225.34	.1
303.15	.3597	1227.23	.1
303.15	.4096	1228.21	.1
303.15	.4986	1230.13	.1
303.15	.6478	1233.67	.1
303.15	.747	1236.32	.1
303.15	.7997	1237.86	.1
303.15	.852	1239.39	.1
303.15	.8984	1240.8	.1

System: 2-heptanone + N-butylbutanamine; phases: Liquid
Fixed: Pressure, kPa = 101
Property: Excess molar volume, m3/mol (Liquid); method: Calculated with densities of this investigation
Temperature, K	Mole fraction of 2-heptanone	Excess molar volume, m3/mol	uncertainty
293.15	.064	.0000000104	.000000000052
293.15	.1633	.0000000175	.0000000000875
293.15	.2061	.0000000176	.000000000088
293.15	.2606	.0000000164	.000000000082
293.15	.4493	.0000000102	.000000000051
293.15	.5094	.0000000089	.0000000000445
293.15	.644	.0000000042	.000000000021
293.15	.7511	-.0000000011	-.0000000000055
293.15	.9018	-.0000000012	-.000000000006
298.15	.0624	.0000000202	.000000000101
298.15	.1107	.0000000241	.0000000001205
298.15	.2097	.0000000253	.0000000001265
298.15	.3613	.0000000168	.000000000084
298.15	.4049	.0000000141	.0000000000705
298.15	.4499	.0000000114	.000000000057
298.15	.5496	.0000000076	.000000000038
298.15	.6482	.0000000024	.000000000012
298.15	.7509	-.0000000011	-.0000000000055
298.15	.7987	-.0000000034	-.000000000017
298.15	.8986	-.0000000038	-.000000000019
298.15	.9488	-.0000000019	-.0000000000095
303.15	.1122	.0000000268	.000000000134
303.15	.1605	.0000000324	.000000000162
303.15	.2587	.0000000329	.0000000001645
303.15	.3597	.0000000273	.0000000001365
303.15	.4096	.000000024	.00000000012
303.15	.4986	.0000000158	.000000000079
303.15	.6478	.0000000049	.0000000000245
303.15	.747	-.0000000053	-.0000000000265
303.15	.7997	-.0000000105	-.0000000000525
303.15	.852	-.000000015	-.000000000075
303.15	.8984	-.0000000163	-.0000000000815

System: 2-heptanone + N,N-diethylethanamine; phases: Liquid
Fixed: Pressure, kPa = 101.3
Property: Mass density, kg/m3 (Liquid); method: Vibrating tube method
Temperature, K	Mole fraction of 2-heptanone	Mass density, kg/m3	uncertainty
293.15	.0636	733.182	.01
293.15	.1061	737.185	.01
293.15	.1585	741.934	.01
293.15	.2077	746.426	.01
293.15	.2536	750.6	.01
293.15	.3091	755.621	.01
293.15	.3614	760.322	.01
293.15	.4043	764.18	.01
293.15	.4621	769.325	.01
293.15	.5022	772.887	.01
298.15	.0574	727.994	.01
298.15	.105	732.47	.01
298.15	.1619	737.667	.01
298.15	.2068	741.77	.01
298.15	.2598	746.582	.01
298.15	.3075	750.925	.01
298.15	.3578	755.443	.01
298.15	.4081	759.984	.01
298.15	.4548	764.166	.01
298.15	.5032	768.476	.01
303.15	.0612	723.838	.01
303.15	.1056	727.95	.01
303.15	.1602	732.935	.01
303.15	.2068	737.166	.01
303.15	.2606	742.09	.01
303.15	.3086	746.453	.01
303.15	.3583	750.968	.01
303.15	.4082	755.492	.01
303.15	.4553	759.737	.01
293.15	.5577	777.79	.01
293.15	.6078	782.199	.01
293.15	.6604	786.734	.01
293.15	.7001	790.167	.01
293.15	.749	794.387	.01
293.15	.7968	798.46	.01
293.15	.8517	803.051	.01
293.15	.9008	807.18	.01
293.15	.9507	811.366	.01
298.15	.5545	773.017	.01
298.15	.6103	777.928	.01
298.15	.6579	782.088	.01
298.15	.6994	785.697	.01
298.15	.7484	789.941	.01
298.15	.8031	794.633	.01
298.15	.8576	799.228	.01
298.15	.9014	802.909	.01
298.15	.9462	806.662	.01
303.15	.5042	764.098	.01
303.15	.5983	772.43	.01
303.15	.6536	777.279	.01
303.15	.7031	781.622	.01
303.15	.7452	785.267	.01
303.15	.8088	790.717	.01
303.15	.8489	794.102	.01
303.15	.9007	798.491	.01
303.15	.9503	802.71	.01

System: 2-heptanone + N,N-diethylethanamine; phases: Liquid
Fixed: Pressure, kPa = 101
Property: Speed of sound, m/s (Liquid); method: Sing-around technique in a fixed-path interferometer
Temperature, K	Mole fraction of 2-heptanone	Speed of sound, m/s	uncertainty
293.15	.0636	1141.82	.1
293.15	.1061	1148.36	.1
293.15	.1585	1156.04	.1
293.15	.2077	1163.48	.1
293.15	.2536	1170.37	.1
293.15	.3091	1178.72	.1
293.15	.3614	1186.62	.1
293.15	.4043	1193.12	.1
293.15	.4621	1201.88	.1
293.15	.5022	1207.95	.1
293.15	.5577	1216.29	.1
293.15	.6078	1223.91	.1
293.15	.6604	1231.78	.1
293.15	.7001	1237.75	.1
293.15	.749	1245.02	.1
293.15	.7968	1252.12	.1
293.15	.8517	1260.17	.1
293.15	.9008	1267.35	.1
293.15	.9507	1274.72	.1
298.15	.0574	1119.42	.1
298.15	.105	1126.78	.1
298.15	.1619	1135.49	.1
298.15	.2068	1142.09	.1
298.15	.2598	1150.17	.1
298.15	.3075	1157.5	.1
298.15	.3578	1165.15	.1
298.15	.4081	1172.91	.1
298.15	.5545	1195.38	.1
298.15	.6103	1203.98	.1
298.15	.6579	1211.26	.1
298.15	.6994	1217.6	.1
298.15	.7484	1225.06	.1
298.15	.8031	1233.32	.1
298.15	.8576	1241.45	.1
298.15	.9014	1247.94	.1
298.15	.4548	1180.07	.1
298.15	.5032	1187.47	.1
298.15	.9462	1254.58	.1
303.15	.0612	1100.07	.1
303.15	.1056	1106.84	.1
303.15	.1602	1115.12	.1
303.15	.2068	1122.19	.1
303.15	.2606	1130.5	.1
303.15	.3086	1137.9	.1
303.15	.3583	1145.66	.1
303.15	.4082	1153.49	.1
303.15	.4553	1160.83	.1
303.15	.5042	1168.43	.1
303.15	.5983	1183.08	.1
303.15	.6536	1191.63	.1
303.15	.7031	1199.29	.1
303.15	.7452	1205.85	.1
303.15	.8088	1215.49	.1
303.15	.8489	1221.55	.1
303.15	.9007	1229.24	.1
303.15	.9503	1235.84	.1

System: 2-heptanone + N,N-diethylethanamine; phases: Liquid
Fixed: Pressure, kPa = 101
Property: Excess molar volume, m3/mol (Liquid); method: Calculated with densities of this investigation
Temperature, K	Mole fraction of 2-heptanone	Excess molar volume, m3/mol	uncertainty
293.15	.0636	-.0000000409	-.0000000002045
293.15	.1061	-.0000000854	-.000000000427
293.15	.1585	-.0000001064	-.000000000532
293.15	.2077	-.0000001321	-.0000000006605
293.15	.2536	-.0000001524	-.000000000762
293.15	.3091	-.0000001737	-.0000000008685
293.15	.3614	-.0000001884	-.000000000942
293.15	.4043	-.0000001998	-.000000000999
293.15	.4621	-.0000002087	-.0000000010435
293.15	.5022	-.0000002127	-.0000000010635
293.15	.5577	-.0000002146	-.000000001073
293.15	.6078	-.0000002128	-.000000001064
293.15	.6604	-.000000197	-.000000000985
293.15	.7001	-.0000001863	-.0000000009315
293.15	.749	-.0000001714	-.000000000857
293.15	.7968	-.0000001486	-.000000000743
293.15	.8517	-.0000001093	-.0000000005465
293.15	.9008	-.0000000782	-.000000000391
293.15	.9507	-.0000000469	-.0000000002345
298.15	.0574	-.0000000322	-.000000000161
298.15	.105	-.0000000798	-.000000000399
298.15	.1619	-.000000107	-.000000000535
298.15	.2068	-.0000001296	-.000000000648
298.15	.2598	-.0000001495	-.0000000007475
298.15	.3075	-.0000001704	-.000000000852
298.15	.3578	-.0000001821	-.0000000009105
298.15	.4081	-.0000001963	-.0000000009815
298.15	.5545	-.0000002093	-.0000000010465
298.15	.6103	-.0000002057	-.0000000010285
298.15	.6579	-.0000001967	-.0000000009835
298.15	.6994	-.0000001874	-.000000000937
298.15	.7484	-.0000001728	-.000000000864
298.15	.8031	-.0000001495	-.0000000007475
298.15	.8576	-.0000001113	-.0000000005565
298.15	.9014	-.000000081	-.000000000405
298.15	.4548	-.0000002045	-.0000000010225
298.15	.5032	-.0000002092	-.000000001046
298.15	.9462	-.0000000471	-.0000000002355
303.15	.0612	-.0000000563	-.0000000002815
303.15	.1056	-.0000000878	-.000000000439
303.15	.1602	-.0000001094	-.000000000547
303.15	.2068	-.0000001263	-.0000000006315
303.15	.2606	-.0000001511	-.0000000007555
303.15	.3086	-.000000168	-.00000000084
303.15	.3583	-.000000186	-.00000000093
303.15	.4082	-.0000002016	-.000000001008
303.15	.4553	-.0000002119	-.0000000010595
303.15	.5042	-.0000002144	-.000000001072
303.15	.5983	-.0000002087	-.0000000010435
303.15	.6536	-.0000001984	-.000000000992
303.15	.7031	-.0000001886	-.000000000943
303.15	.7452	-.0000001727	-.0000000008635
303.15	.8088	-.000000139	-.000000000695
303.15	.8489	-.0000001097	-.0000000005485
303.15	.9007	-.0000000738	-.000000000369
303.15	.9503	-.0000000444	-.000000000222
