Measured thermophysical data. A comparative study of the volumetric properties of dilute aqueous  solutions of 1-propanol, 1,2-propanediol, 1,3-propanediol, and 1,2,3-propanetriol at various temperatures
Source: J. Chem. Thermodyn., 2008, 10.1016/j.jct.2008.07.005
Compound 1: 1-propanol, C3H8O, purity 99.5%
Compound 2: 1,2-propanediol, C3H8O2, purity 99.5%
Compound 3: 1,3-propanediol, C3H8O2, purity 99%
Compound 4: glycerol, C3H8O3, purity 99%
Compound 5: water, H2O

System: 1-propanol; phases: Liquid
Fixed: Pressure, kPa = 101.325
Property: Mass density, kg/m3 (Liquid); method: Pycnometric method
Temperature, K	Mass density, kg/m3	uncertainty
283.15	811.34	.05
288.15	807.51	.05
293.15	803.65	.05
298.15	799.67	.05
303.15	795.95	.05
308.15	791.57	.05

System: 1,2-propanediol; phases: Liquid
Fixed: Pressure, kPa = 101.325
Property: Mass density, kg/m3 (Liquid); method: Pycnometric method
Temperature, K	Mass density, kg/m3	uncertainty
283.15	1043.32	.05
288.15	1040.45	.05
293.15	1036.15	.05
298.15	1032.71	.05
303.15	1029.62	.05
308.15	1025.13	.05

System: 1,3-propanediol; phases: Liquid
Fixed: Pressure, kPa = 101.325
Property: Mass density, kg/m3 (Liquid); method: Pycnometric method
Temperature, K	Mass density, kg/m3	uncertainty
283.15	1056.92	.05
288.15	1055.67	.05
293.15	1053.64	.05
298.15	1050.37	.05
303.15	1047.58	.05
308.15	1044.25	.05

System: glycerol; phases: Liquid
Fixed: Pressure, kPa = 101.325
Property: Mass density, kg/m3 (Liquid); method: Pycnometric method
Temperature, K	Mass density, kg/m3	uncertainty
283.15	1266.31	.05
288.15	1264.39	.05
293.15	1262.53	.05
298.15	1258.73	.05
303.15	1254.9	.05
308.15	1252.65	.05

System: water; phases: Liquid
Property: Mass density, kg/m3 (Liquid); method: Pycnometric method
Temperature, K	Pressure, kPa	Mass density, kg/m3	uncertainty
283.15	98.93	999.69	.05
288.15	98.93	999.1	.05
293.15	98.93	998.21	.05
298.15	98.93	997.04	.05
303.15	98.93	995.65	.05
308.15	98.93	994.03	.05
283.15	98.93	999.7	.05
293.15	98.93	998.2	.05
298.15	98.93	997.05	.05

System: 1-propanol + water; phases: Liquid
Fixed: Pressure, kPa = 98.93
Property: Mass density, kg/m3 (Liquid); method: Pycnometric method
Temperature, K	Mole fraction of 1-propanol	Mass density, kg/m3	uncertainty
283.15	0	999.69	.05
283.15	.002	998.53	.05
283.15	.005	996.91	.05
283.15	.009	994.87	.05
283.15	.01	994.38	.05
283.15	.02	989.99	.05
283.15	.03	986.29	.05
283.15	.05	979.96	.05
283.15	.065	975.01	.05
283.15	.08	969.18	.05
283.15	.1	960.42	.05
283.15	.13	947.97	.05
283.15	.15	940.47	.05
283.15	.17	933.5	.05
283.15	.1856	928.41	.05
283.15	.2	923.98	.05
288.15	0	999.1	.05
288.15	.002	997.69	.05
288.15	.005	996.06	.05
288.15	.009	994	.05
288.15	.01	993.49	.05
288.15	.02	988.99	.05
288.15	.03	985.17	.05
288.15	.05	978.27	.05
288.15	.065	972.88	.05
288.15	.08	966.99	.05
288.15	.1	958.48	.05
288.15	.13	946	.05
288.15	.15	938.48	.05
288.15	.17	931.45	.05
288.15	.1856	926.35	.05
288.15	.2	921.89	.05
293.15	0	998.21	.05
293.15	.002	996.58	.05
293.15	.005	994.95	.05
293.15	.009	992.87	.05
293.15	.01	992.36	.05
293.15	.02	987.82	.05
293.15	.03	983.91	.05
293.15	.05	977.1	.05
293.15	.065	971.86	.05
293.15	.08	965.87	.05
293.15	.1	957.26	.05
293.15	.13	944.52	.05
293.15	.15	936.78	.05
293.15	.17	929.49	.05
293.15	.1856	924.19	.05
293.15	.2	919.56	.05
298.15	0	997.04	.05
298.15	.002	995.4	.05
298.15	.005	993.76	.05
298.15	.009	991.66	.05
298.15	.01	991.14	.05
298.15	.02	986.54	.05
298.15	.03	982.56	.05
298.15	.05	975.49	.05
298.15	.065	969.94	.05
298.15	.08	963.72	.05
298.15	.1	954.91	.05
298.15	.13	941.96	.05
298.15	.15	934.12	.05
298.15	.17	926.68	.05
298.15	.1856	921.23	.05
298.15	.2	916.46	.05
303.15	0	995.65	.05
303.15	.002	994.2	.05
303.15	.005	992.54	.05
303.15	.009	990.43	.05
303.15	.01	989.92	.05
303.15	.02	985.27	.05
303.15	.03	981.2	.05
303.15	.05	973.96	.05
303.15	.065	968.38	.05
303.15	.08	961.92	.05
303.15	.1	952.93	.05
303.15	.13	939.8	.05
303.15	.15	931.81	.05
303.15	.17	924.32	.05
303.15	.1856	918.84	.05
303.15	.2	914.04	.05
308.15	0	994.03	.05
308.15	.002	992.72	.05
308.15	.005	991.05	.05
308.15	.009	988.92	.05
308.15	.01	988.4	.05
308.15	.02	983.68	.05
308.15	.03	979.57	.05
308.15	.05	972.3	.05
308.15	.065	966.41	.05
308.15	.08	959.82	.05
308.15	.1	950.64	.05
308.15	.13	937.47	.05
308.15	.15	929.47	.05
308.15	.17	922.05	.05
308.15	.1856	916.61	.05
308.15	.2	911.83	.05

System: 1,2-propanediol + water; phases: Liquid
Fixed: Pressure, kPa = 98.93
Property: Mass density, kg/m3 (Liquid); method: Pycnometric method
Temperature, K	Mole fraction of 1,2-propanediol	Mass density, kg/m3	uncertainty
283.15	0	999.7	.05
283.15	.002	1000.28	.05
283.15	.005	1001.15	.05
283.15	.009	1002.65	.05
283.15	.01	1005.45	.05
283.15	.02	1008.94	.05
283.15	.03	1012.38	.05
283.15	.05	1015.77	.05
283.15	.065	1020.67	.05
283.15	.08	1025.18	.05
283.15	.1	1030.57	.05
283.15	.13	1035.97	.05
283.15	.15	1039.91	.05
283.15	.17	1041.79	.05
283.15	.1856	1042.67	.05
283.15	.2	1043.92	.05
288.15	0	999.1	.05
288.15	.002	999.66	.05
288.15	.005	1000.5	.05
288.15	.009	1001.93	.05
288.15	.01	1004.9	.05
288.15	.02	1007.94	.05
288.15	.03	1011.16	.05
288.15	.05	1014.38	.05
288.15	.065	1018.96	.05
288.15	.08	1023.18	.05
288.15	.1	1027.89	.05
288.15	.13	1032.58	.05
288.15	.15	1036.53	.05
288.15	.17	1038.5	.05
288.15	.1856	1039.47	.05
288.15	.2	1041	.05
293.15	0	998.2	.05
293.15	.002	998.73	.05
293.15	.005	999.55	.05
293.15	.009	1000.93	.05
293.15	.01	1003.81	.05
293.15	.02	1006.74	.05
293.15	.03	1009.69	.05
293.15	.05	1012.66	.05
293.15	.065	1016.94	.05
293.15	.08	1020.8	.05
293.15	.1	1025.18	.05
293.15	.13	1029.58	.05
293.15	.15	1033.34	.05
293.15	.17	1035.11	.05
293.15	.1856	1035.98	.05
293.15	.2	1037.19	.05
298.15	0	997.05	.05
298.15	.002	997.56	.05
298.15	.005	998.32	.05
298.15	.009	999.63	.05
298.15	.01	1002.37	.05
298.15	.02	1005.17	.05
298.15	.03	1008.04	.05
298.15	.05	1010.8	.05
298.15	.065	1014.74	.05
298.15	.08	1018.36	.05
298.15	.1	1022.6	.05
298.15	.13	1027.01	.05
298.15	.15	1030.86	.05
298.15	.17	1032.86	.05
298.15	.1856	1033.9	.05
298.15	.2	1035.6	.05
303.15	0	995.65	.05
303.15	.002	996.13	.05
303.15	.005	996.87	.05
303.15	.009	998.12	.05
303.15	.01	1000.73	.05
303.15	.02	1003.41	.05
303.15	.03	1006.07	.05
303.15	.05	1008.65	.05
303.15	.065	1012.36	.05
303.15	.08	1015.78	.05
303.15	.1	1019.88	.05
303.15	.13	1024.14	.05
303.15	.15	1028.08	.05
303.15	.17	1030.11	.05
303.15	.1856	1031.1	.05
303.15	.2	1032.73	.05
308.15	0	994.03	.05
308.15	.002	994.48	.05
308.15	.005	995.17	.05
308.15	.009	996.34	.05
308.15	.01	998.77	.05
308.15	.02	1001.32	.05
308.15	.03	1003.85	.05
308.15	.05	1006.42	.05
308.15	.065	1010.15	.05
308.15	.08	1013.54	.05
308.15	.1	1017.51	.05
308.15	.13	1021.52	.05
308.15	.15	1024.73	.05
308.15	.17	1026.33	.05
308.15	.1856	1027.06	.05
308.15	.2	1027.98	.05

System: 1,3-propanediol + water; phases: Liquid
Fixed: Pressure, kPa = 98.93
Property: Mass density, kg/m3 (Liquid); method: Pycnometric method
Temperature, K	Mole fraction of 1,3-propanediol	Mass density, kg/m3	uncertainty
283.15	0	999.7	.05
283.15	.002	1000.12	.05
283.15	.005	1000.99	.05
283.15	.009	1002.44	.05
283.15	.01	1005.28	.05
283.15	.02	1008.07	.05
283.15	.03	1010.8	.05
283.15	.05	1013.46	.05
283.15	.065	1017.32	.05
283.15	.08	1021.01	.05
283.15	.1	1025.57	.05
283.15	.13	1030.69	.05
283.15	.15	1035.61	.05
283.15	.17	1038.35	.05
283.15	.1856	1039.8	.05
283.15	.2	1042.35	.05
288.15	0	999.1	.05
288.15	.002	999.49	.05
288.15	.005	1000.34	.05
288.15	.009	1001.75	.05
288.15	.01	1004.53	.05
288.15	.02	1007.24	.05
288.15	.03	1009.9	.05
288.15	.05	1012.49	.05
288.15	.065	1016.24	.05
288.15	.08	1019.75	.05
288.15	.1	1024.07	.05
288.15	.13	1028.92	.05
288.15	.15	1033.62	.05
288.15	.17	1036.24	.05
288.15	.1856	1037.62	.05
288.15	.2	1040.04	.05
293.15	0	998.2	.05
293.15	.002	998.61	.05
293.15	.005	999.44	.05
293.15	.009	1000.81	.05
293.15	.01	1003.5	.05
293.15	.02	1006.13	.05
293.15	.03	1008.71	.05
293.15	.05	1011.23	.05
293.15	.065	1014.85	.05
293.15	.08	1018.24	.05
293.15	.1	1022.38	.05
293.15	.13	1027.01	.05
293.15	.15	1031.48	.05
293.15	.17	1033.94	.05
293.15	.1856	1035.24	.05
293.15	.2	1037.56	.05
298.15	0	997.05	.05
298.15	.002	997.63	.05
298.15	.005	998.44	.05
298.15	.009	999.76	.05
298.15	.01	1002.37	.05
298.15	.02	1004.91	.05
298.15	.03	1007.39	.05
298.15	.05	1009.82	.05
298.15	.065	1013.31	.05
298.15	.08	1016.57	.05
298.15	.1	1020.58	.05
298.15	.13	1025.02	.05
298.15	.15	1029.18	.05
298.15	.17	1031.44	.05
298.15	.1856	1032.61	.05
298.15	.2	1034.66	.05
303.15	0	995.65	.05
303.15	.002	996.05	.05
303.15	.005	996.84	.05
303.15	.009	998.14	.05
303.15	.01	1000.71	.05
303.15	.02	1003.2	.05
303.15	.03	1005.63	.05
303.15	.05	1008	.05
303.15	.065	1011.4	.05
303.15	.08	1014.57	.05
303.15	.1	1018.45	.05
303.15	.13	1022.73	.05
303.15	.15	1026.8	.05
303.15	.17	1029.04	.05
303.15	.1856	1030.2	.05
303.15	.2	1032.25	.05
308.15	0	994.03	.05
308.15	.002	994.51	.05
308.15	.005	995.27	.05
308.15	.009	996.53	.05
308.15	.01	999	.05
308.15	.02	1001.41	.05
308.15	.03	1003.75	.05
308.15	.05	1006.03	.05
308.15	.065	1009.3	.05
308.15	.08	1012.35	.05
308.15	.1	1016.06	.05
308.15	.13	1020.19	.05
308.15	.15	1024.09	.05
308.15	.17	1026.23	.05
308.15	.1856	1027.36	.05
308.15	.2	1029.35	.05

System: glycerol + water; phases: Liquid
Fixed: Pressure, kPa = 98.93
Property: Mass density, kg/m3 (Liquid); method: Pycnometric method
Temperature, K	Mole fraction of glycerol	Mass density, kg/m3	uncertainty
283.15	0	999.7	.05
283.15	.002	1002.15	.05
283.15	.005	1005.76	.05
283.15	.009	1011.64	.05
283.15	.01	1022.85	.05
283.15	.02	1033.4	.05
283.15	.03	1043.36	.05
283.15	.05	1052.76	.05
283.15	.065	1065.9	.05
283.15	.08	1078.01	.05
283.15	.1	1092.7	.05
283.15	.13	1109.07	.05
283.15	.15	1124.96	.05
283.15	.17	1133.96	.05
283.15	.1856	1138.83	.05
283.15	.2	1147.94	.05
288.15	0	999.1	.05
288.15	.002	1001.53	.05
288.15	.005	1005.11	.05
288.15	.009	1010.93	.05
288.15	.01	1022.06	.05
288.15	.02	1032.52	.05
288.15	.03	1042.38	.05
288.15	.05	1051.69	.05
288.15	.065	1064.68	.05
288.15	.08	1076.64	.05
288.15	.1	1091.17	.05
288.15	.13	1107.35	.05
288.15	.15	1123.05	.05
288.15	.17	1131.96	.05
288.15	.1856	1136.77	.05
288.15	.2	1145.78	.05
293.15	0	998.2	.05
293.15	.002	1000.6	.05
293.15	.005	1004.14	.05
293.15	.009	1009.9	.05
293.15	.01	1020.89	.05
293.15	.02	1031.22	.05
293.15	.03	1040.97	.05
293.15	.05	1050.15	.05
293.15	.065	1062.99	.05
293.15	.08	1074.81	.05
293.15	.1	1089.16	.05
293.15	.13	1105.15	.05
293.15	.15	1120.68	.05
293.15	.17	1129.5	.05
293.15	.1856	1134.27	.05
293.15	.2	1143.22	.05
298.15	0	997.05	.05
298.15	.002	999.43	.05
298.15	.005	1002.93	.05
298.15	.009	1008.63	.05
298.15	.01	1019.51	.05
298.15	.02	1029.73	.05
298.15	.03	1039.37	.05
298.15	.05	1048.46	.05
298.15	.065	1061.17	.05
298.15	.08	1072.85	.05
298.15	.1	1087.05	.05
298.15	.13	1102.86	.05
298.15	.15	1118.23	.05
298.15	.17	1126.96	.05
298.15	.1856	1131.68	.05
298.15	.2	1140.54	.05
303.15	0	995.65	.05
303.15	.002	998.01	.05
303.15	.005	1001.48	.05
303.15	.009	1007.12	.05
303.15	.01	1017.89	.05
303.15	.02	1028.03	.05
303.15	.03	1037.58	.05
303.15	.05	1046.58	.05
303.15	.065	1059.16	.05
303.15	.08	1070.74	.05
303.15	.1	1084.79	.05
303.15	.13	1100.45	.05
303.15	.15	1115.66	.05
303.15	.17	1124.3	.05
303.15	.1856	1128.97	.05
303.15	.2	1137.73	.05
308.15	0	994.03	.05
308.15	.002	996.37	.05
308.15	.005	999.81	.05
308.15	.009	1005.42	.05
308.15	.01	1016.12	.05
308.15	.02	1026.18	.05
308.15	.03	1035.66	.05
308.15	.05	1044.59	.05
308.15	.065	1057.08	.05
308.15	.08	1068.56	.05
308.15	.1	1082.51	.05
308.15	.13	1098.03	.05
308.15	.15	1113.11	.05
308.15	.17	1121.66	.05
308.15	.1856	1126.28	.05
308.15	.2	1134.94	.05
