Measured thermophysical data. Phase equilibrium measurements of (methane + benzene) and (methane + methylbenzene) at temperatures from (188 to 348) K and pressures to 13 MPa
Source: J. Chem. Thermodyn., 2015, 10.1016/j.jct.2014.12.031
Compound 1: methane, CH4, purity 99.995%
Compound 2: benzene, C6H6, purity 99.91%
Compound 3: methylbenzene, C7H8, purity 99.98%

System: benzene + methane; phases: Liquid, Gas
Property: Vapor or sublimation pressure, kPa (Liquid); method: Closed cell (Static) method
Mole fraction of methane	Temperature, K	Vapor or sublimation pressure, kPa	uncertainty
.037	348.15	2337	12
.079	348.15	4496	22
.119	348.15	6691	34
.165	348.15	9615	48
.04	323.15	2176	11
.063	323.15	3540	18
.091	323.15	5171	26
.141	323.15	8075	40
.041	303.15	2213	11
.1	303.15	5535	28
.151	303.15	8573	43
.046	278.15	2294	11
.089	278.15	4485	28
.104	278.15	5774	29
.106	278.15	5801	29
.14	278.15	7634	38
.139	278.15	7640	39
.145	278.15	7824	39

System: benzene + methane; phases: Gas, Liquid
Property: Mole fraction of benzene (Gas); method: Chromatography
Mole fraction of methane	Temperature, K	Mole fraction of benzene	uncertainty
.037	348.15	.0494	.0005
.079	348.15	.0341	.0006
.119	348.15	.0325	.0005
.165	348.15	.0386	.0005
.04	323.15	.0298	.0005
.063	323.15	.0229	.0005
.091	323.15	.0202	.0006
.141	323.15	.022	.0008
.041	303.15	.0129	.0005
.1	303.15	.0095	.0006
.151	303.15	.0113	.0006
.046	278.15	.0105	.0009
.089	278.15	.0101	.0006
.104	278.15	.0079	.0019
.14	278.15	.0067	.0005
.139	278.15	.0078	.0017
.145	278.15	.0042	.0005

System: benzene + methane; phases: Gas, Crystal
Property: Mole fraction of benzene (Gas); method: Chromatography
Pressure, kPa	Temperature, K	Mole fraction of benzene	uncertainty
2087	268.15	.0025	.0005
3572	268.15	.0022	.0005
6294	268.15	.0038	.0006
2096	233.15	.0007	.0005
3597	233.15	.0008	.0005
6470	233.15	.001	.0005
8228	233.15	.0006	.0005

System: methane + methylbenzene; phases: Liquid, Gas
Property: Vapor or sublimation pressure, kPa (Liquid); method: Closed cell (Static) method
Mole fraction of methane	Temperature, K	Vapor or sublimation pressure, kPa	uncertainty
.055	313.15	2686	14
.084	313.15	4114	21
.073	293.15	3264	19
.087	293.15	3933	20
.106	293.15	4773	30
.162	293.15	7567	40
.209	293.15	10418	56
.07	277.65	2923	15
.091	277.65	4011	20
.134	277.65	6019	31
.173	277.65	8093	41
.257	277.65	13192	66
.053	253.15	1907	10
.078	253.15	2977	15
.108	253.15	4208	21
.145	253.15	6078	30
.083	228.15	2367	12
.127	228.15	3982	20
.162	228.15	5386	48
.196	228.15	7222	36
.226	228.15	8791	44
.253	228.15	10444	52
.279	228.15	13215	66
.092	198.15	1986	10
.181	198.15	4337	22
.138	188.15	2353	14
.202	188.15	3368	17
.227	198.15	8256	41
.217	198.15	6374	32
.226	198.15	8295	44
.251	198.15	11015	56
.244	198.15	11531	66

System: methane + methylbenzene; phases: Gas, Liquid
Property: Mole fraction of methylbenzene (Gas); method: Chromatography
Mole fraction of methane	Temperature, K	Mole fraction of methylbenzene	uncertainty
.055	313.15	.0105	.0008
.084	313.15	.0078	.0008
.073	293.15	.0036	.0009
.087	293.15	.0058	.0009
.106	293.15	.0032	.0008
.162	293.15	.0036	.0008
.209	293.15	.0075	.001
.134	277.65	.0038	.0009
.173	277.65	.0031	.0008
.257	277.65	.005	.0009
.053	253.15	.0076	.0008
.078	253.15	.0047	.0009
.108	253.15	.0018	.0008
.145	253.15	.0016	.0008
.083	228.15	.0018	.0009
.127	228.15	.0011	.0008
.162	228.15	.0019	.0008
.196	228.15	.0033	.0009
.226	228.15	.0021	.001
.253	228.15	.0017	.0008
.279	228.15	.0038	.0008
.181	198.15	.0003	.0008
.138	188.15	.0003	.0008
.202	188.15	.0003	.0008
.227	198.15	.0016	.0008
.217	198.15	.0007	.0008
.226	198.15	.0014	.001
.251	198.15	.0043	.0008
.244	198.15	.0036	.0008
