Measured thermophysical data. Separation of thiophene from heptane with ionic liquids
Source: J. Chem. Thermodyn., 2013, 10.1016/j.jct.2013.01.033
Compound 1: 1-butyl-1-methylpyrrolidinium tris(pentafluoroethyl)trifluorophosphate, C15H20F18NP, purity 99%
Compound 2: 1-butyl-1-methylpyrrolidinium tetracyanoborate, C13H20BN5, purity 99%
Compound 3: 1-butyl-1-methylpyrrolidinium tricyanomethanide, C13H20N4, purity 98%
Compound 4: thiophene, C4H4S, purity 99%
Compound 5: n-heptane, C7H16, purity 99%
Compound 6: n-propyl alcohol, C3H8O, purity 99%

System: 1-butyl-1-methylpyrrolidinium tricyanomethanide; phases: Liquid
Fixed: Pressure, kPa = 101.325
Property: Mass density, kg/m3 (Liquid); method: Vibrating tube method
Temperature, K	Mass density, kg/m3	uncertainty
298.15	1006.71	.05
308.15	1000.55	.05
318.15	994.44	.05
328.15	988.41	.05
338.15	982.44	.05
348.15	976.52	.05

System: n-propyl alcohol; phases: Liquid
Fixed: Pressure, kPa = 101.325
Property: Refractive index (Na D-line) (Liquid); method: Standard Abbe refractometry
Temperature, K	Refractive index (Na D-line)	uncertainty
293.15	1.38432	.00002

System: thiophene + n-heptane + 1-butyl-1-methylpyrrolidinium tris(pentafluoroethyl)trifluorophosphate; phases: Liquid mixture 1, Liquid mixture 2
Property: Mole fraction of 1-butyl-1-methylpyrrolidinium tris(pentafluoroethyl)trifluorophosphate (Liquid mixture 1); method: Chromatography
Property: Mole fraction of 1-butyl-1-methylpyrrolidinium tris(pentafluoroethyl)trifluorophosphate (Liquid mixture 2); method: Chromatography
Property: Mole fraction of thiophene (Liquid mixture 2); method: Chromatography
Temperature, K	Pressure, kPa	Mole fraction of thiophene	Mole fraction of 1-butyl-1-methylpyrrolidinium tris(pentafluoroethyl)trifluorophosphate	uncertainty	Mole fraction of 1-butyl-1-methylpyrrolidinium tris(pentafluoroethyl)trifluorophosphate	uncertainty	Mole fraction of thiophene	uncertainty
298.15	101.33	0	0	.003	.916	.005	0	.005
298.15	101.33	.011	0	.003	.848	.005	.058	.005
298.15	101.33	.024	0	.003	.82	.005	.101	.005
298.15	101.33	.044	0	.003	.769	.005	.163	.005
298.15	101.33	.128	0	.003	.606	.005	.334	.005
298.15	101.33	.237	0	.003	.471	.005	.476	.005
298.15	101.33	.341	0	.003	.401	.005	.549	.005
298.15	101.33	.364	0	.003	.374	.005	.574	.005
298.15	101.33	.499	0	.003	.313	.005	.634	.005
298.15	101.33	.582	0	.003	.299	.005	.659	.005
298.15	101.33	.631	0	.003	.269	.005	.685	.005
298.15	101.33	.71	0	.003	.239	.005	.717	.005
298.15	101.33	.77	0	.003	.222	.005	.738	.005
298.15	101.33	.837	0	.003	.207	.005	.758	.005
298.15	101.33	.878	0	.003	.207	.005	.765	.005
298.15	101.33	.941	0	.003	.18	.005	.802	.005
298.15	101.33	1	0	.003	.118	.005	.882	.005

System: thiophene + n-heptane + 1-butyl-1-methylpyrrolidinium tetracyanoborate; phases: Liquid mixture 1, Liquid mixture 2
Property: Mole fraction of 1-butyl-1-methylpyrrolidinium tetracyanoborate (Liquid mixture 1); method: Chromatography
Property: Mole fraction of 1-butyl-1-methylpyrrolidinium tetracyanoborate (Liquid mixture 2); method: Chromatography
Property: Mole fraction of thiophene (Liquid mixture 2); method: Chromatography
Temperature, K	Pressure, kPa	Mole fraction of thiophene	Mole fraction of 1-butyl-1-methylpyrrolidinium tetracyanoborate	uncertainty	Mole fraction of 1-butyl-1-methylpyrrolidinium tetracyanoborate	uncertainty	Mole fraction of thiophene	uncertainty
298.15	101.33	0	0	.003	.957	.005	0	.005
298.15	101.33	.139	0	.003	.597	.005	.363	.005
298.15	101.33	.238	0	.003	.464	.005	.499	.005
298.15	101.33	.284	0	.003	.411	.005	.552	.005
298.15	101.33	.367	0	.003	.327	.005	.636	.005
298.15	101.33	.412	0	.003	.327	.005	.64	.005
298.15	101.33	.511	0	.003	.254	.005	.714	.005
298.15	101.33	.638	0	.003	.214	.005	.754	.005
298.15	101.33	.724	0	.003	.196	.005	.774	.005
298.15	101.33	.849	0	.003	.18	.005	.799	.005
298.15	101.33	.922	0	.003	.163	.005	.822	.005
298.15	101.33	.923	0	.003	.161	.005	.824	.005
298.15	101.33	1	0	.003	.142	.005	.858	.005
298.15	101.33	.035	0	.003	.841	.005	.116	.005
298.15	101.33	.085	0	.003	.715	.005	.246	.005

System: thiophene + n-heptane + 1-butyl-1-methylpyrrolidinium tricyanomethanide; phases: Liquid mixture 1, Liquid mixture 2
Property: Mole fraction of 1-butyl-1-methylpyrrolidinium tricyanomethanide (Liquid mixture 1); method: Chromatography
Property: Mole fraction of 1-butyl-1-methylpyrrolidinium tricyanomethanide (Liquid mixture 2); method: Chromatography
Property: Mole fraction of thiophene (Liquid mixture 2); method: Chromatography
Temperature, K	Pressure, kPa	Mole fraction of thiophene	Mole fraction of 1-butyl-1-methylpyrrolidinium tricyanomethanide	uncertainty	Mole fraction of 1-butyl-1-methylpyrrolidinium tricyanomethanide	uncertainty	Mole fraction of thiophene	uncertainty
298.15	101.33	0	0	.003	.974	.005	0	.005
298.15	101.33	.189	0	.003	.539	.005	.435	.005
298.15	101.33	.245	0	.003	.469	.005	.506	.005
298.15	101.33	.352	0	.003	.376	.005	.599	.005
298.15	101.33	.445	0	.003	.325	.005	.651	.005
298.15	101.33	.551	0	.003	.274	.005	.703	.005
298.15	101.33	.667	0	.003	.245	.005	.734	.005
298.15	101.33	.807	0	.003	.191	.005	.782	.005
298.15	101.33	.893	0	.003	.172	.005	.815	.005
298.15	101.33	.977	0	.003	.155	.005	.841	.005
298.15	101.33	1	0	.003	.152	.005	.848	.005
298.15	101.33	.015	0	.003	.923	.005	.051	.005
298.15	101.33	.057	0	.003	.796	.005	.178	.005
298.15	101.33	.129	0	.003	.621	.005	.35	.005

System: n-heptane + 1-butyl-1-methylpyrrolidinium tris(pentafluoroethyl)trifluorophosphate; phases: Liquid mixture 2, Liquid mixture 1
Property: Mole fraction of 1-butyl-1-methylpyrrolidinium tris(pentafluoroethyl)trifluorophosphate (Liquid mixture 2); method: Chromatography
Pressure, kPa	Temperature, K	Mole fraction of 1-butyl-1-methylpyrrolidinium tris(pentafluoroethyl)trifluorophosphate	uncertainty
101.33	298.15	.916	.005

System: thiophene + 1-butyl-1-methylpyrrolidinium tris(pentafluoroethyl)trifluorophosphate; phases: Liquid mixture 2, Liquid mixture 1
Property: Mole fraction of thiophene (Liquid mixture 2); method: Chromatography
Temperature, K	Pressure, kPa	Mole fraction of thiophene	uncertainty
298.15	101.33	.882	.005

System: n-heptane + 1-butyl-1-methylpyrrolidinium tetracyanoborate; phases: Liquid mixture 2, Liquid mixture 1
Property: Mole fraction of 1-butyl-1-methylpyrrolidinium tetracyanoborate (Liquid mixture 2); method: Chromatography
Pressure, kPa	Temperature, K	Mole fraction of 1-butyl-1-methylpyrrolidinium tetracyanoborate	uncertainty
101.33	298.15	.957	.005

System: thiophene + 1-butyl-1-methylpyrrolidinium tetracyanoborate; phases: Liquid mixture 2, Liquid mixture 1
Property: Mole fraction of thiophene (Liquid mixture 2); method: Chromatography
Temperature, K	Pressure, kPa	Mole fraction of thiophene	uncertainty
298.15	101.33	.858	.005

System: n-heptane + 1-butyl-1-methylpyrrolidinium tricyanomethanide; phases: Liquid mixture 2, Liquid mixture 1
Property: Mole fraction of 1-butyl-1-methylpyrrolidinium tricyanomethanide (Liquid mixture 2); method: Chromatography
Pressure, kPa	Temperature, K	Mole fraction of 1-butyl-1-methylpyrrolidinium tricyanomethanide	uncertainty
101.33	298.15	.974	.005

System: thiophene + 1-butyl-1-methylpyrrolidinium tricyanomethanide; phases: Liquid mixture 2, Liquid mixture 1
Property: Mole fraction of thiophene (Liquid mixture 2); method: Chromatography
Temperature, K	Pressure, kPa	Mole fraction of thiophene	uncertainty
298.15	101.33	.848	.005
