Measured thermophysical data. Isobaric VLE of the mixture {1,8-cineole + ethanol}. EOS analysis and COSMO-RS modeling
Source: J. Chem. Thermodyn., 2016, 10.1016/j.jct.2016.01.008
Compound 1: 1,8-cineole, C10H18O, purity 99.7%
Compound 2: ethanol, C2H6O

System: 1,8-cineole; phases: Liquid
Fixed: Pressure, kPa = 101.325
Property: Mass density, kg/m3 (Liquid); method: Vibrating tube method
Temperature, K	Mass density, kg/m3	uncertainty
298.15	920.68	.05

System: 1,8-cineole; phases: Liquid, Gas
Property: Normal boiling temperature, K (Liquid); method: Ebulliometric method (Recirculating still)
Normal boiling temperature, K	uncertainty
449.2	.2

System: ethanol; phases: Liquid
Fixed: Pressure, kPa = 101.325
Property: Mass density, kg/m3 (Liquid); method: Vibrating tube method
Temperature, K	Mass density, kg/m3	uncertainty
298.15	785.27	.05

System: ethanol; phases: Liquid, Gas
Property: Normal boiling temperature, K (Liquid); method: Ebulliometric method (Recirculating still)
Normal boiling temperature, K	uncertainty
351.4	.2

System: ethanol + 1,8-cineole; phases: Liquid, Gas
Property: Boiling temperature at pressure P, K (Liquid); method: Ebulliometric method (Recirculating still)
Mole fraction of 1,8-cineole	Pressure, kPa	Boiling temperature at pressure P, K	uncertainty
.0047	33.33	326.1	
.05	33.33	326.5	
.0719	33.33	326.4	
.1193	33.33	326.7	
.1816	33.33	327.7	
.2161	33.33	328.1	
.2901	33.33	329.1	
.3814	33.33	330.6	
.4586	33.33	332.1	
.5952	33.33	335.9	
.7105	33.33	340.3	
.8154	33.33	347.9	
.8429	33.33	350.1	
.894	33.33	356.8	
.919	33.33	361.3	
.946	33.33	369.3	
.9773	33.33	385	
.9856	33.33	392	
.9959	33.33	403.1	
.0097	66.66	341.1	
.0266	66.66	341.2	
.1011	66.66	342.5	
.1736	66.66	343.7	
.2898	66.66	345.3	
.3823	66.66	347	
.5073	66.66	349.9	
.5933	66.66	352.7	
.6947	66.66	357.5	
.7858	66.66	362.8	
.8244	66.66	365.4	
.9043	66.66	376.1	
.932	66.66	383	
.9659	66.66	397.9	
.9805	66.66	408	
.9939	66.66	422.5	
.9979	66.66	428.7	
.0154	101.33	351.5	
.0337	101.33	351.6	
.065	101.33	351.9	
.1243	101.33	353	
.2143	101.33	354.6	
.3159	101.33	356.5	
.4515	101.33	359.7	
.5821	101.33	363.9	
.6703	101.33	368.4	
.7528	101.33	374	
.823	101.33	381.5	
.8665	101.33	388.4	
.8922	101.33	393.8	
.9306	101.33	404.9	
.965	101.33	420.4	
.9872	101.33	436	
.9943	101.33	442.7	

System: ethanol + 1,8-cineole; phases: Gas, Liquid
Property: Mole fraction of 1,8-cineole (Gas); method: Density calibration data
Mole fraction of 1,8-cineole	Pressure, kPa	Mole fraction of 1,8-cineole	uncertainty
.0047	33.33	.0006	
.05	33.33	.0056	
.0719	33.33	.0071	
.1193	33.33	.0096	
.1816	33.33	.0126	
.2161	33.33	.0142	
.2901	33.33	.0178	
.3814	33.33	.0225	
.4586	33.33	.029	
.5952	33.33	.0407	
.7105	33.33	.0545	
.8154	33.33	.0886	
.8429	33.33	.1006	
.894	33.33	.1418	
.919	33.33	.1753	
.946	33.33	.2493	
.9773	33.33	.4595	
.9856	33.33	.5862	
.9959	33.33	.8396	
.0097	66.66	.001	
.0266	66.66	.0025	
.1011	66.66	.0088	
.1736	66.66	.0137	
.2898	66.66	.0201	
.3823	66.66	.0263	
.5073	66.66	.0367	
.5933	66.66	.0478	
.6947	66.66	.064	
.7858	66.66	.085	
.8244	66.66	.0968	
.9043	66.66	.1566	
.932	66.66	.2045	
.9659	66.66	.3543	
.9805	66.66	.4862	
.9939	66.66	.7675	
.9979	66.66	.9049	
.0154	101.33	.0017	
.0337	101.33	.0036	
.065	101.33	.0065	
.1243	101.33	.01	
.2143	101.33	.0159	
.3159	101.33	.0223	
.4515	101.33	.0318	
.5821	101.33	.0449	
.6703	101.33	.0599	
.7528	101.33	.0805	
.823	101.33	.1141	
.8665	101.33	.1527	
.8922	101.33	.1883	
.9306	101.33	.2714	
.965	101.33	.4508	
.9872	101.33	.7062	
.9943	101.33	.8495	
