Measured thermophysical data. Knudsen cell mass spectrometric study of the Cs2IOH(g) molecule thermodynamics
Source: J. Chem. Thermodyn., 2013, 10.1016/j.jct.2013.05.032
Compound 1: cesium iodide, CsI
Compound 2: cesium hydroxide, CsHO
Compound 3: cesium hydroxide iodide, Cs2HIO

System: cesium hydroxide iodide; phases: Ideal gas
Fixed: Pressure, kPa = 101.325
Property: Molar heat capacity at constant pressure, J/K/mol (Ideal gas); method: statistical thermodynamics
Temperature, K	Molar heat capacity at constant pressure, J/K/mol	uncertainty
298.15	95.742	.47871
300	95.789	.478945
400	97.474	.48737
500	98.304	.49152
600	98.822	.49411
700	99.243	.496215
800	99.658	.49829
900	100.095	.500475
1000	100.554	.50277
1100	101.024	.50512
1200	101.493	.507465
1300	101.95	.50975
1400	102.385	.511925
1500	102.796	.51398
1600	103.179	.515895
1700	103.533	.517665
1800	103.859	.519295
1900	104.158	.52079
2000	104.432	.52216
2100	104.682	.52341
2200	104.911	.524555
2300	105.12	.5256
2400	105.311	.526555
2500	105.486	.52743
2600	105.647	.528235
2700	105.794	.52897
2800	105.929	.529645
2900	106.054	.53027
3000	106.168	.53084

System: cesium hydroxide iodide; phases: Ideal gas
Fixed: Pressure, kPa = 101.325
Property: Molar enthalpy, kJ/mol (Ideal gas); method: statistical thermodynamics
Temperature, K	Molar enthalpy, kJ/mol	uncertainty
298.15	23.0749	.1153745
300	23.2521	.1162605
400	32.9265	.1646325
500	42.7194	.213597
600	52.5771	.2628855
700	62.4807	.3124035
800	72.4256	.362128
900	82.413	.412065
1000	92.4452	.462226
1100	102.5241	.5126205
1200	112.65	.56325
1300	122.8223	.6141115
1400	133.0393	.6651965
1500	143.2986	.716493
1600	153.5975	.7679875
1700	163.9333	.8196665
1800	174.3031	.8715155
1900	184.7042	.923521
2000	195.1338	.975669
2100	205.5897	1.0279485
2200	216.0695	1.0803475
2300	226.5712	1.132856
2400	237.0929	1.1854645
2500	247.633	1.238165
2600	258.1897	1.2909485
2700	268.7619	1.3438095
2800	279.3482	1.396741
2900	289.9474	1.449737
3000	300.5585	1.5027925

System: cesium hydroxide iodide; phases: Ideal gas
Fixed: Pressure, kPa = 101.325
Property: Molar entropy, J/K/mol (Ideal gas); method: statistical thermodynamics
Temperature, K	Molar entropy, J/K/mol	uncertainty
298.15	405.727	2.028635
300	406.319	2.031595
400	434.139	2.170695
500	455.988	2.27994
600	473.959	2.369795
700	489.225	2.446125
800	502.504	2.51252
900	514.267	2.571335
1000	524.836	2.62418
1100	534.442	2.67221
1200	543.252	2.71626
1300	551.394	2.75697
1400	558.966	2.79483
1500	566.044	2.83022
1600	572.69	2.86345
1700	578.956	2.89478
1800	584.883	2.924415
1900	590.507	2.952535
2000	595.857	2.979285
2100	600.958	3.00479
2200	605.833	3.029165
2300	610.501	3.052505
2400	614.979	3.074895
2500	619.282	3.09641
2600	623.422	3.11711
2700	627.412	3.13706
2800	631.262	3.15631
2900	634.982	3.17491
3000	638.579	3.192895

Reaction: -1 cesium iodide + -1 cesium hydroxide + 1 cesium hydroxide iodide
Property: Thermodynamic equilibrium constant
657	4.67E+06
670	3.03E+06
690	1.61E+06
710	8.88E+05
730	5.05E+05
750	2.96E+05
770	1.79E+05
790	1.10E+05
810	7.00E+04
830	4.53E+04
850	2.99E+04
863	2.31E+04
