Measured thermophysical data. Volumetric properties of ternary (IL + 2-propanol or 1-butanol or 2-butanol + ethyl  acetate) systems and binary (IL + 2-propanol or 1-butanol or 2-butanol) and (1-butanol or 2-butanol + ethyl acetate) systems
Source: J. Chem. Thermodyn., 2012, 10.1016/j.jct.2012.01.002
Compound 1: 2-propanol, C3H8O, purity 99.7%
Compound 2: 1-butanol, C4H10O, purity 99.8%
Compound 3: (RS)-2-butanol, C4H10O, purity 99.5%
Compound 4: ethyl ethanoate, C4H8O2, purity 99.7%
Compound 5: methyltrioctylammonium 1,1,1-trifluoro-N-[(trifluoromethyl)sulfonyl]methanesulfonamide, C27H54F6N2O4S2, purity 98%

System: methyltrioctylammonium 1,1,1-trifluoro-N-[(trifluoromethyl)sulfonyl]methanesulfonamide; phases: Liquid
Property: Mass density, kg/m3 (Liquid); method: Vibrating tube method
Temperature, K	Pressure, kPa	Mass density, kg/m3	uncertainty
298.15	101.325	1106.9	
303.15	101.325	1103.2	
313.15	101.325	1095.7	

System: 2-propanol + methyltrioctylammonium 1,1,1-trifluoro-N-[(trifluoromethyl)sulfonyl]methanesulfonamide; phases: Liquid
Fixed: Pressure, kPa = 101
Property: Mass density, kg/m3 (Liquid); method: Vibrating tube method
Temperature, K	Mole fraction of methyltrioctylammonium 1,1,1-trifluoro-N-[(trifluoromethyl)sulfonyl]methanesulfonamide	Mass density, kg/m3	uncertainty
298.15	.053	876.9	
298.15	.1	932.6	
298.15	.2045	1004.9	
298.15	.2841	1033.8	
298.15	.3934	1056.2	
298.15	.4824	1067.6	
298.15	.5896	1078.9	
298.15	.7066	1089	
298.15	.7967	1095.2	
298.15	.896	1100.5	
303.15	.053	873	
303.15	.1	928.9	
303.15	.2045	1001.5	
303.15	.2841	1030.3	
303.15	.3934	1052.6	
303.15	.4824	1063.9	
303.15	.5896	1075.2	
303.15	.7066	1085.4	
303.15	.7967	1091.6	
303.15	.896	1096.9	
313.15	.053	865.1	
313.15	.1	921.3	
313.15	.2045	994.7	
313.15	.2841	1023.3	
313.15	.3934	1045.1	
313.15	.4824	1056.6	
313.15	.5896	1068.1	
313.15	.7066	1078.3	
313.15	.7967	1084.4	
313.15	.896	1089.5	

System: 1-butanol + methyltrioctylammonium 1,1,1-trifluoro-N-[(trifluoromethyl)sulfonyl]methanesulfonamide; phases: Liquid
Fixed: Pressure, kPa = 101
Property: Mass density, kg/m3 (Liquid); method: Vibrating tube method
Temperature, K	Mole fraction of methyltrioctylammonium 1,1,1-trifluoro-N-[(trifluoromethyl)sulfonyl]methanesulfonamide	Mass density, kg/m3	uncertainty
298.15	.0654	898.1	
298.15	.1421	962	
298.15	.2623	1018	
298.15	.3284	1037.3	
298.15	.4437	1060.4	
298.15	.5343	1072.8	
298.15	.6385	1083.4	
298.15	.7397	1091	
298.15	.8432	1097.9	
298.15	.9195	1102.1	
303.15	.0654	894.3	
303.15	.1421	958.6	
303.15	.2623	1014.6	
303.15	.3284	1033.9	
303.15	.4437	1056.8	
303.15	.5343	1069.1	
303.15	.6385	1079.8	
303.15	.7397	1087.4	
303.15	.8432	1094.2	
303.15	.9195	1098.6	
313.15	.0654	887.2	
313.15	.1421	951.8	
313.15	.2623	1007.6	
313.15	.3284	1026.9	
313.15	.4437	1049.7	
313.15	.5343	1062.1	
313.15	.6385	1072.7	
313.15	.7397	1080.5	
313.15	.8432	1087.2	
313.15	.9195	1091.6	

System: (RS)-2-butanol + methyltrioctylammonium 1,1,1-trifluoro-N-[(trifluoromethyl)sulfonyl]methanesulfonamide; phases: Liquid
Fixed: Pressure, kPa = 101
Property: Mass density, kg/m3 (Liquid); method: Vibrating tube method
Temperature, K	Mole fraction of methyltrioctylammonium 1,1,1-trifluoro-N-[(trifluoromethyl)sulfonyl]methanesulfonamide	Mass density, kg/m3	uncertainty
298.15	.0654	894.2	
298.15	.1397	956.2	
298.15	.2623	1013.8	
298.15	.3282	1033.4	
298.15	.4054	1050.6	
298.15	.5045	1066.7	
298.15	.6051	1078.5	
298.15	.7046	1087.3	
298.15	.808	1094.6	
298.15	.9067	1100.8	
303.15	.0654	890.3	
303.15	.1397	952.7	
303.15	.2623	1010.2	
303.15	.3282	1029.7	
303.15	.4054	1046.9	
303.15	.5045	1063	
303.15	.6051	1074.8	
303.15	.7046	1083.7	
303.15	.808	1091	
303.15	.9067	1097.2	
313.15	.0654	882.6	
313.15	.1397	945.3	
313.15	.2623	1003.1	
313.15	.3282	1022.5	
313.15	.4054	1039.7	
313.15	.5045	1055.7	
313.15	.6051	1067.6	
313.15	.7046	1076.5	
313.15	.808	1083.9	
313.15	.9067	1090	

System: 1-butanol + ethyl ethanoate; phases: Liquid
Fixed: Pressure, kPa = 101
Property: Mass density, kg/m3 (Liquid); method: Vibrating tube method
Temperature, K	Mole fraction of 1-butanol	Mass density, kg/m3	uncertainty
298.15	.0904	886.5	
298.15	.1337	882.3	
298.15	.2525	871.5	
298.15	.3723	860.7	
298.15	.4807	851	
298.15	.5955	840.9	
298.15	.7032	831.5	
298.15	.8009	823	
298.15	.8916	815.1	
298.15	.9641	808.6	
298.15	.9795	807.3	
303.15	.0904	880.4	
303.15	.1337	876.8	
303.15	.2525	866.7	
303.15	.3723	856.6	
303.15	.4807	847.5	
303.15	.5955	838	
303.15	.7032	828.8	
303.15	.8009	820.6	
303.15	.8916	813	
303.15	.9641	806.7	
303.15	.9795	805.3	
313.15	.0904	869.6	
313.15	.1337	866	
313.15	.2525	856.6	
313.15	.3723	846.8	
313.15	.4807	838	
313.15	.5955	828.8	
313.15	.7032	820.1	
313.15	.8009	812.3	
313.15	.8916	805	
313.15	.9641	799.4	
313.15	.9795	798.1	

System: (RS)-2-butanol + ethyl ethanoate; phases: Liquid
Fixed: Pressure, kPa = 101
Property: Mass density, kg/m3 (Liquid); method: Vibrating tube method
Temperature, K	Mole fraction of (RS)-2-butanol	Mass density, kg/m3	uncertainty
298.15	.0603	888.5	
298.15	.1109	883.2	
298.15	.1511	878.9	
298.15	.1998	873.8	
298.15	.2502	868.8	
298.15	.302	863.6	
298.15	.3489	858.9	
298.15	.3988	854.1	
298.15	.4506	849.4	
298.15	.5011	844.6	
298.15	.5631	839	
298.15	.601	835.6	
298.15	.6501	831.1	
298.15	.7032	826.5	
298.15	.752	822.5	
298.15	.8012	818.4	
298.15	.8498	814.6	
298.15	.9028	810.3	
298.15	.9519	806.7	
303.15	.0603	882.5	
303.15	.1109	877.6	
303.15	.1511	873.2	
303.15	.1998	868.6	
303.15	.2502	863.5	
303.15	.302	858.4	
303.15	.3489	853.9	
303.15	.3988	849.2	
303.15	.4506	844.4	
303.15	.5011	839.9	
303.15	.5631	834.3	
303.15	.601	830.9	
303.15	.6501	826.8	
303.15	.7032	822.4	
303.15	.752	818.3	
303.15	.8012	814	
303.15	.8498	810.1	
303.15	.9028	805.8	
303.15	.9519	802.4	
313.15	.0603	870.2	
313.15	.1109	865.6	
313.15	.1511	861.4	
313.15	.1998	857.1	
313.15	.2502	852.5	
313.15	.302	847.5	
313.15	.3489	843.2	
313.15	.3988	838.7	
313.15	.4506	834.3	
313.15	.5011	829.9	
313.15	.5631	824.5	
313.15	.601	821.2	
313.15	.6501	817.3	
313.15	.7032	812.9	
313.15	.752	808.9	
313.15	.8012	805.1	
313.15	.8498	801.4	
313.15	.9028	797.4	
313.15	.9519	794.4	

System: 2-propanol + ethyl ethanoate + methyltrioctylammonium 1,1,1-trifluoro-N-[(trifluoromethyl)sulfonyl]methanesulfonamide; phases: Liquid
Fixed: Pressure, kPa = 101
Property: Mass density, kg/m3 (Liquid); method: Vibrating tube method
Temperature, K	Mole fraction of methyltrioctylammonium 1,1,1-trifluoro-N-[(trifluoromethyl)sulfonyl]methanesulfonamide	Mole fraction of 2-propanol	Mass density, kg/m3	uncertainty
298.15	.0225	.8077	983.8	
298.15	.0281	.7591	968.5	
298.15	.06	.4856	923.4	
298.15	.0939	.5904	946.9	
298.15	.0946	.2117	989.9	
298.15	.1091	.0653	861.9	
298.15	.11	.7974	947.9	
298.15	.1167	0	848.1	
298.15	.1429	.3764	989.6	
298.15	.1847	.1949	1014.5	
298.15	.1911	.6482	1001.8	
298.15	.2017	.1193	1023	
298.15	.2291	0	1034.5	
298.15	.2304	.479	1021.2	
298.15	.2927	.6337	1032.2	
298.15	.3156	.2854	1048.8	
298.15	.3356	.3825	1051.5	
298.15	.3523	.2034	1057.9	
298.15	.3759	.4664	1056.2	
298.15	.3954	.1064	1067	
298.15	.4338	.2018	1071.2	
298.15	.4409	.5232	1062.3	
298.15	.4417	0	1074.7	
298.15	.4909	.3849	1072.7	
298.15	.5101	.2753	1078	
298.15	.5433	0	1085.4	
298.15	.6157	.1256	1089.6	
298.15	.6302	.2105	1088.8	
298.15	.6371	.3113	1086.4	
298.15	.6625	.0596	1093.8	
298.15	.7037	0	1096.7	
298.15	.7088	.1119	1095.2	
298.15	.7867	.1483	1097.8	
298.15	.7993	0	1101.3	
298.15	.8568	.0733	1102	
298.15	.0939	.5904	946.9	
303.15	.0225	.8077	842.4	
303.15	.0281	.7591	856	
303.15	.06	.4856	918.4	
303.15	.0946	.2117	963.6	
303.15	.1091	.0653	978.8	
303.15	.11	.7974	945.7	
303.15	.1167	0	984.9	
303.15	.1911	.6482	999.5	
303.15	.2304	.479	1018.3	
303.15	.2927	.6337	1029.5	
303.15	.3156	.2854	1045	
303.15	.3356	.3825	1047.8	
303.15	.3523	.2034	1053.5	
303.15	.3759	.4664	1051.4	
303.15	.3954	.1064	1062.2	
303.15	.4338	.2018	1066.8	
303.15	.4409	.5232	1058	
303.15	.4417	0	1069.6	
303.15	.4909	.3849	1068.7	
303.15	.5101	.2753	1072.8	
303.15	.5433	0	1080.3	
303.15	.6157	.1256	1084.3	
303.15	.6302	.2105	1084	
303.15	.6371	.3113	1081.9	
303.15	.6625	.0596	1088.2	
303.15	.7037	0	1091.5	
303.15	.7088	.1119	1090.3	
303.15	.7867	.1483	1093.1	
303.15	.7993	0	1096.2	
303.15	.8568	.0733	1097.3	
303.15	.9209	0	1100.5	
313.15	.0225	.8077	833.9	
313.15	.0281	.7591	847.8	
313.15	.06	.4856	909	
313.15	.0939	.5904	935.5	
313.15	.0946	.2117	954.5	
313.15	.1091	.0653	969.3	
313.15	.11	.7974	937.3	
313.15	.1167	0	974.9	
313.15	.1429	.3764	976.9	
313.15	.1847	.1949	1002.1	
313.15	.1911	.6482	991.1	
313.15	.2017	.1193	1009.9	
313.15	.2291	0	1020.9	
313.15	.2304	.479	1010.8	
313.15	.2927	.6337	1022.3	
313.15	.3156	.2854	1038	
313.15	.3356	.3825	1040.5	
313.15	.3523	.2034	1046.7	
313.15	.3759	.4664	1044.5	
313.15	.3954	.1064	1054.8	
313.15	.4338	.2018	1059.9	
313.15	.4409	.5232	1054.8	
313.15	.4417	0	1062.5	
313.15	.4909	.3849	1062	
313.15	.5101	.2753	1066.3	
313.15	.5433	0	1073.4	
313.15	.6157	.1256	1077.6	
313.15	.6302	.2105	1077.3	
313.15	.6371	.3113	1046.7	
313.15	.6625	.0596	1081.9	
313.15	.7037	0	1085	
313.15	.7088	.1119	1083.6	
313.15	.7867	.1483	1010.8	
313.15	.7993	0	1089.6	
313.15	.8568	.0733	1038	
313.15	.9209	0	1062.5	

System: 1-butanol + ethyl ethanoate + methyltrioctylammonium 1,1,1-trifluoro-N-[(trifluoromethyl)sulfonyl]methanesulfonamide; phases: Liquid
Fixed: Pressure, kPa = 101
Property: Mass density, kg/m3 (Liquid); method: Vibrating tube method
Temperature, K	Mole fraction of methyltrioctylammonium 1,1,1-trifluoro-N-[(trifluoromethyl)sulfonyl]methanesulfonamide	Mole fraction of 1-butanol	Mass density, kg/m3	uncertainty
298.15	.0263	.7746	866.9	
298.15	.0328	.7188	880	
298.15	.066	.4347	937.2	
298.15	.0957	.1808	973.1	
298.15	.1058	.5394	959.3	
298.15	.1102	.056	985.7	
298.15	.1167	0	989.9	
298.15	.1295	.7617	963	
298.15	.1538	.3299	996.8	
298.15	.1912	.1637	1018.6	
298.15	.2024	.1182	1025.4	
298.15	.2176	.5993	1011.7	
298.15	.2291	0	1034.5	
298.15	.2512	.4243	1028	
298.15	.332	.5814	1039.9	
298.15	.3331	.2457	1052	
298.15	.3614	.335	1055.8	
298.15	.3657	.1728	1060	
298.15	.4022	.0901	1067.7	
298.15	.4124	.4141	1060.8	
298.15	.4417	0	1074.7	
298.15	.4494	.1701	1072.5	
298.15	.491	.4715	1068.1	
298.15	.5288	.3389	1076.2	
298.15	.5373	.2396	1080	
298.15	.5433	0	1085.4	
298.15	.628	.1057	1090.4	
298.15	.6561	.1775	1090	
298.15	.6664	.0527	1094.1	
298.15	.6693	.2642	1089.8	
298.15	.7037	0	1096.7	
298.15	.7246	.0925	1095.9	
298.15	.7993	0	1101.3	
298.15	.8087	.1246	1098.5	
298.15	.8495	.0617	1102.5	
298.15	.9209	0	1105.4	
303.15	.0263	.7746	863.4	
303.15	.0328	.7188	877	
303.15	.066	.4347	932.7	
303.15	.0957	.1808	967.2	
303.15	.1058	.5394	955.4	
303.15	.1102	.056	980.5	
303.15	.1167	0	984.9	
303.15	.1295	.7617	959.8	
303.15	.1538	.3299	991.8	
303.15	.1912	.1637	1013.5	
303.15	.2024	.1182	1020.5	
303.15	.2176	.5993	1008	
303.15	.2291	0	1029.5	
303.15	.2512	.4243	1023.4	
303.15	.332	.5814	1035.8	
303.15	.3331	.2457	1047.7	
303.15	.3614	.335	1051.3	
303.15	.3657	.1728	1055.2	
303.15	.4022	.0901	1062.5	
303.15	.4124	.4141	1056.4	
303.15	.4417	0	1069.6	
303.15	.4494	.1701	1067.9	
303.15	.491	.4715	1064.4	
303.15	.5288	.3389	1071.5	
303.15	.5373	.2396	1075.6	
303.15	.5433	0	1080.3	
303.15	.628	.1057	1085.5	
303.15	.6561	.1775	1085.5	
303.15	.6664	.0527	1089	
303.15	.6693	.2642	1085.4	
303.15	.7037	0	1091.5	
303.15	.7246	.0925	1091	
303.15	.7993	0	1096.2	
303.15	.8087	.1246	1094.1	
303.15	.8495	.0617	1097.8	
303.15	.9209	0	1100.5	
313.15	.0263	.7746	855	
313.15	.0328	.7188	868	
313.15	.066	.4347	924	
313.15	.0957	.1808	957.3	
313.15	.1058	.5394	947.4	
313.15	.1102	.056	977.05	
313.15	.1167	0	974.9	
313.15	.1295	.7617	953.2	
313.15	.1538	.3299	983.6	
313.15	.1912	.1637	1004.6	
313.15	.2024	.1182	1011.6	
313.15	.2176	.5993	1001.8	
313.15	.2291	0	1020.9	
313.15	.2512	.4243	1017.9	
313.15	.332	.5814	1029.5	
313.15	.3331	.2457	1041.2	
313.15	.3614	.335	1044.8	
313.15	.3657	.1728	1048.7	
313.15	.4022	.0901	1056.1	
313.15	.4124	.4141	1049.3	
313.15	.4417	0	1062.5	
313.15	.4494	.1701	1060.9	
313.15	.491	.4715	1057.9	
313.15	.5288	.3389	1065	
313.15	.5373	.2396	1068.3	
313.15	.5433	0	1073.4	
313.15	.628	.1057	1078.5	
313.15	.6561	.1775	1079	
313.15	.6664	.0527	1082.1	
313.15	.6693	.2642	1078.8	
313.15	.7037	0	1085	
313.15	.7246	.0925	1084.4	
313.15	.7993	0	1089.6	
313.15	.8087	.1246	1087.3	
313.15	.8495	.0617	1091.2	
313.15	.9209	0	1094.1	
313.15	.1058	.5394	947.4	

System: (RS)-2-butanol + ethyl ethanoate + methyltrioctylammonium 1,1,1-trifluoro-N-[(trifluoromethyl)sulfonyl]methanesulfonamide; phases: Liquid
Fixed: Pressure, kPa = 101
Property: Mass density, kg/m3 (Liquid); method: Vibrating tube method
Temperature, K	Mole fraction of methyltrioctylammonium 1,1,1-trifluoro-N-[(trifluoromethyl)sulfonyl]methanesulfonamide	Mole fraction of (RS)-2-butanol	Mass density, kg/m3	uncertainty
298.15	.0263	.7746	864.9	
298.15	.0328	.7188	879	
298.15	.066	.4347	935.4	
298.15	.0957	.1808	971.4	
298.15	.1058	.5394	958.3	
298.15	.1102	.056	985.3	
298.15	.1167	0	848.1	
298.15	.1295	.7617	961	
298.15	.1538	.3299	995.9	
298.15	.1912	.1637	1018	
298.15	.2024	.1182	1023.6	
298.15	.2176	.5993	1009.6	
298.15	.2291	0	1034.5	
298.15	.2512	.4243	1026.4	
298.15	.332	.5814	1039.5	
298.15	.3331	.2457	1051.4	
298.15	.3614	.335	1054.6	
298.15	.3657	.1728	1059.6	
298.15	.4022	.0901	1067.4	
298.15	.4124	.4141	1060	
298.15	.4417	0	1074.7	
298.15	.4494	.1701	1072	
298.15	.491	.4715	1067.6	
298.15	.5288	.3389	1075.7	
298.15	.5373	.2396	1079.5	
298.15	.5433	0	1085.4	
298.15	.628	.1057	1089.8	
298.15	.6561	.1775	1089.8	
298.15	.6664	.0527	1093.5	
298.15	.6693	.2642	1088.6	
298.15	.7037	0	1096.7	
298.15	.7246	.0925	1095.8	
298.15	.7993	0	1101.3	
298.15	.8087	.1246	1098.9	
298.15	.8495	.0617	1101.7	
298.15	.9209	0	1105.4	
298.15	.066	.4347	935.4	
313.15	.0263	.7746	855.3	
313.15	.0328	.7188	868.1	
313.15	.066	.4347	921	
313.15	.0957	.1808	955.8	
313.15	.1058	.5394	947.3	
313.15	.1102	.056	970	
313.15	.1167	0	974.9	
313.15	.1295	.7617	952.1	
313.15	.1538	.3299	982.8	
313.15	.1912	.1637	1004.2	
313.15	.2024	.1182	1009.7	
313.15	.2176	.5993	999.6	
313.15	.2291	0	1020.9	
313.15	.2512	.4243	1016	
313.15	.332	.5814	1029.3	
313.15	.3331	.2457	1040	
313.15	.3614	.335	1043.4	
313.15	.3657	.1728	1047.5	
313.15	.4022	.0901	1055.4	
313.15	.4112	.4155	1048.1	
313.15	.4417	0	1062.5	
313.15	.4494	.1701	1060	
313.15	.491	.4715	1057.1	
313.15	.5288	.3389	1064.6	
313.15	.5379	.2355	1067.6	
313.15	.5433	0	1073.4	
313.15	.6312	.1041	1078.2	
313.15	.6561	.1775	1078.4	
313.15	.6693	.2642	1078.1	
313.15	.672	.0495	1082	
313.15	.7037	0	1085	
313.15	.7246	.0925	1084.2	
313.15	.7993	0	1089.6	
313.15	.8087	.1246	1087.1	
313.15	.8495	.0617	1091	
313.15	.9209	0	1094.1	
303.15	.066	.4347	930.9	
303.15	.0328	.7188	876.9	
303.15	.0263	.7746	862.9	
303.15	.0957	.1808	966.1	
303.15	.1102	.056	980.1	
303.15	.1167	0	984.9	
303.15	.1058	.5394	955.4	
303.15	.1538	.3299	991.2	
303.15	.1912	.1637	1012.7	
303.15	.2024	.1182	1017.9	
303.15	.2291	0	1029.5	
303.15	.2512	.4243	1022.5	
303.15	.3331	.2457	1047.2	
303.15	.3657	.1728	1055.1	
303.15	.4022	.0901	1062.6	
303.15	.4417	0	1069.6	
303.15	.1295	.7617	956.9	
303.15	.2176	.5993	1005.2	
303.15	.3614	.335	1050	
303.15	.4494	.1701	1067.2	
303.15	.5433	0	1080.3	
303.15	.4124	.4141	1055.1	
303.15	.5373	.2396	1074.5	
303.15	.628	.1057	1084.6	
303.15	.6664	.0527	1088.1	
303.15	.7037	0	1091.5	
303.15	.332	.5814	1035.8	
303.15	.5288	.3389	1071.3	
303.15	.6561	.1775	1085.2	
303.15	.7246	.0925	1091	
303.15	.7993	0	1096.2	
303.15	.8087	.1246	1094	
303.15	.8495	.0617	1096.8	
303.15	.6693	.2642	1083.8	
303.15	.491	.4715	1063.6	
303.15	.9209	0	1100.5	
