Measured thermophysical data. Measurement and correlation of the diffusion coefficients of chromium (III) acetylacetonate at infinite dilution in supercritical carbon dioxide and in liquid ethanol
Source: J. Chem. Thermodyn., 2017, 10.1016/j.jct.2016.10.012
Compound 1: chromium acetylacetonate, C15H21CrO6, purity 99.99%
Compound 2: ethanol, C2H6O, purity 99.5%
Compound 3: carbon dioxide, CO2

System: carbon dioxide + chromium acetylacetonate; phases: Fluid (supercritical or subcritical phases)
Fixed: Mole fraction of chromium acetylacetonate = 0
Property: Binary diffusion coefficient, m2/s (Fluid (supercritical or subcritical phases)); method: Chromatographic impulse response
Temperature, K	Pressure, kPa	Binary diffusion coefficient, m2/s	uncertainty
308.15	8100	0.00000001063	
308.15	8200	0.00000000986	
308.15	8300	0.00000000927	
308.15	8400	0.00000000912	
308.15	8500	0.00000000905	
308.15	8600	0.00000000886	
308.15	8700	0.00000000869	
308.15	9000	0.00000000848	
308.15	9500	0.00000000789	
308.15	10000	0.00000000766	
308.15	11000	0.00000000725	
308.15	15000	0.00000000636	
308.15	18000	0.00000000591	
308.15	20000	0.0000000058	
308.15	25000	0.0000000053	
308.15	30000	0.00000000503	
308.15	35000	0.00000000468	
308.15	40000	0.00000000448	
313.15	9000	0.00000001133	
313.15	9500	0.00000000995	
313.15	10000	0.00000000928	
313.15	10500	0.00000000878	
313.15	11000	0.00000000852	
313.15	11500	0.00000000817	
313.15	12000	0.0000000079	
313.15	13000	0.00000000769	
313.15	16000	0.00000000691	
313.15	20000	0.00000000637	
313.15	25000	0.00000000582	
313.15	30000	0.00000000537	
313.15	35000	0.00000000508	
313.15	40000	0.00000000476	
323.15	10500	0.00000001357	
323.15	11000	0.00000001209	
323.15	11500	0.00000001123	
323.15	12000	0.00000001067	
323.15	13000	0.00000000982	
323.15	14000	0.00000000928	
323.15	15000	0.00000000891	
323.15	18000	0.00000000801	
323.15	20000	0.0000000074	
323.15	21000	0.00000000731	
323.15	23000	0.00000000707	
323.15	24000	0.00000000695	
323.15	25000	0.00000000687	
323.15	30000	0.00000000626	
323.15	35000	0.00000000574	
323.15	38000	0.0000000057	
333.15	12000	0.00000001496	
333.15	13000	0.00000001349	
333.15	14000	0.00000001168	
333.15	15000	0.00000001111	
333.15	16000	0.00000001055	
333.15	17000	0.00000000969	
333.15	19000	0.00000000929	
333.15	20000	0.00000000857	
333.15	21000	0.00000000881	
333.15	22000	0.00000000864	
333.15	23000	0.00000000837	
333.15	25000	0.00000000788	
333.15	27000	0.00000000748	
333.15	29000	0.00000000731	
333.15	30000	0.00000000688	
333.15	35000	0.00000000652	
333.15	38000	0.00000000624	
343.15	13000	0.00000001628	
343.15	14000	0.00000001514	
343.15	15000	0.00000001417	
343.15	16000	0.00000001327	
343.15	17000	0.0000000127	
343.15	18000	0.00000001164	
343.15	19000	0.0000000111	
343.15	20000	0.0000000106	
343.15	21000	0.00000001002	
343.15	22000	0.0000000099	
343.15	23000	0.00000000991	
343.15	24000	0.00000000938	
343.15	25000	0.00000000918	
343.15	27000	0.0000000085	
343.15	30000	0.00000000822	

System: ethanol + chromium acetylacetonate; phases: Liquid
Fixed: Mole fraction of chromium acetylacetonate = 0
Property: Binary diffusion coefficient, m2/s (Liquid); method: Taylor dispersion method
Temperature, K	Pressure, kPa	Binary diffusion coefficient, m2/s	uncertainty
299.15	100	0.00000000057	
308.15	100	0.00000000068	
313.15	100	0.00000000074	
323.15	100	0.0000000009	
333.15	100	0.00000000109	
