Measured thermophysical data. Activity coefficients at infinite dilution and physicochemical properties for organic solutes and water in the ionic liquid 4-(3-hydroxypropyl)-4-methylmorpholinium bis(trifluoromethylsulfonyl)-amide
Source: J. Chem. Thermodyn., 2015, 10.1016/j.jct.2015.02.024
Compound 1: hexane, C6H14, purity 99%
Compound 2: 3-methylpentane, C6H14, purity 99%
Compound 3: heptane, C7H16, purity 99.5%
Compound 4: octane, C8H18, purity 99%
Compound 5: 2,2,4-trimethylpentane, C8H18, purity 99%
Compound 6: nonane, C9H20, purity 99%
Compound 7: decane, C10H22, purity 99%
Compound 8: cyclopentane, C5H10, purity 99%
Compound 9: cyclohexane, C6H12, purity 99%
Compound 10: methylcyclohexane, C7H14, purity 99%
Compound 11: cycloheptane, C7H14, purity 98%
Compound 12: cyclooctane, C8H16, purity 99%
Compound 13: 1-pentene, C5H10, purity 98.5%
Compound 14: 1-hexene, C6H12, purity 99%
Compound 15: cyclohexene, C6H10, purity 99%
Compound 16: 1-heptene, C7H14, purity 99%
Compound 17: 1-octene, C8H16, purity 98%
Compound 18: 1-decene, C10H20, purity 97%
Compound 19: 1-pentyne, C5H8, purity 99%
Compound 20: 1-hexyne, C6H10, purity 97%
Compound 21: 1-heptyne, C7H12, purity 98%
Compound 22: 1-octyne, C8H14, purity 97%
Compound 23: benzene, C6H6, purity 99.8%
Compound 24: toluene, C7H8, purity 99.8%
Compound 25: ethylbenzene, C8H10, purity 99.8%
Compound 26: o-xylene, C8H10, purity 99%
Compound 27: m-xylene, C8H10, purity 99%
Compound 28: p-xylene, C8H10, purity 99%
Compound 29: styrene, C8H8, purity 99.9%
Compound 30: .alpha.-methylstyrene, C9H10, purity 99%
Compound 31: thiophene, C4H4S, purity 99%
Compound 32: pyridine, C5H5N, purity 99.8%
Compound 33: methanol, CH4O, purity 99.9%
Compound 34: ethanol, C2H6O, purity 99.8%
Compound 35: 1-propanol, C3H8O, purity 99.9%
Compound 36: 2-propanol, C3H8O, purity 99.9%
Compound 37: 1-butanol, C4H10O, purity 99.8%
Compound 38: 2-butanol, C4H10O, purity 99.5%
Compound 39: 2-methyl-1-propanol, C4H10O, purity 99.5%
Compound 40: tert-butanol, C4H10O, purity 99.7%
Compound 41: water, H2O
Compound 42: methyl acetate, C3H6O2, purity 99.8%
Compound 43: methyl propanoate, C4H8O2, purity 99%
Compound 44: methyl butanoate, C5H10O2, purity 99%
Compound 45: ethyl acetate, C4H8O2, purity 99.8%
Compound 46: vinyl acetate, C4H6O2, purity 99%
Compound 47: tetrahydrofuran, C4H8O, purity 99.9%
Compound 48: 1,4-dioxane, C4H8O2, purity 99.8%
Compound 49: tert-butyl methyl ether, C5H12O, purity 99.8%
Compound 50: tert-butyl ethyl ether, C6H14O, purity 99%
Compound 51: tert-amyl methyl ether, C6H14O, purity 97%
Compound 52: diethyl ether, C4H10O, purity 99.9%
Compound 53: dipropyl ether, C6H14O, purity 99%
Compound 54: diisopropyl ether, C6H14O, purity 99%
Compound 55: di-n-butyl ether, C8H18O, purity 99.3%
Compound 56: 2-propanone, C3H6O, purity 99.9%
Compound 57: 2-pentanone, C5H10O, purity 99%
Compound 58: 3-pentanone, C5H10O, purity 99%
Compound 59: butanal, C4H8O, purity 99%
Compound 60: acetonitrile, C2H3N, purity 99.9%
Compound 61: 1-nitropropane, C3H7NO2, purity 98.5%
Compound 62: 4-(3-hydroxypropyl)-4-methylmorpholinium bis(trifluoromethylsulfonyl)amide, C10H18F6N2O6S2

System: 4-(3-hydroxypropyl)-4-methylmorpholinium bis(trifluoromethylsulfonyl)amide; phases: Crystal, Liquid, Air at 1 atmosphere
Property: Normal melting temperature, K (Crystal); method: DSC/DTA
Normal melting temperature, K	uncertainty
287	.1

System: 4-(3-hydroxypropyl)-4-methylmorpholinium bis(trifluoromethylsulfonyl)amide; phases: Glass, Liquid, Air at 1 atmosphere
Property: Triple point temperature, K (Glass); method: DSC/DTA
Triple point temperature, K	uncertainty
220.6	.1

System: 4-(3-hydroxypropyl)-4-methylmorpholinium bis(trifluoromethylsulfonyl)amide; phases: Liquid
Fixed: Pressure, kPa = 101.325
Property: Mass density, kg/m3 (Liquid); method: Vibrating tube method
Temperature, K	Mass density, kg/m3	uncertainty
298.15	1536.09	.5
308.15	1527.32	.5
318.15	1518.74	.5
328.15	1510.14	.5
338.15	1501.59	.5
348.15	1493.08	.5
358.15	1484.63	.5
368.15	1476.24	.5

System: 4-(3-hydroxypropyl)-4-methylmorpholinium bis(trifluoromethylsulfonyl)amide; phases: Liquid
Fixed: Pressure, kPa = 101.325
Property: Viscosity, Pa*s (Liquid); method: Falling or rolling sphere viscometry
Temperature, K	Viscosity, Pa*s	uncertainty
298.15	1.183	.01183
308.15	.5657	.005657
318.15	.2807	.002807
328.15	.1561	.001561
338.15	.09449	.0009449
348.15	.06114	.0006114
358.15	.03779	.0003779
368.15	.02709	.0002709

System: hexane + 4-(3-hydroxypropyl)-4-methylmorpholinium bis(trifluoromethylsulfonyl)amide; phases: Liquid
Fixed: Pressure, kPa = 101
Fixed: Mole fraction of hexane = 0
Property: Activity coefficient of hexane (Liquid); method: Chromatography
Temperature, K	Activity coefficient of hexane	uncertainty
298.15	267	8.01
308.15	201	6.03
318.15	154	4.62
328.15	122	3.66

System: 3-methylpentane + 4-(3-hydroxypropyl)-4-methylmorpholinium bis(trifluoromethylsulfonyl)amide; phases: Liquid
Fixed: Pressure, kPa = 101
Fixed: Mole fraction of 3-methylpentane = 0
Property: Activity coefficient of 3-methylpentane (Liquid); method: Chromatography
Temperature, K	Activity coefficient of 3-methylpentane	uncertainty
298.15	273	8.19
308.15	201	6.03
318.15	152	4.56

System: heptane + 4-(3-hydroxypropyl)-4-methylmorpholinium bis(trifluoromethylsulfonyl)amide; phases: Liquid
Fixed: Pressure, kPa = 101
Fixed: Mole fraction of heptane = 0
Property: Activity coefficient of heptane (Liquid); method: Chromatography
Temperature, K	Activity coefficient of heptane	uncertainty
298.15	345	10.35
308.15	280	8.4
318.15	223	6.69
328.15	192	5.76
338.15	162	4.86
348.15	141	4.23
358.15	116	3.48
368.15	105	3.15

System: octane + 4-(3-hydroxypropyl)-4-methylmorpholinium bis(trifluoromethylsulfonyl)amide; phases: Liquid
Fixed: Pressure, kPa = 101
Fixed: Mole fraction of octane = 0
Property: Activity coefficient of octane (Liquid); method: Chromatography
Temperature, K	Activity coefficient of octane	uncertainty
318.15	315	9.45
328.15	265	7.95
338.15	230	6.9
348.15	199	5.97
358.15	172	5.16
368.15	152	4.56

System: 2,2,4-trimethylpentane + 4-(3-hydroxypropyl)-4-methylmorpholinium bis(trifluoromethylsulfonyl)amide; phases: Liquid
Fixed: Pressure, kPa = 101
Fixed: Mole fraction of 2,2,4-trimethylpentane = 0
Property: Activity coefficient of 2,2,4-trimethylpentane (Liquid); method: Chromatography
Temperature, K	Activity coefficient of 2,2,4-trimethylpentane	uncertainty
318.15	272	8.16
328.15	226	6.78
338.15	191	5.73
348.15	165	4.95
358.15	140	4.2
368.15	125	3.75

System: nonane + 4-(3-hydroxypropyl)-4-methylmorpholinium bis(trifluoromethylsulfonyl)amide; phases: Liquid
Fixed: Pressure, kPa = 101
Fixed: Mole fraction of nonane = 0
Property: Activity coefficient of nonane (Liquid); method: Chromatography
Temperature, K	Activity coefficient of nonane	uncertainty
318.15	445	13.35
328.15	385	11.55
338.15	332	9.96
348.15	287	8.61
358.15	249	7.47
368.15	224	6.72

System: decane + 4-(3-hydroxypropyl)-4-methylmorpholinium bis(trifluoromethylsulfonyl)amide; phases: Liquid
Fixed: Pressure, kPa = 101
Fixed: Mole fraction of decane = 0
Property: Activity coefficient of decane (Liquid); method: Chromatography
Temperature, K	Activity coefficient of decane	uncertainty
318.15	624	18.72
328.15	543	16.29
338.15	479	14.37
348.15	419	12.57
358.15	363	10.89
368.15	328	9.84

System: cyclopentane + 4-(3-hydroxypropyl)-4-methylmorpholinium bis(trifluoromethylsulfonyl)amide; phases: Liquid
Fixed: Pressure, kPa = 101
Fixed: Mole fraction of cyclopentane = 0
Property: Activity coefficient of cyclopentane (Liquid); method: Chromatography
Temperature, K	Activity coefficient of cyclopentane	uncertainty
318.15	41	1.23
328.15	34.7	1.041
338.15	30.6	.918
348.15	27.2	.816
358.15	23.5	.705
368.15	21.4	.642

System: cyclohexane + 4-(3-hydroxypropyl)-4-methylmorpholinium bis(trifluoromethylsulfonyl)amide; phases: Liquid
Fixed: Pressure, kPa = 101
Fixed: Mole fraction of cyclohexane = 0
Property: Activity coefficient of cyclohexane (Liquid); method: Chromatography
Temperature, K	Activity coefficient of cyclohexane	uncertainty
318.15	66	1.98
328.15	55.7	1.671
338.15	48.3	1.449
348.15	42.2	1.266
358.15	36.3	1.089
368.15	32.2	.966

System: methylcyclohexane + 4-(3-hydroxypropyl)-4-methylmorpholinium bis(trifluoromethylsulfonyl)amide; phases: Liquid
Fixed: Pressure, kPa = 101
Fixed: Mole fraction of methylcyclohexane = 0
Property: Activity coefficient of methylcyclohexane (Liquid); method: Chromatography
Temperature, K	Activity coefficient of methylcyclohexane	uncertainty
318.15	102	3.06
328.15	84.7	2.541
338.15	73.3	2.199
348.15	64.4	1.932
358.15	55	1.65
368.15	49.1	1.473

System: cycloheptane + 4-(3-hydroxypropyl)-4-methylmorpholinium bis(trifluoromethylsulfonyl)amide; phases: Liquid
Fixed: Pressure, kPa = 101
Fixed: Mole fraction of cycloheptane = 0
Property: Activity coefficient of cycloheptane (Liquid); method: Chromatography
Temperature, K	Activity coefficient of cycloheptane	uncertainty
318.15	82.8	2.484
328.15	71	2.13
338.15	62.6	1.878
348.15	54.5	1.635
358.15	47.2	1.416
368.15	43	1.29

System: cyclooctane + 4-(3-hydroxypropyl)-4-methylmorpholinium bis(trifluoromethylsulfonyl)amide; phases: Liquid
Fixed: Pressure, kPa = 101
Fixed: Mole fraction of cyclooctane = 0
Property: Activity coefficient of cyclooctane (Liquid); method: Chromatography
Temperature, K	Activity coefficient of cyclooctane	uncertainty
318.15	110	3.3
328.15	93.7	2.811
338.15	83.6	2.508
348.15	71.9	2.157
358.15	64.4	1.932
368.15	58.6	1.758

System: 1-pentene + 4-(3-hydroxypropyl)-4-methylmorpholinium bis(trifluoromethylsulfonyl)amide; phases: Liquid
Fixed: Pressure, kPa = 101
Fixed: Mole fraction of 1-pentene = 0
Property: Activity coefficient of 1-pentene (Liquid); method: Chromatography
Temperature, K	Activity coefficient of 1-pentene	uncertainty
298.15	64.5	1.935
308.15	49.4	1.482
318.15	38.3	1.149
328.15	30.6	.918

System: 1-hexene + 4-(3-hydroxypropyl)-4-methylmorpholinium bis(trifluoromethylsulfonyl)amide; phases: Liquid
Fixed: Pressure, kPa = 101
Fixed: Mole fraction of 1-hexene = 0
Property: Activity coefficient of 1-hexene (Liquid); method: Chromatography
Temperature, K	Activity coefficient of 1-hexene	uncertainty
318.15	58.2	1.746
328.15	51.7	1.551
338.15	45.2	1.356
348.15	40.5	1.215
358.15	35.9	1.077

System: cyclohexene + 4-(3-hydroxypropyl)-4-methylmorpholinium bis(trifluoromethylsulfonyl)amide; phases: Liquid
Fixed: Pressure, kPa = 101
Fixed: Mole fraction of cyclohexene = 0
Property: Activity coefficient of cyclohexene (Liquid); method: Chromatography
Temperature, K	Activity coefficient of cyclohexene	uncertainty
318.15	23.7	.711
328.15	21.6	.648
338.15	20.2	.606
348.15	18.6	.558
358.15	17.1	.513
368.15	16.2	.486

System: 1-heptene + 4-(3-hydroxypropyl)-4-methylmorpholinium bis(trifluoromethylsulfonyl)amide; phases: Liquid
Fixed: Pressure, kPa = 101
Fixed: Mole fraction of 1-heptene = 0
Property: Activity coefficient of 1-heptene (Liquid); method: Chromatography
Temperature, K	Activity coefficient of 1-heptene	uncertainty
318.15	86.6	2.598
328.15	75.8	2.274
338.15	69.3	2.079
348.15	62.2	1.866
358.15	55.7	1.671
368.15	51.1	1.533

System: 1-octene + 4-(3-hydroxypropyl)-4-methylmorpholinium bis(trifluoromethylsulfonyl)amide; phases: Liquid
Fixed: Pressure, kPa = 101
Fixed: Mole fraction of 1-octene = 0
Property: Activity coefficient of 1-octene (Liquid); method: Chromatography
Temperature, K	Activity coefficient of 1-octene	uncertainty
318.15	133	3.99
328.15	117	3.51
338.15	106	3.18
348.15	94.6	2.838
358.15	85.2	2.556
368.15	77.2	2.316

System: 1-decene + 4-(3-hydroxypropyl)-4-methylmorpholinium bis(trifluoromethylsulfonyl)amide; phases: Liquid
Fixed: Pressure, kPa = 101
Fixed: Mole fraction of 1-decene = 0
Property: Activity coefficient of 1-decene (Liquid); method: Chromatography
Temperature, K	Activity coefficient of 1-decene	uncertainty
318.15	307	9.21
328.15	269	8.07
338.15	243	7.29
348.15	218	6.54
358.15	194	5.82
368.15	176	5.28

System: 1-pentyne + 4-(3-hydroxypropyl)-4-methylmorpholinium bis(trifluoromethylsulfonyl)amide; phases: Liquid
Fixed: Pressure, kPa = 101
Fixed: Mole fraction of 1-pentyne = 0
Property: Activity coefficient of 1-pentyne (Liquid); method: Chromatography
Temperature, K	Activity coefficient of 1-pentyne	uncertainty
318.15	7.77	.2331
328.15	7.48	.2244
338.15	7.24	.2172
348.15	6.99	.2097
358.15	6.79	.2037
368.15	6.63	.1989

System: 1-hexyne + 4-(3-hydroxypropyl)-4-methylmorpholinium bis(trifluoromethylsulfonyl)amide; phases: Liquid
Fixed: Pressure, kPa = 101
Fixed: Mole fraction of 1-hexyne = 0
Property: Activity coefficient of 1-hexyne (Liquid); method: Chromatography
Temperature, K	Activity coefficient of 1-hexyne	uncertainty
318.15	12.5	.375
328.15	11.9	.357
338.15	11.6	.348
348.15	11.2	.336
358.15	10.7	.321
368.15	10.4	.312

System: 1-heptyne + 4-(3-hydroxypropyl)-4-methylmorpholinium bis(trifluoromethylsulfonyl)amide; phases: Liquid
Fixed: Pressure, kPa = 101
Fixed: Mole fraction of 1-heptyne = 0
Property: Activity coefficient of 1-heptyne (Liquid); method: Chromatography
Temperature, K	Activity coefficient of 1-heptyne	uncertainty
318.15	20	.6
328.15	19.2	.576
338.15	18.4	.552
348.15	17.6	.528
358.15	16.9	.507
368.15	16.3	.489

System: 1-octyne + 4-(3-hydroxypropyl)-4-methylmorpholinium bis(trifluoromethylsulfonyl)amide; phases: Liquid
Fixed: Pressure, kPa = 101
Fixed: Mole fraction of 1-octyne = 0
Property: Activity coefficient of 1-octyne (Liquid); method: Chromatography
Temperature, K	Activity coefficient of 1-octyne	uncertainty
318.15	33	.99
328.15	31.3	.939
338.15	29.6	.888
348.15	28	.84
358.15	26.7	.801
368.15	25.5	.765

System: benzene + 4-(3-hydroxypropyl)-4-methylmorpholinium bis(trifluoromethylsulfonyl)amide; phases: Liquid
Fixed: Pressure, kPa = 101
Fixed: Mole fraction of benzene = 0
Property: Activity coefficient of benzene (Liquid); method: Chromatography
Temperature, K	Activity coefficient of benzene	uncertainty
318.15	2.53	.0759
328.15	2.56	.0768
338.15	2.58	.0774
348.15	2.6	.078
358.15	2.63	.0789
368.15	2.65	.0795

System: toluene + 4-(3-hydroxypropyl)-4-methylmorpholinium bis(trifluoromethylsulfonyl)amide; phases: Liquid
Fixed: Pressure, kPa = 101
Fixed: Mole fraction of toluene = 0
Property: Activity coefficient of toluene (Liquid); method: Chromatography
Temperature, K	Activity coefficient of toluene	uncertainty
318.15	4.03	.1209
328.15	4.08	.1224
338.15	4.11	.1233
348.15	4.16	.1248
358.15	4.19	.1257
368.15	4.22	.1266

System: ethylbenzene + 4-(3-hydroxypropyl)-4-methylmorpholinium bis(trifluoromethylsulfonyl)amide; phases: Liquid
Fixed: Pressure, kPa = 101
Fixed: Mole fraction of ethylbenzene = 0
Property: Activity coefficient of ethylbenzene (Liquid); method: Chromatography
Temperature, K	Activity coefficient of ethylbenzene	uncertainty
318.15	7.33	.2199
328.15	7.28	.2184
338.15	7.22	.2166
348.15	7.18	.2154
358.15	7.13	.2139
368.15	7.09	.2127

System: o-xylene + 4-(3-hydroxypropyl)-4-methylmorpholinium bis(trifluoromethylsulfonyl)amide; phases: Liquid
Fixed: Pressure, kPa = 101
Fixed: Mole fraction of o-xylene = 0
Property: Activity coefficient of o-xylene (Liquid); method: Chromatography
Temperature, K	Activity coefficient of o-xylene	uncertainty
318.15	5.73	.1719
328.15	5.76	.1728
338.15	5.78	.1734
348.15	5.81	.1743
358.15	5.83	.1749
368.15	5.86	.1758

System: m-xylene + 4-(3-hydroxypropyl)-4-methylmorpholinium bis(trifluoromethylsulfonyl)amide; phases: Liquid
Fixed: Pressure, kPa = 101
Fixed: Mole fraction of m-xylene = 0
Property: Activity coefficient of m-xylene (Liquid); method: Chromatography
Temperature, K	Activity coefficient of m-xylene	uncertainty
318.15	6.44	.1932
328.15	6.55	.1965
338.15	6.64	.1992
348.15	6.73	.2019
358.15	6.85	.2055
368.15	6.92	.2076

System: p-xylene + 4-(3-hydroxypropyl)-4-methylmorpholinium bis(trifluoromethylsulfonyl)amide; phases: Liquid
Fixed: Pressure, kPa = 101
Fixed: Mole fraction of p-xylene = 0
Property: Activity coefficient of p-xylene (Liquid); method: Chromatography
Temperature, K	Activity coefficient of p-xylene	uncertainty
318.15	6.65	.1995
328.15	6.7	.201
338.15	6.74	.2022
348.15	6.78	.2034
358.15	6.79	.2037
368.15	6.84	.2052

System: styrene + 4-(3-hydroxypropyl)-4-methylmorpholinium bis(trifluoromethylsulfonyl)amide; phases: Liquid
Fixed: Pressure, kPa = 101
Fixed: Mole fraction of styrene = 0
Property: Activity coefficient of styrene (Liquid); method: Chromatography
Temperature, K	Activity coefficient of styrene	uncertainty
318.15	3.45	.1035
328.15	3.51	.1053
338.15	3.58	.1074
348.15	3.66	.1098
358.15	3.72	.1116
368.15	3.78	.1134

System: .alpha.-methylstyrene + 4-(3-hydroxypropyl)-4-methylmorpholinium bis(trifluoromethylsulfonyl)amide; phases: Liquid
Fixed: Pressure, kPa = 101
Fixed: Mole fraction of .alpha.-methylstyrene = 0
Property: Activity coefficient of .alpha.-methylstyrene (Liquid); method: Chromatography
Temperature, K	Activity coefficient of .alpha.-methylstyrene	uncertainty
318.15	5.97	.1791
328.15	6.12	.1836
338.15	6.28	.1884
348.15	6.41	.1923
358.15	6.55	.1965
368.15	6.65	.1995

System: thiophene + 4-(3-hydroxypropyl)-4-methylmorpholinium bis(trifluoromethylsulfonyl)amide; phases: Liquid
Fixed: Pressure, kPa = 101
Fixed: Mole fraction of thiophene = 0
Property: Activity coefficient of thiophene (Liquid); method: Chromatography
Temperature, K	Activity coefficient of thiophene	uncertainty
318.15	1.89	.0567
328.15	1.92	.0576
338.15	1.95	.0585
348.15	1.98	.0594
358.15	2	.06
368.15	2.03	.0609

System: pyridine + 4-(3-hydroxypropyl)-4-methylmorpholinium bis(trifluoromethylsulfonyl)amide; phases: Liquid
Fixed: Pressure, kPa = 101
Fixed: Mole fraction of pyridine = 0
Property: Activity coefficient of pyridine (Liquid); method: Chromatography
Temperature, K	Activity coefficient of pyridine	uncertainty
318.15	.414	.01242
328.15	.461	.01383
338.15	.501	.01503
348.15	.55	.0165
358.15	.593	.01779
368.15	.639	.01917

System: methanol + 4-(3-hydroxypropyl)-4-methylmorpholinium bis(trifluoromethylsulfonyl)amide; phases: Liquid
Fixed: Pressure, kPa = 101
Fixed: Mole fraction of methanol = 0
Property: Activity coefficient of methanol (Liquid); method: Chromatography
Temperature, K	Activity coefficient of methanol	uncertainty
318.15	.945	.02835
328.15	.929	.02787
338.15	.915	.02745
348.15	.899	.02697
358.15	.884	.02652
368.15	.872	.02616

System: ethanol + 4-(3-hydroxypropyl)-4-methylmorpholinium bis(trifluoromethylsulfonyl)amide; phases: Liquid
Fixed: Pressure, kPa = 101
Fixed: Mole fraction of ethanol = 0
Property: Activity coefficient of ethanol (Liquid); method: Chromatography
Temperature, K	Activity coefficient of ethanol	uncertainty
318.15	1.4	.042
328.15	1.37	.0411
338.15	1.34	.0402
348.15	1.3	.039
358.15	1.28	.0384
368.15	1.25	.0375

System: 1-propanol + 4-(3-hydroxypropyl)-4-methylmorpholinium bis(trifluoromethylsulfonyl)amide; phases: Liquid
Fixed: Pressure, kPa = 101
Fixed: Mole fraction of 1-propanol = 0
Property: Activity coefficient of 1-propanol (Liquid); method: Chromatography
Temperature, K	Activity coefficient of 1-propanol	uncertainty
318.15	2.06	.0618
328.15	2.01	.0603
338.15	1.96	.0588
348.15	1.92	.0576
358.15	1.88	.0564
368.15	1.84	.0552

System: 2-propanol + 4-(3-hydroxypropyl)-4-methylmorpholinium bis(trifluoromethylsulfonyl)amide; phases: Liquid
Fixed: Pressure, kPa = 101
Fixed: Mole fraction of 2-propanol = 0
Property: Activity coefficient of 2-propanol (Liquid); method: Chromatography
Temperature, K	Activity coefficient of 2-propanol	uncertainty
318.15	1.83	.0549
328.15	1.78	.0534
338.15	1.74	.0522
348.15	1.71	.0513
358.15	1.67	.0501
368.15	1.64	.0492

System: 1-butanol + 4-(3-hydroxypropyl)-4-methylmorpholinium bis(trifluoromethylsulfonyl)amide; phases: Liquid
Fixed: Pressure, kPa = 101
Fixed: Mole fraction of 1-butanol = 0
Property: Activity coefficient of 1-butanol (Liquid); method: Chromatography
Temperature, K	Activity coefficient of 1-butanol	uncertainty
318.15	3.23	.0969
328.15	3.07	.0921
338.15	2.96	.0888
348.15	2.84	.0852
358.15	2.73	.0819
368.15	2.64	.0792

System: 2-butanol + 4-(3-hydroxypropyl)-4-methylmorpholinium bis(trifluoromethylsulfonyl)amide; phases: Liquid
Fixed: Pressure, kPa = 101
Fixed: Mole fraction of 2-butanol = 0
Property: Activity coefficient of 2-butanol (Liquid); method: Chromatography
Temperature, K	Activity coefficient of 2-butanol	uncertainty
318.15	2.59	.0777
328.15	2.52	.0756
338.15	2.46	.0738
348.15	2.4	.072
358.15	2.34	.0702
368.15	2.29	.0687

System: 2-methyl-1-propanol + 4-(3-hydroxypropyl)-4-methylmorpholinium bis(trifluoromethylsulfonyl)amide; phases: Liquid
Fixed: Pressure, kPa = 101
Fixed: Mole fraction of 2-methyl-1-propanol = 0
Property: Activity coefficient of 2-methyl-1-propanol (Liquid); method: Chromatography
Temperature, K	Activity coefficient of 2-methyl-1-propanol	uncertainty
318.15	3.25	.0975
328.15	3.08	.0924
338.15	2.94	.0882
348.15	2.78	.0834
358.15	2.65	.0795
368.15	2.54	.0762

System: tert-butanol + 4-(3-hydroxypropyl)-4-methylmorpholinium bis(trifluoromethylsulfonyl)amide; phases: Liquid
Fixed: Pressure, kPa = 101
Fixed: Mole fraction of tert-butanol = 0
Property: Activity coefficient of tert-butanol (Liquid); method: Chromatography
Temperature, K	Activity coefficient of tert-butanol	uncertainty
318.15	2.09	.0627
328.15	2.06	.0618
338.15	2.03	.0609
348.15	2	.06
358.15	1.97	.0591
368.15	1.95	.0585

System: water + 4-(3-hydroxypropyl)-4-methylmorpholinium bis(trifluoromethylsulfonyl)amide; phases: Liquid
Fixed: Pressure, kPa = 101
Fixed: Mole fraction of water = 0
Property: Activity coefficient of water (Liquid); method: Chromatography
Temperature, K	Activity coefficient of water	uncertainty
318.15	1.43	.0429
328.15	1.36	.0408
338.15	1.28	.0384
348.15	1.21	.0363
358.15	1.15	.0345
368.15	1.1	.033

System: methyl acetate + 4-(3-hydroxypropyl)-4-methylmorpholinium bis(trifluoromethylsulfonyl)amide; phases: Liquid
Fixed: Pressure, kPa = 101
Fixed: Mole fraction of methyl acetate = 0
Property: Activity coefficient of methyl acetate (Liquid); method: Chromatography
Temperature, K	Activity coefficient of methyl acetate	uncertainty
318.15	.926	.02778
328.15	.971	.02913
338.15	1.02	.0306
348.15	1.06	.0318
358.15	1.1	.033
368.15	1.14	.0342

System: methyl propanoate + 4-(3-hydroxypropyl)-4-methylmorpholinium bis(trifluoromethylsulfonyl)amide; phases: Liquid
Fixed: Pressure, kPa = 101
Fixed: Mole fraction of methyl propanoate = 0
Property: Activity coefficient of methyl propanoate (Liquid); method: Chromatography
Temperature, K	Activity coefficient of methyl propanoate	uncertainty
318.15	1.45	.0435
328.15	1.51	.0453
338.15	1.57	.0471
348.15	1.63	.0489
358.15	1.68	.0504
368.15	1.74	.0522

System: methyl butanoate + 4-(3-hydroxypropyl)-4-methylmorpholinium bis(trifluoromethylsulfonyl)amide; phases: Liquid
Fixed: Pressure, kPa = 101
Fixed: Mole fraction of methyl butanoate = 0
Property: Activity coefficient of methyl butanoate (Liquid); method: Chromatography
Temperature, K	Activity coefficient of methyl butanoate	uncertainty
318.15	2.41	.0723
328.15	2.48	.0744
338.15	2.56	.0768
348.15	2.62	.0786
358.15	2.68	.0804
368.15	2.75	.0825

System: ethyl acetate + 4-(3-hydroxypropyl)-4-methylmorpholinium bis(trifluoromethylsulfonyl)amide; phases: Liquid
Fixed: Pressure, kPa = 101
Fixed: Mole fraction of ethyl acetate = 0
Property: Activity coefficient of ethyl acetate (Liquid); method: Chromatography
Temperature, K	Activity coefficient of ethyl acetate	uncertainty
318.15	1.5	.045
328.15	1.56	.0468
338.15	1.61	.0483
348.15	1.66	.0498
358.15	1.7	.051
368.15	1.77	.0531

System: vinyl acetate + 4-(3-hydroxypropyl)-4-methylmorpholinium bis(trifluoromethylsulfonyl)amide; phases: Liquid
Fixed: Pressure, kPa = 101
Fixed: Mole fraction of vinyl acetate = 0
Property: Activity coefficient of vinyl acetate (Liquid); method: Chromatography
Temperature, K	Activity coefficient of vinyl acetate	uncertainty
318.15	1.87	.0561
328.15	1.91	.0573
338.15	1.94	.0582
348.15	1.98	.0594
358.15	2	.06
368.15	2.03	.0609

System: tetrahydrofuran + 4-(3-hydroxypropyl)-4-methylmorpholinium bis(trifluoromethylsulfonyl)amide; phases: Liquid
Fixed: Pressure, kPa = 101
Fixed: Mole fraction of tetrahydrofuran = 0
Property: Activity coefficient of tetrahydrofuran (Liquid); method: Chromatography
Temperature, K	Activity coefficient of tetrahydrofuran	uncertainty
318.15	.968	.02904
328.15	1.03	.0309
338.15	1.08	.0324
348.15	1.12	.0336
358.15	1.18	.0354
368.15	1.23	.0369

System: 1,4-dioxane + 4-(3-hydroxypropyl)-4-methylmorpholinium bis(trifluoromethylsulfonyl)amide; phases: Liquid
Fixed: Pressure, kPa = 101
Fixed: Mole fraction of 1,4-dioxane = 0
Property: Activity coefficient of 1,4-dioxane (Liquid); method: Chromatography
Temperature, K	Activity coefficient of 1,4-dioxane	uncertainty
318.15	.6	.018
328.15	.653	.01959
338.15	.709	.02127
348.15	.758	.02274
358.15	.811	.02433
368.15	.859	.02577

System: tert-butyl methyl ether + 4-(3-hydroxypropyl)-4-methylmorpholinium bis(trifluoromethylsulfonyl)amide; phases: Liquid
Fixed: Pressure, kPa = 101
Fixed: Mole fraction of tert-butyl methyl ether = 0
Property: Activity coefficient of tert-butyl methyl ether (Liquid); method: Chromatography
Temperature, K	Activity coefficient of tert-butyl methyl ether	uncertainty
318.15	4.94	.1482
328.15	5.07	.1521
338.15	5.22	.1566
348.15	5.35	.1605
358.15	5.45	.1635
368.15	5.58	.1674

System: tert-butyl ethyl ether + 4-(3-hydroxypropyl)-4-methylmorpholinium bis(trifluoromethylsulfonyl)amide; phases: Liquid
Fixed: Pressure, kPa = 101
Fixed: Mole fraction of tert-butyl ethyl ether = 0
Property: Activity coefficient of tert-butyl ethyl ether (Liquid); method: Chromatography
Temperature, K	Activity coefficient of tert-butyl ethyl ether	uncertainty
318.15	16.1	.483
328.15	15.8	.474
338.15	15.6	.468
348.15	15.2	.456
358.15	15	.45
368.15	14.8	.444

System: tert-amyl methyl ether + 4-(3-hydroxypropyl)-4-methylmorpholinium bis(trifluoromethylsulfonyl)amide; phases: Liquid
Fixed: Pressure, kPa = 101
Fixed: Mole fraction of tert-amyl methyl ether = 0
Property: Activity coefficient of tert-amyl methyl ether (Liquid); method: Chromatography
Temperature, K	Activity coefficient of tert-amyl methyl ether	uncertainty
318.15	8.7	.261
328.15	8.75	.2625
338.15	8.8	.264
348.15	8.86	.2658
358.15	8.89	.2667
368.15	8.93	.2679

System: diethyl ether + 4-(3-hydroxypropyl)-4-methylmorpholinium bis(trifluoromethylsulfonyl)amide; phases: Liquid
Fixed: Pressure, kPa = 101
Fixed: Mole fraction of diethyl ether = 0
Property: Activity coefficient of diethyl ether (Liquid); method: Chromatography
Temperature, K	Activity coefficient of diethyl ether	uncertainty
318.15	4.94	.1482
328.15	5	.15
338.15	5.05	.1515
348.15	5.1	.153
358.15	5.14	.1542
368.15	5.19	.1557

System: dipropyl ether + 4-(3-hydroxypropyl)-4-methylmorpholinium bis(trifluoromethylsulfonyl)amide; phases: Liquid
Fixed: Pressure, kPa = 101
Fixed: Mole fraction of dipropyl ether = 0
Property: Activity coefficient of dipropyl ether (Liquid); method: Chromatography
Temperature, K	Activity coefficient of dipropyl ether	uncertainty
318.15	20.1	.603
328.15	19.5	.585
338.15	18.9	.567
348.15	18.4	.552
358.15	17.9	.537
368.15	17.4	.522

System: diisopropyl ether + 4-(3-hydroxypropyl)-4-methylmorpholinium bis(trifluoromethylsulfonyl)amide; phases: Liquid
Fixed: Pressure, kPa = 101
Fixed: Mole fraction of diisopropyl ether = 0
Property: Activity coefficient of diisopropyl ether (Liquid); method: Chromatography
Temperature, K	Activity coefficient of diisopropyl ether	uncertainty
318.15	17.3	.519
328.15	17.1	.513
338.15	16.9	.507
348.15	16.7	.501
358.15	16.5	.495
368.15	16.3	.489

System: di-n-butyl ether + 4-(3-hydroxypropyl)-4-methylmorpholinium bis(trifluoromethylsulfonyl)amide; phases: Liquid
Fixed: Pressure, kPa = 101
Fixed: Mole fraction of di-n-butyl ether = 0
Property: Activity coefficient of di-n-butyl ether (Liquid); method: Chromatography
Temperature, K	Activity coefficient of di-n-butyl ether	uncertainty
318.15	56.8	1.704
328.15	53.8	1.614
338.15	50.9	1.527
348.15	48.5	1.455
358.15	46.3	1.389
368.15	44.3	1.329

System: 2-propanone + 4-(3-hydroxypropyl)-4-methylmorpholinium bis(trifluoromethylsulfonyl)amide; phases: Liquid
Fixed: Pressure, kPa = 101
Fixed: Mole fraction of 2-propanone = 0
Property: Activity coefficient of 2-propanone (Liquid); method: Chromatography
Temperature, K	Activity coefficient of 2-propanone	uncertainty
318.15	.486	.01458
328.15	.517	.01551
338.15	.543	.01629
348.15	.572	.01716
358.15	.596	.01788
368.15	.63	.0189

System: 2-pentanone + 4-(3-hydroxypropyl)-4-methylmorpholinium bis(trifluoromethylsulfonyl)amide; phases: Liquid
Fixed: Pressure, kPa = 101
Fixed: Mole fraction of 2-pentanone = 0
Property: Activity coefficient of 2-pentanone (Liquid); method: Chromatography
Temperature, K	Activity coefficient of 2-pentanone	uncertainty
318.15	1.24	.0372
328.15	1.29	.0387
338.15	1.34	.0402
348.15	1.4	.042
358.15	1.44	.0432
368.15	1.48	.0444

System: 3-pentanone + 4-(3-hydroxypropyl)-4-methylmorpholinium bis(trifluoromethylsulfonyl)amide; phases: Liquid
Fixed: Pressure, kPa = 101
Fixed: Mole fraction of 3-pentanone = 0
Property: Activity coefficient of 3-pentanone (Liquid); method: Chromatography
Temperature, K	Activity coefficient of 3-pentanone	uncertainty
318.15	1.28	.0384
328.15	1.33	.0399
338.15	1.4	.042
348.15	1.45	.0435
358.15	1.52	.0456
368.15	1.57	.0471

System: butanal + 4-(3-hydroxypropyl)-4-methylmorpholinium bis(trifluoromethylsulfonyl)amide; phases: Liquid
Fixed: Pressure, kPa = 101
Fixed: Mole fraction of butanal = 0
Property: Activity coefficient of butanal (Liquid); method: Chromatography
Temperature, K	Activity coefficient of butanal	uncertainty
318.15	1.37	.0411
328.15	1.4	.042
338.15	1.43	.0429
348.15	1.45	.0435
358.15	1.48	.0444
368.15	1.5	.045

System: acetonitrile + 4-(3-hydroxypropyl)-4-methylmorpholinium bis(trifluoromethylsulfonyl)amide; phases: Liquid
Fixed: Pressure, kPa = 101
Fixed: Mole fraction of acetonitrile = 0
Property: Activity coefficient of acetonitrile (Liquid); method: Chromatography
Temperature, K	Activity coefficient of acetonitrile	uncertainty
318.15	.479	.01437
328.15	.495	.01485
338.15	.513	.01539
348.15	.528	.01584
358.15	.545	.01635
368.15	.561	.01683

System: 1-nitropropane + 4-(3-hydroxypropyl)-4-methylmorpholinium bis(trifluoromethylsulfonyl)amide; phases: Liquid
Fixed: Pressure, kPa = 101
Fixed: Mole fraction of 1-nitropropane = 0
Property: Activity coefficient of 1-nitropropane (Liquid); method: Chromatography
Temperature, K	Activity coefficient of 1-nitropropane	uncertainty
318.15	1.24	.0372
328.15	1.26	.0378
338.15	1.28	.0384
348.15	1.3	.039
358.15	1.32	.0396
368.15	1.34	.0402
