Measured thermophysical data. Solubility, volumetric properties and viscosity of the sustainable systems of liquid poly(ethylene glycol) 200 with imidazoliumand phosphonium-based ionic liquids: Cation and anion effects
Source: J. Chem. Thermodyn., 2015, 10.1016/j.jct.2014.08.018
Compound 1: 1-hexyl-3-methylimidazolium bis(trifluoromethylsulfonyl)imide, C12H19F6N3O4S2, purity 99%
Compound 2: 1-butyl-3-methylimidazolium dicyanamide, C10H15N5, purity 99%
Compound 3: trihexyltetradecylphosphonium dicyanamide, C34H68N3P, purity 99%

System: 1-hexyl-3-methylimidazolium bis(trifluoromethylsulfonyl)imide; phases: Liquid
Fixed: Pressure, kPa = 101.325
Property: Mass density, kg/m3 (Liquid); method: Vibrating tube method
Temperature, K	Mass density, kg/m3	uncertainty
288.15	1381.3	1.3813
298.15	1372.2	1.3722
308.15	1363	1.363
318.15	1353.9	1.3539
328.15	1344.9	1.3449

System: 1-hexyl-3-methylimidazolium bis(trifluoromethylsulfonyl)imide; phases: Liquid
Fixed: Pressure, kPa = 101.325
Property: Viscosity, Pa*s (Liquid); method: Capillary tube (Ostwald; Ubbelohde) method
Temperature, K	Viscosity, Pa*s	uncertainty
288.19	.11589	.0011589
298.12	.06947	.0006947
308.05	.04487	.0004487
318.07	.03077	.0003077
328.08	.02192	.0002192

System: 1-hexyl-3-methylimidazolium bis(trifluoromethylsulfonyl)imide; phases: Liquid
Fixed: Pressure, kPa = 101.325
Property: Viscosity, Pa*s (Liquid); method: Capillary tube (Ostwald; Ubbelohde) method
Temperature, K	Viscosity, Pa*s	uncertainty
288.19	.11581	.00266363
298.12	.06962	.00160126
308.11	.04486	.00103178
317.95	.03077	.00070771
328.08	.02192	.00050416

System: 1-butyl-3-methylimidazolium dicyanamide; phases: Liquid
Fixed: Pressure, kPa = 101.325
Property: Mass density, kg/m3 (Liquid); method: Vibrating tube method
Temperature, K	Mass density, kg/m3	uncertainty
288.15	1066.9	1.0669
298.15	1060.5	1.0605
308.15	1054.2	1.0542
318.15	1047.9	1.0479
328.15	1041.7	1.0417

System: 1-butyl-3-methylimidazolium dicyanamide; phases: Liquid
Fixed: Pressure, kPa = 101.325
Property: Viscosity, Pa*s (Liquid); method: Capillary tube (Ostwald; Ubbelohde) method
Temperature, K	Viscosity, Pa*s	uncertainty
288.17	.04586	.0004586
298.11	.03015	.0003015
308.05	.02091	.0002091
318.06	.01519	.0001519
328.08	.01155	.0001155

System: 1-butyl-3-methylimidazolium dicyanamide; phases: Liquid
Fixed: Pressure, kPa = 101.325
Property: Viscosity, Pa*s (Liquid); method: Capillary tube (Ostwald; Ubbelohde) method
Temperature, K	Viscosity, Pa*s	uncertainty
288.22	.04582	.0013746
298.11	.03015	.0009045
308.12	.02094	.0006282
318.05	.01521	.0004563
328.05	.01156	.0003468

System: trihexyltetradecylphosphonium dicyanamide; phases: Liquid
Fixed: Pressure, kPa = 101.325
Property: Mass density, kg/m3 (Liquid); method: Vibrating tube method
Temperature, K	Mass density, kg/m3	uncertainty
288.15	903.4	.9034
298.15	897.6	.8976
308.15	891.9	.8919
318.15	886.3	.8863
328.15	880.7	.8807

System: trihexyltetradecylphosphonium dicyanamide; phases: Liquid
Fixed: Pressure, kPa = 101.325
Property: Viscosity, Pa*s (Liquid); method: Capillary tube (Ostwald; Ubbelohde) method
Temperature, K	Viscosity, Pa*s	uncertainty
288.17	.66515	.0066515
298.11	.3629	.003629
308.05	.21007	.0021007
318.06	.12977	.0012977
328.08	.08381	.0008381

System: trihexyltetradecylphosphonium dicyanamide; phases: Liquid
Fixed: Pressure, kPa = 101.325
Property: Viscosity, Pa*s (Liquid); method: Capillary tube (Ostwald; Ubbelohde) method
Temperature, K	Viscosity, Pa*s	uncertainty
288.31	.66413	.02125216
298.07	.36232	.01159424
308.09	.21009	.00672288
318.01	.12978	.00415296
328.03	.08395	.0026864
