Measured thermophysical data. Volumetric, transport, and acoustic properties of binary mixtures  of 2-methyl-1-propanol with hexadecane and squalane at T = (298.15, 303.15,  and 308.15) K: Experimental results, correlation, and prediction by the ERAS model
Source: J. Chem. Thermodyn., 2009, 10.1016/j.jct.2009.02.002
Compound 1: 2-methyl-1-propanol, C4H10O, purity 99.5%
Compound 2: hexadecane, C16H34, purity 99%
Compound 3: squalane, C30H62, purity 99%

System: 2-methyl-1-propanol; phases: Liquid
Fixed: Pressure, kPa = 101.325
Property: Mass density, kg/m3 (Liquid); method: Vibrating tube method
Temperature, K	Mass density, kg/m3	uncertainty
298.15	798.52	.002
303.15	794.6	.002
308.15	790.63	.002

System: 2-methyl-1-propanol; phases: Liquid
Fixed: Pressure, kPa = 101.325
Property: Viscosity, Pa*s (Liquid); method: Capillary tube (Ostwald; Ubbelohde) method
Temperature, K	Viscosity, Pa*s	uncertainty
298.15	.003404	.000003
303.15	.002695	.000003
308.15	.002188	.000003

System: 2-methyl-1-propanol; phases: Liquid
Fixed: Pressure, kPa = 101.325
Property: Speed of sound, m/s (Liquid); method: automatically measured using an Anton Paar DSA 5000 instrument
Temperature, K	Speed of sound, m/s	uncertainty
298.15	1189.6	.1
303.15	1172.9	.1
308.15	1156.2	.1

System: hexadecane; phases: Liquid
Fixed: Pressure, kPa = 101.325
Property: Mass density, kg/m3 (Liquid); method: Vibrating tube method
Temperature, K	Mass density, kg/m3	uncertainty
298.15	770.456	.002
303.15	766.981	.002
308.15	763.52	.002

System: hexadecane; phases: Liquid
Fixed: Pressure, kPa = 101.325
Property: Viscosity, Pa*s (Liquid); method: Capillary tube (Ostwald; Ubbelohde) method
Temperature, K	Viscosity, Pa*s	uncertainty
298.15	.003041	.000003
303.15	.002706	.000003
308.15	.002409	.000003

System: hexadecane; phases: Liquid
Fixed: Pressure, kPa = 101.325
Property: Speed of sound, m/s (Liquid); method: Pulse-echo method
Temperature, K	Speed of sound, m/s	uncertainty
298.15	1338.6	.1
303.15	1320	.1
308.15	1301.7	.1

System: squalane; phases: Liquid
Fixed: Pressure, kPa = 101.325
Property: Mass density, kg/m3 (Liquid); method: Vibrating tube method
Temperature, K	Mass density, kg/m3	uncertainty
298.15	805.122	.002
303.15	801.912	.002
308.15	798.709	.002

System: squalane; phases: Liquid
Fixed: Pressure, kPa = 101.325
Property: Viscosity, Pa*s (Liquid); method: Capillary tube (Ostwald; Ubbelohde) method
Temperature, K	Viscosity, Pa*s	uncertainty
298.15	.028257	.000003
303.15	.022087	.000003
308.15	.017774	.000003

System: squalane; phases: Liquid
Fixed: Pressure, kPa = 101.325
Property: Speed of sound, m/s (Liquid); method: automatically measured using an Anton Paar DSA 5000 instrument
Temperature, K	Speed of sound, m/s	uncertainty
298.15	1381.9	.1
303.15	1364.1	.1
308.15	1346.5	.1

System: 2-methyl-1-propanol + hexadecane; phases: Liquid
Fixed: Pressure, kPa = 101
Property: Mass density, kg/m3 (Liquid); method: Vibrating tube method
Temperature, K	Mole fraction of 2-methyl-1-propanol	Mass density, kg/m3	uncertainty
298.15	.0505	770.506	.002
298.15	.108	770.704	.002
298.15	.1539	770.945	.002
298.15	.2202	771.403	.002
298.15	.2709	771.834	.002
298.15	.3389	772.519	.002
298.15	.4112	773.437	.002
298.15	.5043	774.946	.002
298.15	.5989	776.918	.002
298.15	.6938	779.505	.002
298.15	.8115	783.946	.002
298.15	.8638	786.74	.002
298.15	.9037	789.326	.002
298.15	.938	792.003	.002
303.15	.0505	766.982	.002
303.15	.108	767.145	.002
303.15	.1539	767.37	.002
303.15	.2202	767.797	.002
303.15	.2709	768.215	.002
303.15	.3389	768.878	.002
303.15	.4112	769.755	.002
303.15	.5043	771.22	.002
303.15	.5989	773.158	.002
303.15	.6938	775.707	.002
303.15	.8115	780.177	.002
303.15	.8638	782.888	.002
303.15	.9037	785.457	.002
303.15	.938	788.12	.002
308.15	.0505	763.479	.002
308.15	.108	763.586	.002
308.15	.1539	763.784	.002
308.15	.2202	764.189	.002
308.15	.2709	764.58	.002
308.15	.3389	765.22	.002
308.15	.4112	766.075	.002
308.15	.5043	767.482	.002
308.15	.5989	769.37	.002
308.15	.6938	771.873	.002
308.15	.8115	776.274	.002
308.15	.8638	778.972	.002
308.15	.9037	781.543	.002
308.15	.938	784.196	.002

System: 2-methyl-1-propanol + hexadecane; phases: Liquid
Fixed: Pressure, kPa = 101
Property: Speed of sound, m/s (Liquid); method: automatically measured using an Anton Paar DSA 5000 instrument
Temperature, K	Mole fraction of 2-methyl-1-propanol	Speed of sound, m/s	uncertainty
298.15	.0505	1333.6	.1
298.15	.108	1328.2	.1
298.15	.1539	1324.2	.1
298.15	.2202	1318.4	.1
298.15	.2709	1313.8	.1
298.15	.3389	1307.3	.1
298.15	.4112	1299.9	.1
298.15	.5043	1289.8	.1
298.15	.5989	1277.8	.1
298.15	.6938	1263.6	.1
298.15	.8115	1241.5	.1
298.15	.8638	1229.5	.1
298.15	.9037	1219	.1
298.15	.938	1209.3	.1
303.15	.0505	1314.5	.1
303.15	.108	1309.5	.1
303.15	.1539	1305.5	.1
303.15	.2202	1299.8	.1
303.15	.2709	1295.1	.1
303.15	.3389	1288.7	.1
303.15	.4112	1281.3	.1
303.15	.5043	1271.2	.1
303.15	.5989	1259.3	.1
303.15	.6938	1245.3	.1
303.15	.8115	1223.8	.1
303.15	.8638	1211.9	.1
303.15	.9037	1201.6	.1
303.15	.938	1192.2	.1
308.15	.0505	1296.1	.1
308.15	.108	1291.1	.1
308.15	.1539	1287	.1
308.15	.2202	1281.3	.1
308.15	.2709	1276.6	.1
308.15	.3389	1270.2	.1
308.15	.4112	1262.8	.1
308.15	.5043	1252.8	.1
308.15	.5989	1241	.1
308.15	.6938	1227.4	.1
308.15	.8115	1206.2	.1
308.15	.8638	1194.4	.1
308.15	.9037	1184.3	.1
308.15	.938	1175.2	.1

System: 2-methyl-1-propanol + hexadecane; phases: Liquid
Fixed: Pressure, kPa = 101
Property: Viscosity, Pa*s (Liquid); method: Capillary tube (Ostwald; Ubbelohde) method
Temperature, K	Mole fraction of 2-methyl-1-propanol	Viscosity, Pa*s	uncertainty
298.15	.0505	.002807	.000003
298.15	.108	.002658	.000003
298.15	.1539	.002601	.000003
298.15	.2202	.002576	.000003
298.15	.2709	.002596	.000003
298.15	.3389	.002638	.000003
298.15	.4112	.002672	.000003
298.15	.5043	.002694	.000003
298.15	.5989	.002676	.000003
298.15	.6938	.002643	.000003
298.15	.8115	.002673	.000003
298.15	.8638	.002756	.000003
298.15	.9037	.002874	.000003
298.15	.938	.003023	.000003
303.15	.0505	.002494	.000003
303.15	.108	.002345	.000003
303.15	.1539	.002277	.000003
303.15	.2202	.002246	.000003
303.15	.2709	.002235	.000003
303.15	.3389	.002252	.000003
303.15	.4112	.002292	.000003
303.15	.5043	.002296	.000003
303.15	.5989	.002295	.000003
303.15	.6938	.002274	.000003
303.15	.8115	.00228	.000003
303.15	.8638	.002322	.000003
303.15	.9037	.002379	.000003
303.15	.938	.002469	.000003
308.15	.0505	.002233	.000003
308.15	.108	.002102	.000003
308.15	.1539	.002023	.000003
308.15	.2202	.001975	.000003
308.15	.2709	.001952	.000003
308.15	.3389	.001946	.000003
308.15	.4112	.001967	.000003
308.15	.5043	.001985	.000003
308.15	.5989	.001998	.000003
308.15	.6938	.001984	.000003
308.15	.8115	.002	.000003
308.15	.8638	.002009	.000003
308.15	.9037	.002046	.000003
308.15	.938	.002082	.000003

System: 2-methyl-1-propanol + squalane; phases: Liquid
Fixed: Pressure, kPa = 101
Property: Mass density, kg/m3 (Liquid); method: Vibrating tube method
Temperature, K	Mole fraction of 2-methyl-1-propanol	Mass density, kg/m3	uncertainty
298.15	.0803	804.648	.002
298.15	.1032	804.528	.002
298.15	.1672	804.219	.002
298.15	.2045	804.051	.002
298.15	.2551	803.824	.002
298.15	.3201	803.546	.002
298.15	.417	803.131	.002
298.15	.4978	802.728	.002
298.15	.6316	801.934	.002
298.15	.7005	801.422	.002
298.15	.8028	800.494	.002
298.15	.8482	800.015	.002
298.15	.9095	799.392	.002
298.15	.9448	799.012	.002
303.15	.0803	801.388	.002
303.15	.1032	801.259	.002
303.15	.1672	800.916	.002
303.15	.2045	800.733	.002
303.15	.2551	800.484	.002
303.15	.3201	800.183	.002
303.15	.417	799.716	.002
303.15	.4978	799.277	.002
303.15	.6316	798.413	.002
303.15	.7005	797.855	.002
303.15	.8028	796.852	.002
303.15	.8482	796.317	.002
303.15	.9095	795.551	.002
303.15	.9448	795.162	.002
308.15	.0803	798.13	.002
308.15	.1032	797.982	.002
308.15	.1672	797.596	.002
308.15	.2045	797.401	.002
308.15	.2551	797.129	.002
308.15	.3201	796.807	.002
308.15	.417	796.307	.002
308.15	.4978	795.831	.002
308.15	.6316	794.872	.002
308.15	.7005	794.26	.002
308.15	.8028	793.147	.002
308.15	.8482	792.582	.002
308.15	.9095	791.791	.002
308.15	.9448	791.339	.002

System: 2-methyl-1-propanol + squalane; phases: Liquid
Fixed: Pressure, kPa = 101
Property: Speed of sound, m/s (Liquid); method: automatically measured using an Anton Paar DSA 5000 instrument
Temperature, K	Mole fraction of 2-methyl-1-propanol	Speed of sound, m/s	uncertainty
298.15	.0803	1377	.1
298.15	.1032	1375.6	.1
298.15	.1672	1371.4	.1
298.15	.2045	1368.7	.1
298.15	.2551	1364.9	.1
298.15	.3201	1359.9	.1
298.15	.417	1351.3	.1
298.15	.4978	1343.1	.1
298.15	.6316	1325.5	.1
298.15	.7005	1313.6	.1
298.15	.8028	1289.2	.1
298.15	.8482	1274.6	.1
298.15	.9095	1248.9	.1
298.15	.9448	1229.5	.1
303.15	.0803	1359.1	.1
303.15	.1032	1357.7	.1
303.15	.1672	1353.4	.1
303.15	.2045	1350.8	.1
303.15	.2551	1347.2	.1
303.15	.3201	1341.8	.1
303.15	.417	1333.4	.1
303.15	.4978	1325.1	.1
303.15	.6316	1307.7	.1
303.15	.7005	1295.9	.1
303.15	.8028	1271.7	.1
303.15	.8482	1257.1	.1
303.15	.9095	1231.6	.1
303.15	.9448	1212.5	.1
308.15	.0803	1341.4	.1
308.15	.1032	1340	.1
308.15	.1672	1335.6	.1
308.15	.2045	1332.9	.1
308.15	.2551	1329.2	.1
308.15	.3201	1324	.1
308.15	.417	1315.5	.1
308.15	.4978	1307.2	.1
308.15	.6316	1290.1	.1
308.15	.7005	1278.1	.1
308.15	.8028	1254.1	.1
308.15	.8482	1239.6	.1
308.15	.9095	1214.3	.1
308.15	.9448	1195.4	.1

System: 2-methyl-1-propanol + squalane; phases: Liquid
Fixed: Pressure, kPa = 101
Property: Viscosity, Pa*s (Liquid); method: Capillary tube (Ostwald; Ubbelohde) method
Temperature, K	Mole fraction of 2-methyl-1-propanol	Viscosity, Pa*s	uncertainty
298.15	.0803	.023809	.000003
298.15	.1032	.022853	.000003
298.15	.1672	.020712	.000003
298.15	.2045	.019781	.000003
298.15	.2551	.018755	.000003
298.15	.3201	.017704	.000003
298.15	.417	.016342	.000003
298.15	.4978	.015114	.000003
298.15	.6316	.012536	.000003
298.15	.7005	.010903	.000003
298.15	.8028	.008199	.000003
298.15	.8482	.006959	.000003
298.15	.9095	.005361	.000003
298.15	.9448	.00453	.000003
303.15	.0803	.018823	.000003
303.15	.1032	.018111	.000003
303.15	.1672	.016497	.000003
303.15	.2045	.015779	.000003
303.15	.2551	.014974	.000003
303.15	.3201	.014118	.000003
303.15	.417	.012991	.000003
303.15	.4978	.012001	.000003
303.15	.6316	.00998	.000003
303.15	.7005	.008721	.000003
303.15	.8028	.006648	.000003
303.15	.8482	.005693	.000003
303.15	.9095	.004404	.000003
303.15	.9448	.003703	.000003
308.15	.0803	.01528	.000003
308.15	.1032	.014721	.000003
308.15	.1672	.013449	.000003
308.15	.2045	.012852	.000003
308.15	.2551	.012178	.000003
308.15	.3201	.011472	.000003
308.15	.417	.010537	.000003
308.15	.4978	.009757	.000003
308.15	.6316	.008196	.000003
308.15	.7005	.007217	.000003
308.15	.8028	.005581	.000003
308.15	.8482	.004802	.000003
308.15	.9095	.003728	.000003
308.15	.9448	.003115	.000003
