Measured thermophysical data. Biocompatible choline based ionic salts: Solubility in short-chain alcohols
Source: J. Chem. Thermodyn., 2013, 10.1016/j.jct.2013.07.025
Compound 1: choline chloride, C5H14ClNO, purity 99%
Compound 2: choline acetate, C7H17NO3, purity 98%
Compound 3: hydrogen choline chloride succinate, C9H18ClNO4
Compound 4: hydrogen choline chloride glutarate, C10H20ClNO4
Compound 5: ethanol, C2H6O, purity 99.5%
Compound 6: n-propanol, C3H8O, purity 99.9%
Compound 7: 1-butanol, C4H10O, purity 99.5%

System: choline acetate; phases: Crystal, Liquid, Air at 1 atmosphere
Property: Normal melting temperature, K (Crystal); method: DSC/DTA
Normal melting temperature, K	uncertainty
340.75	

System: choline acetate; phases: Crystal, Liquid, Air at 1 atmosphere
Property: Molar enthalpy of transition or fusion, kJ/mol (Crystal); method: DSC/DTA
Molar enthalpy of transition or fusion, kJ/mol	uncertainty
16.5	

System: hydrogen choline chloride succinate; phases: Crystal, Liquid, Air at 1 atmosphere
Property: Normal melting temperature, K (Crystal); method: DSC/DTA
Normal melting temperature, K	uncertainty
420.55	

System: hydrogen choline chloride succinate; phases: Crystal, Liquid, Air at 1 atmosphere
Property: Molar enthalpy of transition or fusion, kJ/mol (Crystal); method: DSC/DTA
Molar enthalpy of transition or fusion, kJ/mol	uncertainty
37.1	

System: hydrogen choline chloride glutarate; phases: Crystal, Liquid, Air at 1 atmosphere
Property: Normal melting temperature, K (Crystal); method: DSC/DTA
Normal melting temperature, K	uncertainty
406.11	

System: hydrogen choline chloride glutarate; phases: Crystal, Liquid, Air at 1 atmosphere
Property: Molar enthalpy of transition or fusion, kJ/mol (Crystal); method: DSC/DTA
Molar enthalpy of transition or fusion, kJ/mol	uncertainty
33.5	

System: ethanol + choline chloride; phases: Liquid, Crystal
Fixed: Pressure, kPa = 101
Property: Mole fraction of choline chloride (Liquid); method: Gravimetric
Temperature, K	Mole fraction of choline chloride	uncertainty
269.8	.017	.0007
276.4	.027	.0007
281.8	.038	.0007
287.2	.054	.0007
290.5	.066	.0007
292.4	.072	.0007
296.7	.082	.0007
300.5	.089	.0007
305.7	.098	.0007
308.4	.109	.0007
315.3	.125	.0007
321.6	.138	.0007

System: choline chloride + n-propanol; phases: Liquid, Crystal
Fixed: Pressure, kPa = 101
Property: Mole fraction of choline chloride (Liquid); method: Gravimetric
Temperature, K	Mole fraction of choline chloride	uncertainty
288.9	.015	.0007
295.7	.023	.0007
302.3	.039	.0007
308.7	.05	.0007
309.6	.059	.0007
316.5	.073	.0007
323.2	.086	.0007
330.7	.108	.0007
335.3	.129	.0007
338	.153	.0007

System: choline chloride + 1-butanol; phases: Liquid, Crystal
Fixed: Pressure, kPa = 101
Property: Mole fraction of choline chloride (Liquid); method: Gravimetric
Temperature, K	Mole fraction of choline chloride	uncertainty
314.6	.031	.0007
321.2	.049	.0007
328.6	.068	.0007
340.8	.086	.0007
346.4	.109	.0007
349.4	.131	.0007
352.9	.147	.0007

System: ethanol + choline acetate; phases: Liquid, Crystal
Fixed: Pressure, kPa = 101
Property: Mole fraction of choline acetate (Liquid); method: Gravimetric
Temperature, K	Mole fraction of choline acetate	uncertainty
259.8	.049	.0007
261.8	.067	.0007
263.9	.09	.0007
265.7	.112	.0007
267.1	.13	.0007
267.8	.143	.0007
271.7	.174	.0007
272.1	.184	.0007
276.6	.228	.0007
278.5	.252	.0007
282.8	.29	.0007

System: n-propanol + choline acetate; phases: Liquid, Crystal
Fixed: Pressure, kPa = 101
Property: Mole fraction of choline acetate (Liquid); method: Gravimetric
Temperature, K	Mole fraction of choline acetate	uncertainty
263.8	.0191	.0007
266.9	.0394	.0007
270.3	.062	.0007
273.1	.0844	.0007
274.1	.1095	.0007
276	.1438	.0007
277.7	.1736	.0007
279.9	.2108	.0007
280.9	.2336	.0007
282.7	.2687	.0007
285.2	.3159	.0007
286.1	.3192	.0007

System: 1-butanol + choline acetate; phases: Liquid, Crystal
Fixed: Pressure, kPa = 101
Property: Mole fraction of choline acetate (Liquid); method: Gravimetric
Temperature, K	Mole fraction of choline acetate	uncertainty
268.2	.023	.0007
273	.048	.0007
276.9	.074	.0007
279.9	.102	.0007
281.8	.136	.0007
284.2	.172	.0007
287.7	.209	.0007
290.4	.233	.0007
295.4	.293	.0007
297.7	.317	.0007

System: hydrogen choline chloride glutarate + ethanol; phases: Liquid, Crystal
Fixed: Pressure, kPa = 101
Property: Mole fraction of hydrogen choline chloride glutarate (Liquid); method: Gravimetric
Temperature, K	Mole fraction of hydrogen choline chloride glutarate	uncertainty
299	.008	.0007
300.8	.01	.0007
305.5	.015	.0007
310.9	.02	.0007
313.1	.026	.0007
315.6	.028	.0007
320.5	.038	.0007
322	.044	.0007

System: hydrogen choline chloride glutarate + n-propanol; phases: Liquid, Crystal
Fixed: Pressure, kPa = 101
Property: Mole fraction of hydrogen choline chloride glutarate (Liquid); method: Gravimetric
Temperature, K	Mole fraction of hydrogen choline chloride glutarate	uncertainty
299.2	.006	.0007
305.5	.008	.0007
310.9	.01	.0007
318.7	.013	.0007
325.2	.02	.0007
328.9	.025	.0007
333.2	.031	.0007
336.1	.039	.0007

System: hydrogen choline chloride glutarate + 1-butanol; phases: Liquid, Crystal
Fixed: Pressure, kPa = 101
Property: Mole fraction of hydrogen choline chloride glutarate (Liquid); method: Gravimetric
Temperature, K	Mole fraction of hydrogen choline chloride glutarate	uncertainty
300.4	.003	.0007
308.8	.004	.0007
312.7	.006	.0007
318.8	.008	.0007
322.4	.009	.0007
326.4	.012	.0007
329.8	.014	.0007
338.8	.016	.0007

System: ethanol + hydrogen choline chloride succinate; phases: Liquid, Crystal
Fixed: Pressure, kPa = 101
Property: Mole fraction of hydrogen choline chloride succinate (Liquid); method: Gravimetric
Temperature, K	Mole fraction of hydrogen choline chloride succinate	uncertainty
300.2	.006	.0007
310.6	.008	.0007
316.8	.01	.0007
318.5	.012	.0007
322.1	.017	.0007
325.4	.023	.0007
333.2	.033	.0007
335.8	.039	.0007
338.1	.043	.0007
339.4	.055	.0007

System: n-propanol + hydrogen choline chloride succinate; phases: Liquid, Crystal
Fixed: Pressure, kPa = 101
Property: Mole fraction of hydrogen choline chloride succinate (Liquid); method: Gravimetric
Temperature, K	Mole fraction of hydrogen choline chloride succinate	uncertainty
305.4	.002	.0007
306.6	.003	.0007
309.4	.003	.0007
315.5	.004	.0007
319.9	.005	.0007
324.6	.008	.0007
331.2	.011	.0007
335.1	.013	.0007
338.5	.017	.0007

System: 1-butanol + hydrogen choline chloride succinate; phases: Liquid, Crystal
Fixed: Pressure, kPa = 101
Property: Mole fraction of hydrogen choline chloride succinate (Liquid); method: Gravimetric
Temperature, K	Mole fraction of hydrogen choline chloride succinate	uncertainty
304.8	.001	.0007
318.7	.0019	.0007
323.8	.0022	.0007
327.5	.0025	.0007
330.4	.0029	.0007
335.1	.0035	.0007
341	.004	.0007
