Measured thermophysical data. Thermodynamic and spectroscopic properties of KNbTeO6
Source: J. Chem. Thermodyn., 2017, 10.1016/j.jct.2016.12.013
Compound 1: niobium potassium tellurate (KNbTeO6), KNbO6Te, purity 99.5%

System: niobium potassium tellurate (KNbTeO6); phases: Crystal 3, Crystal 2, Air at 1 atmosphere
Property: Triple point temperature, K (Crystal 3); method: DSC
Triple point temperature, K	uncertainty
1079	2

System: niobium potassium tellurate (KNbTeO6); phases: Crystal 2, Crystal 1, Air at 1 atmosphere
Property: Triple point temperature, K (Crystal 2); method: DSC
Triple point temperature, K	uncertainty
1137	2

System: niobium potassium tellurate (KNbTeO6); phases: Crystal 3
Property: Molar heat capacity at constant pressure, J/K/mol (Crystal 3); method: Vacuum adiabatic calorimetry
Pressure, kPa	Temperature, K	Molar heat capacity at constant pressure, J/K/mol	uncertainty
100	6.22	.2151	
100	6.35	.2384	
100	6.48	.2615	
100	6.59	.2896	
100	6.69	.3201	
100	6.79	.3566	
100	6.89	.3726	
100	6.98	.4048	
100	7.08	.4359	
100	7.17	.4578	
100	7.26	.4944	
100	7.35	.5369	
100	7.45	.5789	
100	7.55	.6229	
100	7.62	.6503	
100	7.74	.7007	
100	7.85	.7757	
100	7.96	.847	
100	8.08	.9232	
100	8.2	.9807	
100	8.32	1.069	
100	8.45	1.151	
100	8.58	1.212	
100	8.72	1.319	
100	8.87	1.439	
100	9.02	1.533	
100	9.18	1.649	
100	9.34	1.774	
100	9.51	1.875	
100	9.69	2.05	
100	9.85	2.16	
100	10.03	2.307	
100	10.3	2.508	
100	10.65	2.734	
100	11.01	3.057	
100	11.37	3.289	
100	11.73	3.568	
100	12.11	3.815	
100	12.48	4.075	
100	12.86	4.366	
100	13.24	4.629	
100	13.63	4.92	
100	14.03	5.184	
100	14.42	5.497	
100	14.82	5.813	
100	15.22	6.113	
100	15.62	6.465	
100	16.03	6.826	
100	16.44	7.129	
100	16.85	7.56	
100	17.26	7.878	
100	17.68	8.231	
100	18.1	8.697	
100	18.52	9.061	
100	18.94	9.437	
100	19.36	9.89	
100	19.79	10.29	
100	20.53	11.03	
100	21.58	12.05	
100	22.65	13.09	
100	23.73	14.14	
100	24.82	15.46	
100	25.38	16.01	
100	26.5	17.19	
100	27.62	18.26	
100	28.75	19.37	
100	29.88	20.42	
100	31.02	21.49	
100	32.16	22.5	
100	33.31	23.51	
100	34.46	24.54	
100	35.62	25.49	
100	36.78	26.48	
100	37.95	27.51	
100	39.12	28.47	
100	40.3	29.47	
100	41.47	30.43	
100	42.66	31.4	
100	43.86	32.55	
100	45.05	33.64	
100	46.24	34.8	
100	47.44	35.68	
100	48.63	36.81	
100	49.83	37.63	
100	51.03	38.63	
100	52.23	39.68	
100	54.02	41.26	
100	56.23	43.28	
100	57.59	44.52	
100	58.8	45.93	
100	60.02	46.97	
100	61.24	47.95	
100	62.46	48.95	
100	63.68	50.12	
100	64.9	51.23	
100	66.12	52.35	
100	67.35	53.36	
100	68.57	54.4	
100	69.8	55.35	
100	71.42	56.64	
100	73.44	58.06	
100	75.46	59.35	
100	77.03	60.53	
100	78.81	61.78	
100	81.12	63.52	
100	85.13	66.84	
100	89.13	70.13	
100	93.12	73.15	
100	97.11	76.22	
100	101.6	79.69	
100	83.12	65.23	
100	87.13	68.44	
100	91.13	71.63	
100	95.11	74.66	
100	99.1	77.67	
100	104.6	81.42	
100	107.6	83.56	
100	110.5	85.75	
100	113.5	87.86	
100	116.6	89.91	
100	119.6	91.91	
100	122.6	93.92	
100	125.6	95.85	
100	128.6	97.8	
100	131.6	99.73	
100	134.6	101.7	
100	137.6	103.4	
100	140.7	105.3	
100	143.7	107.1	
100	146.7	108.8	
100	149.8	110.7	
100	152.8	112.3	
100	155.8	114	
100	158.9	115.6	
100	161.9	117.3	
100	165	119.1	
100	168	120.5	
100	171.1	122	
100	174.1	123.5	
100	177.2	125.1	
100	180.2	126.6	
100	183.3	128	
100	186.3	129.4	
100	189.3	130.8	
100	192.4	132.2	
100	195.4	133.4	
100	198.5	134.8	
100	201.5	136.1	
100	204.6	137.4	
100	207.6	138.5	
100	210.7	139.7	
100	213.8	141.1	
100	216.9	142.1	
100	219.9	143.4	
100	223	144.5	
100	226.1	145.7	
100	229.1	147.1	
100	232.2	148.3	
100	235.2	149.4	
100	238.3	150.2	
100	241.4	151.3	
100	244.4	152.4	
100	247.5	153.2	
100	250.6	154.2	
100	253.6	155.1	
100	256.7	156.1	
100	259.7	157.1	
100	262.8	158	
100	265.9	158.8	
100	269	159.7	
100	272	160.7	
100	275.1	161.6	
100	278.1	162.5	
100	281.1	163.2	
100	284.1	164.1	
100	287.2	165	
100	290.2	165.7	
100	293.2	166.4	
100	296.2	167.2	
100	299.2	168	
100	302.6	169	
100	307.3	170	
100	312.5	171.4	
100	317.7	172.5	
100	322.9	173.8	
100	328	174.9	
100	333	176	

System: niobium potassium tellurate (KNbTeO6); phases: Crystal 3
Property: Molar heat capacity at constant pressure, J/K/mol (Crystal 3); method: Vacuum adiabatic calorimetry
Pressure, kPa	Temperature, K	Molar heat capacity at constant pressure, J/K/mol	uncertainty
100	5	.1672	
100	10	2.271	
100	15	5.946	
100	20	10.49	
100	25	15.6	
100	30	20.55	
100	35	24.95	
100	40	29.26	
100	45	33.48	
100	50	37.76	
100	60	46.86	
100	70	55.41	
100	80	62.85	
100	90	70.63	
100	100	78.44	
100	110	85.38	
100	120	92.2	
100	130	98.72	
100	140	104.9	
100	150	110.8	
100	160	116.3	
100	170	121.5	
100	180	126.4	
100	190	131	
100	200	135.4	
100	210	139.6	
100	220	143.5	
100	230	147.2	
100	240	150.7	
100	250	154	
100	260	157.2	
100	270	160.1	
100	273.15	161	
100	280	162.9	
100	290	165.6	
100	298.15	167.7	
100	300	168.2	
100	310	170.7	
100	320	173.1	
100	330	175.4	
100	332	175.8	

System: niobium potassium tellurate (KNbTeO6); phases: Crystal 3
Property: Molar enthalpy, kJ/mol (Crystal 3); method: Other
Pressure, kPa	Temperature, K	Molar enthalpy, kJ/mol	uncertainty
100	5	.0004	
100	10	.0046	
100	15	.0251	
100	20	.0658	
100	25	.131	
100	30	.221	
100	35	.335	
100	40	.471	
100	45	.628	
100	50	.806	
100	60	1.229	
100	70	1.741	
100	80	2.333	
100	90	2.999	
100	100	3.746	
100	110	4.564	
100	120	5.452	
100	130	6.407	
100	140	7.425	
100	150	8.504	
100	160	9.64	
100	170	10.83	
100	180	12.07	
100	190	13.36	
100	200	14.69	
100	210	16.06	
100	220	17.48	
100	230	18.93	
100	240	20.42	
100	250	21.95	
100	260	23.5	
100	270	25.09	
100	273.15	25.6	
100	280	26.71	
100	290	28.35	
100	298.15	29.71	
100	300	30.02	
100	310	31.71	
100	320	33.43	
100	330	35.17	
100	332	35.53	

System: niobium potassium tellurate (KNbTeO6); phases: Crystal 3
Property: Molar entropy, J/K/mol (Crystal 3); method: Other
Pressure, kPa	Temperature, K	Molar entropy, J/K/mol	uncertainty
100	5	.1338	
100	10	.6247	
100	15	2.241	
100	20	4.553	
100	25	7.431	
100	30	10.73	
100	35	14.23	
100	40	17.84	
100	45	21.53	
100	50	25.28	
100	60	32.96	
100	70	40.84	
100	80	48.73	
100	90	56.58	
100	100	64.43	
100	110	72.23	
100	120	79.95	
100	130	87.59	
100	140	95.13	
100	150	102.6	
100	160	109.9	
100	170	117.1	
100	180	124.2	
100	190	131.2	
100	200	138	
100	210	144.7	
100	220	151.3	
100	230	157.7	
100	240	164.1	
100	250	170.3	
100	260	176.4	
100	270	182.4	
100	273.15	184.3	
100	280	188.3	
100	290	194	
100	298.15	198.7	
100	300	199.7	
100	310	205.2	
100	320	210.7	
100	330	216.1	
100	332	217.1	

System: niobium potassium tellurate (KNbTeO6); phases: Crystal 3
Fixed: Pressure, kPa = 101.325
Property: Mass density, kg/m3 (Crystal 3); method: X-ray diffraction
Temperature, K	Mass density, kg/m3	uncertainty
298	4406	
373	4405	
473	4401	
573	4394	
673	4387	
773	4379	
873	4368	
