Measured thermophysical data. A static analytical apparatus for vapour pressures and (vapour + liquid) phase equilibrium measurements with an internal stirrer and view windows
Source: J. Chem. Thermodyn., 2014, 10.1016/j.jct.2014.03.014
Compound 1: R-245fa, C3H3F5, purity 99%
Compound 2: R-600a, C4H10, purity 99.9%

System: R-245fa; phases: Liquid, Gas
Property: Vapor or sublimation pressure, kPa (Liquid); method: Closed cell (Static) method
Temperature, K	Vapor or sublimation pressure, kPa	uncertainty
295.076	132.2	.5
295.57	134.7	.5
296.57	139.9	.5
297.57	145.2	.5
298.572	150.6	.5
298.574	150.7	.5
298.576	150.7	.5
298.577	150.7	.5
299.608	156.5	.5
300.612	162.4	.5
300.614	162.4	.5
301.618	168.4	.5
302.627	174.6	.5
303.638	181	.5
304.645	187.6	.5
305.652	194.3	.5
306.664	201.2	.5
307.673	208.3	.5
308.683	215.7	.5
309.698	223.3	.5
310.718	231.1	.5
311.739	239.1	.5
313.71	255.2	.5
315.739	272.6	.5
317.763	290.8	.5
318.777	300.3	.5
319.771	309.9	.5
321.709	329.1	.5
323.73	349.9	.5
325.715	371.6	.5
327.677	394	.5
329.669	417.9	.5
330.677	430.4	.5
331.699	443.4	.5
333.707	469.6	.5
335.726	497.1	.5
337.741	525.9	.5
338.755	540.8	.5
339.773	556.1	.5
341.825	587.9	.5
343.825	620.4	.5
345.866	654.6	.5
347.855	689.5	.5
348.865	707.6	.5
348.867	707.7	.5
349.863	725.9	.5
350.862	744.6	.5
351.867	763.8	.5
352.873	783.3	.5
293.15	122.7	.5
303.15	177.9	.5
313.15	250.3	.5
323.15	344	.5
343.88	621	.5

System: R-600a; phases: Liquid, Gas
Property: Vapor or sublimation pressure, kPa (Liquid); method: Closed cell (Static) method
Temperature, K	Vapor or sublimation pressure, kPa	uncertainty
293.584	306.7	.5
293.582	306.7	.5
295.58	325.6	.5
297.581	345.2	.5
299.59	365.9	.5
301.611	387.6	.5
303.616	410.2	.5
305.63	433.9	.5
307.642	458.6	.5
309.65	484.2	.5
311.661	510.9	.5
313.685	538.7	.5
315.704	567.9	.5
317.727	598.1	.5
319.724	629	.5
321.751	661.7	.5
323.82	696.1	.5
325.769	730.9	.5
327.732	765.3	.5
329.743	802.7	.5
331.718	840.8	.5
333.71	880.5	.5
335.742	922.5	.5
337.793	966.2	.5
339.845	1011.5	.5
341.752	1054.5	.5
343.782	1102.5	.5
345.859	1153.1	.5
347.859	1204.4	.5
349.905	1256.3	.5
351.906	1309.8	.5
353.911	1365.1	.5
293.15	302.2	.5
303.15	404.7	.5
313.15	531.6	.5
323.15	685.6	.5
343.88	1105.1	.5

System: R-600a + R-245fa; phases: Liquid, Gas
Property: Vapor or sublimation pressure, kPa (Liquid); method: Closed cell (Static) method
Mole fraction of R-600a	Temperature, K	Vapor or sublimation pressure, kPa	uncertainty
0	293.15	122.7	.5
.022	293.15	153.5	.5
.079	293.15	208.9	.5
.13	293.15	248.7	.5
.353	293.15	310.3	.5
.486	293.15	327.7	.5
.669	293.15	336.3	.5
.758	293.15	338.3	.5
.808	293.15	337.6	.5
.875	293.15	334.6	.5
.927	293.15	327.4	.5
1	293.15	302.2	.5
0	303.15	177.9	.5
.06	303.15	262.7	.5
.128	303.15	328.1	.5
.348	303.15	413.9	.5
.485	303.15	439	.5
.644	303.15	450.7	.5
.68	303.15	451.2	.5
.766	303.15	453.5	.5
.81	303.15	452.1	.5
.87	303.15	448.3	.5
.937	303.15	437.4	.5
1	303.15	404.7	.5
0	313.15	250.3	.5
.125	313.15	425.7	.5
.335	313.15	540.9	.5
.463	313.15	576.1	.5
.652	313.15	593.7	.5
.767	313.15	595.5	.5
.813	313.15	593.3	.5
.87	313.15	587.6	.5
.929	313.15	572.9	.5
1	313.15	531.6	.5
0	323.15	344	.5
.032	323.15	411.3	.5
.12	323.15	542.2	.5
.345	323.15	695.2	.5
.47	323.15	744	.5
.651	323.15	766.3	.5
.766	323.15	768.4	.5
.825	323.15	764.7	.5
.87	323.15	756.3	.5
.931	323.15	736.6	.5
1	323.15	685.6	.5
0	343.88	621	.5
.105	343.88	874	.5
.341	343.88	1120.1	.5
.511	343.88	1204.3	.5
.649	343.88	1242.2	.5
.766	343.88	1242.2	.5
.817	343.88	1234.2	.5
.873	343.88	1217.4	.5
.935	343.88	1184.1	.5
1	343.88	1105.1	.5

System: R-600a + R-245fa; phases: Gas, Liquid
Property: Mole fraction of R-600a (Gas); method: Chromatography
Mole fraction of R-600a	Temperature, K	Mole fraction of R-600a	uncertainty
0	293.15	0	.005
.022	293.15	.207	.005
.079	293.15	.443	.005
.13	293.15	.54	.005
.353	293.15	.662	.005
.486	293.15	.687	.005
.669	293.15	.739	.005
.758	293.15	.767	.005
.808	293.15	.79	.005
.875	293.15	.822	.005
.927	293.15	.874	.005
1	293.15	1	.005
0	303.15	0	.005
.06	303.15	.348	.005
.128	303.15	.497	.005
.348	303.15	.634	.005
.485	303.15	.671	.005
.644	303.15	.717	.005
.68	303.15	.73	.005
.766	303.15	.765	.005
.81	303.15	.791	.005
.87	303.15	.825	.005
.937	303.15	.877	.005
1	303.15	1	.005
0	313.15	0	.005
.125	313.15	.451	.005
.335	313.15	.614	.005
.463	313.15	.645	.005
.652	313.15	.705	.005
.767	313.15	.762	.005
.813	313.15	.792	.005
.87	313.15	.822	.005
.929	313.15	.887	.005
1	313.15	1	.005
0	323.15	0	.005
.032	323.15	.165	.005
.12	323.15	.386	.005
.345	323.15	.596	.005
.47	323.15	.633	.005
.651	323.15	.692	.005
.766	323.15	.76	.005
.825	323.15	.789	.005
.87	323.15	.822	.005
.931	323.15	.887	.005
1	323.15	1	.005
0	343.88	0	.005
.105	343.88	.307	.005
.341	343.88	.532	.005
.511	343.88	.604	.005
.649	343.88	.687	.005
.766	343.88	.759	.005
.817	343.88	.786	.005
.873	343.88	.827	.005
.935	343.88	.887	.005
1	343.88	1	.005
