Measured thermophysical data. Measurement of Henry s Law constant and infinite dilution activity coefficient of isopropyl mercaptan and isobutyl mercaptan in (methyldiethanolamine (1) + water (2)) with w1 = 0.25 and 0.50 at temperature of (298 to 348) K using inert gas stripping method
Source: J. Chem. Thermodyn., 2016, 10.1016/j.jct.2015.10.005
Compound 1: isopropyl mercaptan, C3H8S, purity 99%
Compound 2: isobutyl mercaptan, C4H10S, purity 99%
Compound 3: N-methyldiethanolamine, C5H13NO2, purity 99%
Compound 4: water, H2O, purity 99.8%

System: isopropyl mercaptan + water; phases: Liquid, Gas
Fixed: Mole fraction of isopropyl mercaptan = 0
Property: Henry's Law constant (mole fraction scale), kPa of isopropyl mercaptan (Liquid); method: Chromatography
Temperature, K	Henry's Law constant (mole fraction scale), kPa of isopropyl mercaptan	uncertainty
298.5	35000	5250
308.3	54000	8100
318.3	76000	11400
323.3	88000	13200
333.3	103000	15450
348.2	143000	21450

System: isopropyl mercaptan + N-methyldiethanolamine + water; phases: Liquid, Gas
Fixed: Mole fraction of isopropyl mercaptan = 0
Property: Henry's Law constant (mole fraction scale), kPa of isopropyl mercaptan (Liquid); method: Chromatography
Temperature, K	Solvent: Mass fraction of N-methyldiethanolamine	Henry's Law constant (mole fraction scale), kPa of isopropyl mercaptan	uncertainty
298.5	.25	8600	1290
308.3	.25	13000	1950
318.4	.25	17000	2550
323.4	.25	20000	3000
333.5	.25	28000	4200
348.2	.25	43000	6450
298.6	.5	3600	540
308.2	.5	5300	795
318.3	.5	8300	1245
323.6	.5	9100	1365
333.5	.5	11000	1650
348	.5	17000	2550
298.5	0	35000	5250
308.3	0	54000	8100
318.3	0	76000	11400
323.3	0	88000	13200
333.3	0	103000	15450
348.2	0	143000	21450

System: isobutyl mercaptan + water; phases: Liquid, Gas
Fixed: Mole fraction of isobutyl mercaptan = 0
Property: Henry's Law constant (mole fraction scale), kPa of isobutyl mercaptan (Liquid); method: Chromatography
Temperature, K	Henry's Law constant (mole fraction scale), kPa of isobutyl mercaptan	uncertainty
298.3	54000	8100
308.3	80000	12000
323.4	138000	20700
333.2	204000	30600
348.1	310000	46500

System: N-methyldiethanolamine + isobutyl mercaptan + water; phases: Liquid, Gas
Fixed: Mole fraction of isobutyl mercaptan = 0
Property: Henry's Law constant (mole fraction scale), kPa of isobutyl mercaptan (Liquid); method: Chromatography
Temperature, K	Solvent: Mass fraction of N-methyldiethanolamine	Henry's Law constant (mole fraction scale), kPa of isobutyl mercaptan	uncertainty
294	.25	5500	825
298.5	.25	7000	1050
303.5	.25	7900	1185
313.4	.25	12000	1800
318.4	.25	16000	2400
323.5	.25	20000	3000
333.4	.25	28000	4200
348.1	.25	42000	6300
298.6	.5	2900	435
308.4	.5	4200	630
318.5	.5	7100	1065
323.2	.5	7700	1155
333.4	.5	11000	1650
348.3	.5	16000	2400
298.3	0	54000	8100
308.3	0	80000	12000
323.4	0	138000	20700
333.2	0	204000	30600
348.1	0	310000	46500
