Measured thermophysical data. Solubilities of {a-D-glucose in water + (acetic acid or propionic acid)} mixtures at atmospheric pressure and different temperatures
Source: J. Chem. Thermodyn., 2013, 10.1016/j.jct.2013.05.028
Compound 1: ethanoic acid, C2H4O2, purity 99.5%
Compound 2: .alpha.-D-glucopyranose, C6H12O6, purity 99%
Compound 3: water, H2O
Compound 4: propanoic acid, C3H6O2, purity 99%

System: ethanoic acid + .alpha.-D-glucopyranose + water; phases: Liquid, Crystal
Fixed: Pressure, kPa = 101.33
Property: Mole fraction of .alpha.-D-glucopyranose (Liquid); method: Laser Monitoring
Solvent: Volume fraction of water	Temperature, K	Mole fraction of .alpha.-D-glucopyranose	uncertainty
.5	298.13	.05313	
.5	301.18	.05863	
.5	302.96	.06412	
.5	305.1	.07016	
.5	306.66	.07649	
.5	308.25	.08386	
.5	310.65	.09283	
.5	313.15	.10219	
.5	314.95	.11152	
.5	316.43	.1211	
.5	317.95	.13198	
.5	319.67	.14371	
.5	321.75	.15719	
.5	323.65	.17115	
.5	325.85	.18642	
.5	328.6	.20339	
.5	331.4	.22058	
.4	297.65	.03648	
.4	300.37	.04075	
.4	302.35	.04446	
.4	303.95	.04853	
.4	305.77	.05312	
.4	307.45	.05831	
.4	309	.06413	
.4	311.15	.07121	
.4	312.81	.07885	
.4	314.55	.08773	
.4	317.23	.09723	
.4	319.36	.10707	
.4	321.15	.11723	
.4	322.86	.12815	
.4	325.4	.14112	
.4	327.17	.15528	
.4	329.25	.17067	
.3	297.95	.02317	
.3	300.31	.0258	
.3	301.66	.02839	
.3	302.96	.03115	
.3	305.05	.03523	
.3	306.95	.04004	
.3	309.33	.04536	
.3	311.65	.05059	
.3	313.37	.0558	
.3	314.97	.06114	
.3	316.35	.06691	
.3	317.86	.07298	
.3	319.25	.08006	
.3	321.65	.08842	
.3	323.95	.09687	
.3	325.63	.10539	
.3	327.4	.11418	
.3	329.1	.1235	
.3	330.87	.13298	
.2	299.4	.01476	
.2	301.15	.01568	
.2	302.65	.01672	
.2	303.95	.01797	
.2	305.2	.01954	
.2	306.95	.02164	
.2	308.35	.02398	
.2	310.25	.02702	
.2	312.55	.03019	
.2	315.27	.03333	
.2	317.45	.03661	
.2	319.55	.03995	
.2	321.45	.04333	
.2	323.57	.04669	
.2	325	.0502	
.2	326.7	.05386	
.2	328.05	.05766	
.2	329.23	.06125	
.2	330.35	.0651	
.1	301.75	.00746	
.1	303.63	.00783	
.1	305.1	.00831	
.1	306.83	.00887	
.1	308.65	.00948	
.1	311.1	.01023	
.1	313.45	.01102	
.1	315.65	.01191	
.1	317.2	.01281	
.1	319.25	.01383	
.1	320.76	.01503	
.1	322.35	.01646	
.1	324.8	.01815	
.1	327.1	.01997	
.1	329.4	.02174	

System: ethanoic acid + .alpha.-D-glucopyranose + water; phases: Liquid, Crystal
Fixed: Pressure, kPa = 101.33
Fixed: Temperature, K = 303.15
Property: Mass concentration, kg/m3 of .alpha.-D-glucopyranose (Liquid); method: Laser Monitoring
Solvent: Volume fraction of water	Mass concentration, kg/m3 of .alpha.-D-glucopyranose	uncertainty
.0705	19.89	
.0481	12.32	
.0286	7.63	
.0186	5.02	
.0083	2.22	

System: propanoic acid + .alpha.-D-glucopyranose + water; phases: Liquid, Crystal
Fixed: Pressure, kPa = 101.33
Property: Mole fraction of .alpha.-D-glucopyranose (Liquid); method: Laser Monitoring
Solvent: Volume fraction of water	Temperature, K	Mole fraction of .alpha.-D-glucopyranose	uncertainty
.5	298.25	.05463	
.5	300.9	.06025	
.5	302.95	.06592	
.5	305.15	.07228	
.5	307.33	.07918	
.5	310.05	.08654	
.5	311.65	.09366	
.5	313.25	.1015	
.5	314.75	.11058	
.5	316.65	.12095	
.5	318.55	.13125	
.5	320.55	.14146	
.5	322.25	.15222	
.5	323.8	.16411	
.5	326.1	.17661	
.5	327.77	.18966	
.5	329.3	.20358	
.5	331.45	.21814	
.4	298.87	.03935	
.4	301.45	.04371	
.4	303.34	.04805	
.4	305.4	.05335	
.4	307.4	.05895	
.4	309.9	.06492	
.4	312.23	.07105	
.4	313.77	.07739	
.4	315.63	.08456	
.4	317.85	.09355	
.4	320.05	.10333	
.4	322.03	.11399	
.4	323.55	.12536	
.4	325.55	.13708	
.4	327.1	.14952	
.4	328.83	.16262	
.4	330.45	.17692	
.3	304.75	.03092	
.3	306.84	.03389	
.3	308.75	.03705	
.3	310.55	.04053	
.3	312.45	.0447	
.3	314.19	.0494	
.3	316.1	.05481	
.3	318.05	.06052	
.3	319.7	.06642	
.3	321.25	.07268	
.3	322.43	.07938	
.3	323.95	.08656	
.3	325.35	.09518	
.3	326.53	.10531	
.3	328.13	.11526	
.3	330.53	.128	
.2	297.55	.00849	
.2	299.3	.00967	
.2	301.55	.01084	
.2	303.25	.01204	
.2	304.8	.0134	
.2	306.61	.01508	
.2	308.53	.01694	
.2	311.35	.01902	
.2	313.4	.02112	
.2	315.45	.02324	
.2	317.23	.02534	
.2	319.05	.02755	
.2	320.43	.0299	
.2	321.8	.03284	
.2	323.26	.03644	
.2	324.85	.04113	
.2	326.35	.04509	
.2	330.05	.05367	
.1	299.05	.00297	
.1	301.38	.00326	
.1	303.16	.00361	
.1	304.84	.00398	
.1	306.73	.00445	
.1	308.95	.00499	
.1	311.85	.00557	
.1	314.25	.00614	
.1	315.85	.00678	
.1	318.1	.00756	
.1	319.63	.00844	
.1	321.87	.00932	
.1	326.33	.01097	
.1	329.4	.01218	

System: propanoic acid + .alpha.-D-glucopyranose + water; phases: Liquid, Crystal
Fixed: Pressure, kPa = 101.33
Fixed: Temperature, K = 303.15
Property: Mass concentration, kg/m3 of .alpha.-D-glucopyranose (Liquid); method: Laser Monitoring
Solvent: Volume fraction of water	Mass concentration, kg/m3 of .alpha.-D-glucopyranose	uncertainty
.1559	23.93	
.1097	12.37	
.0734	5.42	
.0442	2.39	
