Measured thermophysical data. Knudsen thermogravimetry approach to the thermodynamics ofaqueous solutions
Source: J. Chem. Thermodyn., 2013, 10.1016/j.jct.2013.02.015
Compound 1: sodium chloride, ClNa, purity 99.5%
Compound 2: potassium chloride, ClK, purity 99%
Compound 3: nitric acid potassium salt, KNO3, purity 99%
Compound 4: water, H2O

System: sodium chloride + water; phases: Liquid, Crystal
Fixed: Pressure, kPa = 101
Property: Molality, mol/kg of sodium chloride (Liquid); method: Knudson Effusion + TGA
Temperature, K	Molality, mol/kg of sodium chloride	uncertainty
298.15	6.33	.3

System: potassium chloride + water; phases: Liquid, Crystal
Fixed: Pressure, kPa = 101
Property: Molality, mol/kg of potassium chloride (Liquid); method: Knudson Effusion + TGA
Temperature, K	Molality, mol/kg of potassium chloride	uncertainty
298.15	4.51	.3

System: water + nitric acid potassium salt; phases: Liquid, Crystal
Fixed: Pressure, kPa = 101
Property: Molality, mol/kg of nitric acid potassium salt (Liquid); method: Knudson Effusion + TGA
Temperature, K	Molality, mol/kg of nitric acid potassium salt	uncertainty
298.15	3.56	.2
