Measured thermophysical data. Experiment and model for the viscosities of MEA-PEG400, DEA-PEG400 and MDEA-PEG400 aqueous solutions
Source: J. Chem. Thermodyn., 2014, 10.1016/j.jct.2014.06.017
Compound 1: monoethanolamine, C2H7NO, purity 99%
Compound 2: diethanolamine, C4H11NO2, purity 99.7%
Compound 3: water, H2O
Compound 4: N-methyldiethanolamine, C5H13NO2, purity 99.5%

System: monoethanolamine + water; phases: Liquid
Fixed: Pressure, kPa = 100
Property: Viscosity, Pa*s (Liquid); method: Concentric cylinders viscometry
Mass fraction of monoethanolamine	Temperature, K	Viscosity, Pa*s	uncertainty
.2	298.2	.00172	.000086
.2	303.2	.00153	.0000765
.2	313.2	.00118	.000059
.2	323.2	.00098	.000049
.2499	298.2	.00202	.000101
.2499	303.2	.00179	.0000895
.2499	313.2	.00132	.000066
.2499	323.2	.00112	.000056
.3001	298.2	.00232	.000116
.3001	303.2	.00213	.0001065
.3001	313.2	.00159	.0000795
.3001	323.2	.00131	.0000655

System: diethanolamine + water; phases: Liquid
Fixed: Pressure, kPa = 100
Property: Viscosity, Pa*s (Liquid); method: Concentric cylinders viscometry
Mass fraction of diethanolamine	Temperature, K	Viscosity, Pa*s	uncertainty
.2001	298.2	.00192	.000096
.2001	303.2	.00167	.0000835
.2001	313.2	.00132	.000066
.2001	323.2	.00105	.0000525
.25	298.2	.00261	.0001305
.25	303.2	.00216	.000108
.25	313.2	.00167	.0000835
.25	323.2	.00134	.000067
.3001	298.2	.00326	.000163
.3001	303.2	.00257	.0001285
.3001	313.2	.00199	.0000995
.3001	323.2	.00141	.0000705

System: N-methyldiethanolamine + water; phases: Liquid
Fixed: Pressure, kPa = 100
Property: Viscosity, Pa*s (Liquid); method: Concentric cylinders viscometry
Mass fraction of N-methyldiethanolamine	Temperature, K	Viscosity, Pa*s	uncertainty
.3502	298.2	.00407	.0002035
.3502	303.2	.00336	.000168
.3502	313.2	.00256	.000128
.3502	323.2	.00202	.000101
.4001	298.2	.0052	.00026
.4001	303.2	.00441	.0002205
.4001	313.2	.00302	.000151
.4001	323.2	.00265	.0001325
.45	298.2	.00762	.000381
.45	303.2	.0061	.000305
.45	313.2	.00437	.0002185
.45	323.2	.00363	.0001815
