Measured thermophysical data. Solubility and selectivity of CO2 in ether-functionalized imidazolium ionic liquids
Source: J. Chem. Thermodyn., 2016, 10.1016/j.jct.2016.08.028
Compound 1: 1-(2-methoxyethyl)-3-methyl-imidazolium hexafluorophosphate, C7H13F6N2OP
Compound 2: 1-(2-methoxyethyl)-3-methyl-1H-imidazolium bis((trifluoromethyl)sulfonyl)amide, C9H13F6N3O5S2
Compound 3: carbon dioxide, CO2, purity 99.995%
Compound 4: nitrogen, N2, purity 99.99%
Compound 5: oxygen, O2, purity 99.95%

System: carbon dioxide + 1-(2-methoxyethyl)-3-methyl-imidazolium hexafluorophosphate; phases: Liquid, Gas
Property: Molality, mol/kg of carbon dioxide (Liquid); method: volumetric method
Pressure, kPa	Temperature, K	Molality, mol/kg of carbon dioxide	uncertainty
1062	298.15	.6592	
2018	298.15	1.2566	
2788	298.15	1.7575	
3478	298.15	2.1722	
3935	298.15	2.4455	
4275	298.15	2.6568	
4656	298.15	2.8606	
1147	303.15	.639	
2144	303.15	1.1672	
2995	303.15	1.6328	
3613	303.15	1.9775	
4105	303.15	2.2418	
4533	303.15	2.4586	
4930	303.15	2.6668	
1212	313.15	.5795	
2227	313.15	1.0361	
3100	313.15	1.395	
3719	313.15	1.6556	
4211	313.15	1.9002	
4650	313.15	2.088	
5057	313.15	2.2613	
1239	323.15	.49276	
2130	323.15	.8264	
2871	323.15	1.1243	
3552	323.15	1.3788	
4084	323.15	1.5745	
4586	323.15	1.7526	
4961	323.15	1.845	
1276	333.15	.442	
2266	333.15	.7715	
3151	333.15	1.053	
3807	333.15	1.2541	
4306	333.15	1.4029	
4719	333.15	1.539	
5115	333.15	1.6867	
1276	343.15	.3876	
2261	343.15	.6736	
3164	343.15	.9296	
3843	343.15	1.1062	
4363	343.15	1.2517	
4790	343.15	1.3637	
5185	343.15	1.4901	

System: carbon dioxide + 1-(2-methoxyethyl)-3-methyl-1H-imidazolium bis((trifluoromethyl)sulfonyl)amide; phases: Liquid, Gas
Property: Molality, mol/kg of carbon dioxide (Liquid); method: volumetric method
Temperature, K	Pressure, kPa	Molality, mol/kg of carbon dioxide	uncertainty
298.15	1052	.8496	
298.15	1973	1.5976	
298.15	2690	2.1984	
298.15	3233	2.6441	
298.15	3666	2.9851	
298.15	4028	3.3066	
298.15	4282	3.5526	
303.15	1059	.7735	
303.15	1935	1.4009	
303.15	2609	1.8727	
303.15	3141	2.2664	
303.15	3562	2.5879	
303.15	3916	2.8697	
303.15	4189	3.0993	
313.15	1295	.7777	
313.15	2189	1.3096	
313.15	2874	1.7258	
313.15	3411	2.0126	
313.15	3826	2.2706	
313.15	4158	2.492	
313.15	4395	2.6571	
323.15	1429	.7351	
323.15	2263	1.143	
323.15	2946	1.4938	
323.15	3461	1.7302	
323.15	3864	1.9437	
323.15	4228	2.1284	
323.15	4517	2.3092	
333.15	1432	.6383	
333.15	2334	1.0254	
333.15	3012	1.3198	
333.15	3545	1.5362	
333.15	3911	1.6802	
333.15	4254	1.8491	
333.15	4591	2.0259	
343.15	1406	.5611	
343.15	2292	.8996	
343.15	2995	1.169	
343.15	3558	1.3809	
343.15	3978	1.5451	
343.15	4301	1.6562	
343.15	4612	1.7893	

System: nitrogen + 1-(2-methoxyethyl)-3-methyl-imidazolium hexafluorophosphate; phases: Liquid, Gas
Fixed: Temperature, K = 303.15
Property: Molality, mol/kg of nitrogen (Liquid); method: volumetric method
Pressure, kPa	Molality, mol/kg of nitrogen	uncertainty
1027	.0601	
2070	.0885	
2689	.1037	
3264	.1154	
3885	.1293	
4441	.1419	
5067	.1544	

System: oxygen + 1-(2-methoxyethyl)-3-methyl-imidazolium hexafluorophosphate; phases: Liquid, Gas
Fixed: Temperature, K = 303.15
Property: Molality, mol/kg of oxygen (Liquid); method: volumetric method
Pressure, kPa	Molality, mol/kg of oxygen	uncertainty
1002	.0475	
2125	.0763	
2817	.0901	
3585	.1058	
4140	.1169	
4834	.1305	
5578	.1466	

System: nitrogen + 1-(2-methoxyethyl)-3-methyl-1H-imidazolium bis((trifluoromethyl)sulfonyl)amide; phases: Liquid, Gas
Fixed: Temperature, K = 303.15
Property: Molality, mol/kg of nitrogen (Liquid); method: volumetric method
Pressure, kPa	Molality, mol/kg of nitrogen	uncertainty
1385	.0734	
2492	.0984	
3211	.1203	
3853	.1415	
4402	.1548	
4907	.1738	
5596	.1902	

System: oxygen + 1-(2-methoxyethyl)-3-methyl-1H-imidazolium bis((trifluoromethyl)sulfonyl)amide; phases: Liquid, Gas
Fixed: Temperature, K = 303.15
Property: Molality, mol/kg of oxygen (Liquid); method: volumetric method
Pressure, kPa	Molality, mol/kg of oxygen	uncertainty
1212	.0629	
2407	.0935	
3164	.1133	
3820	.131	
4409	.1486	
4815	.1568	
5546	.1728	
