Measured thermophysical data. Solubility of CO2 in amide-based Bronsted acidic ionic liquids
Source: J. Chem. Thermodyn., 2013, 10.1016/j.jct.2012.09.023
Compound 1: N,N-dimethylformamide trifluoroacetate, C5H8F3NO3, purity 98%
Compound 2: N,N-dimethylformamide tetrafluoroborate, C3H8BF4NO, purity 98%
Compound 3: N-methylpyrrolidone trifluoroacetate, C7H10F3NO3, purity 98%
Compound 4: N-methylpyrrolidone tetrafluoroborate, C5H10BF4NO, purity 98%
Compound 5: N,N-dimethylacetamide trifluoroacetate, C6H10F3NO3, purity 98%
Compound 6: carbon dioxide, CO2, purity 99.95%

System: N,N-dimethylformamide trifluoroacetate; phases: Liquid
Fixed: Pressure, kPa = 101.325
Property: Mass density, kg/m3 (Liquid); method: Pycnometric method
Temperature, K	Mass density, kg/m3	uncertainty
303.15	1246	
313.15	1232.9	
323.15	1219.9	

System: N,N-dimethylformamide tetrafluoroborate; phases: Liquid
Fixed: Pressure, kPa = 101.325
Property: Mass density, kg/m3 (Liquid); method: Pycnometric method
Temperature, K	Mass density, kg/m3	uncertainty
303.15	1340.8	
313.15	1334.5	
323.15	1328.2	

System: N-methylpyrrolidone trifluoroacetate; phases: Liquid
Fixed: Pressure, kPa = 101.325
Property: Mass density, kg/m3 (Liquid); method: Pycnometric method
Temperature, K	Mass density, kg/m3	uncertainty
303.15	1232.3	
313.15	1226.1	
323.15	1219.9	

System: N-methylpyrrolidone tetrafluoroborate; phases: Liquid
Fixed: Pressure, kPa = 101.325
Property: Mass density, kg/m3 (Liquid); method: Pycnometric method
Temperature, K	Mass density, kg/m3	uncertainty
303.15	1317.5	
313.15	1311.7	
323.15	1305.8	

System: N,N-dimethylacetamide trifluoroacetate; phases: Liquid
Fixed: Pressure, kPa = 101.325
Property: Mass density, kg/m3 (Liquid); method: Pycnometric method
Temperature, K	Mass density, kg/m3	uncertainty
303.15	1227.9	
313.15	1218	
323.15	1208.2	

System: carbon dioxide + N-methylpyrrolidone trifluoroacetate; phases: Liquid, Gas
Property: Mole fraction of carbon dioxide (Liquid); method: Material balance
Temperature, K	Pressure, kPa	Mole fraction of carbon dioxide	uncertainty
303.15	18.77	.00381	
303.15	32.74	.00665	
303.15	43.94	.00882	
303.15	55.57	.01125	
303.15	72.69	.01469	
303.15	92.02	.01865	
313.15	19.24	.00345	
313.15	34.99	.00622	
313.15	46.79	.0083	
313.15	59.03	.01036	
313.15	75.18	.01328	
313.15	94.28	.01656	
323.15	20.51	.00308	
323.15	37.15	.00564	
323.15	49.73	.00755	
323.15	62.72	.00941	
323.15	77.94	.01178	
323.15	96.98	.01501	

System: carbon dioxide + N-methylpyrrolidone tetrafluoroborate; phases: Liquid, Gas
Property: Mole fraction of carbon dioxide (Liquid); method: Material balance
Temperature, K	Pressure, kPa	Mole fraction of carbon dioxide	uncertainty
303.15	20.28	.00192	
303.15	37.93	.00361	
303.15	50.23	.00472	
303.15	60.43	.00571	
303.15	72.16	.00677	
303.15	91.88	.00861	
313.15	21.72	.00175	
313.15	39.56	.00319	
313.15	52.79	.00424	
313.15	63.59	.00513	
313.15	75.03	.00611	
313.15	93.14	.00748	
323.15	24.16	.00169	
323.15	41.64	.0029	
323.15	55.24	.00383	
323.15	66.51	.00458	
323.15	78.31	.00546	
323.15	95.82	.00663	

System: carbon dioxide + N,N-dimethylformamide trifluoroacetate; phases: Liquid, Gas
Property: Mole fraction of carbon dioxide (Liquid); method: Material balance
Temperature, K	Pressure, kPa	Mole fraction of carbon dioxide	uncertainty
303.15	19.12	.00396	
303.15	32.54	.00701	
303.15	43.22	.00884	
303.15	52.37	.01128	
303.15	71.56	.01495	
303.15	91.02	.01912	
313.15	21.53	.00386	
313.15	34.67	.00635	
313.15	46.01	.00839	
313.15	56.24	.01032	
313.15	73.98	.01367	
313.15	92.75	.01688	
323.15	23.46	.00372	
323.15	36.73	.00585	
323.15	48.74	.00755	
323.15	60.02	.00947	
323.15	75.72	.01202	
323.15	95.62	.01501	

System: N,N-dimethylformamide tetrafluoroborate + carbon dioxide; phases: Liquid, Gas
Property: Mole fraction of carbon dioxide (Liquid); method: Material balance
Temperature, K	Pressure, kPa	Mole fraction of carbon dioxide	uncertainty
303.15	21.13	.00093	
303.15	40.12	.00176	
303.15	53.53	.00237	
303.15	67.58	.00298	
303.15	80.25	.00354	
303.15	92.33	.00408	
313.15	23.25	.00091	
313.15	41.93	.00164	
313.15	55.79	.00218	
313.15	70.45	.00275	
313.15	83.73	.00328	
313.15	95.12	.00371	
323.15	25.43	.00088	
323.15	43.55	.00151	
323.15	65.42	.00227	
323.15	73.14	.00253	
323.15	86.46	.00299	
323.15	97.13	.00337	

System: carbon dioxide + N,N-dimethylacetamide trifluoroacetate; phases: Liquid, Gas
Property: Mole fraction of carbon dioxide (Liquid); method: Material balance
Temperature, K	Pressure, kPa	Mole fraction of carbon dioxide	uncertainty
303.15	18.17	.00367	
303.15	32.66	.00648	
303.15	44.06	.00866	
303.15	53.99	.01064	
303.15	72.18	.01412	
303.15	88.53	.01773	
313.15	19.02	.00327	
313.15	34.57	.00594	
313.15	46.74	.00803	
313.15	57.58	.00989	
313.15	74.12	.01278	
313.15	89.01	.01531	
323.15	21.46	.00322	
323.15	36.85	.00546	
323.15	49.55	.00735	
323.15	61.23	.00905	
323.15	76.53	.01147	
323.15	92.17	.01351	
