Measured thermophysical data. Study of static permittivity and density of the systems {(n-nonane + monoglyme or  diglyme)} at various temperatures
Source: J. Chem. Thermodyn., 2009, 10.1016/j.jct.2008.09.006
Compound 1: nonane, C9H20
Compound 2: 1,2-dimethoxyethane, C4H10O2
Compound 3: 2,5,8-trioxanonane, C6H14O3

System: nonane; phases: Liquid
Fixed: Pressure, kPa = 101.325
Property: Mass density, kg/m3 (Liquid); method: Vibrating tube method
Temperature, K	Mass density, kg/m3	uncertainty
288.15	721.79	.02
298.15	714.05	.02
308.15	706.25	.02
318.15	698.3	.02
328.15	690.34	.02
338.15	682.29	.02

System: nonane; phases: Liquid
Fixed: Pressure, kPa = 101.325
Property: Relative permittivity at zero frequency (Liquid); method: Parallel plate capacitor
Temperature, K	Relative permittivity at zero frequency	uncertainty
288.15	1.993	.01993
298.15	1.98	.0198
308.15	1.966	.01966
318.15	1.953	.01953
328.15	1.94	.0194
338.15	1.927	.01927

System: 1,2-dimethoxyethane; phases: Liquid
Fixed: Pressure, kPa = 101.325
Property: Mass density, kg/m3 (Liquid); method: Vibrating tube method
Temperature, K	Mass density, kg/m3	uncertainty
288.15	872.05	.02
298.15	861.14	.02
308.15	850.11	.02
318.15	838.92	.02
328.15	827.53	.02
338.15	815.89	.02

System: 1,2-dimethoxyethane; phases: Liquid
Fixed: Pressure, kPa = 101.325
Property: Relative permittivity at zero frequency (Liquid); method: Parallel plate capacitor
Temperature, K	Relative permittivity at zero frequency	uncertainty
288.15	7.408	.07408
298.15	7.069	.07069
308.15	6.757	.06757
318.15	6.456	.06456
328.15	6.184	.06184
338.15	5.922	.05922

System: 1,2-dimethoxyethane; phases: Liquid
Fixed: Pressure, kPa = 101.325
Property: Refractive index (Na D-line) (Liquid); method: Standard Abbe refractometry
Temperature, K	Refractive index (Na D-line)	uncertainty
288.15	1.38229	.00005
298.15	1.37718	.00005
308.15	1.37197	.00005

System: 2,5,8-trioxanonane; phases: Liquid
Fixed: Pressure, kPa = 101.325
Property: Mass density, kg/m3 (Liquid); method: Vibrating tube method
Temperature, K	Mass density, kg/m3	uncertainty
288.15	948.72	.02
298.15	938.83	.02
308.15	928.88	.02
318.15	919.31	.02
328.15	909.21	.02
338.15	899.02	.02

System: 2,5,8-trioxanonane; phases: Liquid
Fixed: Pressure, kPa = 101.325
Property: Relative permittivity at zero frequency (Liquid); method: Parallel plate capacitor
Temperature, K	Relative permittivity at zero frequency	uncertainty
288.15	7.648	.07648
298.15	7.363	.07363
308.15	7.116	.07116
318.15	6.886	.06886
328.15	6.637	.06637
338.15	6.404	.06404

System: 2,5,8-trioxanonane; phases: Liquid
Fixed: Pressure, kPa = 101.325
Property: Refractive index (Na D-line) (Liquid); method: Standard Abbe refractometry
Temperature, K	Refractive index (Na D-line)	uncertainty
288.15	1.41198	.00005
298.15	1.40753	.00005
308.15	1.40321	.00005

System: 1,2-dimethoxyethane + nonane; phases: Liquid
Fixed: Pressure, kPa = 101
Property: Relative permittivity at zero frequency (Liquid); method: Parallel plate capacitor
Mole fraction of nonane	Temperature, K	Relative permittivity at zero frequency	uncertainty
.0506	288.15	6.732	.06732
.1026	288.15	6.133	.06133
.2058	288.15	5.147	.05147
.3029	288.15	4.417	.04417
.3947	288.15	3.865	.03865
.4995	288.15	3.351	.03351
.6048	288.15	2.94	.0294
.702	288.15	2.633	.02633
.8038	288.15	2.369	.02369
.9036	288.15	2.158	.02158
.9508	288.15	2.074	.02074
.0507	298.15	6.433	.06433
.1043	298.15	5.853	.05853
.2031	298.15	4.968	.04968
.3045	298.15	4.254	.04254
.404	298.15	3.697	.03697
.5031	298.15	3.249	.03249
.6014	298.15	2.885	.02885
.7039	298.15	2.582	.02582
.8044	298.15	2.336	.02336
.9	298.15	2.145	.02145
.9511	298.15	2.057	.02057
.051	308.15	6.157	.06157
.1036	308.15	5.62	.0562
.2023	308.15	4.791	.04791
.3038	308.15	4.118	.04118
.4039	308.15	3.59	.0359
.5021	308.15	3.173	.03173
.607	308.15	2.812	.02812
.7042	308.15	2.538	.02538
.809	308.15	2.298	.02298
.9033	308.15	2.119	.02119
.9595	308.15	2.027	.02027
.0509	318.15	5.899	.05899
.1044	318.15	5.387	.05387
.2038	318.15	4.607	.04607
.3051	318.15	3.98	.0398
.4097	318.15	3.463	.03463
.5013	318.15	3.101	.03101
.6037	318.15	2.767	.02767
.7022	318.15	2.503	.02503
.8041	318.15	2.279	.02279
.904	318.15	2.098	.02098
.9515	318.15	2.023	.02023
.0542	328.15	5.626	.05626
.1036	328.15	5.188	.05188
.2041	328.15	4.44	.0444
.3072	328.15	3.845	.03845
.4052	328.15	3.391	.03391
.5039	328.15	3.019	.03019
.6043	328.15	2.71	.0271
.7019	328.15	2.462	.02462
.805	328.15	2.249	.02249
.9041	328.15	2.079	.02079
.9511	328.15	2.003	.02003
.0527	338.15	5.421	.05421
.1028	338.15	5	.05
.2039	338.15	4.295	.04295
.2997	338.15	3.766	.03766
.4037	338.15	3.31	.0331
.5036	338.15	2.954	.02954
.6002	338.15	2.672	.02672
.7023	338.15	2.426	.02426
.8042	338.15	2.224	.02224
.9032	338.15	2.06	.0206
.951	338.15	1.991	.01991

System: 1,2-dimethoxyethane + nonane; phases: Liquid
Fixed: Pressure, kPa = 101
Property: Mass density, kg/m3 (Liquid); method: Vibrating tube method
Mole fraction of nonane	Temperature, K	Mass density, kg/m3	uncertainty
.0505	288.15	857.26	.02
.1014	288.15	843.78	.02
.2017	288.15	820.73	.02
.3027	288.15	801.14	.02
.4071	288.15	783.82	.02
.5043	288.15	769.97	.02
.6014	288.15	757.85	.02
.7048	288.15	746.6	.02
.8051	288.15	737.05	.02
.9043	288.15	728.79	.02
.9528	288.15	725.12	.02
.0505	298.15	846.61	.02
.1014	298.15	833.36	.02
.2017	298.15	810.7	.02
.3027	298.15	791.51	.02
.4071	298.15	774.52	.02
.5043	298.15	760.99	.02
.6014	298.15	749.16	.02
.7048	298.15	738.23	.02
.8051	298.15	728.9	.02
.9043	298.15	720.86	.02
.9528	298.15	717.29	.02
.0505	308.15	835.84	.02
.1014	308.15	822.81	.02
.2017	308.15	800.56	.02
.3027	308.15	781.72	.02
.4071	308.15	765.13	.02
.5043	308.15	751.89	.02
.6014	308.15	740.38	.02
.7048	308.15	729.68	.02
.8051	308.15	720.64	.02
.9043	308.15	712.83	.02
.9528	308.15	709.43	.02
.0507	318.15	824.84	.02
.1008	318.15	812.22	.02
.2062	318.15	789.34	.02
.2962	318.15	772.92	.02
.4033	318.15	756.06	.02
.5051	318.15	742.56	.02
.6024	318.15	731.39	.02
.7041	318.15	721.07	.02
.8042	318.15	712.36	.02
.9039	318.15	704.77	.02
.952	318.15	701.43	.02
.0507	328.15	813.72	.02
.1008	328.15	801.43	.02
.2062	328.15	778.96	.02
.2962	328.15	762.85	.02
.4033	328.15	746.4	.02
.5051	328.15	733.25	.02
.6024	328.15	722.33	.02
.7041	328.15	712.38	.02
.8042	328.15	703.93	.02
.9039	328.15	696.59	.02
.952	328.15	693.36	.02
.0507	338.15	802.32	.02
.1008	338.15	790.18	.02
.2062	338.15	768.28	.02
.2962	338.15	752.61	.02
.4033	338.15	736.58	.02
.5051	338.15	723.8	.02
.6024	338.15	713.21	.02
.7041	338.15	703.57	.02
.8042	338.15	695.4	.02
.9039	338.15	688.32	.02
.952	338.15	685.2	.02

System: nonane + 2,5,8-trioxanonane; phases: Liquid
Fixed: Pressure, kPa = 101
Property: Relative permittivity at zero frequency (Liquid); method: Parallel plate capacitor
Mole fraction of nonane	Temperature, K	Relative permittivity at zero frequency	uncertainty
.0499	288.15	7.136	.07136
.0919	288.15	6.73	.0673
.198	288.15	5.791	.05791
.2996	288.15	5.022	.05022
.395	288.15	4.397	.04397
.4913	288.15	3.846	.03846
.6089	288.15	3.276	.03276
.7004	288.15	2.898	.02898
.7958	288.15	2.559	.02559
.8956	288.15	2.256	.02256
.9422	288.15	2.132	.02132
.0484	298.15	6.892	.06892
.0978	298.15	6.428	.06428
.1992	298.15	5.593	.05593
.2976	298.15	4.876	.04876
.3963	298.15	4.26	.0426
.4993	298.15	3.707	.03707
.5911	298.15	3.28	.0328
.7045	298.15	2.829	.02829
.7946	298.15	2.525	.02525
.8919	298.15	2.242	.02242
.9421	298.15	2.114	.02114
.049	308.15	6.633	.06633
.0976	308.15	6.201	.06201
.1981	308.15	5.406	.05406
.2981	308.15	4.724	.04724
.3975	308.15	4.136	.04136
.4992	308.15	3.616	.03616
.5903	308.15	3.211	.03211
.694	308.15	2.816	.02816
.7977	308.15	2.48	.0248
.8951	308.15	2.21	.0221
.9423	308.15	2.095	.02095
.0489	318.15	6.431	.06431
.1015	318.15	5.989	.05989
.2044	318.15	5.209	.05209
.3018	318.15	4.578	.04578
.381	318.15	4.123	.04123
.4953	318.15	3.556	.03556
.5966	318.15	3.128	.03128
.6958	318.15	2.766	.02766
.8002	318.15	2.441	.02441
.8951	318.15	2.189	.02189
.9445	318.15	2.072	.02072
.0488	328.15	6.22	.0622
.0968	328.15	5.828	.05828
.2014	328.15	5.069	.05069
.2981	328.15	4.464	.04464
.3952	328.15	3.94	.0394
.4944	328.15	3.476	.03476
.605	328.15	3.031	.03031
.6983	328.15	2.708	.02708
.7952	328.15	2.421	.02421
.8936	328.15	2.17	.0217
.9408	328.15	2.062	.02062
.049	338.15	5.997	.05997
.0975	338.15	5.627	.05627
.1991	338.15	4.932	.04932
.2972	338.15	4.343	.04343
.3931	338.15	3.851	.03851
.4948	338.15	3.395	.03395
.6062	338.15	2.969	.02969
.7006	338.15	2.659	.02659
.803	338.15	2.369	.02369
.8969	338.15	2.14	.0214
.9456	338.15	2.034	.02034

System: nonane + 2,5,8-trioxanonane; phases: Liquid
Fixed: Pressure, kPa = 101
Property: Mass density, kg/m3 (Liquid); method: Vibrating tube method
Mole fraction of nonane	Temperature, K	Mass density, kg/m3	uncertainty
.0498	288.15	933.18	.02
.0966	288.15	919.11	.02
.1967	288.15	890.84	.02
.2989	288.15	864.01	.02
.402	288.15	838.79	.02
.4025	288.15	838.68	.02
.4977	288.15	816.8	.02
.6378	288.15	787.05	.02
.6927	288.15	776.04	.02
.7897	288.15	757.61	.02
.8854	288.15	740.59	.02
.935	288.15	732.24	.02
.0498	298.15	923.4	.02
.0966	298.15	909.43	.02
.1967	298.15	881.35	.02
.2989	298.15	854.74	.02
.402	298.15	829.71	.02
.4025	298.15	829.62	.02
.4977	298.15	807.95	.02
.6378	298.15	778.51	.02
.6927	298.15	767.61	.02
.7897	298.15	749.41	.02
.8854	298.15	732.6	.02
.935	298.15	724.36	.02
.0498	308.15	913.53	.02
.0966	308.15	899.71	.02
.1967	308.15	871.81	.02
.2989	308.15	845.42	.02
.402	308.15	820.58	.02
.4025	308.15	820.54	.02
.4977	308.15	798.99	.02
.6378	308.15	769.91	.02
.6927	308.15	759.12	.02
.7897	308.15	741.14	.02
.8854	308.15	724.56	.02
.935	308.15	716.41	.02
.0498	318.15	904.08	.02
.0973	318.15	890.11	.02
.1995	318.15	861.82	.02
.3002	318.15	835.93	.02
.4004	318.15	812.09	.02
.5032	318.15	789.04	.02
.5907	318.15	770.7	.02
.7269	318.15	744.21	.02
.7863	318.15	733.41	.02
.8733	318.15	718.43	.02
.9338	318.15	708.58	.02
.0498	328.15	894.09	.02
.0973	328.15	880.23	.02
.1995	328.15	852.15	.02
.3002	328.15	826.45	.02
.4004	328.15	802.79	.02
.5032	328.15	779.99	.02
.5907	328.15	761.84	.02
.7269	328.15	735.68	.02
.7863	328.15	725.01	.02
.8733	328.15	710.22	.02
.9338	328.15	700.49	.02
.0498	338.15	884	.02
.0973	338.15	870.25	.02
.1995	338.15	842.38	.02
.3002	338.15	816.91	.02
.4004	338.15	793.43	.02
.5032	338.15	770.87	.02
.5907	338.15	753.04	.02
.7269	338.15	727	.02
.7863	338.15	716.47	.02
.8733	338.15	701.87	.02
.9338	338.15	692.29	.02
