Measured thermophysical data. Solubility determination and correlation for 1,8-dinitronaphthalene in (acetone + methanol), (toluene + methanol) and (acetonitrile + methanol) mixed solvents
Source: J. Chem. Thermodyn., 2016, 10.1016/j.jct.2015.10.015
Compound 1: 1,8-dinitronaphthalene, C10H6N2O4, purity 98.5%
Compound 2: acetonitrile, C2H3N, purity 99.0%
Compound 3: methanol, CH4O, purity 99.5%
Compound 4: acetone, C3H6O, purity 99.5%
Compound 5: toluene, C7H8, purity 99.5%

System: methanol + acetone + 1,8-dinitronaphthalene; phases: Liquid, Crystal
Fixed: Pressure, kPa = 101.3
Property: Mole fraction of 1,8-dinitronaphthalene (Liquid); method: Chromatography
Temperature, K	Solvent: Mass fraction of acetone	Mole fraction of 1,8-dinitronaphthalene	uncertainty
290.65	0	.0005904	.000047232
310.65	0	.001126	.00009008
313.15	0	.001207	.00009656
273.15	.0998	.0004217	.000033736
275.65	.0998	.0004655	.00003724
278.15	.0998	.0005154	.000041232
280.65	.0998	.0005754	.000046032
283.15	.0998	.0006337	.000050696
285.65	.0998	.0007001	.000056008
288.15	.0998	.00076	.0000608
290.65	.0998	.0008357	.000066856
293.15	.0998	.0009098	.000072784
295.65	.0998	.001005	.0000804
298.15	.0998	.001093	.00008744
300.65	.0998	.001173	.00009384
303.15	.0998	.001272	.00010176
305.65	.0998	.001364	.00010912
308.15	.0998	.001465	.0001172
310.65	.0998	.001559	.00012472
313.15	.0998	.001674	.00013392
273.15	.1996	.0007151	.000057208
275.65	.1996	.0007582	.000060656
278.15	.1996	.0008138	.000065104
280.65	.1996	.0008922	.000071376
283.15	.1996	.0009898	.000079184
285.65	.1996	.001084	.00008672
288.15	.1996	.001198	.00009584
290.65	.1996	.0013	.000104
293.15	.1996	.001416	.00011328
295.65	.1996	.001532	.00012256
298.15	.1996	.001666	.00013328
300.65	.1996	.001792	.00014336
303.15	.1996	.001946	.00015568
305.65	.1996	.002092	.00016736
308.15	.1996	.002235	.0001788
310.65	.1996	.002372	.00018976
313.15	.1996	.002513	.00020104
273.15	.2995	.001051	.00008408
275.65	.2995	.001113	.00008904
278.15	.2995	.001197	.00009576
280.65	.2995	.001287	.00010296
283.15	.2995	.001414	.00011312
285.65	.2995	.001557	.00012456
288.15	.2995	.001745	.0001396
290.65	.2995	.001938	.00015504
293.15	.2995	.002158	.00017264
295.65	.2995	.002362	.00018896
298.15	.2995	.002592	.00020736
300.65	.2995	.002813	.00022504
303.15	.2995	.00303	.0002424
305.65	.2995	.003286	.00026288
308.15	.2995	.003518	.00028144
310.65	.2995	.003758	.00030064
313.15	.2995	.003961	.00031688
273.15	.3994	.001637	.00013096
275.65	.3994	.001685	.0001348
278.15	.3994	.001784	.00014272
280.65	.3994	.001915	.0001532
283.15	.3994	.002083	.00016664
285.65	.3994	.002266	.00018128
288.15	.3994	.002449	.00019592
290.65	.3994	.002666	.00021328
293.15	.3994	.002894	.00023152
295.65	.3994	.003176	.00025408
298.15	.3994	.003431	.00027448
300.65	.3994	.003715	.0002972
303.15	.3994	.003963	.00031704
305.65	.3994	.004266	.00034128
308.15	.3994	.004576	.00036608
310.65	.3994	.004866	.00038928
313.15	.3994	.005161	.00041288
273.15	.4994	.002389	.00019112
275.65	.4994	.00248	.0001984
278.15	.4994	.002601	.00020808
280.65	.4994	.00272	.0002176
283.15	.4994	.002884	.00023072
285.65	.4994	.00308	.0002464
288.15	.4994	.003305	.0002644
290.65	.4994	.00358	.0002864
293.15	.4994	.003885	.0003108
295.65	.4994	.00418	.0003344
298.15	.4994	.004554	.00036432
300.65	.4994	.004929	.00039432
303.15	.4994	.005331	.00042648
305.65	.4994	.0057	.000456
308.15	.4994	.00612	.0004896
310.65	.4994	.00653	.0005224
313.15	.4994	.006975	.000558
273.15	.5994	.003206	.00025648
275.65	.5994	.003444	.00027552
278.15	.5994	.003759	.00030072
280.65	.5994	.004042	.00032336
283.15	.5994	.004382	.00035056
285.65	.5994	.004733	.00037864
288.15	.5994	.005148	.00041184
290.65	.5994	.005565	.0004452
293.15	.5994	.006069	.00048552
295.65	.5994	.006522	.00052176
298.15	.5994	.007064	.00056512
300.65	.5994	.007624	.00060992
303.15	.5994	.008288	.00066304
305.65	.5994	.008913	.00071304
308.15	.5994	.009644	.00077152
310.65	.5994	.01026	.0008208
313.15	.5994	.01098	.0008784
273.15	.6995	.004828	.00038624
275.65	.6995	.004994	.00039952
278.15	.6995	.00525	.00042
280.65	.6995	.005565	.0004452
283.15	.6995	.00591	.0004728
285.65	.6995	.006315	.0005052
288.15	.6995	.006753	.00054024
290.65	.6995	.007292	.00058336
293.15	.6995	.007876	.00063008
295.65	.6995	.008478	.00067824
298.15	.6995	.009154	.00073232
300.65	.6995	.009778	.00078224
303.15	.6995	.01048	.0008384
305.65	.6995	.01111	.0008888
308.15	.6995	.01179	.0009432
310.65	.6995	.01241	.0009928
313.15	.6995	.01312	.0010496
273.15	.7996	.005679	.00045432
275.65	.7996	.006094	.00048752
278.15	.7996	.006639	.00053112
280.65	.7996	.007164	.00057312
283.15	.7996	.007737	.00061896
285.65	.7996	.008357	.00066856
288.15	.7996	.008955	.0007164
290.65	.7996	.009545	.0007636
293.15	.7996	.01023	.0008184
295.65	.7996	.01094	.0008752
298.15	.7996	.01177	.0009416
300.65	.7996	.01255	.001004
303.15	.7996	.01346	.0010768
305.65	.7996	.0144	.001152
308.15	.7996	.01549	.0012392
310.65	.7996	.01659	.0013272
313.15	.7996	.01779	.0014232
273.15	.8998	.007911	.00063288
275.65	.8998	.008369	.00066952
278.15	.8998	.008965	.0007172
280.65	.8998	.009586	.00076688
283.15	.8998	.01035	.000828
285.65	.8998	.01106	.0008848
288.15	.8998	.01191	.0009528
290.65	.8998	.01269	.0010152
293.15	.8998	.01362	.0010896
295.65	.8998	.01446	.0011568
298.15	.8998	.01546	.0012368
300.65	.8998	.01636	.0013088
303.15	.8998	.01724	.0013792
305.65	.8998	.01836	.0014688
308.15	.8998	.01943	.0015544
310.65	.8998	.02045	.001636
313.15	.8998	.02173	.0017384
290.65	1	.01731	.0013848
310.65	1	.03326	.0026608
313.15	1	.03602	.0028816

System: methanol + acetonitrile + 1,8-dinitronaphthalene; phases: Liquid, Crystal
Fixed: Pressure, kPa = 101.3
Property: Mole fraction of 1,8-dinitronaphthalene (Liquid); method: Chromatography
Temperature, K	Solvent: Mass fraction of acetonitrile	Mole fraction of 1,8-dinitronaphthalene	uncertainty
290.65	0	.0005904	.000047232
310.65	0	.001126	.00009008
313.15	0	.001207	.00009656
273.15	.0993	.0004608	.000036864
275.65	.0993	.0004932	.000039456
278.15	.0993	.0005354	.000042832
280.65	.0993	.0005877	.000047016
283.15	.0993	.0006608	.000052864
285.65	.0993	.0007371	.000058968
288.15	.0993	.0008065	.00006452
290.65	.0993	.0009068	.000072544
293.15	.0993	.000996	.00007968
295.65	.0993	.001093	.00008744
298.15	.0993	.001201	.00009608
300.65	.0993	.001314	.00010512
303.15	.0993	.001458	.00011664
305.65	.0993	.001607	.00012856
308.15	.0993	.001738	.00013904
310.65	.0993	.001907	.00015256
313.15	.0993	.00205	.000164
273.15	.1988	.0006401	.000051208
275.65	.1988	.0006903	.000055224
278.15	.1988	.0007683	.000061464
280.65	.1988	.0008402	.000067216
283.15	.1988	.0009225	.0000738
285.65	.1988	.00101	.0000808
288.15	.1988	.001116	.00008928
290.65	.1988	.00122	.0000976
293.15	.1988	.001357	.00010856
295.65	.1988	.00148	.0001184
298.15	.1988	.001624	.00012992
300.65	.1988	.00177	.0001416
303.15	.1988	.001908	.00015264
305.65	.1988	.00211	.0001688
308.15	.1988	.002309	.00018472
310.65	.1988	.00254	.0002032
313.15	.1988	.002763	.00022104
273.15	.2985	.0009537	.000076296
275.65	.2985	.001037	.00008296
278.15	.2985	.001161	.00009288
280.65	.2985	.001263	.00010104
283.15	.2985	.001395	.0001116
285.65	.2985	.001532	.00012256
288.15	.2985	.001668	.00013344
290.65	.2985	.001797	.00014376
293.15	.2985	.001957	.00015656
295.65	.2985	.002098	.00016784
298.15	.2985	.002283	.00018264
300.65	.2985	.002475	.000198
303.15	.2985	.00268	.0002144
305.65	.2985	.002903	.00023224
308.15	.2985	.003116	.00024928
310.65	.2985	.003325	.000266
313.15	.2985	.003596	.00028768
273.15	.3982	.00128	.0001024
275.65	.3982	.001356	.00010848
278.15	.3982	.001466	.00011728
280.65	.3982	.001596	.00012768
283.15	.3982	.00177	.0001416
285.65	.3982	.001946	.00015568
288.15	.3982	.002148	.00017184
290.65	.3982	.002344	.00018752
293.15	.3982	.002529	.00020232
295.65	.3982	.002743	.00021944
298.15	.3982	.002963	.00023704
300.65	.3982	.003194	.00025552
303.15	.3982	.003416	.00027328
305.65	.3982	.003673	.00029384
308.15	.3982	.003897	.00031176
310.65	.3982	.004143	.00033144
313.15	.3982	.004379	.00035032
273.15	.4982	.00172	.0001376
275.65	.4982	.001789	.00014312
278.15	.4982	.001888	.00015104
280.65	.4982	.002008	.00016064
283.15	.4982	.002139	.00017112
285.65	.4982	.002308	.00018464
288.15	.4982	.002549	.00020392
290.65	.4982	.002839	.00022712
293.15	.4982	.003146	.00025168
295.65	.4982	.003467	.00027736
298.15	.4982	.003796	.00030368
300.65	.4982	.004185	.0003348
303.15	.4982	.0046	.000368
305.65	.4982	.004998	.00039984
308.15	.4982	.005417	.00043336
310.65	.4982	.005829	.00046632
313.15	.4982	.006273	.00050184
273.15	.5982	.001985	.0001588
275.65	.5982	.002139	.00017112
278.15	.5982	.002305	.0001844
280.65	.5982	.002501	.00020008
283.15	.5982	.002713	.00021704
285.65	.5982	.003	.00024
288.15	.5982	.003321	.00026568
290.65	.5982	.0037	.000296
293.15	.5982	.004072	.00032576
295.65	.5982	.004501	.00036008
298.15	.5982	.004917	.00039336
300.65	.5982	.00535	.000428
303.15	.5982	.005798	.00046384
305.65	.5982	.00626	.0005008
308.15	.5982	.006662	.00053296
310.65	.5982	.00712	.0005696
313.15	.5982	.007586	.00060688
273.15	.6985	.002301	.00018408
275.65	.6985	.002361	.00018888
278.15	.6985	.002502	.00020016
280.65	.6985	.002729	.00021832
283.15	.6985	.002988	.00023904
285.65	.6985	.003358	.00026864
288.15	.6985	.003747	.00029976
290.65	.6985	.004239	.00033912
293.15	.6985	.004747	.00037976
295.65	.6985	.00521	.0004168
298.15	.6985	.005687	.00045496
300.65	.6985	.00619	.0004952
303.15	.6985	.006678	.00053424
305.65	.6985	.007199	.00057592
308.15	.6985	.007736	.00061888
310.65	.6985	.008309	.00066472
313.15	.6985	.00887	.0007096
273.15	.7988	.002449	.00019592
275.65	.7988	.002601	.00020808
278.15	.7988	.002777	.00022216
280.65	.7988	.003021	.00024168
283.15	.7988	.003317	.00026536
285.65	.7988	.003741	.00029928
288.15	.7988	.004167	.00033336
290.65	.7988	.004711	.00037688
293.15	.7988	.005276	.00042208
295.65	.7988	.005839	.00046712
298.15	.7988	.006426	.00051408
300.65	.7988	.007059	.00056472
303.15	.7988	.007665	.0006132
305.65	.7988	.00836	.0006688
308.15	.7988	.009021	.00072168
310.65	.7988	.009819	.00078552
313.15	.7988	.01066	.0008528
273.15	.8993	.002646	.00021168
275.65	.8993	.002833	.00022664
278.15	.8993	.003134	.00025072
280.65	.8993	.003454	.00027632
283.15	.8993	.003876	.00031008
285.65	.8993	.004381	.00035048
288.15	.8993	.005019	.00040152
290.65	.8993	.005612	.00044896
293.15	.8993	.006266	.00050128
295.65	.8993	.006887	.00055096
298.15	.8993	.007522	.00060176
300.65	.8993	.008205	.0006564
303.15	.8993	.008934	.00071472
305.65	.8993	.009684	.00077472
308.15	.8993	.01054	.0008432
310.65	.8993	.01138	.0009104
313.15	.8993	.01232	.0009856
290.65	1	.007509	.00060072
310.65	1	.01492	.0011936
313.15	1	.01587	.0012696

System: methanol + toluene + 1,8-dinitronaphthalene; phases: Liquid, Crystal
Fixed: Pressure, kPa = 101.3
Property: Mole fraction of 1,8-dinitronaphthalene (Liquid); method: Chromatography
Temperature, K	Solvent: Mass fraction of toluene	Mole fraction of 1,8-dinitronaphthalene	uncertainty
290.65	0	.0005904	.000047232
310.65	0	.001126	.00009008
313.15	0	.001207	.00009656
273.15	.0988	.0003218	.000025744
275.65	.0988	.0003698	.000029584
278.15	.0988	.0004174	.000033392
280.65	.0988	.0004654	.000037232
283.15	.0988	.0005232	.000041856
285.65	.0988	.0005855	.00004684
288.15	.0988	.0006576	.000052608
290.65	.0988	.0007263	.000058104
293.15	.0988	.0008059	.000064472
295.65	.0988	.0008864	.000070912
298.15	.0988	.0009753	.000078024
300.65	.0988	.00108	.0000864
303.15	.0988	.001184	.00009472
305.65	.0988	.001296	.00010368
308.15	.0988	.001391	.00011128
310.65	.0988	.001505	.0001204
313.15	.0988	.001614	.00012912
273.15	.1959	.0004846	.000038768
275.65	.1959	.0005348	.000042784
278.15	.1959	.0005967	.000047736
280.65	.1959	.0006622	.000052976
283.15	.1959	.0007283	.000058264
285.65	.1959	.0008126	.000065008
288.15	.1959	.000907	.00007256
290.65	.1959	.001013	.00008104
293.15	.1959	.001112	.00008896
295.65	.1959	.001225	.000098
298.15	.1959	.001349	.00010792
300.65	.1959	.001484	.00011872
303.15	.1959	.001613	.00012904
305.65	.1959	.001769	.00014152
308.15	.1959	.001922	.00015376
310.65	.1959	.002069	.00016552
313.15	.1959	.002222	.00017776
273.15	.3048	.0006279	.000050232
275.65	.3048	.0006964	.000055712
278.15	.3048	.0007676	.000061408
280.65	.3048	.000858	.00006864
283.15	.3048	.0009575	.0000766
285.65	.3048	.001081	.00008648
288.15	.3048	.001206	.00009648
290.65	.3048	.001338	.00010704
293.15	.3048	.001482	.00011856
295.65	.3048	.001648	.00013184
298.15	.3048	.001828	.00014624
300.65	.3048	.002038	.00016304
303.15	.3048	.002247	.00017976
305.65	.3048	.002438	.00019504
308.15	.3048	.002664	.00021312
310.65	.3048	.002888	.00023104
313.15	.3048	.003148	.00025184
273.15	.4028	.0008404	.000067232
275.65	.4028	.0009258	.000074064
278.15	.4028	.001016	.00008128
280.65	.4028	.001135	.0000908
283.15	.4028	.001261	.00010088
285.65	.4028	.001385	.0001108
288.15	.4028	.001539	.00012312
290.65	.4028	.001735	.0001388
293.15	.4028	.001931	.00015448
295.65	.4028	.002145	.0001716
298.15	.4028	.002387	.00019096
300.65	.4028	.002635	.0002108
303.15	.4028	.002891	.00023128
305.65	.4028	.003145	.0002516
308.15	.4028	.003464	.00027712
310.65	.4028	.003754	.00030032
313.15	.4028	.004117	.00032936
273.15	.4991	.001036	.00008288
275.65	.4991	.00113	.0000904
278.15	.4991	.001242	.00009936
280.65	.4991	.001381	.00011048
283.15	.4991	.001517	.00012136
285.65	.4991	.00168	.0001344
288.15	.4991	.001866	.00014928
290.65	.4991	.00207	.0001656
293.15	.4991	.002314	.00018512
295.65	.4991	.002541	.00020328
298.15	.4991	.00281	.0002248
300.65	.4991	.00312	.0002496
303.15	.4991	.003468	.00027744
305.65	.4991	.003851	.00030808
308.15	.4991	.004276	.00034208
310.65	.4991	.004739	.00037912
313.15	.4991	.005251	.00042008
273.15	.5992	.001354	.00010832
275.65	.5992	.001457	.00011656
278.15	.5992	.001568	.00012544
280.65	.5992	.001727	.00013816
283.15	.5992	.001882	.00015056
285.65	.5992	.002107	.00016856
288.15	.5992	.002337	.00018696
290.65	.5992	.002596	.00020768
293.15	.5992	.002896	.00023168
295.65	.5992	.003197	.00025576
298.15	.5992	.003564	.00028512
300.65	.5992	.003976	.00031808
303.15	.5992	.004433	.00035464
305.65	.5992	.004853	.00038824
308.15	.5992	.005329	.00042632
310.65	.5992	.005857	.00046856
313.15	.5992	.006366	.00050928
273.15	.6993	.001455	.0001164
275.65	.6993	.001573	.00012584
278.15	.6993	.001729	.00013832
280.65	.6993	.001927	.00015416
283.15	.6993	.002125	.00017
285.65	.6993	.002355	.0001884
288.15	.6993	.002662	.00021296
290.65	.6993	.002968	.00023744
293.15	.6993	.003286	.00026288
295.65	.6993	.003627	.00029016
298.15	.6993	.003973	.00031784
300.65	.6993	.004423	.00035384
303.15	.6993	.004959	.00039672
305.65	.6993	.005527	.00044216
308.15	.6993	.006132	.00049056
310.65	.6993	.006808	.00054464
313.15	.6993	.007423	.00059384
273.15	.7995	.001757	.00014056
275.65	.7995	.001899	.00015192
278.15	.7995	.002088	.00016704
280.65	.7995	.002249	.00017992
283.15	.7995	.002454	.00019632
285.65	.7995	.002699	.00021592
288.15	.7995	.002996	.00023968
290.65	.7995	.003299	.00026392
293.15	.7995	.003652	.00029216
295.65	.7995	.004049	.00032392
298.15	.7995	.004481	.00035848
300.65	.7995	.005049	.00040392
303.15	.7995	.00558	.0004464
305.65	.7995	.006151	.00049208
308.15	.7995	.00678	.0005424
310.65	.7995	.007499	.00059992
313.15	.7995	.008204	.00065632
273.15	.908	.001605	.0001284
275.65	.908	.001723	.00013784
278.15	.908	.001897	.00015176
280.65	.908	.002072	.00016576
283.15	.908	.00227	.0001816
285.65	.908	.002523	.00020184
288.15	.908	.002803	.00022424
290.65	.908	.003065	.0002452
293.15	.908	.003374	.00026992
295.65	.908	.003713	.00029704
298.15	.908	.004097	.00032776
300.65	.908	.004615	.0003692
303.15	.908	.00518	.0004144
305.65	.908	.005795	.0004636
308.15	.908	.006463	.00051704
310.65	.908	.007112	.00056896
313.15	.908	.007869	.00062952
290.65	1	.002264	.00018112
310.65	1	.005318	.00042544
313.15	1	.005899	.00047192

System: methanol + 1,8-dinitronaphthalene; phases: Liquid, Crystal
Property: Mole fraction of 1,8-dinitronaphthalene (Liquid); method: Chromatography
Temperature, K	Pressure, kPa	Mole fraction of 1,8-dinitronaphthalene	uncertainty
290.65	101.3	.0005904	.000047232
310.65	101.3	.001126	.00009008
313.15	101.3	.001207	.00009656

System: acetone + 1,8-dinitronaphthalene; phases: Liquid, Crystal
Property: Mole fraction of 1,8-dinitronaphthalene (Liquid); method: Chromatography
Temperature, K	Pressure, kPa	Mole fraction of 1,8-dinitronaphthalene	uncertainty
290.65	101.3	.01731	.0013848
310.65	101.3	.03326	.0026608
313.15	101.3	.03602	.0028816

System: acetonitrile + 1,8-dinitronaphthalene; phases: Liquid, Crystal
Property: Mole fraction of 1,8-dinitronaphthalene (Liquid); method: Chromatography
Temperature, K	Pressure, kPa	Mole fraction of 1,8-dinitronaphthalene	uncertainty
290.65	101.3	.007509	.00060072
310.65	101.3	.01492	.0011936
313.15	101.3	.01587	.0012696

System: toluene + 1,8-dinitronaphthalene; phases: Liquid, Crystal
Property: Mole fraction of 1,8-dinitronaphthalene (Liquid); method: Chromatography
Temperature, K	Pressure, kPa	Mole fraction of 1,8-dinitronaphthalene	uncertainty
290.65	101.3	.002264	.00018112
310.65	101.3	.005318	.00042544
313.15	101.3	.005899	.00047192
