Measured thermophysical data. Activity coefficients at infinite dilution and physicochemical properties for organic solutes and water in the ionic liquid 1-(3-hydroxypropyl)pyridinium bis(trifluoromethylsulfonyl)-amide
Source: J. Chem. Thermodyn., 2011, 10.1016/j.jct.2011.04.018
Compound 1: 1-(3-hydroxypropyl)pyridinium bis(trifluoromethylsulfonyl)amide, C10H12F6N2O5S2, purity 99.9%
Compound 2: pentane, C5H12, purity 99%
Compound 3: n-hexane, C6H14, purity 99%
Compound 4: 3-methylpentane, C6H14, purity 99%
Compound 5: butane, 2,2-dimethyl-, C6H14, purity 99%
Compound 6: heptane, C7H16, purity 99%
Compound 7: octane, C8H18, purity 99%
Compound 8: isooctane, C8H18, purity 99%
Compound 9: nonane, C9H20, purity 99%
Compound 10: decane, C10H22, purity 99%
Compound 11: cyclopentane, C5H10, purity 99%
Compound 12: cyclohexane, C6H12, purity 99%
Compound 13: cyclohexane, methyl-, C7H14, purity 99%
Compound 14: cycloheptane, C7H14, purity 99%
Compound 15: cyclooctane, C8H16, purity 99%
Compound 16: 1-pentene, C5H10, purity 99%
Compound 17: 1-hexene, C6H12, purity 99%
Compound 18: cyclohex-1-ene, C6H10, purity 99%
Compound 19: 1-heptene, C7H14, purity 99%
Compound 20: caprylene, C8H16, purity 99%
Compound 21: 1-decene, C10H20, purity 99%
Compound 22: butylacetylene, C6H10, purity 99%
Compound 23: 1-heptyne, C7H12, purity 99%
Compound 24: 1-octyne, C8H14, purity 99%
Compound 25: benzene, C6H6, purity 99%
Compound 26: toluol, C7H8, purity 99%
Compound 27: ethylbenzene, C8H10, purity 99%
Compound 28: 1,2-xylene, C8H10, purity 99%
Compound 29: 1,3-xylene, C8H10, purity 99%
Compound 30: benzene, 1,4-dimethyl-, C8H10, purity 99%
Compound 31: methanol, CH4O, purity 99%
Compound 32: ethanol, C2H6O, purity 99%
Compound 33: propyl alcohol, C3H8O, purity 99%
Compound 34: n-butyl alcohol, C4H10O, purity 99%
Compound 35: water, H2O, purity 99%
Compound 36: ethanoic acid, C2H4O2, purity 99%
Compound 37: thiophene, C4H4S, purity 99%
Compound 38: oxacyclopentane, C4H8O, purity 99%
Compound 39: 1,4-dioxacyclohexane, C4H8O2, purity 99%
Compound 40: tert-butyl methyl ether, C5H12O, purity 99%
Compound 41: ether, dipropyl, C6H14O, purity 99%
Compound 42: butyl oxide, C8H18O, purity 99%
Compound 43: 2-propanone, C3H6O, purity 99%
Compound 44: methyl n-propyl ketone, C5H10O, purity 99%
Compound 45: diethyl ketone, C5H10O, purity 99%
Compound 46: butane, 2-methoxy-2-methyl-, C6H14O, purity 99%
Compound 47: ethyl ether, C4H10O, purity 99%

System: pentane + 1-(3-hydroxypropyl)pyridinium bis(trifluoromethylsulfonyl)amide; phases: Liquid
Fixed: Pressure, kPa = 101
Fixed: Mole fraction of pentane = 0
Property: Activity coefficient of pentane (Liquid); method: Chromatography
Temperature, K	Activity coefficient of pentane	uncertainty
308.15	32.9	.987
318.15	30.2	.906
328.15	27.9	.837
338.15	25.8	.774
348.15	24.3	.729

System: n-hexane + 1-(3-hydroxypropyl)pyridinium bis(trifluoromethylsulfonyl)amide; phases: Liquid
Fixed: Pressure, kPa = 101
Fixed: Mole fraction of n-hexane = 0
Property: Activity coefficient of n-hexane (Liquid); method: Chromatography
Temperature, K	Activity coefficient of n-hexane	uncertainty
308.15	51.3	1.539
318.15	46.7	1.401
328.15	42.3	1.269
338.15	38.5	1.155
348.15	35.6	1.068
358.15	32.8	.984

System: 3-methylpentane + 1-(3-hydroxypropyl)pyridinium bis(trifluoromethylsulfonyl)amide; phases: Liquid
Fixed: Pressure, kPa = 101
Fixed: Mole fraction of 3-methylpentane = 0
Property: Activity coefficient of 3-methylpentane (Liquid); method: Chromatography
Temperature, K	Activity coefficient of 3-methylpentane	uncertainty
308.15	44	1.32
318.15	40	1.2
328.15	36.6	1.098
338.15	33.3	.999
348.15	30.9	.927
358.15	28.5	.855

System: butane, 2,2-dimethyl- + 1-(3-hydroxypropyl)pyridinium bis(trifluoromethylsulfonyl)amide; phases: Liquid
Fixed: Pressure, kPa = 101
Fixed: Mole fraction of butane, 2,2-dimethyl- = 0
Property: Activity coefficient of butane, 2,2-dimethyl- (Liquid); method: Chromatography
Temperature, K	Activity coefficient of butane, 2,2-dimethyl-	uncertainty
308.15	41	1.23
318.15	37.3	1.119
328.15	33.9	1.017
338.15	30.9	.927
348.15	28.5	.855
358.15	26.3	.789

System: heptane + 1-(3-hydroxypropyl)pyridinium bis(trifluoromethylsulfonyl)amide; phases: Liquid
Fixed: Pressure, kPa = 101
Fixed: Mole fraction of heptane = 0
Property: Activity coefficient of heptane (Liquid); method: Chromatography
Temperature, K	Activity coefficient of heptane	uncertainty
308.15	82	2.46
318.15	73.8	2.214
328.15	66.2	1.986
338.15	59.3	1.779
348.15	54.3	1.629
358.15	49.4	1.482
368.15	45.8	1.374

System: octane + 1-(3-hydroxypropyl)pyridinium bis(trifluoromethylsulfonyl)amide; phases: Liquid
Fixed: Pressure, kPa = 101
Fixed: Mole fraction of octane = 0
Property: Activity coefficient of octane (Liquid); method: Chromatography
Temperature, K	Activity coefficient of octane	uncertainty
308.15	130	3.9
318.15	116	3.48
328.15	102	3.06
338.15	91.1	2.733
348.15	81.3	2.439
358.15	73.6	2.208
368.15	67.5	2.025

System: isooctane + 1-(3-hydroxypropyl)pyridinium bis(trifluoromethylsulfonyl)amide; phases: Liquid
Fixed: Pressure, kPa = 101
Fixed: Mole fraction of isooctane = 0
Property: Activity coefficient of isooctane (Liquid); method: Chromatography
Temperature, K	Activity coefficient of isooctane	uncertainty
308.15	81.7	2.451
318.15	73.9	2.217
328.15	67	2.01
338.15	60.7	1.821
348.15	55.7	1.671
358.15	51.4	1.542
368.15	47.3	1.419

System: nonane + 1-(3-hydroxypropyl)pyridinium bis(trifluoromethylsulfonyl)amide; phases: Liquid
Fixed: Pressure, kPa = 101
Fixed: Mole fraction of nonane = 0
Property: Activity coefficient of nonane (Liquid); method: Chromatography
Temperature, K	Activity coefficient of nonane	uncertainty
308.15	206	6.18
318.15	181	5.43
328.15	157	4.71
338.15	139	4.17
348.15	125	3.75
358.15	111	3.33
368.15	99.7	2.991

System: decane + 1-(3-hydroxypropyl)pyridinium bis(trifluoromethylsulfonyl)amide; phases: Liquid
Fixed: Pressure, kPa = 101
Fixed: Mole fraction of decane = 0
Property: Activity coefficient of decane (Liquid); method: Chromatography
Temperature, K	Activity coefficient of decane	uncertainty
308.15	327	9.81
318.15	284	8.52
328.15	245	7.35
338.15	214	6.42
348.15	190	5.7
358.15	168	5.04
368.15	150	4.5

System: cyclopentane + 1-(3-hydroxypropyl)pyridinium bis(trifluoromethylsulfonyl)amide; phases: Liquid
Fixed: Pressure, kPa = 101
Fixed: Mole fraction of cyclopentane = 0
Property: Activity coefficient of cyclopentane (Liquid); method: Chromatography
Temperature, K	Activity coefficient of cyclopentane	uncertainty
308.15	15.8	.474
318.15	14.6	.438
328.15	13.5	.405
338.15	12.5	.375
348.15	11.7	.351
358.15	11.1	.333
368.15	10.4	.312

System: cyclohexane + 1-(3-hydroxypropyl)pyridinium bis(trifluoromethylsulfonyl)amide; phases: Liquid
Fixed: Pressure, kPa = 101
Fixed: Mole fraction of cyclohexane = 0
Property: Activity coefficient of cyclohexane (Liquid); method: Chromatography
Temperature, K	Activity coefficient of cyclohexane	uncertainty
308.15	25.5	.765
318.15	23.2	.696
328.15	21.1	.633
338.15	19.4	.582
348.15	17.9	.537
358.15	16.7	.501
368.15	15.5	.465

System: cyclohexane, methyl- + 1-(3-hydroxypropyl)pyridinium bis(trifluoromethylsulfonyl)amide; phases: Liquid
Fixed: Pressure, kPa = 101
Fixed: Mole fraction of cyclohexane, methyl- = 0
Property: Activity coefficient of cyclohexane, methyl- (Liquid); method: Chromatography
Temperature, K	Activity coefficient of cyclohexane, methyl-	uncertainty
308.15	38.7	1.161
318.15	35.2	1.056
328.15	31.9	.957
338.15	29	.87
348.15	26.8	.804
358.15	24.7	.741
368.15	22.9	.687

System: cycloheptane + 1-(3-hydroxypropyl)pyridinium bis(trifluoromethylsulfonyl)amide; phases: Liquid
Fixed: Pressure, kPa = 101
Fixed: Mole fraction of cycloheptane = 0
Property: Activity coefficient of cycloheptane (Liquid); method: Chromatography
Temperature, K	Activity coefficient of cycloheptane	uncertainty
308.15	36.3	1.089
318.15	32.8	.984
328.15	29.7	.891
338.15	26.9	.807
348.15	24.7	.741
358.15	22.9	.687
368.15	21.2	.636

System: cyclooctane + 1-(3-hydroxypropyl)pyridinium bis(trifluoromethylsulfonyl)amide; phases: Liquid
Fixed: Pressure, kPa = 101
Fixed: Mole fraction of cyclooctane = 0
Property: Activity coefficient of cyclooctane (Liquid); method: Chromatography
Temperature, K	Activity coefficient of cyclooctane	uncertainty
308.15	51.9	1.557
318.15	46.4	1.392
328.15	41.6	1.248
338.15	37.3	1.119
348.15	34	1.02
358.15	31.3	.939
368.15	28.6	.858

System: 1-pentene + 1-(3-hydroxypropyl)pyridinium bis(trifluoromethylsulfonyl)amide; phases: Liquid
Fixed: Pressure, kPa = 101
Fixed: Mole fraction of 1-pentene = 0
Property: Activity coefficient of 1-pentene (Liquid); method: Chromatography
Temperature, K	Activity coefficient of 1-pentene	uncertainty
308.15	14.2	.426
318.15	13.5	.405
328.15	12.7	.381
338.15	12	.36
348.15	11.5	.345

System: 1-hexene + 1-(3-hydroxypropyl)pyridinium bis(trifluoromethylsulfonyl)amide; phases: Liquid
Fixed: Pressure, kPa = 101
Fixed: Mole fraction of 1-hexene = 0
Property: Activity coefficient of 1-hexene (Liquid); method: Chromatography
Temperature, K	Activity coefficient of 1-hexene	uncertainty
308.15	22.7	.681
318.15	21.2	.636
328.15	19.7	.591
338.15	18.4	.552
348.15	17.3	.519
358.15	16.4	.492

System: cyclohex-1-ene + 1-(3-hydroxypropyl)pyridinium bis(trifluoromethylsulfonyl)amide; phases: Liquid
Fixed: Pressure, kPa = 101
Fixed: Mole fraction of cyclohex-1-ene = 0
Property: Activity coefficient of cyclohex-1-ene (Liquid); method: Chromatography
Temperature, K	Activity coefficient of cyclohex-1-ene	uncertainty
308.15	11.7	.351
318.15	11	.33
328.15	10.4	.312
338.15	9.81	.2943
348.15	9.31	.2793
358.15	8.92	.2676
368.15	8.52	.2556

System: 1-heptene + 1-(3-hydroxypropyl)pyridinium bis(trifluoromethylsulfonyl)amide; phases: Liquid
Fixed: Pressure, kPa = 101
Fixed: Mole fraction of 1-heptene = 0
Property: Activity coefficient of 1-heptene (Liquid); method: Chromatography
Temperature, K	Activity coefficient of 1-heptene	uncertainty
308.15	35.7	1.071
318.15	33.1	.993
328.15	30.7	.921
338.15	28.5	.855
348.15	26.7	.801
358.15	25.2	.756
368.15	23.7	.711

System: caprylene + 1-(3-hydroxypropyl)pyridinium bis(trifluoromethylsulfonyl)amide; phases: Liquid
Fixed: Pressure, kPa = 101
Fixed: Mole fraction of caprylene = 0
Property: Activity coefficient of caprylene (Liquid); method: Chromatography
Temperature, K	Activity coefficient of caprylene	uncertainty
308.15	58	1.74
318.15	53	1.59
328.15	48.5	1.455
338.15	44.4	1.332
348.15	41.1	1.233
358.15	38.1	1.143
368.15	35.6	1.068

System: 1-decene + 1-(3-hydroxypropyl)pyridinium bis(trifluoromethylsulfonyl)amide; phases: Liquid
Fixed: Pressure, kPa = 101
Fixed: Mole fraction of 1-decene = 0
Property: Activity coefficient of 1-decene (Liquid); method: Chromatography
Temperature, K	Activity coefficient of 1-decene	uncertainty
308.15	142	4.26
318.15	128	3.84
328.15	115	3.45
338.15	104	3.12
348.15	95.2	2.856
358.15	86.6	2.598
368.15	79.7	2.391

System: butylacetylene + 1-(3-hydroxypropyl)pyridinium bis(trifluoromethylsulfonyl)amide; phases: Liquid
Fixed: Pressure, kPa = 101
Fixed: Mole fraction of butylacetylene = 0
Property: Activity coefficient of butylacetylene (Liquid); method: Chromatography
Temperature, K	Activity coefficient of butylacetylene	uncertainty
308.15	6.38	.1914
318.15	6.25	.1875
328.15	6.13	.1839
338.15	6	.18
348.15	5.91	.1773
358.15	5.8	.174
368.15	5.72	.1716

System: 1-heptyne + 1-(3-hydroxypropyl)pyridinium bis(trifluoromethylsulfonyl)amide; phases: Liquid
Fixed: Pressure, kPa = 101
Fixed: Mole fraction of 1-heptyne = 0
Property: Activity coefficient of 1-heptyne (Liquid); method: Chromatography
Temperature, K	Activity coefficient of 1-heptyne	uncertainty
308.15	10.1	.303
318.15	9.81	.2943
328.15	9.53	.2859
338.15	9.21	.2763
348.15	9	.27
358.15	8.74	.2622
368.15	8.55	.2565

System: 1-octyne + 1-(3-hydroxypropyl)pyridinium bis(trifluoromethylsulfonyl)amide; phases: Liquid
Fixed: Pressure, kPa = 101
Fixed: Mole fraction of 1-octyne = 0
Property: Activity coefficient of 1-octyne (Liquid); method: Chromatography
Temperature, K	Activity coefficient of 1-octyne	uncertainty
308.15	16.2	.486
318.15	15.5	.465
328.15	14.9	.447
338.15	14.2	.426
348.15	13.7	.411
358.15	13.2	.396
368.15	12.7	.381

System: benzene + 1-(3-hydroxypropyl)pyridinium bis(trifluoromethylsulfonyl)amide; phases: Liquid
Fixed: Pressure, kPa = 101
Fixed: Mole fraction of benzene = 0
Property: Activity coefficient of benzene (Liquid); method: Chromatography
Temperature, K	Activity coefficient of benzene	uncertainty
318.15	1.58	.0474
328.15	1.58	.0474
338.15	1.59	.0477
348.15	1.6	.048
358.15	1.61	.0483
368.15	1.62	.0486
378.15	1.62	.0486

System: toluol + 1-(3-hydroxypropyl)pyridinium bis(trifluoromethylsulfonyl)amide; phases: Liquid
Fixed: Pressure, kPa = 101
Fixed: Mole fraction of toluol = 0
Property: Activity coefficient of toluol (Liquid); method: Chromatography
Temperature, K	Activity coefficient of toluol	uncertainty
318.15	2.36	.0708
328.15	2.37	.0711
338.15	2.38	.0714
348.15	2.39	.0717
358.15	2.4	.072
368.15	2.41	.0723
378.15	2.42	.0726

System: ethylbenzene + 1-(3-hydroxypropyl)pyridinium bis(trifluoromethylsulfonyl)amide; phases: Liquid
Fixed: Pressure, kPa = 101
Fixed: Mole fraction of ethylbenzene = 0
Property: Activity coefficient of ethylbenzene (Liquid); method: Chromatography
Temperature, K	Activity coefficient of ethylbenzene	uncertainty
318.15	3.96	.1188
328.15	3.93	.1179
338.15	3.9	.117
348.15	3.87	.1161
358.15	3.84	.1152
368.15	3.82	.1146
378.15	3.79	.1137

System: 1,2-xylene + 1-(3-hydroxypropyl)pyridinium bis(trifluoromethylsulfonyl)amide; phases: Liquid
Fixed: Pressure, kPa = 101
Fixed: Mole fraction of 1,2-xylene = 0
Property: Activity coefficient of 1,2-xylene (Liquid); method: Chromatography
Temperature, K	Activity coefficient of 1,2-xylene	uncertainty
318.15	3.11	.0933
328.15	3.12	.0936
338.15	3.13	.0939
348.15	3.13	.0939
358.15	3.14	.0942
368.15	3.15	.0945
378.15	3.15	.0945

System: 1,3-xylene + 1-(3-hydroxypropyl)pyridinium bis(trifluoromethylsulfonyl)amide; phases: Liquid
Fixed: Pressure, kPa = 101
Fixed: Mole fraction of 1,3-xylene = 0
Property: Activity coefficient of 1,3-xylene (Liquid); method: Chromatography
Temperature, K	Activity coefficient of 1,3-xylene	uncertainty
318.15	3.58	.1074
328.15	3.58	.1074
338.15	3.59	.1077
348.15	3.6	.108
358.15	3.6	.108
368.15	3.61	.1083
378.15	3.62	.1086

System: benzene, 1,4-dimethyl- + 1-(3-hydroxypropyl)pyridinium bis(trifluoromethylsulfonyl)amide; phases: Liquid
Fixed: Pressure, kPa = 101
Fixed: Mole fraction of benzene, 1,4-dimethyl- = 0
Property: Activity coefficient of benzene, 1,4-dimethyl- (Liquid); method: Chromatography
Temperature, K	Activity coefficient of benzene, 1,4-dimethyl-	uncertainty
318.15	3.58	.1074
328.15	3.6	.108
338.15	3.61	.1083
348.15	3.62	.1086
358.15	3.63	.1089
368.15	3.64	.1092
378.15	3.65	.1095

System: methanol + 1-(3-hydroxypropyl)pyridinium bis(trifluoromethylsulfonyl)amide; phases: Liquid
Fixed: Pressure, kPa = 101
Fixed: Mole fraction of methanol = 0
Property: Activity coefficient of methanol (Liquid); method: Chromatography
Temperature, K	Activity coefficient of methanol	uncertainty
318.15	.87	.0261
328.15	.836	.02508
338.15	.804	.02412
348.15	.776	.02328
358.15	.749	.02247
368.15	.725	.02175
378.15	.703	.02109

System: ethanol + 1-(3-hydroxypropyl)pyridinium bis(trifluoromethylsulfonyl)amide; phases: Liquid
Fixed: Pressure, kPa = 101
Fixed: Mole fraction of ethanol = 0
Property: Activity coefficient of ethanol (Liquid); method: Chromatography
Temperature, K	Activity coefficient of ethanol	uncertainty
318.15	1.16	.0348
328.15	1.11	.0333
338.15	1.06	.0318
348.15	1.02	.0306
358.15	.984	.02952
368.15	.949	.02847
378.15	.919	.02757

System: propyl alcohol + 1-(3-hydroxypropyl)pyridinium bis(trifluoromethylsulfonyl)amide; phases: Liquid
Fixed: Pressure, kPa = 101
Fixed: Mole fraction of propyl alcohol = 0
Property: Activity coefficient of propyl alcohol (Liquid); method: Chromatography
Temperature, K	Activity coefficient of propyl alcohol	uncertainty
318.15	1.6	.048
328.15	1.52	.0456
338.15	1.46	.0438
348.15	1.39	.0417
358.15	1.34	.0402
368.15	1.28	.0384
378.15	1.24	.0372

System: n-butyl alcohol + 1-(3-hydroxypropyl)pyridinium bis(trifluoromethylsulfonyl)amide; phases: Liquid
Fixed: Pressure, kPa = 101
Fixed: Mole fraction of n-butyl alcohol = 0
Property: Activity coefficient of n-butyl alcohol (Liquid); method: Chromatography
Temperature, K	Activity coefficient of n-butyl alcohol	uncertainty
318.15	2.27	.0681
328.15	2.14	.0642
338.15	2.02	.0606
348.15	1.91	.0573
358.15	1.82	.0546
368.15	1.73	.0519
378.15	1.67	.0501

System: water + 1-(3-hydroxypropyl)pyridinium bis(trifluoromethylsulfonyl)amide; phases: Liquid
Fixed: Pressure, kPa = 101
Fixed: Mole fraction of water = 0
Property: Activity coefficient of water (Liquid); method: Chromatography
Temperature, K	Activity coefficient of water	uncertainty
318.15	1.53	.0459
328.15	1.42	.0426
338.15	1.33	.0399
348.15	1.24	.0372
358.15	1.17	.0351
368.15	1.1	.033
378.15	1.03	.0309

System: ethanoic acid + 1-(3-hydroxypropyl)pyridinium bis(trifluoromethylsulfonyl)amide; phases: Liquid
Fixed: Pressure, kPa = 101
Fixed: Mole fraction of ethanoic acid = 0
Property: Activity coefficient of ethanoic acid (Liquid); method: Chromatography
Temperature, K	Activity coefficient of ethanoic acid	uncertainty
318.15	.255	.00765
328.15	.277	.00831
338.15	.298	.00894
348.15	.32	.0096
358.15	.343	.01029
368.15	.367	.01101
378.15	.388	.01164

System: thiophene + 1-(3-hydroxypropyl)pyridinium bis(trifluoromethylsulfonyl)amide; phases: Liquid
Fixed: Pressure, kPa = 101
Fixed: Mole fraction of thiophene = 0
Property: Activity coefficient of thiophene (Liquid); method: Chromatography
Temperature, K	Activity coefficient of thiophene	uncertainty
318.15	1.27	.0381
328.15	1.28	.0384
338.15	1.29	.0387
348.15	1.29	.0387
358.15	1.3	.039
368.15	1.31	.0393
378.15	1.31	.0393

System: oxacyclopentane + 1-(3-hydroxypropyl)pyridinium bis(trifluoromethylsulfonyl)amide; phases: Liquid
Fixed: Pressure, kPa = 101
Fixed: Mole fraction of oxacyclopentane = 0
Property: Activity coefficient of oxacyclopentane (Liquid); method: Chromatography
Temperature, K	Activity coefficient of oxacyclopentane	uncertainty
318.15	.695	.02085
328.15	.727	.02181
338.15	.757	.02271
348.15	.784	.02352
358.15	.812	.02436
368.15	.839	.02517
378.15	.866	.02598

System: 1,4-dioxacyclohexane + 1-(3-hydroxypropyl)pyridinium bis(trifluoromethylsulfonyl)amide; phases: Liquid
Fixed: Pressure, kPa = 101
Fixed: Mole fraction of 1,4-dioxacyclohexane = 0
Property: Activity coefficient of 1,4-dioxacyclohexane (Liquid); method: Chromatography
Temperature, K	Activity coefficient of 1,4-dioxacyclohexane	uncertainty
318.15	.514	.01542
328.15	.541	.01623
338.15	.568	.01704
348.15	.595	.01785
358.15	.621	.01863
368.15	.647	.01941
378.15	.672	.02016

System: tert-butyl methyl ether + 1-(3-hydroxypropyl)pyridinium bis(trifluoromethylsulfonyl)amide; phases: Liquid
Fixed: Pressure, kPa = 101
Fixed: Mole fraction of tert-butyl methyl ether = 0
Property: Activity coefficient of tert-butyl methyl ether (Liquid); method: Chromatography
Temperature, K	Activity coefficient of tert-butyl methyl ether	uncertainty
308.15	2.63	.0789
318.15	2.74	.0822
328.15	2.83	.0849
338.15	2.91	.0873
348.15	3.01	.0903
358.15	3.08	.0924
368.15	3.18	.0954

System: butane, 2-methoxy-2-methyl- + 1-(3-hydroxypropyl)pyridinium bis(trifluoromethylsulfonyl)amide; phases: Liquid
Fixed: Pressure, kPa = 101
Fixed: Mole fraction of butane, 2-methoxy-2-methyl- = 0
Property: Activity coefficient of butane, 2-methoxy-2-methyl- (Liquid); method: Chromatography
Temperature, K	Activity coefficient of butane, 2-methoxy-2-methyl-	uncertainty
308.15	4.37	.1311
318.15	4.45	.1335
328.15	4.54	.1362
338.15	4.61	.1383
348.15	4.7	.141
358.15	4.77	.1431
368.15	4.84	.1452

System: ethyl ether + 1-(3-hydroxypropyl)pyridinium bis(trifluoromethylsulfonyl)amide; phases: Liquid
Fixed: Pressure, kPa = 101
Fixed: Mole fraction of ethyl ether = 0
Property: Activity coefficient of ethyl ether (Liquid); method: Chromatography
Temperature, K	Activity coefficient of ethyl ether	uncertainty
308.15	2.71	.0813
318.15	2.77	.0831
328.15	2.82	.0846
338.15	2.87	.0861
348.15	2.91	.0873
358.15	2.97	.0891
368.15	3.01	.0903

System: ether, dipropyl + 1-(3-hydroxypropyl)pyridinium bis(trifluoromethylsulfonyl)amide; phases: Liquid
Fixed: Pressure, kPa = 101
Fixed: Mole fraction of ether, dipropyl = 0
Property: Activity coefficient of ether, dipropyl (Liquid); method: Chromatography
Temperature, K	Activity coefficient of ether, dipropyl	uncertainty
308.15	9.62	.2886
318.15	9.45	.2835
328.15	9.28	.2784
338.15	9.12	.2736
348.15	8.99	.2697
358.15	8.87	.2661
368.15	8.75	.2625

System: butyl oxide + 1-(3-hydroxypropyl)pyridinium bis(trifluoromethylsulfonyl)amide; phases: Liquid
Fixed: Pressure, kPa = 101
Fixed: Mole fraction of butyl oxide = 0
Property: Activity coefficient of butyl oxide (Liquid); method: Chromatography
Temperature, K	Activity coefficient of butyl oxide	uncertainty
308.15	26.1	.783
318.15	24.8	.744
328.15	23.6	.708
338.15	22.5	.675
348.15	21.6	.648
358.15	20.8	.624
368.15	20	.6

System: 2-propanone + 1-(3-hydroxypropyl)pyridinium bis(trifluoromethylsulfonyl)amide; phases: Liquid
Fixed: Pressure, kPa = 101
Fixed: Mole fraction of 2-propanone = 0
Property: Activity coefficient of 2-propanone (Liquid); method: Chromatography
Temperature, K	Activity coefficient of 2-propanone	uncertainty
318.15	.403	.01209
328.15	.421	.01263
338.15	.437	.01311
348.15	.453	.01359
358.15	.469	.01407
368.15	.484	.01452
378.15	.5	.015

System: methyl n-propyl ketone + 1-(3-hydroxypropyl)pyridinium bis(trifluoromethylsulfonyl)amide; phases: Liquid
Fixed: Pressure, kPa = 101
Fixed: Mole fraction of methyl n-propyl ketone = 0
Property: Activity coefficient of methyl n-propyl ketone (Liquid); method: Chromatography
Temperature, K	Activity coefficient of methyl n-propyl ketone	uncertainty
318.15	.885	.02655
328.15	.91	.0273
338.15	.937	.02811
348.15	.96	.0288
358.15	.984	.02952
368.15	1.01	.0303
378.15	1.03	.0309

System: diethyl ketone + 1-(3-hydroxypropyl)pyridinium bis(trifluoromethylsulfonyl)amide; phases: Liquid
Fixed: Pressure, kPa = 101
Fixed: Mole fraction of diethyl ketone = 0
Property: Activity coefficient of diethyl ketone (Liquid); method: Chromatography
Temperature, K	Activity coefficient of diethyl ketone	uncertainty
318.15	.936	.02808
328.15	.963	.02889
338.15	.991	.02973
348.15	1.02	.0306
358.15	1.04	.0312
368.15	1.07	.0321
378.15	1.09	.0327
