Measured thermophysical data. Thermodynamics of biofuels: Excess enthalpies for binary mixtures involving  ethyl 1,1-dimethylethyl ether and hydrocarbons at different temperatures using a new flow calorimeter
Source: J. Chem. Thermodyn., 2009, 10.1016/j.jct.2008.12.004
Compound 1: cyclohexane, C6H12
Compound 2: toluene, C7H8
Compound 3: heptane, C7H16
Compound 4: tert-butyl ethyl ether, C6H14O
Compound 5: methyl tert-butyl ether, C5H12O
Compound 6: hexane, C6H14
Compound 7: 1-propanol, C3H8O

System: hexane + cyclohexane; phases: Liquid
Fixed: Temperature, K = 298.15
Fixed: Pressure, kPa = 101
Property: Excess molar enthalpy (molar enthalpy of mixing), kJ/mol (Liquid); method: Flow calorimetry
Mole fraction of cyclohexane	Excess molar enthalpy (molar enthalpy of mixing), kJ/mol	uncertainty
0	0	0
.074	.0485	.000485
.1463	.0909	.000909
.219	.1264	.001264
.2876	.1576	.001576
.3542	.1831	.001831
.4193	.2017	.002017
.4832	.2144	.002144
.5476	.2193	.002193
.6085	.2197	.002197
.6675	.2134	.002134
.7255	.199	.00199
.7839	.1783	.001783
.8395	.1477	.001477
.8935	.1089	.001089
.9482	.0585	.000585
1	0	0

System: hexane + methyl tert-butyl ether; phases: Liquid
Fixed: Temperature, K = 298.15
Fixed: Pressure, kPa = 101
Property: Excess molar enthalpy (molar enthalpy of mixing), kJ/mol (Liquid); method: Flow calorimetry
Mole fraction of methyl tert-butyl ether	Excess molar enthalpy (molar enthalpy of mixing), kJ/mol	uncertainty
0	0	0
.0504	.07183	.0007183
.1002	.13337	.0013337
.1497	.18834	.0018834
.2008	.23724	.0023724
.2491	.27546	.0027546
.2994	.30903	.0030903
.3486	.33679	.0033679
.4002	.35809	.0035809
.4484	.36945	.0036945
.4997	.3741	.003741
.5493	.37028	.0037028
.6006	.35896	.0035896
.6496	.34116	.0034116
.7001	.31327	.0031327
.75	.28085	.0028085
.7992	.23796	.0023796
.8501	.1893	.001893
.9007	.13215	.0013215
.9506	.07059	.0007059
1	0	0

System: 1-propanol + methyl tert-butyl ether; phases: Liquid
Fixed: Temperature, K = 298.15
Fixed: Pressure, kPa = 101
Property: Excess molar enthalpy (molar enthalpy of mixing), kJ/mol (Liquid); method: Flow calorimetry
Mole fraction of methyl tert-butyl ether	Excess molar enthalpy (molar enthalpy of mixing), kJ/mol	uncertainty
0	0	0
.0491	.0621	.000621
.0997	.1312	.001312
.1503	.2011	.002011
.1976	.2644	.002644
.2472	.3268	.003268
.2965	.3829	.003829
.3477	.4373	.004373
.4008	.4858	.004858
.4468	.5197	.005197
.4982	.5481	.005481
.5486	.5678	.005678
.5974	.5759	.005759
.6485	.5706	.005706
.6977	.5564	.005564
.7491	.5255	.005255
.7985	.475	.00475
.8494	.4031	.004031
.8986	.3082	.003082
.9498	.1729	.001729
1	0	0

System: toluene + tert-butyl ethyl ether; phases: Liquid
Fixed: Pressure, kPa = 101
Property: Excess molar enthalpy (molar enthalpy of mixing), kJ/mol (Liquid); method: Flow calorimetry
Mole fraction of tert-butyl ethyl ether	Temperature, K	Excess molar enthalpy (molar enthalpy of mixing), kJ/mol	uncertainty
0	298.15	0	0
.0248	298.15	-.0039	-.000039
.0491	298.15	-.0073	-.000073
.0739	298.15	-.0109	-.000109
.1003	298.15	-.0149	-.000149
.1498	298.15	-.0212	-.000212
.1991	298.15	-.0275	-.000275
.2489	298.15	-.0324	-.000324
.2993	298.15	-.0371	-.000371
.3513	298.15	-.0405	-.000405
.3987	298.15	-.0433	-.000433
.4495	298.15	-.045	-.00045
.5019	298.15	-.046	-.00046
.5515	298.15	-.0457	-.000457
.599	298.15	-.0452	-.000452
.6491	298.15	-.0425	-.000425
.7014	298.15	-.0396	-.000396
.7495	298.15	-.0348	-.000348
.801	298.15	-.0293	-.000293
.8514	298.15	-.0222	-.000222
.9006	298.15	-.0151	-.000151
.951	298.15	-.0072	-.000072
1	298.15	0	0
0	313.15	0	0
.0499	313.15	-.00332	-.0000332
.0997	313.15	-.00541	-.0000541
.151	313.15	-.00928	-.0000928
.2004	313.15	-.01247	-.0001247
.2511	313.15	-.01695	-.0001695
.2998	313.15	-.02003	-.0002003
.3499	313.15	-.02162	-.0002162
.4011	313.15	-.02471	-.0002471
.45	313.15	-.02542	-.0002542
.5003	313.15	-.0272	-.000272
.5499	313.15	-.02651	-.0002651
.6007	313.15	-.02505	-.0002505
.6506	313.15	-.02454	-.0002454
.6996	313.15	-.02293	-.0002293
.7498	313.15	-.02056	-.0002056
.8013	313.15	-.0172	-.000172
.8492	313.15	-.01425	-.0001425
.9008	313.15	-.01004	-.0001004
.9511	313.15	-.00601	-.0000601
1	313.15	0	0

System: heptane + tert-butyl ethyl ether; phases: Liquid
Fixed: Pressure, kPa = 101
Property: Excess molar enthalpy (molar enthalpy of mixing), kJ/mol (Liquid); method: Flow calorimetry
Mole fraction of tert-butyl ethyl ether	Temperature, K	Excess molar enthalpy (molar enthalpy of mixing), kJ/mol	uncertainty
0	298.15	0	0
.0512	298.15	.0457	.000457
.1007	298.15	.0886	.000886
.1504	298.15	.1226	.001226
.2003	298.15	.1619	.001619
.2509	298.15	.1879	.001879
.3016	298.15	.2144	.002144
.3505	298.15	.2385	.002385
.4019	298.15	.2534	.002534
.4515	298.15	.2705	.002705
.5014	298.15	.2751	.002751
.5516	298.15	.2722	.002722
.6022	298.15	.2661	.002661
.6509	298.15	.2545	.002545
.7019	298.15	.2333	.002333
.7512	298.15	.2095	.002095
.8008	298.15	.1811	.001811
.8507	298.15	.1462	.001462
.9009	298.15	.1016	.001016
.9492	298.15	.0552	.000552
1	298.15	0	0
0	313.15	0	0
.0511	313.15	.0422	.000422
.1507	313.15	.1206	.001206
.2008	313.15	.1548	.001548
.2511	313.15	.1894	.001894
.3019	313.15	.2122	.002122
.351	313.15	.23	.0023
.4024	313.15	.2454	.002454
.4518	313.15	.2516	.002516
.5017	313.15	.2533	.002533
.5519	313.15	.2502	.002502
.6024	313.15	.2451	.002451
.6511	313.15	.2333	.002333
.7022	313.15	.218	.00218
.7515	313.15	.1946	.001946
.801	313.15	.1672	.001672
.8509	313.15	.1341	.001341
.901	313.15	.0943	.000943
.9493	313.15	.0509	.000509
1	313.15	0	0

System: cyclohexane + tert-butyl ethyl ether; phases: Liquid
Fixed: Pressure, kPa = 101
Property: Excess molar enthalpy (molar enthalpy of mixing), kJ/mol (Liquid); method: Flow calorimetry
Mole fraction of tert-butyl ethyl ether	Temperature, K	Excess molar enthalpy (molar enthalpy of mixing), kJ/mol	uncertainty
0	298.15	0	0
.0505	298.15	.0505	.000505
.1	298.15	.0987	.000987
.1508	298.15	.1434	.001434
.2005	298.15	.1812	.001812
.2514	298.15	.217	.00217
.3011	298.15	.2469	.002469
.3519	298.15	.273	.00273
.4014	298.15	.294	.00294
.4519	298.15	.3099	.003099
.5012	298.15	.3185	.003185
.5513	298.15	.3233	.003233
.6021	298.15	.3198	.003198
.6516	298.15	.3091	.003091
.7017	298.15	.2931	.002931
.7507	298.15	.2691	.002691
.8002	298.15	.2359	.002359
.8501	298.15	.1943	.001943
.9003	298.15	.142	.00142
.9508	298.15	.0761	.000761
1	298.15	0	0
0	313.15	0	0
.0506	313.15	.0476	.000476
.1001	313.15	.0917	.000917
.1509	313.15	.1363	.001363
.2006	313.15	.1744	.001744
.2515	313.15	.2091	.002091
.3012	313.15	.235	.00235
.3519	313.15	.261	.00261
.4015	313.15	.2826	.002826
.452	313.15	.2947	.002947
.5012	313.15	.3049	.003049
.5513	313.15	.3078	.003078
.6021	313.15	.306	.00306
.6517	313.15	.2962	.002962
.7019	313.15	.2798	.002798
.7508	313.15	.2577	.002577
.8002	313.15	.224	.00224
.85	313.15	.1838	.001838
.9003	313.15	.1342	.001342
.9508	313.15	.073	.00073
1	313.15	0	0

System: toluene + cyclohexane; phases: Liquid
Fixed: Pressure, kPa = 1
Property: Excess molar enthalpy (molar enthalpy of mixing), kJ/mol (Liquid); method: Flow calorimetry
Mole fraction of cyclohexane	Temperature, K	Excess molar enthalpy (molar enthalpy of mixing), kJ/mol	uncertainty
0	298.15	0	0
.0492	298.15	.1099	.001099
.1004	298.15	.2132	.002132
.1497	298.15	.3044	.003044
.1991	298.15	.3807	.003807
.2486	298.15	.4499	.004499
.2981	298.15	.5066	.005066
.3479	298.15	.551	.00551
.3976	298.15	.5887	.005887
.4493	298.15	.6138	.006138
.4992	298.15	.6244	.006244
.5493	298.15	.6246	.006246
.5975	298.15	.6135	.006135
.6478	298.15	.5886	.005886
.6981	298.15	.5501	.005501
.7485	298.15	.4952	.004952
.799	298.15	.4292	.004292
.8496	298.15	.3466	.003466
.9003	298.15	.2446	.002446
.9491	298.15	.1333	.001333
1	298.15	0	0
0	313.15	0	0
.0491	313.15	.1039	.001039
.1003	313.15	.2015	.002015
.1496	313.15	.2871	.002871
.199	313.15	.3604	.003604
.2485	313.15	.4238	.004238
.298	313.15	.4801	.004801
.3477	313.15	.5242	.005242
.3974	313.15	.5589	.005589
.4493	313.15	.5828	.005828
.4992	313.15	.5942	.005942
.5493	313.15	.5933	.005933
.5974	313.15	.5832	.005832
.6476	313.15	.5591	.005591
.6979	313.15	.5221	.005221
.7483	313.15	.4721	.004721
.7989	313.15	.4092	.004092
.8496	313.15	.3295	.003295
.9003	313.15	.2353	.002353
.9491	313.15	.1272	.001272
1	313.15	0	0

System: toluene + heptane; phases: Liquid
Fixed: Pressure, kPa = 1
Property: Excess molar enthalpy (molar enthalpy of mixing), kJ/mol (Liquid); method: Flow calorimetry
Mole fraction of heptane	Temperature, K	Excess molar enthalpy (molar enthalpy of mixing), kJ/mol	uncertainty
0	298.15	0	0
.0502	298.15	.1235	.001235
.1008	298.15	.2307	.002307
.1501	298.15	.3184	.003184
.1995	298.15	.3933	.003933
.2508	298.15	.4516	.004516
.3002	298.15	.4973	.004973
.3495	298.15	.5313	.005313
.4005	298.15	.5499	.005499
.4494	298.15	.5596	.005596
.4999	298.15	.5556	.005556
.55	298.15	.5452	.005452
.5995	298.15	.5211	.005211
.6505	298.15	.4851	.004851
.7009	298.15	.4437	.004437
.7504	298.15	.391	.00391
.799	298.15	.3334	.003334
.849	298.15	.2641	.002641
.9005	298.15	.1805	.001805
.9509	298.15	.0923	.000923
1	298.15	0	0
0	313.15	0	0
.0502	313.15	.119	.00119
.1008	313.15	.2217	.002217
.1501	313.15	.3061	.003061
.1995	313.15	.3764	.003764
.2507	313.15	.4345	.004345
.3002	313.15	.477	.00477
.3496	313.15	.5079	.005079
.4006	313.15	.5288	.005288
.4497	313.15	.5376	.005376
.4999	313.15	.5351	.005351
.55	313.15	.521	.00521
.5995	313.15	.4988	.004988
.6506	313.15	.4657	.004657
.7009	313.15	.4259	.004259
.7505	313.15	.3762	.003762
.799	313.15	.3191	.003191
.849	313.15	.2507	.002507
.9005	313.15	.174	.00174
.9509	313.15	.0887	.000887
1	313.15	0	0
