Measured thermophysical data. Phase equilibria and surfactant behavior of fluorinated ionic liquids with water
Source: J. Chem. Thermodyn., 2015, 10.1016/j.jct.2014.10.021
Compound 1: water, H2O, purity 99.8%
Compound 2: 1-methyl-3-hexylimidazolium perfluorobutanesulfonate, C14H19F9N2O3S, purity 99%
Compound 3: 1-methyl-3-octylimidazolium perfluorobutanesulfonate, C16H23F9N2O3S, purity 99%
Compound 4: 1-dodecyl-3-methylimidazolium perfluorobutanesulfonate, C20H31F9N2O3S, purity 98%
Compound 5: tetrabutylammonium perfluorobutanesulfonate, C20H36F9NO3S, purity 98%
Compound 6: 1-butyl-1-methylpyrrolidinium perfluorobutanesulfonate, C13H20F9NO3S, purity 98%

System: water + 1-methyl-3-hexylimidazolium perfluorobutanesulfonate; phases: Liquid mixture 1, Liquid mixture 2
Fixed: Pressure, kPa = 101.325
Property: Mass fraction of 1-methyl-3-hexylimidazolium perfluorobutanesulfonate (Liquid mixture 1); method: Index of refraction calibration data
Temperature, K	Mass fraction of 1-methyl-3-hexylimidazolium perfluorobutanesulfonate	uncertainty
298.15	.0081	.001
303.15	.0093	.001
308.15	.0104	.001
313.15	.0104	.001
318.15	.0109	.001
323.15	.0109	.001
328.15	.0113	.001
333.15	.014	.001
338.15	.0153	.001
343.15	.0181	.001
348.15	.0198	.001
353.15	.0208	.001

System: water + 1-methyl-3-hexylimidazolium perfluorobutanesulfonate; phases: Liquid mixture 2, Liquid mixture 1
Fixed: Pressure, kPa = 101.325
Property: Mass fraction of 1-methyl-3-hexylimidazolium perfluorobutanesulfonate (Liquid mixture 2); method: Titration method
Temperature, K	Mass fraction of 1-methyl-3-hexylimidazolium perfluorobutanesulfonate	uncertainty
298.15	.9084	.001
303.15	.9027	.001
308.15	.9001	.001
313.15	.8929	.001
318.15	.8874	.001
323.15	.8867	.001
328.15	.8753	.001
333.15	.8676	.001
338.15	.8646	.001
343.15	.8563	.001
348.15	.8383	.001
353.15	.8202	.001

System: water + 1-methyl-3-hexylimidazolium perfluorobutanesulfonate; phases: Liquid
Fixed: Temperature, K = 298.15
Fixed: Pressure, kPa = 101.325
Property: Electrical conductivity, S/m (Liquid); method: Alternating current cell with electrodes
Molality, mol/kg of 1-methyl-3-hexylimidazolium perfluorobutanesulfonate	Electrical conductivity, S/m	uncertainty
.0006843	.0038	.000038
.001003	.0055	.000055
.001271	.0072	.000072
.001953	.0108	.000108
.002415	.0133	.000133
.002944	.0163	.000163
.003168	.0174	.000174
.00367	.0201	.000201
.004364	.0235	.000235
.004701	.0252	.000252
.005473	.0291	.000291
.006118	.0323	.000323
.006443	.0339	.000339
.007009	.0367	.000367
.007312	.0382	.000382
.007666	.04	.0004
.007936	.0413	.000413
.008317	.0431	.000431
.008657	.0448	.000448
.009459	.0484	.000484
.009734	.0497	.000497
.01004	.051	.00051
.01032	.0523	.000523
.01057	.0535	.000535
.01151	.0567	.000567
.01188	.0581	.000581
.01244	.0611	.000611
.01292	.0624	.000624
.01353	.0644	.000644
.01416	.0668	.000668
.01452	.069	.00069

System: water + 1-methyl-3-octylimidazolium perfluorobutanesulfonate; phases: Liquid mixture 1, Liquid mixture 2
Fixed: Pressure, kPa = 101.325
Property: Mass fraction of 1-methyl-3-octylimidazolium perfluorobutanesulfonate (Liquid mixture 1); method: Index of refraction calibration data
Temperature, K	Mass fraction of 1-methyl-3-octylimidazolium perfluorobutanesulfonate	uncertainty
298.15	.005	.001
303.15	.0068	.001
308.15	.0081	.001
313.15	.0104	.001
318.15	.0119	.001
323.15	.012	.001
328.15	.0126	.001
333.15	.0129	.001
338.15	.013	.001
343.15	.0139	.001
348.15	.0187	.001
353.15	.0208	.001

System: water + 1-methyl-3-octylimidazolium perfluorobutanesulfonate; phases: Liquid mixture 2, Liquid mixture 1
Fixed: Pressure, kPa = 101.325
Property: Mass fraction of 1-methyl-3-octylimidazolium perfluorobutanesulfonate (Liquid mixture 2); method: Titration method
Temperature, K	Mass fraction of 1-methyl-3-octylimidazolium perfluorobutanesulfonate	uncertainty
298.15	.9107	.001
303.15	.9023	.001
308.15	.9005	.001
313.15	.9001	.001
318.15	.894	.001
323.15	.8877	.001
328.15	.8807	.001
333.15	.8645	.001
338.15	.8457	.001
343.15	.8248	.001
348.15	.8085	.001
353.15	.7875	.001

System: water + 1-methyl-3-octylimidazolium perfluorobutanesulfonate; phases: Liquid
Fixed: Temperature, K = 298.15
Fixed: Pressure, kPa = 101.325
Property: Electrical conductivity, S/m (Liquid); method: Alternating current cell with electrodes
Molality, mol/kg of 1-methyl-3-octylimidazolium perfluorobutanesulfonate	Electrical conductivity, S/m	uncertainty
.0003013	.0016	.000016
.0007028	.0037	.000037
.001019	.0054	.000054
.001249	.0069	.000069
.00155	.008	.00008
.001919	.0102	.000102
.0022	.0117	.000117
.002596	.0136	.000136
.002912	.0145	.000145
.003181	.0157	.000157
.003623	.017	.00017
.003988	.0176	.000176
.004309	.0183	.000183
.004701	.0192	.000192
.005065	.0202	.000202
.005333	.0206	.000206
.005728	.0209	.000209

System: 1-dodecyl-3-methylimidazolium perfluorobutanesulfonate + water; phases: Liquid mixture 1, Liquid mixture 2
Fixed: Pressure, kPa = 101.325
Property: Mass fraction of 1-dodecyl-3-methylimidazolium perfluorobutanesulfonate (Liquid mixture 1); method: Index of refraction calibration data
Temperature, K	Mass fraction of 1-dodecyl-3-methylimidazolium perfluorobutanesulfonate	uncertainty
328.15	.0182	.001
333.15	.0193	.001
338.15	.0201	.001
343.15	.0444	.001
348.15	.0709	.001
353.15	.0945	.001

System: 1-dodecyl-3-methylimidazolium perfluorobutanesulfonate + water; phases: Liquid mixture 2, Liquid mixture 1
Fixed: Pressure, kPa = 101.325
Property: Mass fraction of 1-dodecyl-3-methylimidazolium perfluorobutanesulfonate (Liquid mixture 2); method: Titration method
Temperature, K	Mass fraction of 1-dodecyl-3-methylimidazolium perfluorobutanesulfonate	uncertainty
328.15	.8806	.001
333.15	.871	.001
338.15	.8526	.001
343.15	.8326	.001
348.15	.8024	.001
353.15	.7635	.001

System: 1-dodecyl-3-methylimidazolium perfluorobutanesulfonate + water; phases: Liquid
Fixed: Temperature, K = 298.15
Fixed: Pressure, kPa = 101.325
Property: Electrical conductivity, S/m (Liquid); method: Alternating current cell with electrodes
Molality, mol/kg of 1-dodecyl-3-methylimidazolium perfluorobutanesulfonate	Electrical conductivity, S/m	uncertainty
.00001598	.00011	.0000011
.00002066	.00016	.0000016
.00002421	.00018	.0000018
.00002925	.00022	.0000022
.00003682	.0003	.000003
.00004977	.00041	.0000041
.00005764	.00048	.0000048
.00007583	.00063	.0000063
.00008783	.0007	.000007
.0001043	.00085	.0000085
.0001122	.00089	.0000089
.0001213	.00095	.0000095
.000132	.00101	.0000101
.0001448	.00109	.0000109
.0001603	.00118	.0000118
.0001796	.00129	.0000129
.0001903	.00136	.0000136

System: water + tetrabutylammonium perfluorobutanesulfonate; phases: Liquid, Crystal
Property: Mass fraction of tetrabutylammonium perfluorobutanesulfonate (Liquid); method: Index of refraction calibration data
Temperature, K	Pressure, kPa	Mass fraction of tetrabutylammonium perfluorobutanesulfonate	uncertainty
298.15	101.325	.0035	

System: water + tetrabutylammonium perfluorobutanesulfonate; phases: Liquid
Fixed: Temperature, K = 298.15
Fixed: Pressure, kPa = 101.325
Property: Electrical conductivity, S/m (Liquid); method: Alternating current cell with electrodes
Molality, mol/kg of tetrabutylammonium perfluorobutanesulfonate	Electrical conductivity, S/m	uncertainty
.002247	.0136	.000136
.002283	.0138	.000138
.002308	.0139	.000139
.002329	.014	.00014
.002356	.0142	.000142
.002375	.0143	.000143
.002407	.0145	.000145
.002447	.0147	.000147
.002477	.0148	.000148
.002494	.0149	.000149
.002516	.015	.00015
.002534	.0151	.000151

System: water + 1-butyl-1-methylpyrrolidinium perfluorobutanesulfonate; phases: Liquid, Crystal
Property: Mass fraction of 1-butyl-1-methylpyrrolidinium perfluorobutanesulfonate (Liquid); method: Index of refraction calibration data
Temperature, K	Pressure, kPa	Mass fraction of 1-butyl-1-methylpyrrolidinium perfluorobutanesulfonate	uncertainty
298.15	101.325	.0206	

System: water + 1-butyl-1-methylpyrrolidinium perfluorobutanesulfonate; phases: Liquid
Fixed: Temperature, K = 298.15
Fixed: Pressure, kPa = 101.325
Property: Electrical conductivity, S/m (Liquid); method: Alternating current cell with electrodes
Molality, mol/kg of 1-butyl-1-methylpyrrolidinium perfluorobutanesulfonate	Electrical conductivity, S/m	uncertainty
.004597	.0233	.000233
.005016	.0254	.000254
.005639	.0279	.000279
.006033	.0293	.000293
.006491	.0311	.000311
.007025	.0343	.000343
.007655	.0363	.000363
.008405	.0397	.000397
.00933	.0447	.000447
.0105	.0483	.000483
.012	.0554	.000554
.01274	.0584	.000584
.01401	.0642	.000642
.01533	.0697	.000697
.01608	.0731	.000731
.01691	.0769	.000769
.01784	.0804	.000804
