Measured thermophysical data. Phase equilibria of ternary systems (water + pyruvic acid + high boiling alcohol). Thermodynamic modeling and optimization of extraction
Source: J. Chem. Thermodyn., 2012, 10.1016/j.jct.2012.06.019
Compound 1: water, H2O, purity 99.8%
Compound 2: pyruvic acid, C3H4O3, purity 99%
Compound 3: cyclohexyl alcohol, C6H12O, purity 99.5%
Compound 4: 1-decanol, C10H22O, purity 99.5%
Compound 5: 1-phenylethanol, C8H10O, purity 99.5%

System: cyclohexyl alcohol + pyruvic acid + water; phases: Liquid mixture 2, Liquid mixture 1
Fixed: Temperature, K = 298.2
Fixed: Pressure, kPa = 101
Property: Mole fraction of pyruvic acid (Liquid mixture 2); method: Phase equilibration
Property: Mole fraction of water (Liquid mixture 1); method: Phase equilibration
Property: Mole fraction of pyruvic acid (Liquid mixture 1); method: Phase equilibration
Mole fraction of water	Mole fraction of pyruvic acid	uncertainty	Mole fraction of water	uncertainty	Mole fraction of pyruvic acid	uncertainty
.42345	0	.0002	.9961	.0002	0	.0002
.4274	.047	.0002	.9848	.0002	.0102	.0002
.4451	.0744	.0002	.9723	.0002	.021	.0002
.4571	.115	.0002	.9564	.0002	.0349	.0002
.4821	.1422	.0002	.9437	.0002	.0457	.0002
.6019	.1482	.0002	.9247	.0002	.0631	.0002
.6638	.1538	.0002	.896	.0002	.0829	.0002

System: 1-decanol + pyruvic acid + water; phases: Liquid mixture 2, Liquid mixture 1
Fixed: Temperature, K = 298.2
Fixed: Pressure, kPa = 101
Property: Mole fraction of water (Liquid mixture 2); method: Phase equilibration
Property: Mole fraction of water (Liquid mixture 1); method: Phase equilibration
Property: Mole fraction of pyruvic acid (Liquid mixture 1); method: Phase equilibration
Mole fraction of pyruvic acid	Mole fraction of water	uncertainty	Mole fraction of water	uncertainty	Mole fraction of pyruvic acid	uncertainty
0	.18768	.0002	.9999	.0002	0	.0002
.2063	.2172	.0002	.9911	.0002	.0088	.0002
.3265	.2595	.0002	.9772	.0002	.0226	.0002
.4351	.2532	.0002	.967	.0002	.0328	.0002
.5045	.271	.0002	.9543	.0002	.0455	.0002
.5466	.3099	.0002	.9397	.0002	.0602	.0002
.5184	.4106	.0002	.9184	.0002	.0813	.0002

System: 1-phenylethanol + pyruvic acid + water; phases: Liquid mixture 2, Liquid mixture 1
Fixed: Temperature, K = 298.2
Fixed: Pressure, kPa = 101
Property: Mole fraction of pyruvic acid (Liquid mixture 2); method: Phase equilibration
Property: Mole fraction of water (Liquid mixture 1); method: Phase equilibration
Property: Mole fraction of pyruvic acid (Liquid mixture 1); method: Phase equilibration
Mole fraction of water	Mole fraction of pyruvic acid	uncertainty	Mole fraction of water	uncertainty	Mole fraction of pyruvic acid	uncertainty
.23456	0	.0002	.99605	.0002	0	.0002
.2726	.0348	.0002	.9827	.0002	.013	.0002
.2978	.0663	.0002	.9683	.0002	.0266	.0002
.3318	.1026	.0002	.9475	.0002	.0463	.0002
.3559	.1326	.0002	.9242	.0002	.0673	.0002
.37	.1605	.0002	.9029	.0002	.0872	.0002
.406	.1773	.0002	.873	.0002	.1104	.0002
