Measured thermophysical data. Energetics and molecular structure of alkyl 1-methylpyrrolecarboxylates (alkyl = methyl or ethyl)
Source: J. Chem. Thermodyn., 2013, 10.1016/j.jct.2013.08.004
Compound 1: methyl 1-methyl-2-pyrrolecarboxylate, C7H9NO2, purity 99%
Compound 2: carbon dioxide, CO2
Compound 3: nitrogen, N2
Compound 4: water, H2O
Compound 5: oxygen, O2

System: methyl 1-methyl-2-pyrrolecarboxylate; phases: Liquid, Gas
Property: Molar enthalpy of vaporization or sublimation, kJ/mol (Liquid); method: Static calorimetry
Temperature, K	Molar enthalpy of vaporization or sublimation, kJ/mol	uncertainty
298.15	59.2	1.2

Reaction: -1 methyl 1-methyl-2-pyrrolecarboxylate + 7 carbon dioxide + 0.5 nitrogen + 4.5 water + -8.25 oxygen
Property: Specific internal energy of reaction at constant volume, J/g
-26657.29
