Measured thermophysical data. Critical point measurement of some polycyclic aromatic hydrocarbons
Source: J. Chem. Thermodyn., 2015, 10.1016/j.jct.2014.09.004
Compound 1: acenaphthene, C12H10, purity 98%
Compound 2: fluorene, C13H10, purity 98.1%
Compound 3: anthracene, C14H10, purity 99.5%
Compound 4: phenanthrene, C14H10, purity 98%
Compound 5: pyrene, C16H10, purity 98.3%

System: acenaphthene; phases: Liquid, Gas
Property: Critical temperature, K (Liquid); method: pulse heating
Critical temperature, K	uncertainty
820	8

System: acenaphthene; phases: Liquid, Gas
Property: Critical pressure, kPa (Liquid); method: pulse heating
Critical pressure, kPa	uncertainty
3700	110

System: fluorene; phases: Liquid, Gas
Property: Critical temperature, K (Liquid); method: pulse heating
Critical temperature, K	uncertainty
836	8

System: fluorene; phases: Liquid, Gas
Property: Critical pressure, kPa (Liquid); method: pulse heating
Critical pressure, kPa	uncertainty
3180	100

System: anthracene; phases: Liquid, Gas
Property: Critical temperature, K (Liquid); method: pulse heating
Critical temperature, K	uncertainty
894	9

System: anthracene; phases: Liquid, Gas
Property: Critical pressure, kPa (Liquid); method: pulse heating
Critical pressure, kPa	uncertainty
3170	100

System: phenanthrene; phases: Liquid, Gas
Property: Critical temperature, K (Liquid); method: pulse heating
Critical temperature, K	uncertainty
893	9

System: phenanthrene; phases: Liquid, Gas
Property: Critical pressure, kPa (Liquid); method: pulse heating
Critical pressure, kPa	uncertainty
3250	100

System: pyrene; phases: Liquid, Gas
Property: Critical temperature, K (Liquid); method: pulse heating
Critical temperature, K	uncertainty
974	10

System: pyrene; phases: Liquid, Gas
Property: Critical pressure, kPa (Liquid); method: pulse heating
Critical pressure, kPa	uncertainty
3030	90
