Measured thermophysical data. Gas phase enthalpies of formation of monobromophenols
Source: J. Chem. Thermodyn., 2009, 10.1016/j.jct.2009.04.017
Compound 1: phenol, 2-bromo-, C6H5BrO, purity 98%
Compound 2: 4-bromophenol, C6H5BrO, purity 98%
Compound 3: oxygen, O2
Compound 4: water, H2O
Compound 5: carbon dioxide, CO2
Compound 6: hydrogen bromide, BrH

System: phenol, 2-bromo-; phases: Liquid, Gas
Property: Molar enthalpy of vaporization or sublimation, kJ/mol (Liquid); method: Calvet microcalorimetry
Temperature, K	Molar enthalpy of vaporization or sublimation, kJ/mol	uncertainty
298.15	55.5	1.3

System: phenol, 2-bromo-; phases: Liquid, Gas
Property: Molar enthalpy of vaporization or sublimation, kJ/mol (Liquid); method: Calvet microcalorimetry
Temperature, K	Molar enthalpy of vaporization or sublimation, kJ/mol	uncertainty
329.2	55.5	

System: phenol, 2-bromo-; phases: Liquid
Property: Molar enthalpy, kJ/mol (Liquid); method: Drop calorimetry
Temperature, K	Pressure, kPa	Molar enthalpy, kJ/mol	uncertainty
329.2	100	59.4	.2

System: 4-bromophenol; phases: Crystal, Gas
Property: Molar enthalpy of vaporization or sublimation, kJ/mol (Crystal); method: Calvet microcalorimetry
Temperature, K	Molar enthalpy of vaporization or sublimation, kJ/mol	uncertainty
298.15	83.1	1.6

System: 4-bromophenol; phases: Crystal
Property: Molar enthalpy, kJ/mol (Crystal); method: Drop calorimetry
Temperature, K	Pressure, kPa	Molar enthalpy, kJ/mol	uncertainty
329.4	100	87.1	.3

Reaction: -1 phenol, 2-bromo- + 1 hydrogen bromide + 6 carbon dioxide + 2 water + -6.5 oxygen
Property: Specific internal energy of reaction at constant volume, J/g
16871.3

Reaction: -1 4-bromophenol + 1 hydrogen bromide + 6 carbon dioxide + 2 water + -6.5 oxygen
Property: Specific internal energy of reaction at constant volume, J/g
16762.05
