Measured thermophysical data. The vaporization of NH4NO3
Source: J. Chem. Thermodyn., 2010, 10.1016/j.jct.2010.01.012
Compound 1: nitric acid ammonium salt, H4N2O3, purity 99%

System: nitric acid ammonium salt; phases: Crystal, Gas
Property: Vapor or sublimation pressure, kPa (Crystal); method: Knudsen effusion method
Temperature, K	Vapor or sublimation pressure, kPa	uncertainty
313.2	.000008073	.000000008073
315.5	.00001121	.00000001121
320.8	.00001785	.00000001785
321.8	.00002105	.00000002105
322.1	.00002141	.00000002141
327.5	.00003817	.00000003817
330.6	.00005621	.00000005621
332.1	.00006054	.00000006054
333.9	.00007835	.00000007835
334.2	.00007822	.00000007822
335.8	.0001049	.0000001049
340.2	.0001387	.0000001387
341.4	.0001596	.0000001596
342.6	.0001788	.0000001788
344.6	.0002179	.0000002179
344.8	.0002326	.0000002326
345.7	.0002396	.0000002396
345.9	.0002618	.0000002618
346.5	.0002559	.0000002559
346.5	.0002574	.0000002574
347.1	.0002658	.0000002658

System: nitric acid ammonium salt; phases: Crystal, Gas
Property: Vapor or sublimation pressure, kPa (Crystal); method: Knudsen effusion method
Temperature, K	Vapor or sublimation pressure, kPa	uncertainty
321	.00002356	.00000002356
323.8	.00003179	.00000003179
325	.0000369	.0000000369
328.1	.00005023	.00000005023
328.9	.0000562	.0000000562
332.8	.00008512	.00000008512
333.4	.0000885	.0000000885
334.6	.0001015	.0000001015
337.6	.0001374	.0000001374
338.5	.000145	.000000145
340.1	.0001783	.0000001783
340.5	.0001772	.0000001772
342.1	.0002105	.0000002105
344.8	.0002759	.0000002759
345.9	.0003076	.0000003076
346.5	.0003244	.0000003244
348.1	.0003741	.0000003741
351.7	.0005201	.0000005201
353.8	.0006331	.0000006331
354.8	.0006692	.0000006692
355	.0006992	.0000006992
358.2	.0008823	.0000008823
358.4	.0009171	.0000009171
358.9	.0008954	.0000008954
360	.001041	.000001041
360.4	.001057	.000001057
