Measured thermophysical data. Interaction of cephradine monohydrate with Cetyldimethylethylammonium Bromide
Source: J. Chem. Thermodyn., 2014, 10.1016/j.jct.2013.09.030
Compound 1: Cefradine, C16H19N3O4S, purity 99%
Compound 2: ethylhexadecyldimethylammonium bromide, C20H44BrN, purity 98%
Compound 3: water, H2O

System: ethylhexadecyldimethylammonium bromide + water + Cefradine; phases: Liquid
Fixed: Pressure, kPa = 101
Fixed: Temperature, K = 303.15
Property: Electrical conductivity, S/m (Liquid); method: 4510 conductivity meter (Jenway, UK)
Amount concentration (molarity), mol/dm3 of Cefradine	Amount concentration (molarity), mol/dm3 of ethylhexadecyldimethylammonium bromide	Electrical conductivity, S/m	uncertainty
.0005258	0	.000611	.00000611
.0005244	.00013	.001397	.00001397
.000523	.00027	.00208	.0000208
.0005216	.0004	.00284	.0000284
.0005203	.00053	.00354	.0000354
.0005189	.00066	.00417	.0000417
.0005175	.00079	.00474	.0000474
.0005162	.00092	.00518	.0000518
.0005148	.00104	.00549	.0000549
.0005135	.00117	.00573	.0000573
.0005121	.0013	.00596	.0000596
.0005108	.00142	.00615	.0000615
.0005095	.00155	.00633	.0000633
.0005082	.00168	.0065	.000065
.0005069	.0018	.00666	.0000666
.0005056	.00192	.0068	.000068
.000503	.00217	.00712	.0000712
.0005004	.00241	.00744	.0000744
.0004979	.00265	.00767	.0000767
.0004954	.00289	.00795	.0000795
.0004929	.00313	.00823	.0000823
.0004905	.00336	.00849	.0000849
.0004881	.00359	.00873	.0000873
.0004857	.00382	.00893	.0000893
.0004833	.00404	.00914	.0000914
.0004809	.00427	.00936	.0000936
.0004774	.0046	.00966	.0000966
.000474	.00493	.00996	.0000996
.0004706	.00525	.01023	.0001023
.0004672	.00557	.0105	.000105
.0004639	.00588	.01074	.0001074
.0004607	.00619	.01099	.0001099
.0004575	.0065	.01125	.0001125
.0004543	.0068	.01147	.0001147
.0004512	.00709	.0117	.000117
.0004481	.00739	.01188	.0001188
.0004451	.00767	.01209	.0001209
.0004421	.00796	.01228	.0001228
.0004391	.00824	.01247	.0001247
.0004353	.00861	.01271	.0001271
.0004315	.00897	.01293	.0001293

System: water + Cefradine; phases: Liquid
Property: Electrical conductivity, S/m (Liquid); method: 4510 conductivity meter (Jenway, UK)
Amount concentration (molarity), mol/dm3 of Cefradine	Pressure, kPa	Temperature, K	Electrical conductivity, S/m	uncertainty
.0005258	101	303.15	.000611	.00000611
