Measured thermophysical data. Experimental and computational study on the molecular energetics of the three monofluoroanisole isomers
Source: J. Chem. Thermodyn., 2009, 10.1016/j.jct.2008.09.012
Compound 1: o-fluoroanisole, C6H7FO, purity 98%
Compound 2: m-fluoroanisole, C6H7FO, purity 98%
Compound 3: p-fluoroanisole, C7H7FO, purity 98%
Compound 4: hydrogen fluoride, FH
Compound 5: carbon dioxide, CO2
Compound 6: water, H2O
Compound 7: oxygen, O2

System: o-fluoroanisole; phases: Liquid, Gas
Property: Molar enthalpy of vaporization or sublimation, kJ/mol (Liquid); method: Calvet microcalorimetry
Temperature, K	Molar enthalpy of vaporization or sublimation, kJ/mol	uncertainty
298.15	52.2	

System: o-fluoroanisole; phases: Liquid, Gas
Property: Molar enthalpy, kJ/mol (Liquid); method: Calvet microcalorimetry
Temperature, K	Molar enthalpy, kJ/mol	uncertainty
334.9	57.4	

System: m-fluoroanisole; phases: Liquid, Gas
Property: Molar enthalpy of vaporization or sublimation, kJ/mol (Liquid); method: Calvet microcalorimetry
Temperature, K	Molar enthalpy of vaporization or sublimation, kJ/mol	uncertainty
298.15	48.1	

System: m-fluoroanisole; phases: Liquid, Gas
Property: Molar enthalpy, kJ/mol (Liquid); method: Calvet microcalorimetry
Temperature, K	Molar enthalpy, kJ/mol	uncertainty
329.4	52.6	

System: p-fluoroanisole; phases: Liquid, Gas
Property: Molar enthalpy of vaporization or sublimation, kJ/mol (Liquid); method: Calvet microcalorimetry
Temperature, K	Molar enthalpy of vaporization or sublimation, kJ/mol	uncertainty
298.15	48.7	

System: p-fluoroanisole; phases: Liquid, Gas
Property: Molar enthalpy, kJ/mol (Liquid); method: Calvet microcalorimetry
Temperature, K	Molar enthalpy, kJ/mol	uncertainty
334.9	54	

Reaction: -1 o-fluoroanisole + 1 hydrogen fluoride + 6 carbon dioxide + 3 water + -7 oxygen
Property: Specific internal energy of reaction at constant volume, J/g
-28777.5

Reaction: -1 m-fluoroanisole + 1 hydrogen fluoride + 6 carbon dioxide + 3 water + -7 oxygen
Property: Specific internal energy of reaction at constant volume, J/g
-28677.9

Reaction: -1 p-fluoroanisole + 1 hydrogen fluoride + 7 carbon dioxide + 3 water + -8 oxygen
Property: Specific internal energy of reaction at constant volume, J/g
-28719.7
