Measured thermophysical data. Ternary mutual diffusion of isoniazid in aqueous sodium chloride, sodium hydroxide, and hydrochloric acid at T = 298.15 K
Source: J. Chem. Thermodyn., 2010, 10.1016/j.jct.2010.02.014
Compound 1: isonicotinoyl hydrazide, C6H7N3O, purity 99%
Compound 2: sodium chloride, ClNa, purity 99.5%
Compound 3: sodium hydroxide, HNaO, purity 98%
Compound 4: hydrogen chloride, ClH, purity 99.5%
Compound 5: water, H2O, purity 99.8%

System: isonicotinoyl hydrazide + water; phases: Liquid
Fixed: Pressure, kPa = 101.3
Property: Binary diffusion coefficient, m2/s (Liquid); method: Taylor dispersion method
Temperature, K	Amount concentration (molarity), mol/dm3 of isonicotinoyl hydrazide	Binary diffusion coefficient, m2/s	uncertainty
298.15	0	0.000000000826	.000000000004
298.15	.005	0.000000000825	.000000000006
298.15	.01	0.000000000823	.000000000004
298.15	.02	0.000000000821	.000000000004
