Measured thermophysical data. Surface tensions of binary mixtures of ionic liquids with bis(trifluoromethylsulfonyl)imide as the common anion
Source: J. Chem. Thermodyn., 2013, 10.1016/j.jct.2013.04.014
Compound 1: 1-butyl-3-methylimidazolium bis(trifluoromethylsulfonyl)imide, C10H15F6N3O4S2, purity 99%
Compound 2: 1-butyl-2,3-dimethyl-1H-imidazolium bis(trifluoromethylsulfonyl)amide, C11H17F6N3O4S2, purity 99%
Compound 3: 1-methyl-1-propylpyrrolidinium bis[(trifluoromethyl)sulfonyl]imide, C10H18F6N2O4S2, purity 99%
Compound 4: 1-methyl-1-propylpiperidinium bis(trifluoromethylsulfonyl)imide, C11H20F6N2O4S2, purity 99%
Compound 5: 3-methyl-1-propylpyridinium bis(trifluoromethylsulfonyl)imide, C11H14F6N2O4S2, purity 99%

System: 1-butyl-3-methylimidazolium bis(trifluoromethylsulfonyl)imide; phases: Liquid, Air at 1 atmosphere
Property: Surface tension liquid-gas, N/m (Liquid); method: Pendant drop shape
Temperature, K	Surface tension liquid-gas, N/m	uncertainty
298.2	.03315	.0005

System: 1-butyl-3-methylimidazolium bis(trifluoromethylsulfonyl)imide; phases: Liquid
Property: Mass density, kg/m3 (Liquid); method: Vibrating tube method
Pressure, kPa	Temperature, K	Mass density, kg/m3	uncertainty
101.325	298.2	1436.9	1

System: 1-butyl-2,3-dimethyl-1H-imidazolium bis(trifluoromethylsulfonyl)amide; phases: Liquid, Air at 1 atmosphere
Property: Surface tension liquid-gas, N/m (Liquid); method: Pendant drop shape
Temperature, K	Surface tension liquid-gas, N/m	uncertainty
298.2	.0345	.0005

System: 1-butyl-2,3-dimethyl-1H-imidazolium bis(trifluoromethylsulfonyl)amide; phases: Liquid
Property: Mass density, kg/m3 (Liquid); method: Vibrating tube method
Pressure, kPa	Temperature, K	Mass density, kg/m3	uncertainty
101.325	298.2	1421.2	1

System: 1-methyl-1-propylpyrrolidinium bis[(trifluoromethyl)sulfonyl]imide; phases: Liquid, Air at 1 atmosphere
Property: Surface tension liquid-gas, N/m (Liquid); method: Pendant drop shape
Temperature, K	Surface tension liquid-gas, N/m	uncertainty
298.2	.03535	.0005

System: 1-methyl-1-propylpyrrolidinium bis[(trifluoromethyl)sulfonyl]imide; phases: Liquid
Property: Mass density, kg/m3 (Liquid); method: Vibrating tube method
Pressure, kPa	Temperature, K	Mass density, kg/m3	uncertainty
101.325	298.2	1431.7	1

System: 1-methyl-1-propylpiperidinium bis(trifluoromethylsulfonyl)imide; phases: Liquid, Air at 1 atmosphere
Property: Surface tension liquid-gas, N/m (Liquid); method: Pendant drop shape
Temperature, K	Surface tension liquid-gas, N/m	uncertainty
298.2	.03517	.0005

System: 1-methyl-1-propylpiperidinium bis(trifluoromethylsulfonyl)imide; phases: Liquid
Property: Mass density, kg/m3 (Liquid); method: Vibrating tube method
Pressure, kPa	Temperature, K	Mass density, kg/m3	uncertainty
101.325	298.2	1411.4	1

System: 3-methyl-1-propylpyridinium bis(trifluoromethylsulfonyl)imide; phases: Liquid, Air at 1 atmosphere
Property: Surface tension liquid-gas, N/m (Liquid); method: Pendant drop shape
Temperature, K	Surface tension liquid-gas, N/m	uncertainty
298.2	.03502	.0005

System: 3-methyl-1-propylpyridinium bis(trifluoromethylsulfonyl)imide; phases: Liquid
Property: Mass density, kg/m3 (Liquid); method: Vibrating tube method
Pressure, kPa	Temperature, K	Mass density, kg/m3	uncertainty
101.325	298.2	1449.7	1

System: 1-butyl-3-methylimidazolium bis(trifluoromethylsulfonyl)imide + 1-butyl-2,3-dimethyl-1H-imidazolium bis(trifluoromethylsulfonyl)amide; phases: Liquid, Air at 1 atmosphere
Fixed: Temperature, K = 298.2
Property: Surface tension liquid-gas, N/m (Liquid); method: Pendant drop shape
Mole fraction of 1-butyl-2,3-dimethyl-1H-imidazolium bis(trifluoromethylsulfonyl)amide	Surface tension liquid-gas, N/m	uncertainty
0	.03315	.0005
.2193	.03338	.0005
.3981	.03359	.0005
.4962	.03372	.0005
.5995	.03387	.0005
.7896	.03416	.0005
1	.0345	.0005

System: 1-butyl-3-methylimidazolium bis(trifluoromethylsulfonyl)imide + 1-butyl-2,3-dimethyl-1H-imidazolium bis(trifluoromethylsulfonyl)amide; phases: Liquid
Fixed: Pressure, kPa = 101.325
Fixed: Temperature, K = 298.2
Property: Mass density, kg/m3 (Liquid); method: Vibrating tube method
Mole fraction of 1-butyl-2,3-dimethyl-1H-imidazolium bis(trifluoromethylsulfonyl)amide	Mass density, kg/m3	uncertainty
0	1436.9	1
.2193	1433.8	1
.3981	1431.2	1
.4962	1429.6	1
.5995	1428	1
.7896	1424.9	1
1	1421.2	1

System: 1-butyl-3-methylimidazolium bis(trifluoromethylsulfonyl)imide + 1-methyl-1-propylpyrrolidinium bis[(trifluoromethyl)sulfonyl]imide; phases: Liquid, Air at 1 atmosphere
Fixed: Temperature, K = 298.2
Property: Surface tension liquid-gas, N/m (Liquid); method: Pendant drop shape
Mole fraction of 1-methyl-1-propylpyrrolidinium bis[(trifluoromethyl)sulfonyl]imide	Surface tension liquid-gas, N/m	uncertainty
0	.03315	.0005
.2094	.03363	.0005
.3935	.03404	.0005
.5004	.034275	.0005
.5943	.03448	.0005
.7854	.03489	.0005
1	.03535	.0005

System: 1-butyl-3-methylimidazolium bis(trifluoromethylsulfonyl)imide + 1-methyl-1-propylpyrrolidinium bis[(trifluoromethyl)sulfonyl]imide; phases: Liquid
Fixed: Pressure, kPa = 101.325
Fixed: Temperature, K = 298.2
Property: Mass density, kg/m3 (Liquid); method: Vibrating tube method
Mole fraction of 1-methyl-1-propylpyrrolidinium bis[(trifluoromethyl)sulfonyl]imide	Mass density, kg/m3	uncertainty
0	1436.9	1
.2094	1436.9	1
.3935	1436.4	1
.5004	1435.9	1
.5943	1435.4	1
.7854	1433.9	1
1	1431.7	1

System: 1-butyl-3-methylimidazolium bis(trifluoromethylsulfonyl)imide + 3-methyl-1-propylpyridinium bis(trifluoromethylsulfonyl)imide; phases: Liquid, Air at 1 atmosphere
Fixed: Temperature, K = 298.2
Property: Surface tension liquid-gas, N/m (Liquid); method: Pendant drop shape
Mole fraction of 3-methyl-1-propylpyridinium bis(trifluoromethylsulfonyl)imide	Surface tension liquid-gas, N/m	uncertainty
0	.03315	.0005
.2093	.03342	.0005
.3996	.03373	.0005
.4995	.03391	.0005
.6047	.03412	.0005
.8024	.03455	.0005
1	.03502	.0005

System: 1-butyl-3-methylimidazolium bis(trifluoromethylsulfonyl)imide + 3-methyl-1-propylpyridinium bis(trifluoromethylsulfonyl)imide; phases: Liquid
Fixed: Pressure, kPa = 101.325
Fixed: Temperature, K = 298.2
Property: Mass density, kg/m3 (Liquid); method: Vibrating tube method
Mole fraction of 3-methyl-1-propylpyridinium bis(trifluoromethylsulfonyl)imide	Mass density, kg/m3	uncertainty
0	1436.9	1
.2093	1440.2	1
.3996	1442.9	1
.4995	1444.2	1
.6047	1445.5	1
.8024	1447.7	1
1	1449.7	1

System: 1-butyl-3-methylimidazolium bis(trifluoromethylsulfonyl)imide + 1-methyl-1-propylpiperidinium bis(trifluoromethylsulfonyl)imide; phases: Liquid, Air at 1 atmosphere
Fixed: Temperature, K = 298.2
Property: Surface tension liquid-gas, N/m (Liquid); method: Pendant drop shape
Mole fraction of 1-methyl-1-propylpiperidinium bis(trifluoromethylsulfonyl)imide	Surface tension liquid-gas, N/m	uncertainty
0	.03315	.0005
.2156	.03353	.0005
.4069	.0339	.0005
.4988	.03408	.0005
.5955	.03428	.0005
.7958	.03471	.0005
1	.03517	.0005

System: 1-butyl-3-methylimidazolium bis(trifluoromethylsulfonyl)imide + 1-methyl-1-propylpiperidinium bis(trifluoromethylsulfonyl)imide; phases: Liquid
Fixed: Pressure, kPa = 101.325
Fixed: Temperature, K = 298.2
Property: Mass density, kg/m3 (Liquid); method: Vibrating tube method
Mole fraction of 1-methyl-1-propylpiperidinium bis(trifluoromethylsulfonyl)imide	Mass density, kg/m3	uncertainty
0	1436.9	1
.2156	1432.9	1
.4069	1428.5	1
.4988	1426.2	1
.5955	1423.7	1
.7958	1417.9	1
1	1411.4	1
