Measured thermophysical data. Relative permittivity data of binary mixtures containing 2-butanol, 2-butanone, and cyclohexane
Source: J. Chem. Thermodyn., 2011, 10.1016/j.jct.2010.11.009
Compound 1: dl-sec-butyl alcohol, C4H10O, purity 98%
Compound 2: ethyl methyl ketone, C4H8O, purity 98%
Compound 3: cyclohexane, C6H12, purity 98%

System: dl-sec-butyl alcohol; phases: Liquid
Fixed: Pressure, kPa = 101.325
Property: Mass density, kg/m3 (Liquid); method: Kyoto Electronic Density Meter
Temperature, K	Mass density, kg/m3	uncertainty
298.2	802.34	.05
308.2	793.77	.05
318.2	785.03	.05

System: dl-sec-butyl alcohol; phases: Liquid
Fixed: Pressure, kPa = 101.325
Property: Relative permittivity at various frequencies (Liquid); method: Parallel plate capacitor
Temperature, K	Frequency, MHz	Relative permittivity at various frequencies	uncertainty
298.2	.1	16.467	.0082335
308.2	.1	15.055	.0075275
318.2	.1	13.71	.006855

System: dl-sec-butyl alcohol; phases: Liquid
Fixed: Pressure, kPa = 101.325
Property: Refractive index (Na D-line) (Liquid); method: Standard Abbe refractometry
Temperature, K	Refractive index (Na D-line)	uncertainty
298.2	1.3949	.0001
308.2	1.3901	.0001
318.2	1.3854	.0001

System: ethyl methyl ketone; phases: Liquid
Fixed: Pressure, kPa = 101.325
Property: Mass density, kg/m3 (Liquid); method: Kyoto Electronic Density Meter
Temperature, K	Mass density, kg/m3	uncertainty
298.2	799.75	.05
308.2	789.33	.05
318.2	778.56	.05

System: ethyl methyl ketone; phases: Liquid
Fixed: Pressure, kPa = 101.325
Property: Relative permittivity at various frequencies (Liquid); method: Parallel plate capacitor
Temperature, K	Frequency, MHz	Relative permittivity at various frequencies	uncertainty
298.2	.1	18.389	.0091945
308.2	.1	17.321	.0086605
318.2	.1	16.339	.0081695

System: ethyl methyl ketone; phases: Liquid
Fixed: Pressure, kPa = 101.325
Property: Refractive index (Na D-line) (Liquid); method: Standard Abbe refractometry
Temperature, K	Refractive index (Na D-line)	uncertainty
298.2	1.376	.0001
308.2	1.3714	.0001
318.2	1.3662	.0001

System: cyclohexane; phases: Liquid
Fixed: Pressure, kPa = 101.325
Property: Mass density, kg/m3 (Liquid); method: Kyoto Electronic Density Meter
Temperature, K	Mass density, kg/m3	uncertainty
298.2	773.64	.05
308.2	763.85	.05
318.2	754.17	.05

System: cyclohexane; phases: Liquid
Fixed: Pressure, kPa = 101.325
Property: Relative permittivity at various frequencies (Liquid); method: Parallel plate capacitor
Temperature, K	Frequency, MHz	Relative permittivity at various frequencies	uncertainty
298.2	.1	2.021	.0010105
308.2	.1	2.003	.0010015
318.2	.1	1.986	.000993

System: cyclohexane; phases: Liquid
Fixed: Pressure, kPa = 101.325
Property: Refractive index (Na D-line) (Liquid); method: Standard Abbe refractometry
Temperature, K	Refractive index (Na D-line)	uncertainty
298.2	1.4235	.0001
308.2	1.4174	.0001
318.2	1.4122	.0001

System: dl-sec-butyl alcohol + cyclohexane; phases: Liquid
Fixed: Pressure, kPa = 101
Property: Refractive index (Na D-line) (Liquid); method: Standard Abbe refractometry
Temperature, K	Mole fraction of dl-sec-butyl alcohol	Refractive index (Na D-line)	uncertainty
298.2	.104	1.4204	.0001
298.2	.2	1.417	.0001
298.2	.303	1.4141	.0001
298.2	.399	1.4115	.0001
298.2	.491	1.409	.0001
298.2	.6	1.4059	.0001
298.2	.705	1.4026	.0001
298.2	.807	1.4003	.0001
298.2	.896	1.398	.0001
308.2	.104	1.4135	.0001
308.2	.2	1.4106	.0001
308.2	.303	1.4075	.0001
308.2	.399	1.4051	.0001
308.2	.491	1.4025	.0001
308.2	.6	1.3993	.0001
308.2	.705	1.3966	.0001
308.2	.807	1.3943	.0001
308.2	.896	1.3925	.0001
318.2	.104	1.4099	.0001
318.2	.2	1.4084	.0001
318.2	.303	1.4059	.0001
318.2	.399	1.4039	.0001
318.2	.491	1.402	.0001
318.2	.6	1.3998	.0001
318.2	.705	1.3978	.0001
318.2	.807	1.3954	.0001
318.2	.896	1.3933	.0001

System: dl-sec-butyl alcohol + cyclohexane; phases: Liquid
Fixed: Frequency, MHz = .1
Property: Relative permittivity at various frequencies (Liquid); method: Parallel plate capacitor
Temperature, K	Mole fraction of dl-sec-butyl alcohol	Relative permittivity at various frequencies	uncertainty
298.2	.104	2.378	.001189
298.2	.2	2.84	.00142
298.2	.303	3.5	.00175
298.2	.399	4.321	.0021605
298.2	.491	5.497	.0027485
298.2	.6	7.163	.0035815
298.2	.705	9.182	.004591
298.2	.807	11.374	.005687
298.2	.896	13.626	.006813
308.2	.104	2.326	.001163
308.2	.2	2.737	.0013685
308.2	.303	3.351	.0016755
308.2	.399	4.125	.0020625
308.2	.491	5.123	.0025615
308.2	.6	6.561	.0032805
308.2	.705	8.411	.0042055
308.2	.807	10.493	.0052465
308.2	.896	12.508	.006254
318.2	.104	2.279	.0011395
318.2	.2	2.639	.0013195
318.2	.303	3.218	.001609
318.2	.399	3.889	.0019445
318.2	.491	4.771	.0023855
318.2	.6	6.023	.0030115
318.2	.705	7.58	.00379
318.2	.807	9.492	.004746
318.2	.896	11.536	.005768

System: ethyl methyl ketone + cyclohexane; phases: Liquid
Fixed: Pressure, kPa = 101
Property: Refractive index (Na D-line) (Liquid); method: Standard Abbe refractometry
Temperature, K	Mole fraction of ethyl methyl ketone	Refractive index (Na D-line)	uncertainty
298.2	.107	1.4173	.0001
298.2	.182	1.4137	.0001
298.2	.287	1.4086	.0001
298.2	.394	1.4035	.0001
298.2	.497	1.399	.0001
298.2	.596	1.3941	.0001
298.2	.684	1.3897	.0001
298.2	.793	1.3846	.0001
298.2	.899	1.3803	.0001
308.2	.107	1.4122	.0001
308.2	.182	1.4078	.0001
308.2	.287	1.4034	.0001
308.2	.394	1.3981	.0001
308.2	.497	1.3925	.0001
308.2	.596	1.3876	.0001
308.2	.684	1.384	.0001
308.2	.793	1.3791	.0001
308.2	.899	1.375	.0001
318.2	.107	1.4066	.0001
318.2	.182	1.403	.0001
318.2	.287	1.3973	.0001
318.2	.394	1.3914	.0001
318.2	.497	1.387	.0001
318.2	.596	1.3825	.0001
318.2	.684	1.3788	.0001
318.2	.793	1.3735	.0001
318.2	.899	1.3697	.0001

System: ethyl methyl ketone + cyclohexane; phases: Liquid
Fixed: Frequency, MHz = .1
Property: Relative permittivity at various frequencies (Liquid); method: Parallel plate capacitor
Temperature, K	Mole fraction of ethyl methyl ketone	Relative permittivity at various frequencies	uncertainty
298.2	.107	2.96	.00148
298.2	.182	3.75	.001875
298.2	.287	5.012	.002506
298.2	.394	6.458	.003229
298.2	.497	7.921	.0039605
298.2	.596	9.51	.004755
298.2	.684	11.163	.0055815
298.2	.793	13.278	.006639
298.2	.899	15.578	.007789
308.2	.107	2.861	.0014305
308.2	.182	3.601	.0018005
308.2	.287	4.748	.002374
308.2	.394	6.149	.0030745
308.2	.497	7.546	.003773
308.2	.596	9.13	.004565
308.2	.684	10.766	.005383
308.2	.793	12.772	.006386
308.2	.899	14.884	.007442
318.2	.107	2.779	.0013895
318.2	.182	3.462	.001731
318.2	.287	4.554	.002277
318.2	.394	5.722	.002861
318.2	.497	7.181	.0035905
318.2	.596	8.836	.004418
318.2	.684	10.108	.005054
318.2	.793	11.742	.005871
318.2	.899	13.922	.006961

System: dl-sec-butyl alcohol + ethyl methyl ketone; phases: Liquid
Fixed: Pressure, kPa = 101
Property: Refractive index (Na D-line) (Liquid); method: Standard Abbe refractometry
Temperature, K	Mole fraction of ethyl methyl ketone	Refractive index (Na D-line)	uncertainty
298.2	.051	1.3938	.0001
298.2	.102	1.3928	.0001
298.2	.153	1.3919	.0001
298.2	.204	1.3909	.0001
298.2	.305	1.389	.0001
298.2	.406	1.3871	.0001
298.2	.455	1.3862	.0001
298.2	.506	1.3852	.0001
298.2	.606	1.3834	.0001
298.2	.705	1.3816	.0001
298.2	.804	1.3798	.0001
298.2	.902	1.3781	.0001
298.2	.951	1.3773	.0001
308.2	.051	1.3889	.0001
308.2	.102	1.388	.0001
308.2	.153	1.3871	.0001
308.2	.204	1.3859	.0001
308.2	.305	1.3838	.0001
308.2	.406	1.382	.0001
308.2	.455	1.3807	.0001
308.2	.506	1.3797	.0001
308.2	.606	1.3777	.0001
308.2	.705	1.3759	.0001
308.2	.804	1.3738	.0001
308.2	.902	1.372	.0001
308.2	.951	1.3713	.0001
318.2	.051	1.3842	.0001
318.2	.102	1.3836	.0001
318.2	.153	1.3824	.0001
318.2	.204	1.3815	.0001
318.2	.305	1.379	.0001
318.2	.406	1.3772	.0001
318.2	.455	1.376	.0001
318.2	.506	1.3751	.0001
318.2	.606	1.373	.0001
318.2	.705	1.3711	.0001
318.2	.804	1.3696	.0001
318.2	.902	1.3675	.0001
318.2	.951	1.3662	.0001

System: dl-sec-butyl alcohol + ethyl methyl ketone; phases: Liquid
Fixed: Frequency, MHz = .1
Property: Relative permittivity at various frequencies (Liquid); method: Parallel plate capacitor
Temperature, K	Mole fraction of ethyl methyl ketone	Relative permittivity at various frequencies	uncertainty
298.2	.051	16.129	.0080645
298.2	.102	15.936	.007968
298.2	.153	15.778	.007889
298.2	.204	15.668	.007834
298.2	.305	15.519	.0077595
298.2	.406	15.525	.0077625
298.2	.455	15.573	.0077865
298.2	.506	15.705	.0078525
298.2	.606	16.06	.00803
298.2	.705	16.436	.008218
298.2	.804	16.965	.0084825
298.2	.902	17.605	.0088025
298.2	.951	18.023	.0090115
308.2	.051	14.712	.007356
308.2	.102	14.543	.0072715
308.2	.153	14.374	.007187
308.2	.204	14.262	.007131
308.2	.305	14.134	.007067
308.2	.406	14.135	.0070675
308.2	.455	14.236	.007118
308.2	.506	14.327	.0071635
308.2	.606	14.66	.00733
308.2	.705	15.121	.0075605
308.2	.804	15.782	.007891
308.2	.902	16.428	.008214
308.2	.951	16.925	.0084625
318.2	.051	13.461	.0067305
318.2	.102	13.215	.0066075
318.2	.153	13.099	.0065495
318.2	.204	12.961	.0064805
318.2	.305	12.832	.006416
318.2	.406	12.93	.006465
318.2	.455	13.026	.006513
318.2	.506	13.129	.0065645
318.2	.606	13.401	.0067005
318.2	.705	13.848	.006924
318.2	.804	14.541	.0072705
318.2	.902	15.379	.0076895
318.2	.951	15.84	.00792
