Measured thermophysical data. Phase equilibria for the [{water + 1-methylnaphthalene + p-xylene}] system at  T = (573, 623 and 653) K
Source: J. Chem. Thermodyn., 2013, 10.1016/j.jct.2013.01.029
Compound 1: water, H2O, purity 99.8%
Compound 2: 1-methylnaphthalene, C11H10, purity 97%
Compound 3: 1,4-xylene, C8H10, purity 98%

System: 1-methylnaphthalene + 1,4-xylene + water; phases: Liquid mixture 2, Liquid mixture 1
Property: Mole fraction of water (Liquid mixture 2); method: Chromatography
Property: Mole fraction of water (Liquid mixture 1); method: Chromatography
Property: Mole fraction of 1-methylnaphthalene (Liquid mixture 1); method: Chromatography
Temperature, K	Pressure, kPa	Mole fraction of 1-methylnaphthalene	Mole fraction of water	uncertainty	Mole fraction of water	uncertainty	Mole fraction of 1-methylnaphthalene	uncertainty
573	11900	.12	.641	.004	.989	.005	.001	.004
573	14100	.158	.564	.004	.99	.005	.001	.004
573	16000	.135	.589	.004	.991	.005	.001	.004
573	18100	.154	.58	.004	.991	.005	.001	.004
573	19900	.185	.531	.004	.992	.005	.001	.004
573	11800	.19	.63	.004	.993	.005	.001	.004
573	14000	.224	.594	.004	.992	.005	.001	.004
573	15000	.225	.579	.004	.992	.005	.001	.004
573	15900	.281	.532	.004	.994	.005	.001	.004
573	18400	.283	.534	.004	.992	.005	.001	.004
573	20200	.303	.496	.004	.994	.005	.001	.004
573	12000	.356	.533	.004	.997	.005	.001	.004
573	14200	.371	.507	.004	.997	.005	.001	.004
573	16200	.365	.507	.004	.997	.005	.001	.004
573	18200	.348	.536	.004	.996	.005	.001	.004

System: 1-methylnaphthalene + 1,4-xylene + water; phases: Liquid, Gas
Property: Mole fraction of 1-methylnaphthalene (Liquid); method: Chromatography
Property: Mole fraction of water (Gas); method: Chromatography
Property: Mole fraction of 1-methylnaphthalene (Gas); method: Chromatography
Temperature, K	Pressure, kPa	Mole fraction of water	Mole fraction of 1-methylnaphthalene	uncertainty	Mole fraction of water	uncertainty	Mole fraction of 1-methylnaphthalene	uncertainty
573	5200	.223	.371	.004	.795	.005	.001	.004
623	18100	.943	.027	.004	.967	.005	.019	.004
623	7400	.237	.603	.004	.816	.005	.118	.004
573	6200	.322	.542	.004	.879	.005	.067	.004
623	9000	.361	.533	.004	.837	.005	.108	.004
623	11300	.423	.472	.004	.856	.005	.094	.004
623	13500	.526	.382	.004	.857	.005	.099	.004
573	7200	.344	.347	.004	.859	.005	.001	.004
623	15800	.654	.282	.004	.852	.005	.107	.004
623	16900	.918	.065	.004	.924	.005	.065	.004
623	17400	.913	.068	.004	.923	.005	.064	.004
623	6200	.278	.441	.004	.664	.005	.144	.004
653	8000	.188	.313	.004	.405	.005	.187	.004
653	10000	.274	.252	.004	.428	.005	.208	.004
653	11100	.323	.227	.004	.477	.005	.166	.004
573	7000	.398	.499	.004	.909	.005	.055	.004
653	6000	.198	.484	.004	.47	.005	.236	.004
653	8100	.32	.369	.004	.614	.005	.173	.004
653	10300	.323	.4	.004	.669	.005	.157	.004
653	12400	.418	.335	.004	.682	.005	.154	.004
573	7900	.404	.231	.004	.81	.005	.001	.004
653	14100	.512	.273	.004	.66	.005	.171	.004
623	8000	.277	.411	.004	.718	.005	.114	.004
653	6300	.235	.654	.004	.674	.005	.235	.004
653	7800	.293	.587	.004	.747	.005	.18	.004
653	10300	.323	.543	.004	.726	.005	.186	.004
653	11800	.397	.47	.004	.747	.005	.169	.004
623	7100	.183	.378	.004	.533	.005	.146	.004
653	13300	.368	.495	.004	.77	.005	.157	.004
653	15600	.578	.323	.004	.79	.005	.147	.004
573	4200	.182	.574	.004	.836	.005	.067	.004
573	5900	.278	.554	.004	.889	.005	.051	.004
573	7100	.326	.409	.004	.86	.005	.045	.004
573	6300	.259	.393	.004	.811	.005	.001	.004
573	8000	.448	.314	.004	.887	.005	.036	.004
573	5300	.246	.647	.004	.891	.005	.068	.004
623	8500	.261	.346	.004	.619	.005	.119	.004
623	10200	.351	.254	.004	.597	.005	.118	.004
623	11000	.383	.22	.004	.591	.005	.119	.004
623	17700	.993	.001	.004	.967	.005	.001	.004
623	18400	.983	.001	.004	.957	.005	.001	.004
623	10200	.377	.339	.004	.738	.005	.105	.004
623	12300	.417	.381	.004	.743	.005	.115	.004
623	14200	.528	.306	.004	.767	.005	.126	.004
623	14700	.53	.281	.004	.765	.005	.125	.004
623	17600	.951	.024	.004	.979	.005	.011	.004
