Measured thermophysical data. Determination and modelling of troxerutin solubility in eleven mono-solvents and (1,4-dioxane + 2-propanol) binary solvents at temperatures from 288.15 K to 323.15 K
Source: J. Chem. Thermodyn., 2017, 10.1016/j.jct.2016.09.015
Compound 1: Troxerutin, C33H42O19, purity 99.8%
Compound 2: methanol, CH4O, purity 99.5%
Compound 3: ethanol, C2H6O, purity 99.7%
Compound 4: n-propanol, C3H8O, purity 99.8%
Compound 5: 2-propanol, C3H8O, purity 99.7%
Compound 6: n-butanol, C4H10O, purity 99.5%
Compound 7: 2-methyl-1-propanol, C4H10O, purity 99.0%
Compound 8: 2-butanol, C4H10O, purity 99.5%
Compound 9: n-pentyl alcohol, C5H12O, purity 99.5%
Compound 10: acetonitrile, C2H3N, purity 99.5%
Compound 11: acetone, C3H6O, purity 99.5%
Compound 12: 1,4-dioxane, C4H8O2, purity 99.5%

System: Troxerutin; phases: Crystal, Liquid, Air at 1 atmosphere
Property: Normal melting temperature, K (Crystal); method: DSC/DTA
Normal melting temperature, K	uncertainty
441.83	.3

System: Troxerutin; phases: Crystal, Liquid, Air at 1 atmosphere
Property: Molar enthalpy of transition or fusion, kJ/mol (Crystal); method: DSC
Molar enthalpy of transition or fusion, kJ/mol	uncertainty
31.13	1.05

System: methanol + Troxerutin; phases: Liquid, Crystal
Fixed: Pressure, kPa = 100
Property: Mole fraction of Troxerutin (Liquid); method: UV spectroscopy
Temperature, K	Mole fraction of Troxerutin	uncertainty
288.15	.000245	
293.15	.000291	
298.15	.000362	
303.15	.00045	
308.15	.000573	
313.15	.000714	
318.15	.000876	
323.15	.001074	

System: ethanol + Troxerutin; phases: Liquid, Crystal
Fixed: Pressure, kPa = 100
Property: Mole fraction of Troxerutin (Liquid); method: UV spectroscopy
Temperature, K	Mole fraction of Troxerutin	uncertainty
288.15	.000228	
293.15	.000252	
298.15	.00029	
303.15	.000346	
308.15	.000407	
313.15	.000468	
318.15	.000547	
323.15	.000632	

System: n-propanol + Troxerutin; phases: Liquid, Crystal
Fixed: Pressure, kPa = 100
Property: Mole fraction of Troxerutin (Liquid); method: UV spectroscopy
Temperature, K	Mole fraction of Troxerutin	uncertainty
288.15	.000144	
293.15	.000177	
298.15	.000215	
303.15	.000258	
308.15	.000317	
313.15	.000377	
318.15	.000458	
323.15	.000562	

System: 2-propanol + Troxerutin; phases: Liquid, Crystal
Fixed: Pressure, kPa = 100
Property: Mole fraction of Troxerutin (Liquid); method: UV spectroscopy
Temperature, K	Mole fraction of Troxerutin	uncertainty
288.15	.000093	
293.15	.000119	
298.15	.000161	
303.15	.000207	
308.15	.000268	
313.15	.000329	
318.15	.000403	
323.15	.000519	

System: n-butanol + Troxerutin; phases: Liquid, Crystal
Fixed: Pressure, kPa = 100
Property: Mole fraction of Troxerutin (Liquid); method: UV spectroscopy
Temperature, K	Mole fraction of Troxerutin	uncertainty
288.15	.00008	
293.15	.000102	
298.15	.000142	
303.15	.000187	
308.15	.000248	
313.15	.000312	
318.15	.000382	
323.15	.000494	

System: 2-methyl-1-propanol + Troxerutin; phases: Liquid, Crystal
Fixed: Pressure, kPa = 100
Property: Mole fraction of Troxerutin (Liquid); method: UV spectroscopy
Temperature, K	Mole fraction of Troxerutin	uncertainty
288.15	.000041	
293.15	.000054	
298.15	.00007	
303.15	.00009	
308.15	.000125	
313.15	.000176	
318.15	.000238	
323.15	.000312	

System: 2-butanol + Troxerutin; phases: Liquid, Crystal
Fixed: Pressure, kPa = 100
Property: Mole fraction of Troxerutin (Liquid); method: UV spectroscopy
Temperature, K	Mole fraction of Troxerutin	uncertainty
288.15	.000086	
293.15	.000108	
298.15	.00015	
303.15	.000194	
308.15	.000254	
313.15	.000319	
318.15	.000391	
323.15	.000505	

System: n-pentyl alcohol + Troxerutin; phases: Liquid, Crystal
Fixed: Pressure, kPa = 100
Property: Mole fraction of Troxerutin (Liquid); method: UV spectroscopy
Temperature, K	Mole fraction of Troxerutin	uncertainty
288.15	.000071	
293.15	.00009	
298.15	.000107	
303.15	.000132	
308.15	.00017	
313.15	.000222	
318.15	.000289	
323.15	.000377	

System: acetonitrile + Troxerutin; phases: Liquid, Crystal
Fixed: Pressure, kPa = 100
Property: Mole fraction of Troxerutin (Liquid); method: UV spectroscopy
Temperature, K	Mole fraction of Troxerutin	uncertainty
288.15	.000008	
293.15	.000012	
298.15	.000015	
303.15	.000021	
308.15	.000028	
313.15	.000038	
318.15	.000049	
323.15	.00007	

System: acetone + Troxerutin; phases: Liquid, Crystal
Fixed: Pressure, kPa = 100
Property: Mole fraction of Troxerutin (Liquid); method: UV spectroscopy
Temperature, K	Mole fraction of Troxerutin	uncertainty
288.15	.000031	
293.15	.000034	
298.15	.000042	
303.15	.000055	
308.15	.00007	
313.15	.000091	
318.15	.000124	
323.15	.000162	

System: 1,4-dioxane + Troxerutin; phases: Liquid, Crystal
Fixed: Pressure, kPa = 100
Property: Mole fraction of Troxerutin (Liquid); method: UV spectroscopy
Temperature, K	Mole fraction of Troxerutin	uncertainty
288.15	.000517	
293.15	.000596	
298.15	.000724	
303.15	.000865	
308.15	.001025	
313.15	.001213	
318.15	.001437	
323.15	.001707	

System: 2-propanol + 1,4-dioxane + Troxerutin; phases: Liquid, Crystal
Fixed: Pressure, kPa = 100
Property: Mole fraction of Troxerutin (Liquid); method: UV spectroscopy
Temperature, K	Solvent: Mole fraction of 2-propanol	Mole fraction of Troxerutin	uncertainty
288.15	0	.000517	
293.15	0	.000596	
298.15	0	.000724	
303.15	0	.000865	
308.15	0	.001025	
313.15	0	.001213	
318.15	0	.001437	
323.15	0	.001707	
288.15	.1	.00073	
288.15	.2	.00114	
288.15	.3	.0017	
288.15	.4	.00215	
288.15	.5	.00205	
288.15	.6	.00156	
288.15	.7	.00103	
288.15	.8	.00045	
288.15	.9	.00024	
293.15	.1	.00083	
293.15	.2	.00133	
293.15	.3	.00192	
293.15	.4	.00229	
293.15	.5	.00219	
293.15	.6	.00172	
293.15	.7	.00116	
293.15	.8	.00053	
293.15	.9	.00027	
298.15	.1	.00102	
298.15	.2	.00156	
298.15	.3	.00213	
298.15	.4	.00249	
298.15	.5	.00238	
298.15	.6	.00195	
298.15	.7	.00132	
298.15	.8	.00064	
298.15	.9	.00032	
303.15	.1	.00125	
303.15	.2	.00185	
303.15	.3	.00239	
303.15	.4	.00273	
303.15	.5	.00258	
303.15	.6	.00217	
303.15	.7	.00153	
303.15	.8	.00075	
303.15	.9	.00036	
308.15	.1	.00155	
308.15	.2	.00214	
308.15	.3	.00272	
308.15	.4	.00305	
308.15	.5	.00289	
308.15	.6	.00242	
308.15	.7	.0018	
308.15	.8	.0009	
308.15	.9	.00043	
313.15	.1	.00189	
313.15	.2	.00256	
313.15	.3	.00315	
313.15	.4	.00343	
313.15	.5	.00326	
313.15	.6	.00276	
313.15	.7	.00208	
313.15	.8	.00106	
313.15	.9	.00052	
318.15	.1	.00227	
318.15	.2	.00306	
318.15	.3	.00365	
318.15	.4	.00396	
318.15	.5	.00375	
318.15	.6	.0032	
318.15	.7	.00242	
318.15	.8	.00128	
318.15	.9	.00064	
323.15	.1	.00269	
323.15	.2	.00357	
323.15	.3	.00419	
323.15	.4	.00453	
323.15	.5	.00432	
323.15	.6	.00373	
323.15	.7	.00286	
323.15	.8	.00158	
323.15	.9	.0008	
288.15	1	.000093	
293.15	1	.000119	
298.15	1	.000161	
303.15	1	.000207	
308.15	1	.000268	
313.15	1	.000329	
318.15	1	.000403	
323.15	1	.000519	
