Measured thermophysical data. Solubilities of p-coumaric and caffeic acid in ionic liquids and organic solvents
Source: J. Chem. Thermodyn., 2013, 10.1016/j.jct.2013.02.013
Compound 1: 4-coumaric acid, C9H8O3, purity 98%
Compound 2: trans-3,4-dihydroxycinnamic acid, C9H8O4, purity 98%
Compound 3: tert-pentyl alcohol, C5H12O, purity 99%
Compound 4: ethyl ethanoate, C4H8O2, purity 99.8%
Compound 5: [bmim][PF6], C8H15F6N2P, purity 98%
Compound 6: 1-octyl-3-methylimidazolium hexafluorophosphate, C12H23F6N2P, purity 98%
Compound 7: 1-butyl-3-methylimidazolium tetrafluoroborate, C8H15BF4N2, purity 98%
Compound 8: 1-methyl-3-octylimidazolium tetrafluoroborate, C12H23BF4N2, purity 98%
Compound 9: 1-butyl-3-methylimidazolium 1,1,1-trifluoro-N-[(trifluoromethyl)sulfonyl]methanesulfonamide, C10H15F6N3O4S2, purity 98%
Compound 10: 1-butyl-3-methylimidazolium trifluoromethanesulfonate, C9H15F3N2O3S, purity 98%

System: 4-coumaric acid; phases: Crystal, Liquid, Air at 1 atmosphere
Property: Normal melting temperature, K (Crystal); method: DSC/DTA
Normal melting temperature, K	uncertainty
492.35	

System: 4-coumaric acid; phases: Crystal, Liquid, Air at 1 atmosphere
Property: Molar enthalpy of transition or fusion, kJ/mol (Crystal); method: DSC/DTA
Molar enthalpy of transition or fusion, kJ/mol	uncertainty
27.42	2

System: trans-3,4-dihydroxycinnamic acid; phases: Crystal, Liquid, Air at 1 atmosphere
Property: Normal melting temperature, K (Crystal); method: DSC/DTA
Normal melting temperature, K	uncertainty
505.65	

System: trans-3,4-dihydroxycinnamic acid; phases: Crystal, Liquid, Air at 1 atmosphere
Property: Molar enthalpy of transition or fusion, kJ/mol (Crystal); method: DSC/DTA
Molar enthalpy of transition or fusion, kJ/mol	uncertainty
27.68	2

System: trans-3,4-dihydroxycinnamic acid + [bmim][PF6]; phases: Liquid, Crystal
Fixed: Pressure, kPa = 101
Property: Mole fraction of trans-3,4-dihydroxycinnamic acid (Liquid); method: Chromatography
Temperature, K	Mole fraction of trans-3,4-dihydroxycinnamic acid	uncertainty
303.1	.0012	
307.9	.0016	
312.6	.002	
317.4	.0024	

System: 4-coumaric acid + [bmim][PF6]; phases: Liquid, Crystal
Fixed: Pressure, kPa = 101
Property: Mole fraction of 4-coumaric acid (Liquid); method: Chromatography
Temperature, K	Mole fraction of 4-coumaric acid	uncertainty
303.1	.0062	
307.9	.0071	
312.6	.0084	
317.4	.0102	

System: 4-coumaric acid + 1-octyl-3-methylimidazolium hexafluorophosphate; phases: Liquid, Crystal
Fixed: Pressure, kPa = 101
Property: Mole fraction of 4-coumaric acid (Liquid); method: Chromatography
Temperature, K	Mole fraction of 4-coumaric acid	uncertainty
303.1	.0063	
307.9	.0074	
312.6	.009	
317.4	.0119	

System: trans-3,4-dihydroxycinnamic acid + 1-octyl-3-methylimidazolium hexafluorophosphate; phases: Liquid, Crystal
Fixed: Pressure, kPa = 101
Property: Mole fraction of trans-3,4-dihydroxycinnamic acid (Liquid); method: Chromatography
Temperature, K	Mole fraction of trans-3,4-dihydroxycinnamic acid	uncertainty
303.1	.0014	
307.9	.0018	
312.6	.0021	
317.4	.0024	

System: 4-coumaric acid + 1-butyl-3-methylimidazolium tetrafluoroborate; phases: Liquid, Crystal
Fixed: Pressure, kPa = 101
Property: Mole fraction of 4-coumaric acid (Liquid); method: Chromatography
Temperature, K	Mole fraction of 4-coumaric acid	uncertainty
303.1	.1951	
307.9	.2132	
312.6	.2357	
317.4	.2513	

System: trans-3,4-dihydroxycinnamic acid + 1-butyl-3-methylimidazolium tetrafluoroborate; phases: Liquid, Crystal
Fixed: Pressure, kPa = 101
Property: Mole fraction of trans-3,4-dihydroxycinnamic acid (Liquid); method: Chromatography
Temperature, K	Mole fraction of trans-3,4-dihydroxycinnamic acid	uncertainty
303.1	.1536	
307.9	.1637	
312.6	.1706	
317.4	.1827	

System: 4-coumaric acid + 1-methyl-3-octylimidazolium tetrafluoroborate; phases: Liquid, Crystal
Fixed: Pressure, kPa = 101
Property: Mole fraction of 4-coumaric acid (Liquid); method: Chromatography
Temperature, K	Mole fraction of 4-coumaric acid	uncertainty
303.1	.0803	
307.9	.0897	
312.6	.0993	
317.4	.11	

System: trans-3,4-dihydroxycinnamic acid + 1-methyl-3-octylimidazolium tetrafluoroborate; phases: Liquid, Crystal
Fixed: Pressure, kPa = 101
Property: Mole fraction of trans-3,4-dihydroxycinnamic acid (Liquid); method: Chromatography
Temperature, K	Mole fraction of trans-3,4-dihydroxycinnamic acid	uncertainty
303.1	.0451	
307.9	.0518	
312.6	.0569	
317.4	.0626	

System: 4-coumaric acid + 1-butyl-3-methylimidazolium 1,1,1-trifluoro-N-[(trifluoromethyl)sulfonyl]methanesulfonamide; phases: Liquid, Crystal
Fixed: Pressure, kPa = 101
Property: Mole fraction of 4-coumaric acid (Liquid); method: Chromatography
Temperature, K	Mole fraction of 4-coumaric acid	uncertainty
303.1	.0028	
307.9	.0037	
312.6	.0042	
317.4	.0051	

System: trans-3,4-dihydroxycinnamic acid + 1-butyl-3-methylimidazolium 1,1,1-trifluoro-N-[(trifluoromethyl)sulfonyl]methanesulfonamide; phases: Liquid, Crystal
Fixed: Pressure, kPa = 101
Property: Mole fraction of trans-3,4-dihydroxycinnamic acid (Liquid); method: Chromatography
Temperature, K	Mole fraction of trans-3,4-dihydroxycinnamic acid	uncertainty
303.1	.0003	
307.9	.0005	
312.6	.0007	
317.4	.0011	

System: 4-coumaric acid + 1-butyl-3-methylimidazolium trifluoromethanesulfonate; phases: Liquid, Crystal
Fixed: Pressure, kPa = 101
Property: Mole fraction of 4-coumaric acid (Liquid); method: Chromatography
Temperature, K	Mole fraction of 4-coumaric acid	uncertainty
303.1	.1054	
307.9	.1206	
312.6	.1333	
317.4	.1481	

System: trans-3,4-dihydroxycinnamic acid + 1-butyl-3-methylimidazolium trifluoromethanesulfonate; phases: Liquid, Crystal
Fixed: Pressure, kPa = 101
Property: Mole fraction of trans-3,4-dihydroxycinnamic acid (Liquid); method: Chromatography
Temperature, K	Mole fraction of trans-3,4-dihydroxycinnamic acid	uncertainty
303.1	.0242	
307.9	.0316	
312.6	.0415	
317.4	.0541	

System: tert-pentyl alcohol + 4-coumaric acid; phases: Liquid, Crystal
Fixed: Pressure, kPa = 101
Property: Mole fraction of 4-coumaric acid (Liquid); method: Chromatography
Temperature, K	Mole fraction of 4-coumaric acid	uncertainty
303.1	.0744	
307.9	.0774	
312.6	.0806	
317.4	.0838	

System: tert-pentyl alcohol + trans-3,4-dihydroxycinnamic acid; phases: Liquid, Crystal
Fixed: Pressure, kPa = 101
Property: Mole fraction of trans-3,4-dihydroxycinnamic acid (Liquid); method: Chromatography
Temperature, K	Mole fraction of trans-3,4-dihydroxycinnamic acid	uncertainty
303.1	.0184	
307.9	.0221	
312.6	.0264	
317.4	.0295	

System: ethyl ethanoate + 4-coumaric acid; phases: Liquid, Crystal
Fixed: Pressure, kPa = 101
Property: Mole fraction of 4-coumaric acid (Liquid); method: Chromatography
Temperature, K	Mole fraction of 4-coumaric acid	uncertainty
303.1	.0148	
307.9	.0164	
312.6	.0174	
317.4	.0191	

System: ethyl ethanoate + trans-3,4-dihydroxycinnamic acid; phases: Liquid, Crystal
Fixed: Pressure, kPa = 101
Property: Mole fraction of trans-3,4-dihydroxycinnamic acid (Liquid); method: Chromatography
Temperature, K	Mole fraction of trans-3,4-dihydroxycinnamic acid	uncertainty
303.1	.0016	
307.9	.0018	
312.6	.0021	
317.4	.0023	
