Measured thermophysical data. Stable (solid + liquid) phase equilibrium for the ternary systems (K2SO4 + KH2PO4 + H2O), (K2SO4 + KCl + H2O) at T = 313.15 K
Source: J. Chem. Thermodyn., 2015, 10.1016/j.jct.2015.06.011
Compound 1: potassium chloride, ClK, purity 99.5%
Compound 2: monopotassium dihydrogen phosphate, H2KO4P, purity 99.5%
Compound 3: dipotassium sulfate, K2O4S, purity 99.5%
Compound 4: water, H2O, purity 99%

System: water + monopotassium dihydrogen phosphate + dipotassium sulfate; phases: Liquid, Crystal
Fixed: Pressure, kPa = 88.35
Fixed: Temperature, K = 313.15
Property: Mass fraction of monopotassium dihydrogen phosphate (Liquid); method: gravimetric
Mass fraction of dipotassium sulfate	Mass fraction of monopotassium dihydrogen phosphate	uncertainty
0	.2556	.004
.0236	.245	.004
.0486	.2163	.004
.0763	.2086	.004
.0771	.2099	.004
.0779	.2048	.004

System: water + monopotassium dihydrogen phosphate + dipotassium sulfate; phases: Liquid, Crystal
Fixed: Pressure, kPa = 88.35
Fixed: Temperature, K = 313.15
Property: Mass fraction of monopotassium dihydrogen phosphate (Liquid); method: gravimetric
Mass fraction of dipotassium sulfate	Mass fraction of monopotassium dihydrogen phosphate	uncertainty
.0763	.2086	.004
.0771	.2099	.004
.0779	.2048	.004
.086	.1693	.004
.0938	.1372	.004
.1012	.0963	.004
.1049	.0712	.004
.1128	.0389	.004
.1288	0	.004

System: water + monopotassium dihydrogen phosphate + dipotassium sulfate; phases: Liquid, Crystal, Crystal
Fixed: Temperature, K = 313.15
Property: Mass fraction of monopotassium dihydrogen phosphate (Liquid); method: gravimetric
Pressure, kPa	Mass fraction of monopotassium dihydrogen phosphate	uncertainty
88.35	.2078	.004

System: water + monopotassium dihydrogen phosphate + dipotassium sulfate; phases: Liquid, Crystal, Crystal
Fixed: Temperature, K = 313.15
Property: Mass fraction of dipotassium sulfate (Liquid); method: gravimetric
Pressure, kPa	Mass fraction of dipotassium sulfate	uncertainty
88.35	.0771	.002

System: water + monopotassium dihydrogen phosphate + dipotassium sulfate; phases: Liquid
Fixed: Pressure, kPa = 88.35
Fixed: Temperature, K = 313.15
Property: Mass density, kg/m3 (Liquid); method: Pycnometric method
Mass fraction of dipotassium sulfate	Mass fraction of monopotassium dihydrogen phosphate	Mass density, kg/m3	uncertainty
0	.2556	1184.7	5
.0236	.245	1204.1	5
.0486	.2163	1202.8	5
.0763	.2086	1213.7	5
.0771	.2099	1213.6	5
.0779	.2048	1213.2	5
.086	.1693	1195.9	5
.0938	.1372	1156.4	5
.1012	.0963	1148.4	5
.1049	.0712	1134.8	5
.1128	.0389	1127.2	5
.1288	0	1099.9	5

System: water + monopotassium dihydrogen phosphate + dipotassium sulfate; phases: Liquid
Fixed: Pressure, kPa = 88.35
Fixed: Temperature, K = 313.15
Property: Refractive index (Na D-line) (Liquid); method: Standard Abbe refractometry
Mass fraction of dipotassium sulfate	Mass fraction of monopotassium dihydrogen phosphate	Refractive index (Na D-line)	uncertainty
0	.2556	1.36	.002
.0236	.245	1.3632	.002
.0486	.2163	1.364	.002
.0763	.2086	1.3642	.002
.0771	.2099	1.3637	.002
.0779	.2048	1.3638	.002
.086	.1693	1.3596	.002
.0938	.1372	1.3575	.002
.1012	.0963	1.355	.002
.1049	.0712	1.353	.002
.1128	.0389	1.3495	.002
.1288	0	1.3473	.002

System: potassium chloride + water + dipotassium sulfate; phases: Liquid, Crystal
Fixed: Pressure, kPa = 88.35
Fixed: Temperature, K = 313.15
Property: Mass fraction of potassium chloride (Liquid); method: gravimetric
Mass fraction of dipotassium sulfate	Mass fraction of potassium chloride	uncertainty
0	.2879	.005
.0115	.2708	.005
.0137	.2794	.005

System: potassium chloride + water + dipotassium sulfate; phases: Liquid, Crystal
Fixed: Pressure, kPa = 88.35
Fixed: Temperature, K = 313.15
Property: Mass fraction of potassium chloride (Liquid); method: gravimetric
Mass fraction of dipotassium sulfate	Mass fraction of potassium chloride	uncertainty
.0115	.2708	.005
.0137	.2794	.005
.0375	.2571	.005
.0577	.2328	.005
.0676	.2119	.005
.0772	.1895	.005
.0854	.161	.005
.0953	.1462	.005
.0961	.1334	.005
.1021	.095	.005
.1132	.07	.005
.1243	.0283	.005
.1288	0	.005

System: potassium chloride + water + dipotassium sulfate; phases: Liquid, Crystal, Crystal
Fixed: Temperature, K = 313.15
Property: Mass fraction of potassium chloride (Liquid); method: gravimetric
Pressure, kPa	Mass fraction of potassium chloride	uncertainty
88.35	.2751	.005

System: potassium chloride + water + dipotassium sulfate; phases: Liquid, Crystal, Crystal
Fixed: Temperature, K = 313.15
Property: Mass fraction of dipotassium sulfate (Liquid); method: gravimetric
Pressure, kPa	Mass fraction of dipotassium sulfate	uncertainty
88.35	.0126	.002

System: potassium chloride + water + dipotassium sulfate; phases: Liquid
Fixed: Pressure, kPa = 88.35
Fixed: Temperature, K = 313.15
Property: Mass density, kg/m3 (Liquid); method: Pycnometric method
Mass fraction of dipotassium sulfate	Mass fraction of potassium chloride	Mass density, kg/m3	uncertainty
0	.2879	1195.6	5
.0115	.2708	1194.6	5
.0137	.2794	1194.4	5
.0375	.2571	1182.8	5
.0577	.2328	1166.1	5
.0676	.2119	1158.3	5
.0772	.1895	1149.2	5
.0854	.161	1127.3	5
.0953	.1462	1119.7	5
.0961	.1334	1113.9	5
.1021	.095	1109.5	5
.1132	.07	1099.9	5
.1243	.0283	1095.9	5
.1288	0	1099.9	5

System: potassium chloride + water + dipotassium sulfate; phases: Liquid
Fixed: Pressure, kPa = 88.35
Fixed: Temperature, K = 313.15
Property: Refractive index (Na D-line) (Liquid); method: Standard Abbe refractometry
Mass fraction of dipotassium sulfate	Mass fraction of potassium chloride	Refractive index (Na D-line)	uncertainty
0	.2879	1.3683	.002
.0115	.2708	1.3706	.002
.0137	.2794	1.3705	.002
.0375	.2571	1.3702	.002
.0577	.2328	1.3656	.002
.0676	.2119	1.3637	.002
.0772	.1895	1.3623	.002
.0854	.161	1.3574	.002
.0953	.1462	1.3561	.002
.0961	.1334	1.3555	.002
.1021	.095	1.3535	.002
.1132	.07	1.3501	.002
.1243	.0283	1.3483	.002
.1288	0	1.3473	.002

System: water + monopotassium dihydrogen phosphate; phases: Liquid, Crystal
Property: Mass fraction of monopotassium dihydrogen phosphate (Liquid); method: gravimetric
Pressure, kPa	Temperature, K	Mass fraction of monopotassium dihydrogen phosphate	uncertainty
88.35	313.15	.2556	.004

System: water + monopotassium dihydrogen phosphate; phases: Liquid
Property: Mass density, kg/m3 (Liquid); method: Pycnometric method
Mass fraction of monopotassium dihydrogen phosphate	Pressure, kPa	Temperature, K	Mass density, kg/m3	uncertainty
.2556	88.35	313.15	1184.7	5

System: water + monopotassium dihydrogen phosphate; phases: Liquid
Property: Refractive index (Na D-line) (Liquid); method: Standard Abbe refractometry
Mass fraction of monopotassium dihydrogen phosphate	Pressure, kPa	Temperature, K	Refractive index (Na D-line)	uncertainty
.2556	88.35	313.15	1.36	.002

System: water + dipotassium sulfate; phases: Liquid, Crystal
Property: Mass fraction of dipotassium sulfate (Liquid); method: gravimetric
Pressure, kPa	Temperature, K	Mass fraction of dipotassium sulfate	uncertainty
88.35	313.15	.1288	.002

System: water + dipotassium sulfate; phases: Liquid
Property: Mass density, kg/m3 (Liquid); method: Pycnometric method
Mass fraction of dipotassium sulfate	Pressure, kPa	Temperature, K	Mass density, kg/m3	uncertainty
.1288	88.35	313.15	1099.9	5

System: water + dipotassium sulfate; phases: Liquid
Property: Refractive index (Na D-line) (Liquid); method: Standard Abbe refractometry
Mass fraction of dipotassium sulfate	Pressure, kPa	Temperature, K	Refractive index (Na D-line)	uncertainty
.1288	88.35	313.15	1.3473	.002

System: potassium chloride + water; phases: Liquid, Crystal
Property: Mass fraction of potassium chloride (Liquid); method: gravimetric
Pressure, kPa	Temperature, K	Mass fraction of potassium chloride	uncertainty
88.35	313.15	.2879	.005

System: potassium chloride + water; phases: Liquid
Property: Mass density, kg/m3 (Liquid); method: Pycnometric method
Mass fraction of potassium chloride	Pressure, kPa	Temperature, K	Mass density, kg/m3	uncertainty
.2879	88.35	313.15	1195.6	5

System: potassium chloride + water; phases: Liquid
Property: Refractive index (Na D-line) (Liquid); method: Standard Abbe refractometry
Mass fraction of potassium chloride	Pressure, kPa	Temperature, K	Refractive index (Na D-line)	uncertainty
.2879	88.35	313.15	1.3683	.002
