Measured thermophysical data. Water activity in 1-propoxypropan-2-ol aqueous mixtures at T = 298 K
Source: J. Chem. Thermodyn., 2014, 10.1016/j.jct.2014.05.010
Compound 1: 1-propoxy-2-propanol, C6H14O2, purity 99%
Compound 2: water, H2O, purity 99.9%

System: 1-propoxy-2-propanol + water; phases: Liquid
Fixed: Pressure, kPa = 100
Fixed: Temperature, K = 298.15
Property: (Relative) activity of water (Liquid); method: humidity indicator HygroLab 3 - change in electrostatic capacity
Mole fraction of 1-propoxy-2-propanol	(Relative) activity of water	uncertainty
.00997	.982	.006
.01522	.975	.006
.02537	.969	.006
.02864	.969	.006
.04293	.968	.006
.05849	.978	.006
.07245	.97	.006
.08956	.981	.006
.10248	.975	.006
.11905	.985	.006
.14778	.983	.006
.17808	.984	.006
.21038	.986	.006
.22129	.984	.006
.244	.987	.006
.25805	.983	.006
.27475	.984	.006
.28858	.984	.006
.30551	.985	.006
.33869	.983	.006
.36278	.976	.006
.3793	.972	.006
.41002	.95	.006
.43896	.94	.006
.45718	.931	.006
.48101	.915	.006
.49824	.898	.006
.51818	.891	.006
.5696	.852	.006
.59769	.818	.006
.63852	.775	.006
.67926	.721	.006
.7192	.667	.006
.75895	.612	.006
.79821	.531	.006
.83811	.441	.006
.87807	.351	.006
.91904	.253	.006
.95962	.143	.006
