Measured thermophysical data. Partial molar volumes of organic solutes in water. XXVII. Two aliphatic polyethers (triglyme, tetraglyme) at temperatures T = 298 573 K and pressures up to 30 MPa
Source: J. Chem. Thermodyn., 2016, 10.1016/j.jct.2016.05.018
Compound 1: triglyme, C8H18O4, purity 99%
Compound 2: tetraglyme, C10H22O5, purity 99.5%
Compound 3: water, H2O

System: triglyme + water; phases: Liquid
Property: Mass density, kg/m3 (Liquid); method: Vibrating tube method
Temperature, K	Pressure, kPa	Molality, mol/kg of triglyme	Mass density, kg/m3	uncertainty
298.213	570	.040713	.3586	
298.213	570	.040713	.3569	
298.213	570	.040713	.3566	
298.213	570	.091558	.8095	
298.213	570	.091558	.8091	
298.213	570	.091558	.8082	
298.213	570	.153612	1.3659	
298.213	570	.153612	1.3654	
298.213	570	.153612	1.3638	
298.213	570	.201454	1.7972	
298.213	570	.201454	1.7967	
298.213	570	.201454	1.7978	
298.213	570	.313593	2.8155	
298.213	570	.313593	2.8155	
298.213	570	.313593	2.8141	
298.213	570	.413007	3.7453	
298.213	570	.413007	3.7449	
298.213	570	.413007	3.7437	
298.216	15050	.040713	.3241	
298.216	15050	.040713	.3226	
298.216	15050	.040713	.3236	
298.216	15050	.091558	.7322	
298.216	15050	.091558	.731	
298.216	15050	.091558	.7304	
298.216	15050	.153612	1.2388	
298.216	15050	.153612	1.2376	
298.216	15050	.153612	1.2378	
298.216	15050	.201454	1.6324	
298.216	15050	.201454	1.6316	
298.216	15050	.201454	1.6309	
298.216	15050	.313593	2.567	
298.216	15050	.313593	2.5655	
298.216	15050	.313593	2.5654	
298.216	15050	.413007	3.4277	
298.216	15050	.413007	3.4264	
298.216	15050	.413007	3.4261	
298.22	30050	.040713	.2884	
298.22	30050	.040713	.2868	
298.22	30050	.040713	.2855	
298.22	30050	.091558	.6545	
298.22	30050	.091558	.6542	
298.22	30050	.091558	.6533	
298.22	30050	.153612	1.1129	
298.22	30050	.153612	1.1127	
298.22	30050	.153612	1.1099	
298.22	30050	.201454	1.4707	
298.22	30050	.201454	1.4692	
298.22	30050	.201454	1.4688	
298.22	30050	.313593	2.3225	
298.22	30050	.313593	2.3221	
298.22	30050	.313593	2.3213	
298.22	30050	.413007	3.1153	
298.22	30050	.413007	3.1148	
298.22	30050	.413007	3.1128	
318.21	570	.040713	.2894	
318.21	570	.040713	.2878	
318.21	570	.040713	.289	
318.21	570	.091558	.6476	
318.21	570	.091558	.6469	
318.21	570	.091558	.6447	
318.21	570	.153612	1.0858	
318.21	570	.153612	1.0853	
318.21	570	.153612	1.0836	
318.21	570	.201454	1.4274	
318.21	570	.201454	1.4254	
318.21	570	.201454	1.4246	
318.21	570	.313593	2.216	
318.21	570	.313593	2.2126	
318.21	570	.313593	2.2093	
318.21	570	.413007	2.9265	
318.21	570	.413007	2.923	
318.21	570	.413007	2.922	
318.222	15060	.040713	.2682	
318.222	15060	.040713	.2664	
318.222	15060	.040713	.2664	
318.222	15060	.091558	.6006	
318.222	15060	.091558	.5997	
318.222	15060	.091558	.599	
318.222	15060	.153612	1.0095	
318.222	15060	.153612	1.0085	
318.222	15060	.153612	1.0095	
318.222	15060	.201454	1.3282	
318.222	15060	.201454	1.3265	
318.222	15060	.201454	1.3239	
318.222	15060	.313593	2.0676	
318.222	15060	.313593	2.0649	
318.222	15060	.313593	2.0652	
318.222	15060	.413007	2.7406	
318.222	15060	.413007	2.7357	
318.222	15060	.413007	2.7409	
318.219	30070	.040713	.2466	
318.219	30070	.040713	.245	
318.219	30070	.040713	.2445	
318.219	30070	.091558	.5569	
318.219	30070	.091558	.5556	
318.219	30070	.091558	.5546	
318.219	30070	.153612	.9383	
318.219	30070	.153612	.9349	
318.219	30070	.153612	.934	
318.219	30070	.201454	1.235	
318.219	30070	.201454	1.2338	
318.219	30070	.201454	1.2331	
318.219	30070	.313593	1.9321	
318.219	30070	.313593	1.9284	
318.219	30070	.313593	1.9257	
318.219	30070	.413007	2.5653	
318.219	30070	.413007	2.5648	
318.219	30070	.413007	2.5618	
338.214	570	.040713	.2296	
338.214	570	.040713	.2261	
338.214	570	.040713	.2242	
338.214	570	.091558	.5029	
338.214	570	.091558	.5027	
338.214	570	.091558	.5001	
338.214	570	.153612	.8412	
338.214	570	.153612	.8371	
338.214	570	.153612	.8362	
338.214	570	.201454	1.0986	
338.214	570	.201454	1.0938	
338.214	570	.201454	1.0913	
338.214	570	.313593	1.6882	
338.214	570	.313593	1.6821	
338.214	570	.313593	1.6783	
338.214	570	.413007	2.2127	
338.214	570	.413007	2.2074	
338.214	570	.413007	2.2017	
338.21	15050	.040713	.215	
338.21	15050	.040713	.2149	
338.21	15050	.040713	.2142	
338.21	15050	.091558	.4816	
338.21	15050	.091558	.4803	
338.21	15050	.091558	.4764	
338.21	15050	.153612	.8022	
338.21	15050	.153612	.8008	
338.21	15050	.153612	.7995	
338.21	15050	.201454	1.0486	
338.21	15050	.201454	1.0473	
338.21	15050	.201454	1.0451	
338.21	15050	.313593	1.6177	
338.21	15050	.313593	1.6152	
338.21	15050	.313593	1.6121	
338.21	15050	.413007	2.127	
338.21	15050	.413007	2.1231	
338.21	15050	.413007	2.1198	
338.204	30010	.040713	.2042	
338.204	30010	.040713	.2036	
338.204	30010	.040713	.2019	
338.204	30010	.091558	.459	
338.204	30010	.091558	.4558	
338.204	30010	.091558	.4539	
338.204	30010	.153612	.7644	
338.204	30010	.153612	.7637	
338.204	30010	.153612	.7608	
338.204	30010	.201454	1.0004	
338.204	30010	.201454	.9978	
338.204	30010	.201454	.9969	
338.204	30010	.313593	1.5479	
338.204	30010	.313593	1.5442	
338.204	30010	.313593	1.5426	
338.204	30010	.413007	2.038	
338.204	30010	.413007	2.0352	
338.204	30010	.413007	2.0336	
358.235	560	.040713	.1668	
358.235	560	.040713	.1649	
358.235	560	.040713	.1624	
358.235	560	.091558	.3668	
358.235	560	.091558	.3629	
358.235	560	.091558	.3626	
358.235	560	.153612	.6064	
358.235	560	.153612	.6027	
358.235	560	.153612	.6008	
358.235	560	.201454	.7839	
358.235	560	.201454	.783	
358.235	560	.201454	.779	
358.235	560	.313593	1.1932	
358.235	560	.313593	1.1908	
358.235	560	.313593	1.185	
358.235	560	.413007	1.5508	
358.235	560	.413007	1.5427	
358.235	560	.413007	1.5401	
358.224	15250	.042062	.1682	
358.224	15250	.042062	.1678	
358.224	15250	.042062	.166	
358.224	15250	.094655	.3742	
358.224	15250	.094655	.3721	
358.224	15250	.094655	.3709	
358.224	15250	.14894	.5827	
358.224	15250	.14894	.5808	
358.224	15250	.14894	.5792	
358.224	15250	.209313	.8062	
358.224	15250	.209313	.804	
358.224	15250	.209313	.8039	
358.224	15250	.302709	1.1478	
358.224	15250	.302709	1.1448	
358.224	15250	.302709	1.1441	
358.224	15250	.384726	1.4361	
358.224	15250	.384726	1.4318	
358.224	15250	.384726	1.4316	
358.222	30280	.040713	.1599	
358.222	30280	.040713	.1599	
358.222	30280	.040713	.1627	
358.222	30280	.091558	.3574	
358.222	30280	.091558	.3554	
358.222	30280	.091558	.3556	
358.222	30280	.153612	.5915	
358.222	30280	.153612	.5904	
358.222	30280	.153612	.5895	
358.222	30280	.201454	.7732	
358.222	30280	.201454	.7706	
358.222	30280	.201454	.7694	
358.222	30280	.313593	1.1795	
358.222	30280	.313593	1.1763	
358.222	30280	.313593	1.1753	
358.222	30280	.413007	1.5423	
358.222	30280	.413007	1.5388	
358.222	30280	.413007	1.5361	
373.197	570	.042062	.131	
373.197	570	.042062	.1236	
373.197	570	.042062	.1206	
373.197	570	.094655	.2804	
373.197	570	.094655	.2755	
373.197	570	.094655	.2725	
373.197	570	.14894	.4258	
373.197	570	.14894	.4244	
373.197	570	.14894	.4193	
373.197	570	.209313	.5782	
373.197	570	.209313	.5718	
373.197	570	.209313	.5748	
373.197	570	.302709	.8189	
373.197	570	.302709	.8111	
373.197	570	.302709	.8062	
373.197	570	.384726	1.0055	
373.197	570	.384726	1.0015	
373.197	570	.384726	.9945	
373.209	15270	.042062	.1294	
373.209	15270	.042062	.1287	
373.209	15270	.042062	.1301	
373.209	15270	.094655	.2837	
373.209	15270	.094655	.2817	
373.209	15270	.094655	.2807	
373.209	15270	.14894	.4339	
373.209	15270	.14894	.4387	
373.209	15270	.14894	.4296	
373.209	15270	.209313	.6038	
373.209	15270	.209313	.5994	
373.209	15270	.209313	.597	
373.209	15270	.302709	.8534	
373.209	15270	.302709	.8459	
373.209	15270	.302709	.8453	
373.209	15270	.384726	1.054	
373.209	15270	.384726	1.0484	
373.209	15270	.384726	1.0437	
373.21	30140	.042062	.1317	
373.21	30140	.042062	.1304	
373.21	30140	.042062	.1295	
373.21	30140	.094655	.2899	
373.21	30140	.094655	.2873	
373.21	30140	.094655	.2877	
373.21	30140	.14894	.4476	
373.21	30140	.14894	.4454	
373.21	30140	.14894	.4435	
373.21	30140	.209313	.6175	
373.21	30140	.209313	.6145	
373.21	30140	.209313	.6123	
373.21	30140	.302709	.8769	
373.21	30140	.302709	.8737	
373.21	30140	.302709	.8682	
373.21	30140	.384726	1.0886	
373.21	30140	.384726	1.0853	
373.21	30140	.384726	1.0828	
398.235	2140	.042062	.0522	
398.235	2140	.042062	.0507	
398.235	2140	.042062	.0513	
398.235	2140	.094655	.1055	
398.235	2140	.094655	.103	
398.235	2140	.094655	.1033	
398.235	2140	.14894	.1517	
398.235	2140	.14894	.1497	
398.235	2140	.14894	.1506	
398.235	2140	.209313	.1968	
398.235	2140	.209313	.1957	
398.235	2140	.209313	.1926	
398.235	2140	.302709	.2648	
398.235	2140	.302709	.2589	
398.235	2140	.302709	.2584	
398.235	2140	.384726	.3026	
398.235	2140	.384726	.299	
398.235	2140	.384726	.2979	
398.228	15100	.042062	.0608	
398.228	15100	.042062	.0603	
398.228	15100	.042062	.0587	
398.228	15100	.094655	.1297	
398.228	15100	.094655	.1275	
398.228	15100	.094655	.1256	
398.228	15100	.14894	.1888	
398.228	15100	.14894	.1881	
398.228	15100	.14894	.1849	
398.228	15100	.209313	.2541	
398.228	15100	.209313	.2515	
398.228	15100	.209313	.2507	
398.228	15100	.302709	.3485	
398.228	15100	.302709	.3462	
398.228	15100	.302709	.3449	
398.228	15100	.384726	.4144	
398.228	15100	.384726	.4111	
398.228	15100	.384726	.4099	
398.229	30120	.042062	.0746	
398.229	30120	.042062	.0726	
398.229	30120	.042062	.0716	
398.229	30120	.094655	.1589	
398.229	30120	.094655	.1564	
398.229	30120	.094655	.158	
398.229	30120	.14894	.2361	
398.229	30120	.14894	.2346	
398.229	30120	.14894	.2332	
398.229	30120	.209313	.3208	
398.229	30120	.209313	.3181	
398.229	30120	.209313	.3184	
398.229	30120	.302709	.4453	
398.229	30120	.302709	.4452	
398.229	30120	.302709	.4444	
398.229	30120	.384726	.5464	
398.229	30120	.384726	.5401	
398.229	30120	.384726	.5359	
423.119	1960	.042062	-.0243	
423.119	1960	.042062	-.0236	
423.119	1960	.042062	-.0242	
423.119	1960	.094655	-.0708	
423.119	1960	.094655	-.0695	
423.119	1960	.094655	-.0657	
423.119	1960	.14894	-.1236	
423.119	1960	.14894	-.1262	
423.119	1960	.14894	-.1251	
423.119	1960	.209313	-.1862	
423.119	1960	.209313	-.1863	
423.119	1960	.209313	-.1873	
423.119	1960	.302709	-.2863	
423.119	1960	.302709	-.2883	
423.119	1960	.302709	-.2888	
423.119	1960	.384726	-.3945	
423.119	1960	.384726	-.3966	
423.119	1960	.384726	-.398	
423.122	15070	.042062	-.0022	
423.122	15070	.042062	-.0053	
423.122	15070	.042062	-.0036	
423.122	15070	.094655	-.0168	
423.122	15070	.094655	-.0218	
423.122	15070	.094655	-.0248	
423.122	15070	.14894	-.0417	
423.122	15070	.14894	-.0445	
423.122	15070	.14894	-.0438	
423.122	15070	.209313	-.0696	
423.122	15070	.209313	-.0761	
423.122	15070	.209313	-.0757	
423.122	15070	.302709	-.1222	
423.122	15070	.302709	-.1242	
423.122	15070	.302709	-.1268	
423.122	15070	.384726	-.1831	
423.122	15070	.384726	-.1858	
423.122	15070	.384726	-.1851	
423.126	30000	.042062	.017	
423.126	30000	.042062	.0153	
423.126	30000	.042062	.0132	
423.126	30000	.094655	.0255	
423.126	30000	.094655	.0235	
423.126	30000	.094655	.0205	
423.126	30000	.14894	.0305	
423.126	30000	.14894	.0295	
423.126	30000	.14894	.0269	
423.126	30000	.209313	.0321	
423.126	30000	.209313	.0289	
423.126	30000	.209313	.0274	
423.126	30000	.302709	.0286	
423.126	30000	.302709	.0279	
423.126	30000	.302709	.0236	
423.126	30000	.384726	.012	
423.126	30000	.384726	.013	
423.126	30000	.384726	.0116	
448.15	2000	.042062	-.1027	
448.15	2000	.042062	-.1015	
448.15	2000	.042062	-.1014	
448.15	2000	.094655	-.2453	
448.15	2000	.094655	-.2486	
448.15	2000	.094655	-.2479	
448.15	2000	.14894	-.4027	
448.15	2000	.14894	-.4012	
448.15	2000	.14894	-.3998	
448.15	2000	.209313	-.5724	
448.15	2000	.209313	-.5722	
448.15	2000	.209313	-.5738	
448.15	2000	.302709	-.8425	
448.15	2000	.302709	-.8438	
448.15	2000	.302709	-.8456	
448.15	2000	.384726	-1.0997	
448.15	2000	.384726	-1.0948	
448.15	2000	.384726	-1.091	
448.148	15220	.037738	-.0611	
448.148	15220	.037738	-.0628	
448.148	15220	.037738	-.0605	
448.148	15220	.094655	-.1665	
448.148	15220	.094655	-.1683	
448.148	15220	.094655	-.1702	
448.148	15220	.151323	-.2821	
448.148	15220	.151323	-.2813	
448.148	15220	.151323	-.279	
448.148	15220	.20195	-.3863	
448.148	15220	.20195	-.3834	
448.148	15220	.20195	-.3844	
448.148	15220	.302709	-.5964	
448.148	15220	.302709	-.5945	
448.148	15220	.302709	-.5932	
448.148	15220	.384726	-.7731	
448.148	15220	.384726	-.7684	
448.148	15220	.384726	-.769	
448.151	30010	.042062	-.0367	
448.151	30010	.042062	-.038	
448.151	30010	.042062	-.0382	
448.151	30010	.094655	-.0982	
448.151	30010	.094655	-.0994	
448.151	30010	.094655	-.1044	
448.151	30010	.14894	-.1664	
448.151	30010	.14894	-.1672	
448.151	30010	.14894	-.1677	
448.151	30010	.209313	-.2431	
448.151	30010	.209313	-.2446	
448.151	30010	.209313	-.2423	
448.151	30010	.302709	-.3673	
448.151	30010	.302709	-.3664	
448.151	30010	.302709	-.3689	
448.151	30010	.384726	-.4847	
448.151	30010	.384726	-.483	
448.151	30010	.384726	-.482	
473.169	2050	.037738	-.1705	
473.169	2050	.037738	-.1696	
473.169	2050	.037738	-.1684	
473.169	2050	.090011	-.4128	
473.169	2050	.090011	-.4143	
473.169	2050	.090011	-.4149	
473.169	2050	.151323	-.7016	
473.169	2050	.151323	-.7039	
473.169	2050	.151323	-.7038	
473.169	2050	.20195	-.9434	
473.169	2050	.20195	-.9441	
473.169	2050	.20195	-.9452	
473.169	2050	.302304	-1.4239	
473.169	2050	.302304	-1.4241	
473.169	2050	.302304	-1.4262	
473.169	2050	.401622	-1.9008	
473.169	2050	.401622	-1.9014	
473.169	2050	.401622	-1.9018	
476.167	15190	.037738	-.1246	
476.167	15190	.037738	-.1238	
476.167	15190	.037738	-.1254	
476.167	15190	.090011	-.3068	
476.167	15190	.090011	-.3096	
476.167	15190	.090011	-.3091	
476.167	15190	.151323	-.5234	
476.167	15190	.151323	-.525	
476.167	15190	.151323	-.5262	
476.167	15190	.20195	-.7058	
476.167	15190	.20195	-.7065	
476.167	15190	.20195	-.7057	
476.167	15190	.302304	-1.0634	
476.167	15190	.302304	-1.0666	
476.167	15190	.302304	-1.067	
476.167	15190	.401622	-1.4241	
476.167	15190	.401622	-1.425	
476.167	15190	.401622	-1.4265	
473.172	29950	.037738	-.0828	
473.172	29950	.037738	-.0848	
473.172	29950	.037738	-.0818	
473.172	29950	.090011	-.2123	
473.172	29950	.090011	-.2132	
473.172	29950	.090011	-.2149	
473.172	29950	.151323	-.3645	
473.172	29950	.151323	-.365	
473.172	29950	.151323	-.366	
473.172	29950	.20195	-.4922	
473.172	29950	.20195	-.4925	
473.172	29950	.20195	-.4946	
473.172	29950	.302304	-.7491	
473.172	29950	.302304	-.7505	
473.172	29950	.302304	-.7502	
473.172	29950	.401622	-1.0036	
473.172	29950	.401622	-1.0057	
473.172	29950	.401622	-1.0065	
498.137	2970	.037738	-.2512	
498.137	2970	.037738	-.2408	
498.137	2970	.037738	-.2448	
498.137	2970	.090011	-.5937	
498.137	2970	.090011	-.5913	
498.137	2970	.090011	-.5934	
498.137	2970	.151323	-1.0054	
498.137	2970	.151323	-1.0047	
498.137	2970	.151323	-1.005	
498.137	2970	.20195	-1.3406	
498.137	2970	.20195	-1.3398	
498.137	2970	.20195	-1.3493	
498.137	2970	.302304	-2.0115	
498.137	2970	.302304	-2.0172	
498.137	2970	.302304	-2.0129	
498.137	2970	.401622	-2.6653	
498.137	2970	.401622	-2.6627	
498.137	2970	.401622	-2.6671	
498.128	15200	.037738	-.1807	
498.128	15200	.037738	-.1863	
498.128	15200	.037738	-.1886	
498.128	15200	.090011	-.4529	
498.128	15200	.090011	-.4535	
498.128	15200	.090011	-.4555	
498.128	15200	.151323	-.7722	
498.128	15200	.151323	-.7681	
498.128	15200	.151323	-.7743	
498.128	15200	.20195	-1.0291	
498.128	15200	.20195	-1.0258	
498.128	15200	.20195	-1.0317	
498.128	15200	.302304	-1.5435	
498.128	15200	.302304	-1.5395	
498.128	15200	.302304	-1.5489	
498.128	15200	.401622	-2.0388	
498.128	15200	.401622	-2.0399	
498.128	15200	.401622	-2.0353	
498.134	30040	.037738	-.1291	
498.134	30040	.037738	-.1263	
498.134	30040	.037738	-.1275	
498.134	30040	.090011	-.3264	
498.134	30040	.090011	-.3239	
498.134	30040	.090011	-.3132	
498.134	30040	.151323	-.5523	
498.134	30040	.151323	-.5519	
498.134	30040	.151323	-.5498	
498.134	30040	.20195	-.7361	
498.134	30040	.20195	-.7318	
498.134	30040	.20195	-.7363	
498.134	30040	.302304	-1.0984	
498.134	30040	.302304	-1.1041	
498.134	30040	.302304	-1.1067	
498.134	30040	.401622	-1.4533	
498.134	30040	.401622	-1.4683	
498.134	30040	.401622	-1.467	
523.14	5100	.037738	-.3264	
523.14	5100	.037738	-.3279	
523.14	5100	.037738	-.3316	
523.14	5100	.090011	-.7904	
523.14	5100	.090011	-.7899	
523.14	5100	.090011	-.7939	
523.14	5100	.151323	-1.3263	
523.14	5100	.151323	-1.3292	
523.14	5100	.151323	-1.3353	
523.14	5100	.20195	-1.7646	
523.14	5100	.20195	-1.768	
523.14	5100	.20195	-1.7698	
523.14	5100	.302304	-2.6338	
523.14	5100	.302304	-2.6361	
523.14	5100	.302304	-2.6397	
523.14	5100	.401622	-3.4655	
523.14	5100	.401622	-3.466	
523.14	5100	.401622	-3.4711	
523.15	15130	.037738	-.2582	
523.15	15130	.037738	-.2556	
523.15	15130	.037738	-.2562	
523.15	15130	.090011	-.6176	
523.15	15130	.090011	-.6191	
523.15	15130	.090011	-.6208	
523.15	15130	.151323	-1.0416	
523.15	15130	.151323	-1.0422	
523.15	15130	.151323	-1.0407	
523.15	15130	.20195	-1.3823	
523.15	15130	.20195	-1.3868	
523.15	15130	.20195	-1.3849	
523.15	15130	.302304	-2.0681	
523.15	15130	.302304	-2.0661	
523.15	15130	.302304	-2.0721	
523.15	15130	.401622	-2.7164	
523.15	15130	.401622	-2.7205	
523.15	15130	.401622	-2.7198	
523.147	30090	.037738	-.1791	
523.147	30090	.037738	-.1793	
523.147	30090	.037738	-.1858	
523.147	30090	.090011	-.4392	
523.147	30090	.090011	-.4352	
523.147	30090	.090011	-.4442	
523.147	30090	.151323	-.7378	
523.147	30090	.151323	-.7346	
523.147	30090	.151323	-.738	
523.147	30090	.20195	-.9783	
523.147	30090	.20195	-.9803	
523.147	30090	.20195	-.9866	
523.147	30090	.302304	-1.4593	
523.147	30090	.302304	-1.4606	
523.147	30090	.302304	-1.4625	
523.147	30090	.401622	-1.9129	
523.147	30090	.401622	-1.9192	
523.147	30090	.401622	-1.9218	
548.257	7140	.037738	-.4286	
548.257	7140	.037738	-.4351	
548.257	7140	.037738	-.4336	
548.257	7140	.090011	-1.0314	
548.257	7140	.090011	-1.0306	
548.257	7140	.090011	-1.0345	
548.257	7140	.151323	-1.7227	
548.257	7140	.151323	-1.7259	
548.257	7140	.151323	-1.7236	
548.257	7140	.20195	-2.2865	
548.257	7140	.20195	-2.2884	
548.257	7140	.20195	-2.2908	
548.257	7140	.302304	-3.3958	
548.257	7140	.302304	-3.3986	
548.257	7140	.302304	-3.3959	
548.257	7140	.401622	-4.452	
548.257	7140	.401622	-4.4521	
548.257	7140	.401622	-4.4554	
548.281	15170	.040265	-.3696	
548.281	15170	.040265	-.369	
548.281	15170	.040265	-.3716	
548.281	15170	.090011	-.8216	
548.281	15170	.090011	-.8272	
548.281	15170	.090011	-.8213	
548.281	15170	.16841	-1.5332	
548.281	15170	.16841	-1.5373	
548.281	15170	.16841	-1.5378	
548.281	15170	.219487	-1.9853	
548.281	15170	.219487	-1.9949	
548.281	15170	.219487	-1.9931	
548.281	15170	.302304	-2.6986	
548.281	15170	.302304	-2.7027	
548.281	15170	.302304	-2.7039	
548.281	15170	.401622	-3.5325	
548.281	15170	.401622	-3.5346	
548.281	15170	.401622	-3.535	
548.281	30120	.037738	-.2312	
548.281	30120	.037738	-.2324	
548.281	30120	.037738	-.2341	
548.281	30120	.090011	-.5548	
548.281	30120	.090011	-.5532	
548.281	30120	.090011	-.554	
548.281	30120	.151323	-.9277	
548.281	30120	.151323	-.93	
548.281	30120	.151323	-.9304	
548.281	30120	.20195	-1.2292	
548.281	30120	.20195	-1.2302	
548.281	30120	.20195	-1.2297	
548.281	30120	.302304	-1.8175	
548.281	30120	.302304	-1.8174	
548.281	30120	.302304	-1.8213	
548.281	30120	.401622	-2.3732	
548.281	30120	.401622	-2.3712	
548.281	30120	.401622	-2.3772	
573.148	9870	.103043	-1.5334	
573.148	9870	.103043	-1.5556	
573.148	9870	.103043	-1.5501	
573.148	9870	.16841	-2.5009	
573.148	9870	.16841	-2.542	
573.148	9870	.16841	-2.5258	
573.148	9870	.219487	-3.2524	
573.148	9870	.219487	-3.2306	
573.148	9870	.219487	-3.2411	
573.148	9870	.342272	-4.9198	
573.148	9870	.342272	-4.9183	
573.148	9870	.342272	-4.9207	
573.148	9870	.427725	-6.0784	
573.148	9870	.427725	-6.1255	
573.148	9870	.427725	-6.095	
573.15	15160	.040265	-.4968	
573.15	15160	.040265	-.4922	
573.15	15160	.103043	-1.2405	
573.15	15160	.103043	-1.2614	
573.15	15160	.103043	-1.2613	
573.15	15160	.16841	-2.0449	
573.15	15160	.16841	-2.0578	
573.15	15160	.16841	-2.063	
573.15	15160	.219487	-2.6717	
573.15	15160	.219487	-2.6558	
573.15	15160	.219487	-2.6633	
573.15	15160	.342272	-4.0102	
573.15	15160	.342272	-4.007	
573.15	15160	.342272	-4.0016	
573.15	15160	.427725	-4.9449	
573.15	15160	.427725	-4.944	
573.15	15160	.427725	-4.9485	
573.148	23440	.040265	-.3827	
573.148	23440	.040265	-.3783	
573.148	23440	.040265	-.3745	
573.148	23440	.103043	-.9696	
573.148	23440	.103043	-.9642	
573.148	23440	.103043	-.967	
573.148	23440	.16841	-1.5684	
573.148	23440	.16841	-1.5641	
573.148	23440	.16841	-1.564	
573.148	23440	.219487	-2.025	
573.148	23440	.219487	-2.0234	
573.148	23440	.219487	-2.0278	
573.148	23440	.342272	-3.0303	
573.148	23440	.342272	-3.0311	
573.148	23440	.342272	-3.0286	
573.148	23440	.427725	-3.7338	
573.148	23440	.427725	-3.7328	
573.148	23440	.427725	-3.7301	
573.145	30250	.040265	-.3081	
573.145	30250	.040265	-.3094	
573.145	30250	.103043	-.7971	
573.145	30250	.103043	-.7826	
573.145	30250	.103043	-.783	
573.145	30250	.16841	-1.2558	
573.145	30250	.16841	-1.2753	
573.145	30250	.16841	-1.2762	
573.145	30250	.219487	-1.6476	
573.145	30250	.219487	-1.6467	
573.145	30250	.219487	-1.6475	
573.145	30250	.342272	-2.4476	
573.145	30250	.342272	-2.4532	
573.145	30250	.342272	-2.4539	
573.145	30250	.427725	-3.0148	
573.145	30250	.427725	-3.0189	
573.145	30250	.427725	-3.0164	

System: tetraglyme + water; phases: Liquid
Property: Mass density, kg/m3 (Liquid); method: Vibrating tube method
Temperature, K	Pressure, kPa	Molality, mol/kg of tetraglyme	Mass density, kg/m3	uncertainty
298.213	570	.050095	.8013	
298.213	570	.050095	.8017	
298.213	570	.050095	.8032	
298.213	570	.10088	1.6142	
298.213	570	.10088	1.6143	
298.213	570	.10088	1.6132	
298.213	570	.201838	3.222	
298.213	570	.201838	3.2232	
298.213	570	.201838	3.2236	
298.213	570	.299815	4.7672	
298.213	570	.299815	4.7664	
298.213	570	.299815	4.7668	
298.213	570	.396415	6.2674	
298.213	570	.396415	6.2668	
298.213	570	.396415	6.2669	
298.217	15040	.050095	.7507	
298.217	15040	.050095	.7499	
298.217	15040	.050095	.7492	
298.217	15040	.10088	1.5115	
298.217	15040	.10088	1.5108	
298.217	15040	.10088	1.5098	
298.217	15040	.201838	3.0245	
298.217	15040	.201838	3.0231	
298.217	15040	.201838	3.0232	
298.217	15040	.299815	4.4826	
298.217	15040	.299815	4.4801	
298.217	15040	.299815	4.4813	
298.217	15040	.396415	5.9041	
298.217	15040	.396415	5.9034	
298.217	15040	.396415	5.9038	
298.221	30050	.050095	.6987	
298.221	30050	.050095	.6983	
298.221	30050	.050095	.6971	
298.221	30050	.10088	1.4085	
298.221	30050	.10088	1.4092	
298.221	30050	.10088	1.4086	
298.221	30050	.201838	2.8269	
298.221	30050	.201838	2.8263	
298.221	30050	.201838	2.8248	
298.221	30050	.299815	4.2019	
298.221	30050	.299815	4.2014	
298.221	30050	.299815	4.2004	
298.221	30050	.396415	5.5446	
298.221	30050	.396415	5.5443	
298.221	30050	.396415	5.5423	
318.209	570	.050095	.6902	
318.209	570	.050095	.6892	
318.209	570	.050095	.6893	
318.209	570	.10088	1.3834	
318.209	570	.10088	1.3831	
318.209	570	.10088	1.3819	
318.209	570	.201838	2.7422	
318.209	570	.201838	2.7423	
318.209	570	.201838	2.7402	
318.209	570	.299815	4.0357	
318.209	570	.299815	4.0347	
318.209	570	.299815	4.0335	
318.209	570	.396415	5.2773	
318.209	570	.396415	5.2767	
318.209	570	.396415	5.2744	
318.222	15060	.050095	.6597	
318.222	15060	.050095	.6598	
318.222	15060	.050095	.6597	
318.222	15060	.10088	1.3224	
318.222	15060	.10088	1.3214	
318.222	15060	.10088	1.3218	
318.222	15060	.201838	2.6265	
318.222	15060	.201838	2.6276	
318.222	15060	.201838	2.6262	
318.222	15060	.299815	3.8716	
318.222	15060	.299815	3.8723	
318.222	15060	.299815	3.8697	
318.222	15060	.396415	5.0689	
318.222	15060	.396415	5.0704	
318.222	15060	.396415	5.0665	
318.219	30070	.050095	.6282	
318.219	30070	.050095	.6274	
318.219	30070	.050095	.6271	
318.219	30070	.10088	1.261	
318.219	30070	.10088	1.2604	
318.219	30070	.10088	1.2598	
318.219	30070	.201838	2.5094	
318.219	30070	.201838	2.5098	
318.219	30070	.201838	2.5079	
318.219	30070	.299815	3.7043	
318.219	30070	.299815	3.7065	
318.219	30070	.299815	3.704	
318.219	30070	.396415	4.8609	
318.219	30070	.396415	4.8593	
318.219	30070	.396415	4.8592	
338.214	570	.050095	.5928	
338.214	570	.050095	.5926	
338.214	570	.050095	.5914	
338.214	570	.10088	1.1863	
338.214	570	.10088	1.1839	
338.214	570	.10088	1.1846	
338.214	570	.201838	2.3336	
338.214	570	.201838	2.3322	
338.214	570	.201838	2.3316	
338.214	570	.299815	3.4135	
338.214	570	.299815	3.4125	
338.214	570	.299815	3.4117	
338.214	570	.396415	4.44	
338.214	570	.396415	4.4379	
338.214	570	.396415	4.4389	
338.21	15050	.050095	.578	
338.21	15050	.050095	.5772	
338.21	15050	.050095	.5775	
338.21	15050	.10088	1.1549	
338.21	15050	.10088	1.1534	
338.21	15050	.10088	1.1532	
338.21	15050	.201838	2.2768	
338.21	15050	.201838	2.2765	
338.21	15050	.201838	2.276	
338.21	15050	.299815	3.3337	
338.21	15050	.299815	3.3358	
338.21	15050	.299815	3.3348	
338.21	15050	.396415	4.346	
338.21	15050	.396415	4.345	
338.21	15050	.396415	4.3444	
338.204	30010	.050095	.5576	
338.204	30010	.050095	.5609	
338.204	30010	.050095	.5585	
338.204	30010	.10088	1.1239	
338.204	30010	.10088	1.1209	
338.204	30010	.10088	1.122	
338.204	30010	.201838	2.2166	
338.204	30010	.201838	2.2167	
338.204	30010	.201838	2.2148	
338.204	30010	.299815	3.2539	
338.204	30010	.299815	3.2531	
338.204	30010	.299815	3.2514	
338.204	30010	.396415	4.2417	
338.204	30010	.396415	4.2416	
338.204	30010	.396415	4.2409	
358.234	560	.050095	.5022	
358.234	560	.050095	.5046	
358.234	560	.050095	.5043	
358.234	560	.10088	1.0003	
358.234	560	.10088	.9989	
358.234	560	.10088	.9998	
358.234	560	.201838	1.9545	
358.234	560	.201838	1.9548	
358.234	560	.201838	1.9564	
358.234	560	.299815	2.8478	
358.234	560	.299815	2.8494	
358.234	560	.299815	2.8487	
358.234	560	.396415	3.6826	
358.234	560	.396415	3.6831	
358.234	560	.396415	3.6822	
358.225	15260	.055209	.55	
358.225	15260	.055209	.5484	
358.225	15260	.055209	.5465	
358.225	15260	.101983	1.0051	
358.225	15260	.101983	1.0029	
358.225	15260	.101983	1.0039	
358.225	15260	.191471	1.8525	
358.225	15260	.191471	1.849	
358.225	15260	.191471	1.8505	
358.225	15260	.303489	2.8705	
358.225	15260	.303489	2.8696	
358.225	15260	.303489	2.8658	
358.225	15260	.411575	3.8069	
358.225	15260	.411575	3.807	
358.225	15260	.411575	3.8034	
358.222	30290	.050095	.4956	
358.222	30290	.050095	.4931	
358.222	30290	.050095	.4958	
358.222	30290	.10088	.9841	
358.222	30290	.10088	.9863	
358.222	30290	.10088	.9863	
358.222	30290	.201838	1.9326	
358.222	30290	.201838	1.9311	
358.222	30290	.201838	1.9342	
358.222	30290	.299815	2.8241	
358.222	30290	.299815	2.8251	
358.222	30290	.299815	2.8196	
358.222	30290	.396415	3.6606	
358.222	30290	.396415	3.6628	
358.222	30290	.396415	3.6608	
373.197	570	.055209	.4807	
373.197	570	.055209	.4784	
373.197	570	.055209	.4752	
373.197	570	.101983	.8748	
373.197	570	.101983	.8706	
373.197	570	.101983	.8724	
373.197	570	.191471	1.6053	
373.197	570	.191471	1.6035	
373.197	570	.191471	1.6023	
373.197	570	.303489	2.4736	
373.197	570	.303489	2.468	
373.197	570	.303489	2.4747	
373.197	570	.411575	3.2528	
373.197	570	.411575	3.254	
373.197	570	.411575	3.2536	
373.211	15270	.055209	.4798	
373.211	15270	.055209	.4861	
373.211	15270	.055209	.4857	
373.211	15270	.101983	.8852	
373.211	15270	.101983	.8842	
373.211	15270	.101983	.8822	
373.211	15270	.191471	1.6296	
373.211	15270	.191471	1.6282	
373.211	15270	.191471	1.6283	
373.211	15270	.303489	2.5126	
373.211	15270	.303489	2.5035	
373.211	15270	.303489	2.5049	
373.211	15270	.411575	3.3117	
373.211	15270	.411575	3.3163	
373.211	15270	.411575	3.3141	
373.21	30140	.055209	.4906	
373.21	30140	.055209	.4883	
373.21	30140	.055209	.483	
373.21	30140	.101983	.8911	
373.21	30140	.101983	.888	
373.21	30140	.101983	.8886	
373.21	30140	.191471	1.6407	
373.21	30140	.191471	1.6391	
373.21	30140	.191471	1.6378	
373.21	30140	.303489	2.5365	
373.21	30140	.303489	2.5342	
373.21	30140	.303489	2.5362	
373.21	30140	.411575	3.3559	
373.21	30140	.411575	3.3557	
373.21	30140	.411575	3.3503	
398.233	2130	.055209	.3621	
398.233	2130	.055209	.3646	
398.233	2130	.055209	.3638	
398.233	2130	.101983	.6563	
398.233	2130	.101983	.6575	
398.233	2130	.101983	.655	
398.233	2130	.191471	1.1984	
398.233	2130	.191471	1.1974	
398.233	2130	.191471	1.1989	
398.233	2130	.303489	1.8258	
398.233	2130	.303489	1.8267	
398.233	2130	.303489	1.8244	
398.233	2130	.411575	2.3846	
398.233	2130	.411575	2.384	
398.233	2130	.411575	2.3817	
398.227	15100	.055209	.3792	
398.227	15100	.055209	.3797	
398.227	15100	.055209	.379	
398.227	15100	.101983	.6902	
398.227	15100	.101983	.6884	
398.227	15100	.101983	.6882	
398.227	15100	.191471	1.2592	
398.227	15100	.191471	1.2594	
398.227	15100	.191471	1.2593	
398.227	15100	.303489	1.929	
398.227	15100	.303489	1.9263	
398.227	15100	.303489	1.9242	
398.227	15100	.411575	2.5274	
398.227	15100	.411575	2.5268	
398.227	15100	.411575	2.5256	
398.23	30130	.055209	.395	
398.23	30130	.055209	.3951	
398.23	30130	.055209	.3932	
398.23	30130	.101983	.7187	
398.23	30130	.101983	.7183	
398.23	30130	.101983	.7165	
398.23	30130	.191471	1.3189	
398.23	30130	.191471	1.3198	
398.23	30130	.191471	1.3186	
398.23	30130	.303489	2.028	
398.23	30130	.303489	2.0235	
398.23	30130	.303489	2.0209	
398.23	30130	.411575	2.6637	
398.23	30130	.411575	2.6608	
398.23	30130	.411575	2.662	
423.121	1960	.055209	.2498	
423.121	1960	.055209	.2496	
423.121	1960	.055209	.2508	
423.121	1960	.101983	.4468	
423.121	1960	.101983	.443	
423.121	1960	.101983	.4445	
423.121	1960	.191471	.8025	
423.121	1960	.191471	.7992	
423.121	1960	.191471	.7995	
423.121	1960	.303489	1.2016	
423.121	1960	.303489	1.1997	
423.121	1960	.303489	1.1981	
423.121	1960	.411575	1.5456	
423.121	1960	.411575	1.5398	
423.121	1960	.411575	1.5401	
423.123	15080	.055209	.2791	
423.123	15080	.055209	.2796	
423.123	15080	.055209	.2782	
423.123	15080	.101983	.5051	
423.123	15080	.101983	.5035	
423.123	15080	.101983	.5032	
423.123	15080	.191471	.9136	
423.123	15080	.191471	.9114	
423.123	15080	.191471	.9118	
423.123	15080	.303489	1.3817	
423.123	15080	.303489	1.3777	
423.123	15080	.303489	1.3783	
423.123	15080	.411575	1.7888	
423.123	15080	.411575	1.7903	
423.123	15080	.411575	1.7889	
423.127	30000	.055209	.3059	
423.127	30000	.055209	.3076	
423.127	30000	.055209	.3048	
423.127	30000	.101983	.5595	
423.127	30000	.101983	.5586	
423.127	30000	.101983	.5588	
423.127	30000	.191471	1.0186	
423.127	30000	.191471	1.0168	
423.127	30000	.191471	1.0152	
423.127	30000	.303489	1.5471	
423.127	30000	.303489	1.5472	
423.127	30000	.303489	1.5463	
423.127	30000	.411575	2.02	
423.127	30000	.411575	2.0182	
423.127	30000	.411575	2.0166	
448.151	2000	.055209	.1375	
448.151	2000	.055209	.1381	
448.151	2000	.055209	.1385	
448.151	2000	.101983	.2343	
448.151	2000	.101983	.232	
448.151	2000	.101983	.231	
448.151	2000	.191471	.4049	
448.151	2000	.191471	.4051	
448.151	2000	.191471	.4045	
448.151	2000	.303489	.583	
448.151	2000	.303489	.5811	
448.151	2000	.303489	.5825	
448.151	2000	.411575	.7194	
448.151	2000	.411575	.7178	
448.151	2000	.411575	.7158	
448.149	15220	.052493	.1822	
448.149	15220	.052493	.1799	
448.149	15220	.052493	.1801	
448.149	15220	.103216	.3295	
448.149	15220	.103216	.331	
448.149	15220	.103216	.3287	
448.149	15220	.191471	.5794	
448.149	15220	.191471	.577	
448.149	15220	.191471	.5751	
448.149	15220	.303489	.8552	
448.149	15220	.303489	.8545	
448.149	15220	.303489	.8543	
448.149	15220	.411575	1.0912	
448.149	15220	.411575	1.0885	
448.149	15220	.411575	1.0893	
448.152	30020	.055209	.2298	
448.152	30020	.055209	.2284	
448.152	30020	.055209	.2261	
448.152	30020	.101983	.4068	
448.152	30020	.101983	.4067	
448.152	30020	.101983	.4055	
448.152	30020	.191471	.7356	
448.152	30020	.191471	.7301	
448.152	30020	.191471	.7314	
448.152	30020	.303489	1.1031	
448.152	30020	.303489	1.1039	
448.152	30020	.303489	1.1	
448.152	30020	.411575	1.4307	
448.152	30020	.411575	1.427	
448.152	30020	.411575	1.4241	
473.17	2050	.052493	.0208	
473.17	2050	.052493	.0184	
473.17	2050	.052493	.0144	
473.17	2050	.103216	.0198	
473.17	2050	.103216	.0173	
473.17	2050	.103216	.0135	
473.17	2050	.19509	.0098	
473.17	2050	.19509	.008	
473.17	2050	.19509	.0068	
473.17	2050	.299607	-.0229	
473.17	2050	.299607	-.0257	
473.17	2050	.299607	-.0269	
473.17	2050	.413068	-.0855	
473.17	2050	.413068	-.088	
473.17	2050	.413068	-.0904	
473.169	15200	.052493	.0859	
473.169	15200	.052493	.0879	
473.169	15200	.052493	.0847	
473.169	15200	.103216	.1522	
473.169	15200	.103216	.153	
473.169	15200	.103216	.1518	
473.169	15200	.19509	.2626	
473.169	15200	.19509	.2607	
473.169	15200	.19509	.2599	
473.169	15200	.299607	.3614	
473.169	15200	.299607	.36	
473.169	15200	.299607	.3601	
473.169	15200	.413068	.4447	
473.169	15200	.413068	.4426	
473.169	15200	.413068	.4429	
473.172	29950	.052493	.1474	
473.172	29950	.052493	.1467	
473.172	29950	.052493	.145	
473.172	29950	.103216	.2707	
473.172	29950	.103216	.2704	
473.172	29950	.103216	.2667	
473.172	29950	.19509	.484	
473.172	29950	.19509	.4812	
473.172	29950	.19509	.4821	
473.172	29950	.299607	.7012	
473.172	29950	.299607	.6989	
473.172	29950	.299607	.7	
473.172	29950	.413068	.9099	
473.172	29950	.413068	.9089	
473.172	29950	.413068	.9065	
498.138	2970	.052493	-.0854	
498.138	2970	.052493	-.0858	
498.138	2970	.052493	-.0904	
498.138	2970	.103216	-.1939	
498.138	2970	.103216	-.1974	
498.138	2970	.103216	-.2008	
498.138	2970	.19509	-.392	
498.138	2970	.19509	-.393	
498.138	2970	.19509	-.3987	
498.138	2970	.299607	-.6272	
498.138	2970	.299607	-.6318	
498.138	2970	.299607	-.6359	
498.138	2970	.413068	-.897	
498.138	2970	.413068	-.8972	
498.138	2970	.413068	-.9085	
498.125	15200	.052493	-.0024	
498.125	15200	.052493	-.0016	
498.125	15200	.052493	-.0029	
498.125	15200	.103216	-.0165	
498.125	15200	.103216	-.0223	
498.125	15200	.103216	-.0191	
498.125	15200	.19509	-.0588	
498.125	15200	.19509	-.0658	
498.125	15200	.19509	-.0685	
498.125	15200	.299607	-.1235	
498.125	15200	.299607	-.1295	
498.125	15200	.299607	-.1279	
498.125	15200	.413068	-.2111	
498.125	15200	.413068	-.2058	
498.125	15200	.413068	-.2105	
498.135	30050	.052493	.0835	
498.135	30050	.052493	.0819	
498.135	30050	.052493	.0851	
498.135	30050	.103216	.145	
498.135	30050	.103216	.1487	
498.135	30050	.103216	.1394	
498.135	30050	.19509	.2515	
498.135	30050	.19509	.2472	
498.135	30050	.19509	.2342	
498.135	30050	.299607	.3482	
498.135	30050	.299607	.3394	
498.135	30050	.299607	.3385	
498.135	30050	.413068	.4407	
498.135	30050	.413068	.4297	
498.135	30050	.413068	.4184	
523.142	5100	.052493	-.2064	
523.142	5100	.052493	-.2068	
523.142	5100	.052493	-.211	
523.142	5100	.103216	-.4229	
523.142	5100	.103216	-.4259	
523.142	5100	.103216	-.4262	
523.142	5100	.19509	-.8002	
523.142	5100	.19509	-.8035	
523.142	5100	.19509	-.8065	
523.142	5100	.299607	-1.2363	
523.142	5100	.299607	-1.2393	
523.142	5100	.299607	-1.2432	
523.142	5100	.413068	-1.6997	
523.142	5100	.413068	-1.7015	
523.142	5100	.413068	-1.7041	
523.151	15140	.052493	-.0974	
523.151	15140	.052493	-.0986	
523.151	15140	.052493	-.1	
523.151	15140	.103216	-.2136	
523.151	15140	.103216	-.2117	
523.151	15140	.103216	-.2167	
523.151	15140	.19509	-.41	
523.151	15140	.19509	-.4121	
523.151	15140	.19509	-.4104	
523.151	15140	.299607	-.6405	
523.151	15140	.299607	-.6399	
523.151	15140	.299607	-.6426	
523.151	15140	.413068	-.8834	
523.151	15140	.413068	-.8856	
523.151	15140	.413068	-.8827	
523.146	30090	.052493	.0128	
523.146	30090	.052493	.0085	
523.146	30090	.052493	.0054	
523.146	30090	.103216	.0115	
523.146	30090	.103216	.0071	
523.146	30090	.103216	.0062	
523.146	30090	.19509	.0087	
523.146	30090	.19509	.0029	
523.146	30090	.19509	.0032	
523.146	30090	.299607	-.0016	
523.146	30090	.299607	-.0051	
523.146	30090	.299607	-.0069	
523.146	30090	.413068	-.0102	
523.146	30090	.413068	-.0132	
523.146	30090	.413068	-.0191	
548.259	7150	.052493	-.3442	
548.259	7150	.052493	-.3494	
548.259	7150	.052493	-.3462	
548.259	7150	.103216	-.6847	
548.259	7150	.103216	-.6889	
548.259	7150	.103216	-.6877	
548.259	7150	.19509	-1.2889	
548.259	7150	.19509	-1.2908	
548.259	7150	.19509	-1.2871	
548.259	7150	.299607	-1.9542	
548.259	7150	.299607	-1.9567	
548.259	7150	.299607	-1.9537	
548.259	7150	.413068	-2.6443	
548.259	7150	.413068	-2.6473	
548.259	7150	.413068	-2.6436	
548.282	15180	.052764	-.2159	
548.282	15180	.052764	-.2168	
548.282	15180	.052764	-.2165	
548.282	15180	.113161	-.4552	
548.282	15180	.113161	-.456	
548.282	15180	.113161	-.4594	
548.282	15180	.19509	-.8123	
548.282	15180	.19509	-.8154	
548.282	15180	.19509	-.8164	
548.282	15180	.299607	-1.231	
548.282	15180	.299607	-1.2332	
548.282	15180	.299607	-1.2367	
548.282	15180	.413068	-1.6601	
548.282	15180	.413068	-1.6646	
548.282	15180	.413068	-1.663	
548.283	30120	.052493	-.0491	
548.283	30120	.052493	-.0536	
548.283	30120	.052493	-.0539	
548.283	30120	.103216	-.1125	
548.283	30120	.103216	-.1101	
548.283	30120	.103216	-.1137	
548.283	30120	.19509	-.2097	
548.283	30120	.19509	-.2131	
548.283	30120	.19509	-.2077	
548.283	30120	.299607	-.3169	
548.283	30120	.299607	-.3173	
548.283	30120	.299607	-.3238	
548.283	30120	.413068	-.4155	
548.283	30120	.413068	-.4155	
548.283	30120	.413068	-.4177	
573.152	9870	.052764	-.5288	
573.152	9870	.052764	-.5138	
573.152	9870	.052764	-.5282	
573.152	9870	.113161	-1.1012	
573.152	9870	.113161	-1.1241	
573.152	9870	.113161	-1.0776	
573.152	9870	.20209	-1.9232	
573.152	9870	.20209	-1.9326	
573.152	9870	.20209	-1.9212	
573.152	9870	.302856	-2.825	
573.152	9870	.302856	-2.8259	
573.152	9870	.302856	-2.8327	
573.152	9870	.41631	-3.7844	
573.152	9870	.41631	-3.7872	
573.152	9870	.41631	-3.7747	
573.152	15160	.052764	-.3774	
573.152	15160	.052764	-.3793	
573.152	15160	.052764	-.3648	
573.152	15160	.113161	-.795	
573.152	15160	.113161	-.7937	
573.152	15160	.113161	-.8015	
573.152	15160	.20209	-1.3622	
573.152	15160	.20209	-1.3809	
573.152	15160	.20209	-1.3679	
573.152	15160	.302856	-1.998	
573.152	15160	.302856	-2.0023	
573.152	15160	.302856	-2.0026	
573.152	15160	.41631	-2.667	
573.152	15160	.41631	-2.6716	
573.152	15160	.41631	-2.6854	
573.148	23430	.052764	-.2147	
573.148	23430	.052764	-.2137	
573.148	23430	.052764	-.2225	
573.148	23430	.113161	-.4565	
573.148	23430	.113161	-.4564	
573.148	23430	.113161	-.4497	
573.148	23430	.20209	-.7743	
573.148	23430	.20209	-.776	
573.148	23430	.20209	-.7791	
573.148	23430	.302856	-1.1218	
573.148	23430	.302856	-1.1287	
573.148	23430	.302856	-1.126	
573.148	23430	.41631	-1.4792	
573.148	23430	.41631	-1.4767	
573.148	23430	.41631	-1.4804	
573.146	30230	.052764	-.1202	
573.146	30230	.052764	-.1147	
573.146	30230	.052764	-.1236	
573.146	30230	.113161	-.2509	
573.146	30230	.113161	-.2488	
573.146	30230	.113161	-.2489	
573.146	30230	.20209	-.4234	
573.146	30230	.20209	-.4181	
573.146	30230	.20209	-.4207	
573.146	30230	.302856	-.5976	
573.146	30230	.302856	-.5998	
573.146	30230	.302856	-.6038	
573.146	30230	.41631	-.7738	
573.146	30230	.41631	-.768	
573.146	30230	.41631	-.7727	
