Measured thermophysical data. Density and viscosity study of nicotinic acid and nicotinamide in dilute aqueous solutions at and around the temperature of the maximum density of water
Source: J. Chem. Thermodyn., 2014, 10.1016/j.jct.2014.02.024
Compound 1: water, H2O
Compound 2: nicotinic acid, C6H5NO2
Compound 3: nicotinamide, C6H6N2O

System: water; phases: Liquid
Property: Mass density, kg/m3 (Liquid); method: Pycnometric method
Temperature, K	Pressure, kPa	Mass density, kg/m3	uncertainty
275.15	101.3	999.94	
277.15	101.3	999.97	
279.15	101.3	999.94	

System: water; phases: Liquid
Property: Viscosity, Pa*s (Liquid); method: Capillary tube (Ostwald; Ubbelohde) method
Temperature, K	Pressure, kPa	Viscosity, Pa*s	uncertainty
275.15	101.3	.001674	.00003348
277.15	101.3	.001567	.00003134
279.15	101.3	.001472	.00002944

System: nicotinic acid + water; phases: Liquid
Fixed: Pressure, kPa = 101.3
Property: Mass density, kg/m3 (Liquid); method: Pycnometric method
Molality, mol/kg of nicotinic acid	Temperature, K	Mass density, kg/m3	uncertainty
0	275.15	999.94	
.0098	275.15	1000.41	
.0199	275.15	1000.84	
.023	275.15	1000.96	
.0249	275.15	1001.1	
.0299	275.15	1001.29	
.0349	275.15	1001.51	
.0402	275.15	1001.76	
.0429	275.15	1001.91	
.0453	275.15	1002.02	
.0497	275.15	1002.2	
.055	275.15	1002.46	
.06	275.15	1002.7	
.0646	275.15	1002.87	
.0701	275.15	1003.17	
.0801	275.15	1003.54	
0	277.15	999.97	
.0094	277.15	1000.39	
.0201	277.15	1000.87	
.0231	277.15	1000.98	
.025	277.15	1001.1	
.0296	277.15	1001.29	
.0399	277.15	1001.69	
.043	277.15	1001.86	
.0451	277.15	1001.97	
.0499	277.15	1002.23	
.055	277.15	1002.34	
.06	277.15	1002.64	
.0631	277.15	1002.69	
.065	277.15	1002.84	
.0705	277.15	1003.13	
0	279.15	999.94	
.0103	279.15	1000.39	
.0198	279.15	1000.79	
.0229	279.15	1000.95	
.03	279.15	1001.23	
.0351	279.15	1001.46	
.04	279.15	1001.74	
.0431	279.15	1001.79	
.0454	279.15	1001.94	
.0501	279.15	1002.16	
.0551	279.15	1002.39	
.06	279.15	1002.54	
.0631	279.15	1002.68	
.065	279.15	1002.79	
.0701	279.15	1003.04	

System: nicotinic acid + water; phases: Liquid
Fixed: Pressure, kPa = 101.3
Property: Viscosity, Pa*s (Liquid); method: Capillary tube (Ostwald; Ubbelohde) method
Molality, mol/kg of nicotinic acid	Temperature, K	Viscosity, Pa*s	uncertainty
0	275.15	.001674	.00003348
.0098	275.15	.00167545	.000033509
.0199	275.15	.00168498	.0000336996
.023	275.15	.00168738	.0000337476
.0249	275.15	.00168742	.0000337484
.0299	275.15	.00169092	.0000338184
.0349	275.15	.00168576	.0000337152
.0402	275.15	.00169119	.0000338238
.0429	275.15	.00169279	.0000338558
.0453	275.15	.00169402	.0000338804
.0497	275.15	.00169003	.0000338006
.055	275.15	.00169969	.0000339938
.06	275.15	.0017017	.000034034
.0646	275.15	.00170356	.0000340712
.0701	275.15	.00170594	.0000341188
.0801	275.15	.00171507	.0000343014
0	277.15	.001567	.00003134
.0094	277.15	.00157161	.0000314322
.0201	277.15	.00157357	.0000314714
.0231	277.15	.00157371	.0000314742
.025	277.15	.00157584	.0000315168
.0296	277.15	.00157734	.0000315468
.0399	277.15	.00157977	.0000315954
.043	277.15	.00158196	.0000316392
.0451	277.15	.00158303	.0000316606
.0499	277.15	.00158566	.0000317132
.055	277.15	.00158618	.0000317236
.06	277.15	.00158747	.0000317494
.0631	277.15	.00159074	.0000318148
.065	277.15	.00159074	.0000318148
.0705	277.15	.00159221	.0000318442
0	279.15	.001472	.00002944
.0103	279.15	.00147403	.0000294806
.0198	279.15	.00147893	.0000295786
.0229	279.15	.00148467	.0000296934
.03	279.15	.00148897	.0000297794
.0351	279.15	.00148972	.0000297944
.04	279.15	.00149494	.0000298988
.0431	279.15	.00149427	.0000298854
.0454	279.15	.00149624	.0000299248
.0501	279.15	.00149853	.0000299706
.0551	279.15	.00150256	.0000300512
.06	279.15	.00150043	.0000300086
.0631	279.15	.00150165	.000030033
.065	279.15	.00150287	.0000300574
.0701	279.15	.00150923	.0000301846

System: nicotinamide + water; phases: Liquid
Fixed: Pressure, kPa = 101.3
Property: Viscosity, Pa*s (Liquid); method: Capillary tube (Ostwald; Ubbelohde) method
Molality, mol/kg of nicotinamide	Temperature, K	Viscosity, Pa*s	uncertainty
0	275.15	.001674	.00003348
.0101	275.15	.00168275	.000033655
.0201	275.15	.00168703	.0000337406
.03	275.15	.00169116	.0000338232
.035	275.15	.00169677	.0000339354
.0401	275.15	.00170299	.0000340598
.0452	275.15	.00170708	.0000341416
.0502	275.15	.00170973	.0000341946
.0598	275.15	.00171063	.0000342126
.0651	275.15	.00171356	.0000342712
.07	275.15	.00171752	.0000343504
.0749	275.15	.00172423	.0000344846
.08	275.15	.00172145	.000034429
.0852	275.15	.0017244	.000034488
.1004	275.15	.0017303	.000034606
0	277.15	.001567	.00003134
.01	277.15	.00157832	.0000315664
.0202	277.15	.00158329	.0000316658
.03	277.15	.00158806	.0000317612
.0348	277.15	.0015904	.000031808
.045	277.15	.00159532	.0000319064
.05	277.15	.00159777	.0000319554
.0601	277.15	.00160261	.0000320522
.0652	277.15	.00160515	.000032103
.0691	277.15	.00160697	.0000321394
.075	277.15	.00160981	.0000321962
.0801	277.15	.00161229	.0000322458
.0849	277.15	.00161461	.0000322922
0	279.15	.001472	.00002944
.02	279.15	.00148053	.0000296106
.0302	279.15	.00148229	.0000296458
.0347	279.15	.00148496	.0000296992
.0348	279.15	.00148498	.0000296996
.04	279.15	.00148708	.0000297416
.0451	279.15	.00148763	.0000297526
.05	279.15	.00149264	.0000298528
.0598	279.15	.00149471	.0000298942
.0699	279.15	.00150042	.0000300084
.0749	279.15	.0015043	.000030086
.0799	279.15	.00150731	.0000301462
.0849	279.15	.00151026	.0000302052
.0897	279.15	.00151312	.0000302624
.1004	279.15	.00152048	.0000304096

System: nicotinamide + water; phases: Liquid
Fixed: Pressure, kPa = 101.3
Property: Mass density, kg/m3 (Liquid); method: Pycnometric method
Molality, mol/kg of nicotinamide	Temperature, K	Mass density, kg/m3	uncertainty
0	275.15	999.94	
.0101	275.15	1000.22	
.0201	275.15	1000.53	
.03	275.15	1000.83	
.035	275.15	1001.02	
.0401	275.15	1001.11	
.0452	275.15	1001.26	
.0502	275.15	1001.51	
.0598	275.15	1001.74	
.0651	275.15	1001.85	
.07	275.15	1002.13	
.0749	275.15	1002.21	
.08	275.15	1002.41	
.0852	275.15	1002.57	
.1004	275.15	1002.93	
0	277.15	999.97	
.01	277.15	1000.25	
.0202	277.15	1000.54	
.03	277.15	1000.97	
.0348	277.15	1000.98	
.045	277.15	1001.27	
.05	277.15	1001.42	
.0601	277.15	1001.66	
.0652	277.15	1001.86	
.0691	277.15	1002	
.075	277.15	1002.19	
.0801	277.15	1002.29	
.0849	277.15	1002.44	
0	279.15	999.94	
.02	279.15	1000.51	
.0302	279.15	1000.82	
.0347	279.15	1000.97	
.0348	279.15	1000.92	
.04	279.15	1001.13	
.0451	279.15	1001.28	
.05	279.15	1001.45	
.0598	279.15	1001.7	
.0699	279.15	1001.95	
.0749	279.15	1002.04	
.0799	279.15	1002.19	
.0849	279.15	1002.36	
.0897	279.15	1002.44	
.1004	279.15	1002.78	
