Measured thermophysical data. Osmotic coefficient and mean ion activity coefficient of NiCl2 aqueous solution at several temperatures
Source: J. Chem. Thermodyn., 2016, 10.1016/j.jct.2016.04.015
Compound 1: nickel dichloride, Cl2Ni, purity 99.9%
Compound 2: potassium chloride, ClK, purity 99.9%
Compound 3: water, H2O

System: nickel dichloride + water; phases: Liquid
Fixed: Pressure, kPa = 100
Property: Molar enthalpy of dilution, kJ/mol (Liquid); method: Calvet calorimetry
Temperature, K	Initial molality of solute, mol/kg	Final molality of solute, mol/kg	Molar enthalpy of dilution, kJ/mol	uncertainty
298.15	4.7685	.0515	-17.7005	
298.15	4.7685	.0552	-17.669	
298.15	4.7685	.071	-17.5694	
298.15	4.7685	.0784	-17.522	
298.15	4.7685	.1107	-17.4434	
298.15	4.7685	.1225	-17.3141	
298.15	4.7685	.1786	-16.7597	
298.15	4.7685	.2466	-16.824	
298.15	4.7685	.4879	-16.0977	
298.15	4.7685	.5813	-15.5068	
298.15	4.7685	.6631	-14.8494	
298.15	4.7685	1.2181	-13.2795	
298.15	4.7685	1.4698	-12.0145	
298.15	4.7685	1.8568	-11.2252	
298.15	4.7685	2.0548	-10.5015	
298.15	4.7685	2.2685	-9.6474	
298.15	4.7685	2.4539	-9.0645	
298.15	4.7685	2.9471	-6.562	
298.15	4.7685	3.6546	-4.417	
298.15	4.7685	3.8914	-3.4235	
298.15	4.7685	4.0635	-2.6496	
308.15	4.7685	.0526	-20.0765	
308.15	4.7685	.0576	-20.0448	
308.15	4.7685	.0742	-19.9335	
308.15	4.7685	.082	-19.8818	
308.15	4.7685	.1176	-19.6486	
308.15	4.7685	.127	-19.4608	
308.15	4.7685	.1525	-19.2622	
308.15	4.7685	.3245	-18.6846	
308.15	4.7685	.5113	-18.3148	
308.15	4.7685	.5441	-18.0169	
308.15	4.7685	.7354	-17.1577	
308.15	4.7685	1.0192	-16.1461	
308.15	4.7685	1.1962	-15.3705	
308.15	4.7685	1.4753	-14.4851	
308.15	4.7685	1.7022	-13.6117	
308.15	4.7685	1.9002	-12.8248	
308.15	4.7685	2.3016	-11.1575	
308.15	4.7685	2.6126	-9.8023	
308.15	4.7685	2.949	-8.2799	
308.15	4.7685	3.5015	-5.5232	
308.15	4.7685	4.0107	-3.2627	
318.15	4.7685	.0541	-22.0347	
318.15	4.7685	.0584	-21.7313	
318.15	4.7685	.0755	-21.5023	
318.15	4.7685	.0825	-21.1094	
318.15	4.7685	.1246	-21.0444	
318.15	4.7685	.2081	-20.434	
318.15	4.7685	.2476	-20.2603	
318.15	4.7685	.2992	-20.3771	
318.15	4.7685	.4429	-19.7312	
318.15	4.7685	.8097	-18.2293	
318.15	4.7685	.9948	-17.3995	
318.15	4.7685	1.1929	-16.522	
318.15	4.7685	1.4487	-15.5086	
318.15	4.7685	1.8259	-13.9324	
318.15	4.7685	2.0259	-13.0491	
318.15	4.7685	2.2849	-11.8483	
318.15	4.7685	2.4779	-10.9117	
318.15	4.7685	2.9233	-8.7035	
318.15	4.7685	3.5143	-5.7511	
318.15	4.7685	3.975	-3.5015	

System: potassium chloride + water; phases: Liquid
Fixed: Pressure, kPa = 100
Property: Molar enthalpy of solution, kJ/mol (Liquid); method: Calvet calorimetry
Temperature, K	Molality, mol/kg of potassium chloride	Molar enthalpy of solution, kJ/mol	uncertainty
298.15	.2802	17.5	
298.15	.3271	17.528	
298.15	.319	17.519	
308.15	.1814	15.93	
308.15	.1764	15.757	
308.15	.1736	15.747	
