Measured thermophysical data. Phase equilibrium measurements of ternary systems formed by linoleic and  linolenic acids in carbon dioxide/ethanol mixtures
Source: J. Chem. Eng. Data, 2009, 10.1016/j.jct.2009.05.012
Compound 1: linoleic acid, C18H32O2, purity 99%
Compound 2: linolenic acid, C18H30O2, purity 99%
Compound 3: ethanol, C2H6O, purity 99.9%
Compound 4: carbon dioxide, CO2, purity 99.9%

System: ethanol + carbon dioxide + linolenic acid; phases: Gas, Liquid
Property: Vapor or sublimation pressure, kPa (Gas); method: Closed cell (Static) method
Mole fraction of carbon dioxide	Mole fraction of ethanol	Temperature, K	Vapor or sublimation pressure, kPa	uncertainty
.7996	.1999	303	6235	.015
.7996	.1999	313	7675	.005
.7996	.1999	323	9510	.01
.7996	.1999	333	11575	.045
.7996	.1999	343	13470	.02
.7224	.1806	303	7400	.05
.7224	.1806	313	9830	.02
.7224	.1806	323	12670	.01
.7224	.1806	333	14875	.005
.7224	.1806	343	17070	.02
.7856	.1964	303	6710	.02
.7856	.1964	313	8460	.01
.7856	.1964	323	10910	.05
.7856	.1964	333	13070	.08
.7856	.1964	343	15060	.005
.7027	.1757	303	7440	.02
.7027	.1757	313	9520	0
.7027	.1757	323	11910	.02
.7027	.1757	333	13990	.01
.7027	.1757	343	16130	.02
.7718	.1929	303	8410	.005
.7718	.1929	313	10660	.03
.7718	.1929	323	12910	.08
.7718	.1929	333	15200	.07
.7718	.1929	343	17180	.045
.6832	.1708	303	7430	.025
.6832	.1708	313	9240	.015
.6832	.1708	323	11230	.085
.6832	.1708	333	13130	.05
.6832	.1708	343	15220	.045
.7606	.1902	303	9400	.04
.7606	.1902	313	11600	.02
.7606	.1902	323	13780	.005
.7606	.1902	333	16040	.005
.7606	.1902	343	18150	.02
.664	.166	303	7230	.025
.664	.166	313	8870	.01
.664	.166	323	10300	.045
.664	.166	333	12320	.075
.664	.166	343	14170	.005
.7552	.1888	303	9220	.005
.7552	.1888	313	11510	.025
.7552	.1888	323	13850	.024
.7552	.1888	333	16230	.045
.7552	.1888	343	18220	.009
.6536	.1634	303	6780	.05
.6536	.1634	313	8430	.02
.6536	.1634	323	10290	.01
.6536	.1634	333	12120	.015
.6536	.1634	343	14070	.005
.7394	.1849	303	8480	.01
.7394	.1849	313	10790	.042
.7394	.1849	323	13340	.034
.7394	.1849	333	15480	.061
.7394	.1849	343	17600	.052

System: linoleic acid + ethanol + carbon dioxide; phases: Gas, Liquid
Property: Vapor or sublimation pressure, kPa (Gas); method: Closed cell (Static) method
Mole fraction of carbon dioxide	Mole fraction of ethanol	Temperature, K	Vapor or sublimation pressure, kPa	uncertainty
.7918	.198	303	6640	30
.7918	.198	313	8220	65
.7918	.198	323	9850	35
.7918	.198	333	11610	10
.7918	.198	343	13270	22
.7801	.195	303	7960	55
.7801	.195	313	10440	5
.7801	.195	323	12600	23
.7801	.195	333	14870	54
.7801	.195	343	16660	28
.7607	.1902	303	9740	70
.7607	.1902	313	11880	25
.7607	.1902	323	14130	5
.7607	.1902	333	16240	5
.7607	.1902	343	18110	73
.7408	.1852	303	9380	55
.7408	.1852	313	11710	54
.7408	.1852	323	14110	42
.7408	.1852	333	16100	11
.7408	.1852	343	18170	5
.7178	.1795	303	8560	5
.7178	.1795	313	11030	15
.7178	.1795	323	13080	15
.7178	.1795	333	15190	21
.7178	.1795	343	17110	5
.7046	.1762	303	7910	6
.7046	.1762	313	10280	25
.7046	.1762	323	12310	22
.7046	.1762	333	14430	31
.7046	.1762	343	16440	6
.6827	.1707	303	7520	80
.6827	.1707	313	9230	35
.6827	.1707	323	11340	60
.6827	.1707	333	13430	105
.6827	.1707	343	15750	85
.6426	.1606	303	7120	20
.6426	.1606	313	8750	41
.6426	.1606	323	10680	32
.6426	.1606	333	12850	81
.6426	.1606	343	14560	12
.6578	.1645	303	7010	95
.6578	.1645	313	8160	21
.6578	.1645	323	9760	5
.6578	.1645	333	11490	14
.6578	.1645	343	13350	51
.6058	.1514	303	6760	15
.6058	.1514	313	8010	55
.6058	.1514	323	9430	25
.6058	.1514	333	10790	12
.6058	.1514	343	12170	11
.573	.1433	303	6040	35
.573	.1433	313	7320	21
.573	.1433	323	8440	22
.573	.1433	333	9560	5
.573	.1433	343	10780	25
