Measured thermophysical data. Sorption of trifluoromethane in zeolites and ionic liquid
Source: J. Chem. Thermodyn., 2013, 10.1016/j.jct.2013.04.018
Compound 1: trifluoromethane, CHF3
Compound 2: 1-ethyl-3-methylimidazolium bis[(trifluoromethyl)sulfonyl]imide, C8H11F6N3O4S2

System: trifluoromethane + 1-ethyl-3-methylimidazolium bis[(trifluoromethyl)sulfonyl]imide; phases: Liquid, Gas
Property: Mole fraction of trifluoromethane (Liquid); method: gravimetric microbalance
Pressure, kPa	Temperature, K	Mole fraction of trifluoromethane	uncertainty
26.5	298	.007	.006
99.5	298.1	.031	.006
239.6	298.1	.074	.006
499.8	298.1	.152	.006
748.2	298.1	.219	.006
999.6	298.1	.28	.006
1245.7	298.2	.336	.006
1499.7	298.1	.389	.006
1749.6	298.1	.437	.006
1997.3	298.1	.481	.006
1749.4	298.1	.436	.006
1499.2	298.1	.388	.006
1249.7	298.1	.337	.006
999.3	298.1	.28	.006
502.5	298	.152	.006
249.8	298.1	.078	.006
99.8	298.1	.03	.006
49.8	298.1	.013	.006
47.9	323.1	.008	.006
99.5	323.2	.018	.006
226.7	323.1	.045	.006
325.3	323.1	.065	.006
999.9	323.2	.187	.006
1242	323.1	.228	.006
1491.4	323.1	.267	.006
1749.1	323.2	.3	.006
1999.3	323.1	.333	.006
1748.8	323.2	.302	.006
1489.7	323.2	.266	.006
1249.6	323.1	.229	.006
999.6	323.1	.189	.006
749.8	323.2	.144	.006
499.5	323.1	.098	.006
249.1	323.1	.049	.006
99.8	323.1	.018	.006
