Measured thermophysical data. Separation of ethylbenzene/styrene systems using ionic liquids in ternary LLE
Source: J. Chem. Thermodyn., 2016, 10.1016/j.jct.2016.09.003
Compound 1: 1-ethyl-3-methylimidazolium dicyanamide, C8H11N5, purity 98.0%
Compound 2: 1-ethyl-3-methylimidazolium tricyanomethanide, C10H11N5, purity 98.0%
Compound 3: 1-allyl-3-methylimidazolium dicyanamide, C9H11N5, purity 98.0%
Compound 4: 1-butyl-3-methylimidazolium dicyanamide, C10H15N5, purity 98.0%
Compound 5: 1-butyl-3-methylimidazolium tricyanomethane, C12H15N5, purity 98.0%
Compound 6: 1-benzyl-3-methylimidazolium dicyanamide, C13H13N5, purity 98.0%
Compound 7: ethylbenzene, C8H10, purity 99.0%
Compound 8: styrene, C8H8, purity 99.5%
Compound 9: acetone, C3H6O, purity 99.5%
Compound 10: methylcyclohexane, C7H14, purity 99.0%

System: 1-ethyl-3-methylimidazolium dicyanamide; phases: Liquid
Fixed: Pressure, kPa = 101.325
Property: Mass density, kg/m3 (Liquid); method: Vibrating tube method
Temperature, K	Mass density, kg/m3	uncertainty
298.15	1098.35	1.3

System: 1-ethyl-3-methylimidazolium tricyanomethanide; phases: Liquid
Fixed: Pressure, kPa = 101.325
Property: Mass density, kg/m3 (Liquid); method: Vibrating tube method
Temperature, K	Mass density, kg/m3	uncertainty
298.15	1081.46	1.3

System: 1-allyl-3-methylimidazolium dicyanamide; phases: Liquid
Fixed: Pressure, kPa = 101.325
Property: Mass density, kg/m3 (Liquid); method: Vibrating tube method
Temperature, K	Mass density, kg/m3	uncertainty
298.15	1111.46	1.3

System: 1-butyl-3-methylimidazolium dicyanamide; phases: Liquid
Fixed: Pressure, kPa = 101.325
Property: Mass density, kg/m3 (Liquid); method: Vibrating tube method
Temperature, K	Mass density, kg/m3	uncertainty
298.15	1058.7	1.3

System: 1-butyl-3-methylimidazolium tricyanomethane; phases: Liquid
Fixed: Pressure, kPa = 101.325
Property: Mass density, kg/m3 (Liquid); method: Vibrating tube method
Temperature, K	Mass density, kg/m3	uncertainty
298.15	1046.68	1.3

System: 1-benzyl-3-methylimidazolium dicyanamide; phases: Liquid
Fixed: Pressure, kPa = 101.325
Property: Mass density, kg/m3 (Liquid); method: Vibrating tube method
Temperature, K	Mass density, kg/m3	uncertainty
298.15	1158.14	1.3

System: ethylbenzene; phases: Liquid
Fixed: Pressure, kPa = 101.325
Property: Mass density, kg/m3 (Liquid); method: Vibrating tube method
Temperature, K	Mass density, kg/m3	uncertainty
298.15	863.54	.5

System: styrene; phases: Liquid
Fixed: Pressure, kPa = 101.325
Property: Mass density, kg/m3 (Liquid); method: Vibrating tube method
Temperature, K	Mass density, kg/m3	uncertainty
298.15	900.52	.5

System: acetone; phases: Liquid
Fixed: Pressure, kPa = 101.325
Property: Mass density, kg/m3 (Liquid); method: Vibrating tube method
Temperature, K	Mass density, kg/m3	uncertainty
298.15	786.77	.5

System: methylcyclohexane; phases: Liquid
Fixed: Pressure, kPa = 101.325
Property: Mass density, kg/m3 (Liquid); method: Vibrating tube method
Temperature, K	Mass density, kg/m3	uncertainty
298.15	765.97	.5

System: ethylbenzene + styrene + 1-ethyl-3-methylimidazolium dicyanamide; phases: Liquid mixture 1, Liquid mixture 2
Fixed: Temperature, K = 298.15
Fixed: Pressure, kPa = 101
Property: Mole fraction of 1-ethyl-3-methylimidazolium dicyanamide (Liquid mixture 1); method: Chromatography
Property: Mole fraction of styrene (Liquid mixture 2); method: Chromatography
Property: Mole fraction of 1-ethyl-3-methylimidazolium dicyanamide (Liquid mixture 2); method: Chromatography
Mole fraction of styrene	Mole fraction of 1-ethyl-3-methylimidazolium dicyanamide	uncertainty	Mole fraction of styrene	uncertainty	Mole fraction of 1-ethyl-3-methylimidazolium dicyanamide	uncertainty
0	0	.003	0	.003	.802	.003
.065	0	.003	.031	.003	.774	.003
.134	0	.003	.064	.003	.751	.003
.181	0	.003	.085	.003	.735	.003
.245	0	.003	.122	.003	.707	.003
.34	0	.003	.181	.003	.662	.003
.397	0	.003	.203	.003	.648	.003
.445	0	.003	.238	.003	.621	.003
.585	0	.003	.347	.003	.547	.003
.512	0	.003	.306	.003	.577	.003
.654	0	.003	.38	.003	.526	.003
.701	0	.003	.397	.003	.517	.003
.764	0	.003	.451	.003	.478	.003
.83	0	.003	.508	.003	.444	.003
.883	0	.003	.539	.003	.426	.003
.938	0	.003	.578	.003	.401	.003
1	0	.003	.623	.003	.377	.003

System: ethylbenzene + styrene + 1-ethyl-3-methylimidazolium tricyanomethanide; phases: Liquid mixture 1, Liquid mixture 2
Fixed: Temperature, K = 298.15
Fixed: Pressure, kPa = 101
Property: Mole fraction of 1-ethyl-3-methylimidazolium tricyanomethanide (Liquid mixture 1); method: Chromatography
Property: Mole fraction of styrene (Liquid mixture 2); method: Chromatography
Property: Mole fraction of 1-ethyl-3-methylimidazolium tricyanomethanide (Liquid mixture 2); method: Chromatography
Mole fraction of styrene	Mole fraction of 1-ethyl-3-methylimidazolium tricyanomethanide	uncertainty	Mole fraction of styrene	uncertainty	Mole fraction of 1-ethyl-3-methylimidazolium tricyanomethanide	uncertainty
0	0	.003	0	.003	.6	.003
.972	0	.003	.758	.003	.226	.003
1	0	.003	.769	.003	.231	.003
.044	0	.003	.033	.003	.573	.003
.124	0	.003	.101	.003	.529	.003
.225	0	.003	.188	.003	.476	.003
.292	0	.003	.244	.003	.445	.003
.345	0	.003	.287	.003	.423	.003
.412	0	.003	.342	.003	.39	.003
.469	0	.003	.388	.003	.367	.003
.512	0	.003	.424	.003	.352	.003
.547	0	.003	.45	.003	.339	.003
.611	0	.003	.501	.003	.314	.003
.672	0	.003	.539	.003	.299	.003
.718	0	.003	.59	.003	.277	.003
.788	0	.003	.648	.003	.25	.003
.86	0	.003	.716	.003	.224	.003
.909	0	.003	.745	.003	.222	.003

System: ethylbenzene + styrene + 1-allyl-3-methylimidazolium dicyanamide; phases: Liquid mixture 2, Liquid mixture 1
Fixed: Temperature, K = 298.15
Fixed: Pressure, kPa = 101
Property: Mole fraction of 1-allyl-3-methylimidazolium dicyanamide (Liquid mixture 2); method: Chromatography
Property: Mole fraction of styrene (Liquid mixture 1); method: Chromatography
Property: Mole fraction of 1-allyl-3-methylimidazolium dicyanamide (Liquid mixture 1); method: Chromatography
Mole fraction of styrene	Mole fraction of 1-allyl-3-methylimidazolium dicyanamide	uncertainty	Mole fraction of styrene	uncertainty	Mole fraction of 1-allyl-3-methylimidazolium dicyanamide	uncertainty
0	.84	.003	0	.003	0	.003
.376	.569	.003	.787	.003	.001	.003
.42	.545	.003	.857	.003	.003	.003
.46	.522	.003	.93	.003	.006	.003
.506	.494	.003	.991	.003	.009	.003
.035	.814	.003	.096	.003	0	.003
.064	.788	.003	.168	.003	0	.003
.103	.762	.003	.248	.003	0	.003
.125	.743	.003	.3	.003	0	.003
.162	.713	.003	.372	.003	0	.003
.186	.696	.003	.428	.003	0	.003
.221	.673	.003	.492	.003	0	.003
.274	.635	.003	.587	.003	0	.003
.301	.618	.003	.638	.003	0	.003
.34	.593	.003	.706	.003	0	.003

System: ethylbenzene + styrene + 1-butyl-3-methylimidazolium dicyanamide; phases: Liquid mixture 2, Liquid mixture 1
Fixed: Temperature, K = 298.15
Fixed: Pressure, kPa = 101
Property: Mole fraction of 1-butyl-3-methylimidazolium dicyanamide (Liquid mixture 2); method: Chromatography
Property: Mole fraction of styrene (Liquid mixture 1); method: Chromatography
Property: Mole fraction of 1-butyl-3-methylimidazolium dicyanamide (Liquid mixture 1); method: Chromatography
Mole fraction of styrene	Mole fraction of 1-butyl-3-methylimidazolium dicyanamide	uncertainty	Mole fraction of styrene	uncertainty	Mole fraction of 1-butyl-3-methylimidazolium dicyanamide	uncertainty
0	.674	.003	0	.003	0	.003
.37	.47	.003	.574	.003	0	.003
.431	.437	.003	.662	.003	0	.003
.478	.414	.003	.718	.003	0	.003
.512	.397	.003	.768	.003	0	.003
.543	.382	.003	.806	.003	0	.003
.581	.364	.003	.842	.003	0	.003
.609	.353	.003	.885	.003	.001	.003
.634	.345	.003	.952	.003	.005	.003
.646	.344	.003	.972	.003	.007	.003
.657	.343	.003	.992	.003	.008	.003
.017	.664	.003	.025	.003	0	.003
.058	.64	.003	.084	.003	0	.003
.115	.608	.003	.178	.003	0	.003
.168	.579	.003	.257	.003	0	.003
.222	.549	.003	.33	.003	0	.003
.254	.531	.003	.389	.003	0	.003
.313	.5	.003	.487	.003	0	.003

System: ethylbenzene + styrene + 1-butyl-3-methylimidazolium tricyanomethane; phases: Liquid mixture 1, Liquid mixture 2
Fixed: Temperature, K = 298.15
Fixed: Pressure, kPa = 101
Property: Mole fraction of 1-butyl-3-methylimidazolium tricyanomethane (Liquid mixture 1); method: Chromatography
Property: Mole fraction of styrene (Liquid mixture 2); method: Chromatography
Property: Mole fraction of 1-butyl-3-methylimidazolium tricyanomethane (Liquid mixture 2); method: Chromatography
Mole fraction of styrene	Mole fraction of 1-butyl-3-methylimidazolium tricyanomethane	uncertainty	Mole fraction of styrene	uncertainty	Mole fraction of 1-butyl-3-methylimidazolium tricyanomethane	uncertainty
0	0	.003	0	.003	.478	.003
.697	0	.003	.563	.003	.28	.003
.729	0	.003	.587	.003	.275	.003
.876	0	.003	.686	.003	.247	.003
.761	0	.003	.61	.003	.267	.003
.82	0	.003	.648	.003	.257	.003
.943	0	.003	.728	.003	.239	.003
.012	0	.003	.011	.003	.472	.003
.972	0	.003	.748	.003	.237	.003
1	0	.003	.764	.003	.236	.003
.04	0	.003	.037	.003	.46	.003
.151	0	.003	.133	.003	.424	.003
.081	0	.003	.072	.003	.447	.003
.115	0	.003	.104	.003	.435	.003
.2	0	.003	.178	.003	.407	.003
.419	0	.003	.357	.003	.342	.003
.275	0	.003	.241	.003	.382	.003
.316	0	.003	.277	.003	.37	.003
.482	0	.003	.403	.003	.326	.003
.575	0	.003	.473	.003	.306	.003
.636	0	.003	.517	.003	.294	.003

System: ethylbenzene + styrene + 1-benzyl-3-methylimidazolium dicyanamide; phases: Liquid mixture 2, Liquid mixture 1
Fixed: Temperature, K = 298.15
Fixed: Pressure, kPa = 101
Property: Mole fraction of 1-benzyl-3-methylimidazolium dicyanamide (Liquid mixture 2); method: Chromatography
Property: Mole fraction of styrene (Liquid mixture 1); method: Chromatography
Property: Mole fraction of 1-benzyl-3-methylimidazolium dicyanamide (Liquid mixture 1); method: Chromatography
Mole fraction of styrene	Mole fraction of 1-benzyl-3-methylimidazolium dicyanamide	uncertainty	Mole fraction of styrene	uncertainty	Mole fraction of 1-benzyl-3-methylimidazolium dicyanamide	uncertainty
0	.755	.003	0	.003	0	.003
.123	.691	.003	.236	.003	0	.003
.157	.673	.003	.31	.003	0	.003
.222	.636	.003	.438	.003	0	.003
.167	.667	.003	.325	.003	0	.003
.201	.648	.003	.394	.003	0	.003
.254	.619	.003	.505	.003	0	.003
.289	.6	.003	.57	.003	0	.003
.317	.584	.003	.621	.003	0	.003
.335	.572	.003	.65	.003	0	.003
.353	.561	.003	.679	.003	0	.003
.451	.505	.003	.848	.003	0	.003
.367	.553	.003	.706	.003	0	.003
.409	.529	.003	.779	.003	0	.003
.501	.474	.003	.916	.003	0	.003
.015	.748	.003	.022	.003	0	.003
.552	.44	.003	.973	.003	0	.003
.572	.428	.003	1	.003	0	.003
.039	.737	.003	.064	.003	0	.003
.071	.72	.003	.125	.003	0	.003
.095	.709	.003	.179	.003	0	.003

System: ethylbenzene + 1-ethyl-3-methylimidazolium dicyanamide; phases: Liquid mixture 2, Liquid mixture 1
Property: Mole fraction of 1-ethyl-3-methylimidazolium dicyanamide (Liquid mixture 2); method: Chromatography
Temperature, K	Pressure, kPa	Mole fraction of 1-ethyl-3-methylimidazolium dicyanamide	uncertainty
298.15	101	.802	

System: styrene + 1-ethyl-3-methylimidazolium dicyanamide; phases: Liquid mixture 2, Liquid mixture 1
Property: Mole fraction of styrene (Liquid mixture 2); method: Chromatography
Temperature, K	Pressure, kPa	Mole fraction of styrene	uncertainty
298.15	101	.623	

System: ethylbenzene + 1-ethyl-3-methylimidazolium tricyanomethanide; phases: Liquid mixture 2, Liquid mixture 1
Property: Mole fraction of 1-ethyl-3-methylimidazolium tricyanomethanide (Liquid mixture 2); method: Chromatography
Temperature, K	Pressure, kPa	Mole fraction of 1-ethyl-3-methylimidazolium tricyanomethanide	uncertainty
298.15	101	.6	

System: styrene + 1-ethyl-3-methylimidazolium tricyanomethanide; phases: Liquid mixture 2, Liquid mixture 1
Property: Mole fraction of 1-ethyl-3-methylimidazolium tricyanomethanide (Liquid mixture 2); method: Chromatography
Temperature, K	Pressure, kPa	Mole fraction of 1-ethyl-3-methylimidazolium tricyanomethanide	uncertainty
298.15	101	.231	

System: styrene + 1-allyl-3-methylimidazolium dicyanamide; phases: Liquid mixture 1, Liquid mixture 2
Property: Mole fraction of 1-allyl-3-methylimidazolium dicyanamide (Liquid mixture 1); method: Chromatography
Temperature, K	Pressure, kPa	Mole fraction of 1-allyl-3-methylimidazolium dicyanamide	uncertainty
298.15	101	.009	

System: styrene + 1-allyl-3-methylimidazolium dicyanamide; phases: Liquid mixture 2, Liquid mixture 1
Property: Mole fraction of styrene (Liquid mixture 2); method: Chromatography
Temperature, K	Pressure, kPa	Mole fraction of styrene	uncertainty
298.15	101	.506	

System: ethylbenzene + 1-allyl-3-methylimidazolium dicyanamide; phases: Liquid mixture 2, Liquid mixture 1
Property: Mole fraction of 1-allyl-3-methylimidazolium dicyanamide (Liquid mixture 2); method: Chromatography
Temperature, K	Pressure, kPa	Mole fraction of 1-allyl-3-methylimidazolium dicyanamide	uncertainty
298.15	101	.84	

System: styrene + 1-butyl-3-methylimidazolium dicyanamide; phases: Liquid mixture 1, Liquid mixture 2
Property: Mole fraction of 1-butyl-3-methylimidazolium dicyanamide (Liquid mixture 1); method: Chromatography
Temperature, K	Pressure, kPa	Mole fraction of 1-butyl-3-methylimidazolium dicyanamide	uncertainty
298.15	101	.008	

System: styrene + 1-butyl-3-methylimidazolium dicyanamide; phases: Liquid mixture 2, Liquid mixture 1
Property: Mole fraction of 1-butyl-3-methylimidazolium dicyanamide (Liquid mixture 2); method: Chromatography
Temperature, K	Pressure, kPa	Mole fraction of 1-butyl-3-methylimidazolium dicyanamide	uncertainty
298.15	101	.343	

System: ethylbenzene + 1-butyl-3-methylimidazolium dicyanamide; phases: Liquid mixture 2, Liquid mixture 1
Property: Mole fraction of 1-butyl-3-methylimidazolium dicyanamide (Liquid mixture 2); method: Chromatography
Temperature, K	Pressure, kPa	Mole fraction of 1-butyl-3-methylimidazolium dicyanamide	uncertainty
298.15	101	.674	

System: ethylbenzene + 1-butyl-3-methylimidazolium tricyanomethane; phases: Liquid mixture 2, Liquid mixture 1
Property: Mole fraction of 1-butyl-3-methylimidazolium tricyanomethane (Liquid mixture 2); method: Chromatography
Temperature, K	Pressure, kPa	Mole fraction of 1-butyl-3-methylimidazolium tricyanomethane	uncertainty
298.15	101	.478	

System: styrene + 1-butyl-3-methylimidazolium tricyanomethane; phases: Liquid mixture 2, Liquid mixture 1
Property: Mole fraction of 1-butyl-3-methylimidazolium tricyanomethane (Liquid mixture 2); method: Chromatography
Temperature, K	Pressure, kPa	Mole fraction of 1-butyl-3-methylimidazolium tricyanomethane	uncertainty
298.15	101	.236	

System: ethylbenzene + 1-benzyl-3-methylimidazolium dicyanamide; phases: Liquid mixture 2, Liquid mixture 1
Property: Mole fraction of 1-benzyl-3-methylimidazolium dicyanamide (Liquid mixture 2); method: Chromatography
Temperature, K	Pressure, kPa	Mole fraction of 1-benzyl-3-methylimidazolium dicyanamide	uncertainty
298.15	101	.755	

System: styrene + 1-benzyl-3-methylimidazolium dicyanamide; phases: Liquid mixture 2, Liquid mixture 1
Property: Mole fraction of 1-benzyl-3-methylimidazolium dicyanamide (Liquid mixture 2); method: Chromatography
Temperature, K	Pressure, kPa	Mole fraction of 1-benzyl-3-methylimidazolium dicyanamide	uncertainty
298.15	101	.428	
