Measured thermophysical data. Activity coefficients at infinite dilution and physicochemical properties for organic solutes and water in the ionic liquid 1-(2-hydroxyethyl)- 3-methylimidazolium trifluorotris(perfluoroethyl)phosphate
Source: J. Chem. Thermodyn., 2013, 10.1016/j.jct.2013.05.008
Compound 1: pentane, C5H12, purity 99%
Compound 2: hexane, C6H14, purity 99%
Compound 3: 3-methylpentane, C6H14, purity 99%
Compound 4: 2,2-dimethylbutane, C6H14, purity 99%
Compound 5: heptane, C7H16, purity 99.5%
Compound 6: octane, C8H18, purity 99%
Compound 7: 2,2,4-trimethylpentane, C8H18, purity 99%
Compound 8: nonane, C9H20, purity 99%
Compound 9: decane, C10H22, purity 99%
Compound 10: cyclopentane, C5H10, purity 99%
Compound 11: cyclohexane, C6H12, purity 99%
Compound 12: methylcyclohexane, C7H14, purity 99%
Compound 13: cycloheptane, C7H14, purity 98%
Compound 14: cyclooctane, C8H16, purity 99%
Compound 15: 1-pentene, C5H10, purity 98.5%
Compound 16: 1-hexene, C6H12, purity 99%
Compound 17: cyclohexene, C6H10, purity 99%
Compound 18: 1-heptene, C7H14, purity 99%
Compound 19: 1-octene, C8H16, purity 98%
Compound 20: 1-decene, C10H20, purity 97%
Compound 21: 1-pentyne, C5H8, purity 99%
Compound 22: 1-hexyne, C6H10, purity 97%
Compound 23: 1-heptyne, C7H12, purity 98%
Compound 24: 1-octyne, C8H14, purity 97%
Compound 25: benzene, C6H6, purity 99.8%
Compound 26: toluene, C7H8, purity 99.8%
Compound 27: ethylbenzene, C8H10, purity 99.8%
Compound 28: 1,2-dimethylbenzene, C8H10, purity 99%
Compound 29: 1,3-dimethylbenzene, C8H10, purity 99%
Compound 30: 1,4-dimethylbenzene, C8H10, purity 99%
Compound 31: benzene, ethenyl-, C8H8, purity 99.9%
Compound 32: (1-methylethenyl)benzene, C9H10, purity 99%
Compound 33: thiophene, C4H4S, purity 99%
Compound 34: pyridine, C5H5N, purity 99.8%
Compound 35: methanol, CH4O, purity 99.9%
Compound 36: ethanol, C2H6O, purity 99.8%
Compound 37: 1-propanol, C3H8O, purity 99.9%
Compound 38: 2-propanol, C3H8O, purity 99.9%
Compound 39: 1-butanol, C4H10O, purity 99.8%
Compound 40: (RS)-2-butanol, C4H10O, purity 99.5%
Compound 41: 2-methyl-1-propanol, C4H10O, purity 99.5%
Compound 42: 2-methyl-2-propanol, C4H10O, purity 99.7%
Compound 43: 1-pentanol, C5H12O, purity 99%
Compound 44: water, H2O
Compound 45: methyl ethanoate, C3H6O2, purity 99.8%
Compound 46: methyl propanoate, C4H8O2, purity 99%
Compound 47: methyl butanoate, C5H10O2, purity 99%
Compound 48: ethyl ethanoate, C4H8O2, purity 99.8%
Compound 49: ethenyl ethanoate, C4H6O2, purity 99%
Compound 50: tetrahydrofuran, C4H8O, purity 99.9%
Compound 51: 1,4-dioxane, C4H8O2, purity 99.8%
Compound 52: 1,1-dimethylethyl methyl ether, C5H12O, purity 99.8%
Compound 53: ethyl 1,1-dimethylethyl ether, C6H14O, purity 99%
Compound 54: ether, methyl tert-pentyl, C6H14O, purity 97%
Compound 55: diethyl ether, C4H10O, purity 99.9%
Compound 56: dipropyl ether, C6H14O, purity 99%
Compound 57: 1-methyl-1-(1-methylethoxy)ethane, C6H14O, purity 99%
Compound 58: 5-oxanonane, C8H18O, purity 99.3%
Compound 59: acetone, C3H6O, purity 99.9%
Compound 60: 2-pentanone, C5H10O, purity 99%
Compound 61: 3-pentanone, C5H10O, purity 99%
Compound 62: propanal, C3H6O, purity 97%
Compound 63: butanal, C4H8O, purity 99%
Compound 64: acetonitrile, C2H3N, purity 99.9%
Compound 65: 1-nitropropane, C3H7NO2, purity 98.5%
Compound 66: 3-(2-hydroxyethyl)-1-methyl-1H-imidazolium trifluorotris(perfluoroethyl)phosphate(V), C12H11F18N2OP, purity 99.5%

System: 3-(2-hydroxyethyl)-1-methyl-1H-imidazolium trifluorotris(perfluoroethyl)phosphate(V); phases: Liquid
Fixed: Pressure, kPa = 101.325
Property: Mass density, kg/m3 (Liquid); method: Vibrating tube method
Temperature, K	Mass density, kg/m3	uncertainty
298.15	1764.54	
308.15	1752.93	
318.15	1741.27	
328.15	1729.61	
338.15	1717.97	
348.15	1706.38	
358.15	1694.72	
368.15	1683.08	

System: pentane + 3-(2-hydroxyethyl)-1-methyl-1H-imidazolium trifluorotris(perfluoroethyl)phosphate(V); phases: Liquid
Fixed: Pressure, kPa = 101
Fixed: Mole fraction of pentane = 0
Property: Activity coefficient of pentane (Liquid); method: Chromatography
Temperature, K	Activity coefficient of pentane	uncertainty
318.15	21.3	.639
328.15	19.9	.597
338.15	18.5	.555
348.15	17.4	.522
358.15	16.5	.495
368.15	15.6	.468

System: hexane + 3-(2-hydroxyethyl)-1-methyl-1H-imidazolium trifluorotris(perfluoroethyl)phosphate(V); phases: Liquid
Fixed: Pressure, kPa = 101
Fixed: Mole fraction of hexane = 0
Property: Activity coefficient of hexane (Liquid); method: Chromatography
Temperature, K	Activity coefficient of hexane	uncertainty
318.15	32.6	.978
328.15	30	.9
338.15	27.9	.837
348.15	25.8	.774
358.15	24.5	.735
368.15	22.9	.687

System: 3-methylpentane + 3-(2-hydroxyethyl)-1-methyl-1H-imidazolium trifluorotris(perfluoroethyl)phosphate(V); phases: Liquid
Fixed: Pressure, kPa = 101
Fixed: Mole fraction of 3-methylpentane = 0
Property: Activity coefficient of 3-methylpentane (Liquid); method: Chromatography
Temperature, K	Activity coefficient of 3-methylpentane	uncertainty
318.15	28.3	.849
328.15	25.8	.774
338.15	24.1	.723
348.15	22.3	.669
358.15	21	.63
368.15	19.6	.588

System: 2,2-dimethylbutane + 3-(2-hydroxyethyl)-1-methyl-1H-imidazolium trifluorotris(perfluoroethyl)phosphate(V); phases: Liquid
Fixed: Pressure, kPa = 101
Fixed: Mole fraction of 2,2-dimethylbutane = 0
Property: Activity coefficient of 2,2-dimethylbutane (Liquid); method: Chromatography
Temperature, K	Activity coefficient of 2,2-dimethylbutane	uncertainty
318.15	24.3	.729
328.15	22.6	.678
338.15	21	.63
348.15	19.6	.588
358.15	18.6	.558
368.15	17.6	.528

System: heptane + 3-(2-hydroxyethyl)-1-methyl-1H-imidazolium trifluorotris(perfluoroethyl)phosphate(V); phases: Liquid
Fixed: Pressure, kPa = 101
Fixed: Mole fraction of heptane = 0
Property: Activity coefficient of heptane (Liquid); method: Chromatography
Temperature, K	Activity coefficient of heptane	uncertainty
318.15	51.4	1.542
328.15	46.6	1.398
338.15	42.3	1.269
348.15	38.8	1.164
358.15	35.9	1.077
368.15	33.2	.996

System: octane + 3-(2-hydroxyethyl)-1-methyl-1H-imidazolium trifluorotris(perfluoroethyl)phosphate(V); phases: Liquid
Fixed: Pressure, kPa = 101
Fixed: Mole fraction of octane = 0
Property: Activity coefficient of octane (Liquid); method: Chromatography
Temperature, K	Activity coefficient of octane	uncertainty
318.15	79.1	2.373
328.15	70.9	2.127
338.15	63.9	1.917
348.15	58	1.74
358.15	53.9	1.617
368.15	48.8	1.464

System: 2,2,4-trimethylpentane + 3-(2-hydroxyethyl)-1-methyl-1H-imidazolium trifluorotris(perfluoroethyl)phosphate(V); phases: Liquid
Fixed: Pressure, kPa = 101
Fixed: Mole fraction of 2,2,4-trimethylpentane = 0
Property: Activity coefficient of 2,2,4-trimethylpentane (Liquid); method: Chromatography
Temperature, K	Activity coefficient of 2,2,4-trimethylpentane	uncertainty
318.15	45.6	1.368
328.15	41.7	1.251
338.15	38.1	1.143
348.15	35.5	1.065
358.15	33.3	.999
368.15	31	.93

System: nonane + 3-(2-hydroxyethyl)-1-methyl-1H-imidazolium trifluorotris(perfluoroethyl)phosphate(V); phases: Liquid
Fixed: Pressure, kPa = 101
Fixed: Mole fraction of nonane = 0
Property: Activity coefficient of nonane (Liquid); method: Chromatography
Temperature, K	Activity coefficient of nonane	uncertainty
318.15	121	3.63
328.15	106	3.18
338.15	96	2.88
348.15	85.5	2.565
358.15	78.8	2.364
368.15	71	2.13

System: decane + 3-(2-hydroxyethyl)-1-methyl-1H-imidazolium trifluorotris(perfluoroethyl)phosphate(V); phases: Liquid
Fixed: Pressure, kPa = 101
Fixed: Mole fraction of decane = 0
Property: Activity coefficient of decane (Liquid); method: Chromatography
Temperature, K	Activity coefficient of decane	uncertainty
318.15	184	5.52
328.15	161	4.83
338.15	143	4.29
348.15	128	3.84
358.15	115	3.45
368.15	103	3.09

System: cyclopentane + 3-(2-hydroxyethyl)-1-methyl-1H-imidazolium trifluorotris(perfluoroethyl)phosphate(V); phases: Liquid
Fixed: Pressure, kPa = 101
Fixed: Mole fraction of cyclopentane = 0
Property: Activity coefficient of cyclopentane (Liquid); method: Chromatography
Temperature, K	Activity coefficient of cyclopentane	uncertainty
318.15	12.5	.375
328.15	11.6	.348
338.15	10.8	.324
348.15	10.2	.306
358.15	9.71	.2913
368.15	9.18	.2754

System: cyclohexane + 3-(2-hydroxyethyl)-1-methyl-1H-imidazolium trifluorotris(perfluoroethyl)phosphate(V); phases: Liquid
Fixed: Pressure, kPa = 101
Fixed: Mole fraction of cyclohexane = 0
Property: Activity coefficient of cyclohexane (Liquid); method: Chromatography
Temperature, K	Activity coefficient of cyclohexane	uncertainty
318.15	19.3	.579
328.15	17.8	.534
338.15	16.5	.495
348.15	15.3	.459
358.15	14.5	.435
368.15	13.5	.405

System: methylcyclohexane + 3-(2-hydroxyethyl)-1-methyl-1H-imidazolium trifluorotris(perfluoroethyl)phosphate(V); phases: Liquid
Fixed: Pressure, kPa = 101
Fixed: Mole fraction of methylcyclohexane = 0
Property: Activity coefficient of methylcyclohexane (Liquid); method: Chromatography
Temperature, K	Activity coefficient of methylcyclohexane	uncertainty
318.15	27.3	.819
328.15	25	.75
338.15	22.9	.687
348.15	21.3	.639
358.15	19.8	.594
368.15	18.5	.555

System: cycloheptane + 3-(2-hydroxyethyl)-1-methyl-1H-imidazolium trifluorotris(perfluoroethyl)phosphate(V); phases: Liquid
Fixed: Pressure, kPa = 101
Fixed: Mole fraction of cycloheptane = 0
Property: Activity coefficient of cycloheptane (Liquid); method: Chromatography
Temperature, K	Activity coefficient of cycloheptane	uncertainty
318.15	29	.87
328.15	26.2	.786
338.15	24.1	.723
348.15	22	.66
358.15	20.3	.609
368.15	18.9	.567

System: cyclooctane + 3-(2-hydroxyethyl)-1-methyl-1H-imidazolium trifluorotris(perfluoroethyl)phosphate(V); phases: Liquid
Fixed: Pressure, kPa = 101
Fixed: Mole fraction of cyclooctane = 0
Property: Activity coefficient of cyclooctane (Liquid); method: Chromatography
Temperature, K	Activity coefficient of cyclooctane	uncertainty
318.15	41.8	1.254
328.15	37.4	1.122
338.15	33.7	1.011
348.15	30.8	.924
358.15	28.3	.849
368.15	25.9	.777

System: 1-pentene + 3-(2-hydroxyethyl)-1-methyl-1H-imidazolium trifluorotris(perfluoroethyl)phosphate(V); phases: Liquid
Fixed: Pressure, kPa = 101
Fixed: Mole fraction of 1-pentene = 0
Property: Activity coefficient of 1-pentene (Liquid); method: Chromatography
Temperature, K	Activity coefficient of 1-pentene	uncertainty
318.15	8.95	.2685
328.15	8.67	.2601
338.15	8.39	.2517
348.15	8.18	.2454
358.15	8	.24
368.15	7.8	.234

System: 1-hexene + 3-(2-hydroxyethyl)-1-methyl-1H-imidazolium trifluorotris(perfluoroethyl)phosphate(V); phases: Liquid
Fixed: Pressure, kPa = 101
Fixed: Mole fraction of 1-hexene = 0
Property: Activity coefficient of 1-hexene (Liquid); method: Chromatography
Temperature, K	Activity coefficient of 1-hexene	uncertainty
318.15	14.2	.426
328.15	13.4	.402
338.15	12.8	.384
348.15	12.3	.369
358.15	11.8	.354
368.15	11.3	.339

System: cyclohexene + 3-(2-hydroxyethyl)-1-methyl-1H-imidazolium trifluorotris(perfluoroethyl)phosphate(V); phases: Liquid
Fixed: Pressure, kPa = 101
Fixed: Mole fraction of cyclohexene = 0
Property: Activity coefficient of cyclohexene (Liquid); method: Chromatography
Temperature, K	Activity coefficient of cyclohexene	uncertainty
318.15	9.58	.2874
328.15	9.18	.2754
338.15	8.72	.2616
348.15	8.37	.2511
358.15	8.1	.243
368.15	7.82	.2346

System: 1-heptene + 3-(2-hydroxyethyl)-1-methyl-1H-imidazolium trifluorotris(perfluoroethyl)phosphate(V); phases: Liquid
Fixed: Pressure, kPa = 101
Fixed: Mole fraction of 1-heptene = 0
Property: Activity coefficient of 1-heptene (Liquid); method: Chromatography
Temperature, K	Activity coefficient of 1-heptene	uncertainty
318.15	22	.66
328.15	20.9	.627
338.15	19.7	.591
348.15	18.7	.561
358.15	17.8	.534
368.15	17.1	.513

System: 1-octene + 3-(2-hydroxyethyl)-1-methyl-1H-imidazolium trifluorotris(perfluoroethyl)phosphate(V); phases: Liquid
Fixed: Pressure, kPa = 101
Fixed: Mole fraction of 1-octene = 0
Property: Activity coefficient of 1-octene (Liquid); method: Chromatography
Temperature, K	Activity coefficient of 1-octene	uncertainty
318.15	34.7	1.041
328.15	32.5	.975
338.15	30.1	.903
348.15	28.3	.849
358.15	26.7	.801
368.15	25.2	.756

System: 1-decene + 3-(2-hydroxyethyl)-1-methyl-1H-imidazolium trifluorotris(perfluoroethyl)phosphate(V); phases: Liquid
Fixed: Pressure, kPa = 101
Fixed: Mole fraction of 1-decene = 0
Property: Activity coefficient of 1-decene (Liquid); method: Chromatography
Temperature, K	Activity coefficient of 1-decene	uncertainty
318.15	81.4	2.442
328.15	75.1	2.253
338.15	68.8	2.064
348.15	63.2	1.896
358.15	58.7	1.761
368.15	54.6	1.638

System: 1-pentyne + 3-(2-hydroxyethyl)-1-methyl-1H-imidazolium trifluorotris(perfluoroethyl)phosphate(V); phases: Liquid
Fixed: Pressure, kPa = 101
Fixed: Mole fraction of 1-pentyne = 0
Property: Activity coefficient of 1-pentyne (Liquid); method: Chromatography
Temperature, K	Activity coefficient of 1-pentyne	uncertainty
318.15	3.11	.0933
328.15	3.13	.0939
338.15	3.15	.0945
348.15	3.17	.0951
358.15	3.2	.096
368.15	3.22	.0966

System: 1-hexyne + 3-(2-hydroxyethyl)-1-methyl-1H-imidazolium trifluorotris(perfluoroethyl)phosphate(V); phases: Liquid
Fixed: Pressure, kPa = 101
Fixed: Mole fraction of 1-hexyne = 0
Property: Activity coefficient of 1-hexyne (Liquid); method: Chromatography
Temperature, K	Activity coefficient of 1-hexyne	uncertainty
318.15	4.87	.1461
328.15	4.84	.1452
338.15	4.82	.1446
348.15	4.8	.144
358.15	4.78	.1434
368.15	4.76	.1428

System: 1-heptyne + 3-(2-hydroxyethyl)-1-methyl-1H-imidazolium trifluorotris(perfluoroethyl)phosphate(V); phases: Liquid
Fixed: Pressure, kPa = 101
Fixed: Mole fraction of 1-heptyne = 0
Property: Activity coefficient of 1-heptyne (Liquid); method: Chromatography
Temperature, K	Activity coefficient of 1-heptyne	uncertainty
318.15	7.56	.2268
328.15	7.44	.2232
338.15	7.3	.219
348.15	7.2	.216
358.15	7.08	.2124
368.15	6.99	.2097

System: 1-octyne + 3-(2-hydroxyethyl)-1-methyl-1H-imidazolium trifluorotris(perfluoroethyl)phosphate(V); phases: Liquid
Fixed: Pressure, kPa = 101
Fixed: Mole fraction of 1-octyne = 0
Property: Activity coefficient of 1-octyne (Liquid); method: Chromatography
Temperature, K	Activity coefficient of 1-octyne	uncertainty
318.15	11.8	.354
328.15	11.5	.345
338.15	11.1	.333
348.15	10.8	.324
358.15	10.5	.315
368.15	10.2	.306

System: benzene + 3-(2-hydroxyethyl)-1-methyl-1H-imidazolium trifluorotris(perfluoroethyl)phosphate(V); phases: Liquid
Fixed: Pressure, kPa = 101
Fixed: Mole fraction of benzene = 0
Property: Activity coefficient of benzene (Liquid); method: Chromatography
Temperature, K	Activity coefficient of benzene	uncertainty
318.15	1.08	.0324
328.15	1.13	.0339
338.15	1.18	.0354
348.15	1.23	.0369
358.15	1.28	.0384
368.15	1.33	.0399

System: toluene + 3-(2-hydroxyethyl)-1-methyl-1H-imidazolium trifluorotris(perfluoroethyl)phosphate(V); phases: Liquid
Fixed: Pressure, kPa = 101
Fixed: Mole fraction of toluene = 0
Property: Activity coefficient of toluene (Liquid); method: Chromatography
Temperature, K	Activity coefficient of toluene	uncertainty
318.15	1.65	.0495
328.15	1.72	.0516
338.15	1.8	.054
348.15	1.86	.0558
358.15	1.93	.0579
368.15	1.99	.0597

System: ethylbenzene + 3-(2-hydroxyethyl)-1-methyl-1H-imidazolium trifluorotris(perfluoroethyl)phosphate(V); phases: Liquid
Fixed: Pressure, kPa = 101
Fixed: Mole fraction of ethylbenzene = 0
Property: Activity coefficient of ethylbenzene (Liquid); method: Chromatography
Temperature, K	Activity coefficient of ethylbenzene	uncertainty
318.15	2.72	.0816
328.15	2.79	.0837
338.15	2.86	.0858
348.15	2.93	.0879
358.15	3	.09
368.15	3.06	.0918

System: 1,2-dimethylbenzene + 3-(2-hydroxyethyl)-1-methyl-1H-imidazolium trifluorotris(perfluoroethyl)phosphate(V); phases: Liquid
Fixed: Pressure, kPa = 101
Fixed: Mole fraction of 1,2-dimethylbenzene = 0
Property: Activity coefficient of 1,2-dimethylbenzene (Liquid); method: Chromatography
Temperature, K	Activity coefficient of 1,2-dimethylbenzene	uncertainty
318.15	2.37	.0711
328.15	2.44	.0732
338.15	2.52	.0756
348.15	2.59	.0777
358.15	2.65	.0795
368.15	2.72	.0816

System: 1,3-dimethylbenzene + 3-(2-hydroxyethyl)-1-methyl-1H-imidazolium trifluorotris(perfluoroethyl)phosphate(V); phases: Liquid
Fixed: Pressure, kPa = 101
Fixed: Mole fraction of 1,3-dimethylbenzene = 0
Property: Activity coefficient of 1,3-dimethylbenzene (Liquid); method: Chromatography
Temperature, K	Activity coefficient of 1,3-dimethylbenzene	uncertainty
318.15	2.57	.0771
328.15	2.66	.0798
338.15	2.76	.0828
348.15	2.85	.0855
358.15	2.93	.0879
368.15	3.03	.0909

System: 1,4-dimethylbenzene + 3-(2-hydroxyethyl)-1-methyl-1H-imidazolium trifluorotris(perfluoroethyl)phosphate(V); phases: Liquid
Fixed: Pressure, kPa = 101
Fixed: Mole fraction of 1,4-dimethylbenzene = 0
Property: Activity coefficient of 1,4-dimethylbenzene (Liquid); method: Chromatography
Temperature, K	Activity coefficient of 1,4-dimethylbenzene	uncertainty
318.15	2.68	.0804
328.15	2.77	.0831
338.15	2.88	.0864
348.15	2.95	.0885
358.15	3.05	.0915
368.15	3.14	.0942

System: benzene, ethenyl- + 3-(2-hydroxyethyl)-1-methyl-1H-imidazolium trifluorotris(perfluoroethyl)phosphate(V); phases: Liquid
Fixed: Pressure, kPa = 101
Fixed: Mole fraction of benzene, ethenyl- = 0
Property: Activity coefficient of benzene, ethenyl- (Liquid); method: Chromatography
Temperature, K	Activity coefficient of benzene, ethenyl-	uncertainty
318.15	1.62	.0486
328.15	1.69	.0507
338.15	1.76	.0528
348.15	1.83	.0549
358.15	1.9	.057
368.15	1.97	.0591

System: (1-methylethenyl)benzene + 3-(2-hydroxyethyl)-1-methyl-1H-imidazolium trifluorotris(perfluoroethyl)phosphate(V); phases: Liquid
Fixed: Pressure, kPa = 101
Fixed: Mole fraction of (1-methylethenyl)benzene = 0
Property: Activity coefficient of (1-methylethenyl)benzene (Liquid); method: Chromatography
Temperature, K	Activity coefficient of (1-methylethenyl)benzene	uncertainty
318.15	2.66	.0798
328.15	2.79	.0837
338.15	2.9	.087
348.15	3.03	.0909
358.15	3.13	.0939
368.15	3.25	.0975

System: thiophene + 3-(2-hydroxyethyl)-1-methyl-1H-imidazolium trifluorotris(perfluoroethyl)phosphate(V); phases: Liquid
Fixed: Pressure, kPa = 101
Fixed: Mole fraction of thiophene = 0
Property: Activity coefficient of thiophene (Liquid); method: Chromatography
Temperature, K	Activity coefficient of thiophene	uncertainty
318.15	1.11	.0333
328.15	1.14	.0342
338.15	1.18	.0354
348.15	1.22	.0366
358.15	1.26	.0378
368.15	1.3	.039

System: pyridine + 3-(2-hydroxyethyl)-1-methyl-1H-imidazolium trifluorotris(perfluoroethyl)phosphate(V); phases: Liquid
Fixed: Pressure, kPa = 101
Fixed: Mole fraction of pyridine = 0
Property: Activity coefficient of pyridine (Liquid); method: Chromatography
Temperature, K	Activity coefficient of pyridine	uncertainty
328.15	.0694	.002082
338.15	.0854	.002562
348.15	.104	.00312
358.15	.126	.00378
368.15	.149	.00447

System: methanol + 3-(2-hydroxyethyl)-1-methyl-1H-imidazolium trifluorotris(perfluoroethyl)phosphate(V); phases: Liquid
Fixed: Pressure, kPa = 101
Fixed: Mole fraction of methanol = 0
Property: Activity coefficient of methanol (Liquid); method: Chromatography
Temperature, K	Activity coefficient of methanol	uncertainty
318.15	.689	.02067
328.15	.701	.02103
338.15	.71	.0213
348.15	.719	.02157
358.15	.729	.02187
368.15	.735	.02205

System: ethanol + 3-(2-hydroxyethyl)-1-methyl-1H-imidazolium trifluorotris(perfluoroethyl)phosphate(V); phases: Liquid
Fixed: Pressure, kPa = 101
Fixed: Mole fraction of ethanol = 0
Property: Activity coefficient of ethanol (Liquid); method: Chromatography
Temperature, K	Activity coefficient of ethanol	uncertainty
318.15	.789	.02367
328.15	.801	.02403
338.15	.811	.02433
348.15	.821	.02463
358.15	.829	.02487
368.15	.838	.02514

System: 1-propanol + 3-(2-hydroxyethyl)-1-methyl-1H-imidazolium trifluorotris(perfluoroethyl)phosphate(V); phases: Liquid
Fixed: Pressure, kPa = 101
Fixed: Mole fraction of 1-propanol = 0
Property: Activity coefficient of 1-propanol (Liquid); method: Chromatography
Temperature, K	Activity coefficient of 1-propanol	uncertainty
318.15	1.11	.0333
328.15	1.12	.0336
338.15	1.12	.0336
348.15	1.13	.0339
358.15	1.13	.0339
368.15	1.13	.0339

System: 2-propanol + 3-(2-hydroxyethyl)-1-methyl-1H-imidazolium trifluorotris(perfluoroethyl)phosphate(V); phases: Liquid
Fixed: Pressure, kPa = 101
Fixed: Mole fraction of 2-propanol = 0
Property: Activity coefficient of 2-propanol (Liquid); method: Chromatography
Temperature, K	Activity coefficient of 2-propanol	uncertainty
318.15	.811	.02433
328.15	.821	.02463
338.15	.834	.02502
348.15	.841	.02523
358.15	.853	.02559
368.15	.864	.02592

System: 1-butanol + 3-(2-hydroxyethyl)-1-methyl-1H-imidazolium trifluorotris(perfluoroethyl)phosphate(V); phases: Liquid
Fixed: Pressure, kPa = 101
Fixed: Mole fraction of 1-butanol = 0
Property: Activity coefficient of 1-butanol (Liquid); method: Chromatography
Temperature, K	Activity coefficient of 1-butanol	uncertainty
318.15	1.57	.0471
328.15	1.55	.0465
338.15	1.54	.0462
348.15	1.52	.0456
358.15	1.51	.0453
368.15	1.5	.045

System: (RS)-2-butanol + 3-(2-hydroxyethyl)-1-methyl-1H-imidazolium trifluorotris(perfluoroethyl)phosphate(V); phases: Liquid
Fixed: Pressure, kPa = 101
Fixed: Mole fraction of (RS)-2-butanol = 0
Property: Activity coefficient of (RS)-2-butanol (Liquid); method: Chromatography
Temperature, K	Activity coefficient of (RS)-2-butanol	uncertainty
318.15	1.06	.0318
328.15	1.07	.0321
338.15	1.09	.0327
348.15	1.1	.033
358.15	1.11	.0333
368.15	1.13	.0339

System: 2-methyl-1-propanol + 3-(2-hydroxyethyl)-1-methyl-1H-imidazolium trifluorotris(perfluoroethyl)phosphate(V); phases: Liquid
Fixed: Pressure, kPa = 101
Fixed: Mole fraction of 2-methyl-1-propanol = 0
Property: Activity coefficient of 2-methyl-1-propanol (Liquid); method: Chromatography
Temperature, K	Activity coefficient of 2-methyl-1-propanol	uncertainty
318.15	1.55	.0465
328.15	1.52	.0456
338.15	1.5	.045
348.15	1.47	.0441
358.15	1.45	.0435
368.15	1.43	.0429

System: 2-methyl-2-propanol + 3-(2-hydroxyethyl)-1-methyl-1H-imidazolium trifluorotris(perfluoroethyl)phosphate(V); phases: Liquid
Fixed: Pressure, kPa = 101
Fixed: Mole fraction of 2-methyl-2-propanol = 0
Property: Activity coefficient of 2-methyl-2-propanol (Liquid); method: Chromatography
Temperature, K	Activity coefficient of 2-methyl-2-propanol	uncertainty
318.15	.709	.02127
328.15	.735	.02205
338.15	.767	.02301
348.15	.789	.02367
358.15	.818	.02454
368.15	.845	.02535

System: 1-pentanol + 3-(2-hydroxyethyl)-1-methyl-1H-imidazolium trifluorotris(perfluoroethyl)phosphate(V); phases: Liquid
Fixed: Pressure, kPa = 101
Fixed: Mole fraction of 1-pentanol = 0
Property: Activity coefficient of 1-pentanol (Liquid); method: Chromatography
Temperature, K	Activity coefficient of 1-pentanol	uncertainty
318.15	2.04	.0612
328.15	2.02	.0606
338.15	2	.06
348.15	1.98	.0594
358.15	1.97	.0591
368.15	1.96	.0588

System: water + 3-(2-hydroxyethyl)-1-methyl-1H-imidazolium trifluorotris(perfluoroethyl)phosphate(V); phases: Liquid
Fixed: Pressure, kPa = 101
Fixed: Mole fraction of water = 0
Property: Activity coefficient of water (Liquid); method: Chromatography
Temperature, K	Activity coefficient of water	uncertainty
318.15	2.22	.0666
328.15	2.1	.063
338.15	2.01	.0603
348.15	1.92	.0576
358.15	1.85	.0555
368.15	1.77	.0531

System: methyl ethanoate + 3-(2-hydroxyethyl)-1-methyl-1H-imidazolium trifluorotris(perfluoroethyl)phosphate(V); phases: Liquid
Fixed: Pressure, kPa = 101
Fixed: Mole fraction of methyl ethanoate = 0
Property: Activity coefficient of methyl ethanoate (Liquid); method: Chromatography
Temperature, K	Activity coefficient of methyl ethanoate	uncertainty
318.15	.176	.00528
328.15	.198	.00594
338.15	.225	.00675
348.15	.251	.00753
358.15	.279	.00837
368.15	.308	.00924

System: methyl propanoate + 3-(2-hydroxyethyl)-1-methyl-1H-imidazolium trifluorotris(perfluoroethyl)phosphate(V); phases: Liquid
Fixed: Pressure, kPa = 101
Fixed: Mole fraction of methyl propanoate = 0
Property: Activity coefficient of methyl propanoate (Liquid); method: Chromatography
Temperature, K	Activity coefficient of methyl propanoate	uncertainty
318.15	.26	.0078
328.15	.293	.00879
338.15	.33	.0099
348.15	.365	.01095
358.15	.404	.01212
368.15	.445	.01335

System: methyl butanoate + 3-(2-hydroxyethyl)-1-methyl-1H-imidazolium trifluorotris(perfluoroethyl)phosphate(V); phases: Liquid
Fixed: Pressure, kPa = 101
Fixed: Mole fraction of methyl butanoate = 0
Property: Activity coefficient of methyl butanoate (Liquid); method: Chromatography
Temperature, K	Activity coefficient of methyl butanoate	uncertainty
318.15	.404	.01212
328.15	.451	.01353
338.15	.502	.01506
348.15	.548	.01644
358.15	.601	.01803
368.15	.657	.01971

System: ethyl ethanoate + 3-(2-hydroxyethyl)-1-methyl-1H-imidazolium trifluorotris(perfluoroethyl)phosphate(V); phases: Liquid
Fixed: Pressure, kPa = 101
Fixed: Mole fraction of ethyl ethanoate = 0
Property: Activity coefficient of ethyl ethanoate (Liquid); method: Chromatography
Temperature, K	Activity coefficient of ethyl ethanoate	uncertainty
318.15	.235	.00705
328.15	.265	.00795
338.15	.3	.009
348.15	.333	.00999
358.15	.37	.0111
368.15	.41	.0123

System: ethenyl ethanoate + 3-(2-hydroxyethyl)-1-methyl-1H-imidazolium trifluorotris(perfluoroethyl)phosphate(V); phases: Liquid
Fixed: Pressure, kPa = 101
Fixed: Mole fraction of ethenyl ethanoate = 0
Property: Activity coefficient of ethenyl ethanoate (Liquid); method: Chromatography
Temperature, K	Activity coefficient of ethenyl ethanoate	uncertainty
318.15	.485	.01455
328.15	.52	.0156
338.15	.561	.01683
348.15	.596	.01788
358.15	.634	.01902
368.15	.673	.02019

System: tetrahydrofuran + 3-(2-hydroxyethyl)-1-methyl-1H-imidazolium trifluorotris(perfluoroethyl)phosphate(V); phases: Liquid
Fixed: Pressure, kPa = 101
Fixed: Mole fraction of tetrahydrofuran = 0
Property: Activity coefficient of tetrahydrofuran (Liquid); method: Chromatography
Temperature, K	Activity coefficient of tetrahydrofuran	uncertainty
318.15	.172	.00516
328.15	.202	.00606
338.15	.234	.00702
348.15	.266	.00798
358.15	.302	.00906
368.15	.342	.01026

System: 1,4-dioxane + 3-(2-hydroxyethyl)-1-methyl-1H-imidazolium trifluorotris(perfluoroethyl)phosphate(V); phases: Liquid
Fixed: Pressure, kPa = 101
Fixed: Mole fraction of 1,4-dioxane = 0
Property: Activity coefficient of 1,4-dioxane (Liquid); method: Chromatography
Temperature, K	Activity coefficient of 1,4-dioxane	uncertainty
318.15	.127	.00381
328.15	.151	.00453
338.15	.175	.00525
348.15	.204	.00612
358.15	.234	.00702
368.15	.266	.00798

System: 1,1-dimethylethyl methyl ether + 3-(2-hydroxyethyl)-1-methyl-1H-imidazolium trifluorotris(perfluoroethyl)phosphate(V); phases: Liquid
Fixed: Pressure, kPa = 101
Fixed: Mole fraction of 1,1-dimethylethyl methyl ether = 0
Property: Activity coefficient of 1,1-dimethylethyl methyl ether (Liquid); method: Chromatography
Temperature, K	Activity coefficient of 1,1-dimethylethyl methyl ether	uncertainty
318.15	.583	.01749
328.15	.684	.02052
338.15	.787	.02361
348.15	.907	.02721
358.15	1.03	.0309
368.15	1.16	.0348

System: ethyl 1,1-dimethylethyl ether + 3-(2-hydroxyethyl)-1-methyl-1H-imidazolium trifluorotris(perfluoroethyl)phosphate(V); phases: Liquid
Fixed: Pressure, kPa = 101
Fixed: Mole fraction of ethyl 1,1-dimethylethyl ether = 0
Property: Activity coefficient of ethyl 1,1-dimethylethyl ether (Liquid); method: Chromatography
Temperature, K	Activity coefficient of ethyl 1,1-dimethylethyl ether	uncertainty
318.15	1.37	.0411
328.15	1.58	.0474
338.15	1.79	.0537
348.15	2.04	.0612
358.15	2.27	.0681
368.15	2.52	.0756

System: ether, methyl tert-pentyl + 3-(2-hydroxyethyl)-1-methyl-1H-imidazolium trifluorotris(perfluoroethyl)phosphate(V); phases: Liquid
Fixed: Pressure, kPa = 101
Fixed: Mole fraction of ether, methyl tert-pentyl = 0
Property: Activity coefficient of ether, methyl tert-pentyl (Liquid); method: Chromatography
Temperature, K	Activity coefficient of ether, methyl tert-pentyl	uncertainty
318.15	.995	.02985
328.15	1.15	.0345
338.15	1.3	.039
348.15	1.48	.0444
358.15	1.66	.0498
368.15	1.84	.0552

System: diethyl ether + 3-(2-hydroxyethyl)-1-methyl-1H-imidazolium trifluorotris(perfluoroethyl)phosphate(V); phases: Liquid
Fixed: Pressure, kPa = 101
Fixed: Mole fraction of diethyl ether = 0
Property: Activity coefficient of diethyl ether (Liquid); method: Chromatography
Temperature, K	Activity coefficient of diethyl ether	uncertainty
318.15	.668	.02004
328.15	.765	.02295
338.15	.861	.02583
348.15	.97	.0291
358.15	1.08	.0324
368.15	1.2	.036

System: 1-methyl-1-(1-methylethoxy)ethane + 3-(2-hydroxyethyl)-1-methyl-1H-imidazolium trifluorotris(perfluoroethyl)phosphate(V); phases: Liquid
Fixed: Pressure, kPa = 101
Fixed: Mole fraction of 1-methyl-1-(1-methylethoxy)ethane = 0
Property: Activity coefficient of 1-methyl-1-(1-methylethoxy)ethane (Liquid); method: Chromatography
Temperature, K	Activity coefficient of 1-methyl-1-(1-methylethoxy)ethane	uncertainty
318.15	1.36	.0408
328.15	1.58	.0474
338.15	1.81	.0543
348.15	2.08	.0624
358.15	2.33	.0699
368.15	2.61	.0783

System: 5-oxanonane + 3-(2-hydroxyethyl)-1-methyl-1H-imidazolium trifluorotris(perfluoroethyl)phosphate(V); phases: Liquid
Fixed: Pressure, kPa = 101
Fixed: Mole fraction of 5-oxanonane = 0
Property: Activity coefficient of 5-oxanonane (Liquid); method: Chromatography
Temperature, K	Activity coefficient of 5-oxanonane	uncertainty
318.15	6.28	.1884
328.15	6.69	.2007
338.15	7.02	.2106
348.15	7.39	.2217
358.15	7.73	.2319
368.15	8.08	.2424

System: dipropyl ether + 3-(2-hydroxyethyl)-1-methyl-1H-imidazolium trifluorotris(perfluoroethyl)phosphate(V); phases: Liquid
Fixed: Pressure, kPa = 101
Fixed: Mole fraction of dipropyl ether = 0
Property: Activity coefficient of dipropyl ether (Liquid); method: Chromatography
Temperature, K	Activity coefficient of dipropyl ether	uncertainty
318.15	2.42	.0726
328.15	2.67	.0801
338.15	2.89	.0867
348.15	3.14	.0942
358.15	3.37	.1011
368.15	3.64	.1092

System: acetone + 3-(2-hydroxyethyl)-1-methyl-1H-imidazolium trifluorotris(perfluoroethyl)phosphate(V); phases: Liquid
Fixed: Pressure, kPa = 101
Fixed: Mole fraction of acetone = 0
Property: Activity coefficient of acetone (Liquid); method: Chromatography
Temperature, K	Activity coefficient of acetone	uncertainty
318.15	.0839	.002517
328.15	.0972	.002916
338.15	.112	.00336
348.15	.127	.00381
358.15	.143	.00429
368.15	.16	.0048

System: 2-pentanone + 3-(2-hydroxyethyl)-1-methyl-1H-imidazolium trifluorotris(perfluoroethyl)phosphate(V); phases: Liquid
Fixed: Pressure, kPa = 101
Fixed: Mole fraction of 2-pentanone = 0
Property: Activity coefficient of 2-pentanone (Liquid); method: Chromatography
Temperature, K	Activity coefficient of 2-pentanone	uncertainty
318.15	.177	.00531
328.15	.205	.00615
338.15	.235	.00705
348.15	.263	.00789
358.15	.295	.00885
368.15	.331	.00993

System: 3-pentanone + 3-(2-hydroxyethyl)-1-methyl-1H-imidazolium trifluorotris(perfluoroethyl)phosphate(V); phases: Liquid
Fixed: Pressure, kPa = 101
Fixed: Mole fraction of 3-pentanone = 0
Property: Activity coefficient of 3-pentanone (Liquid); method: Chromatography
Temperature, K	Activity coefficient of 3-pentanone	uncertainty
318.15	.197	.00591
328.15	.226	.00678
338.15	.26	.0078
348.15	.29	.0087
358.15	.328	.00984
368.15	.366	.01098

System: propanal + 3-(2-hydroxyethyl)-1-methyl-1H-imidazolium trifluorotris(perfluoroethyl)phosphate(V); phases: Liquid
Fixed: Pressure, kPa = 101
Fixed: Mole fraction of propanal = 0
Property: Activity coefficient of propanal (Liquid); method: Chromatography
Temperature, K	Activity coefficient of propanal	uncertainty
318.15	.204	.00612
328.15	.227	.00681
338.15	.251	.00753
348.15	.276	.00828
358.15	.303	.00909
368.15	.332	.00996

System: butanal + 3-(2-hydroxyethyl)-1-methyl-1H-imidazolium trifluorotris(perfluoroethyl)phosphate(V); phases: Liquid
Fixed: Pressure, kPa = 101
Fixed: Mole fraction of butanal = 0
Property: Activity coefficient of butanal (Liquid); method: Chromatography
Temperature, K	Activity coefficient of butanal	uncertainty
318.15	.298	.00894
328.15	.327	.00981
338.15	.362	.01086
348.15	.394	.01182
358.15	.431	.01293
368.15	.467	.01401

System: acetonitrile + 3-(2-hydroxyethyl)-1-methyl-1H-imidazolium trifluorotris(perfluoroethyl)phosphate(V); phases: Liquid
Fixed: Pressure, kPa = 101
Fixed: Mole fraction of acetonitrile = 0
Property: Activity coefficient of acetonitrile (Liquid); method: Chromatography
Temperature, K	Activity coefficient of acetonitrile	uncertainty
318.15	.138	.00414
328.15	.153	.00459
338.15	.169	.00507
348.15	.185	.00555
358.15	.202	.00606
368.15	.22	.0066

System: 1-nitropropane + 3-(2-hydroxyethyl)-1-methyl-1H-imidazolium trifluorotris(perfluoroethyl)phosphate(V); phases: Liquid
Fixed: Pressure, kPa = 101
Fixed: Mole fraction of 1-nitropropane = 0
Property: Activity coefficient of 1-nitropropane (Liquid); method: Chromatography
Temperature, K	Activity coefficient of 1-nitropropane	uncertainty
318.15	.483	.01449
328.15	.506	.01518
338.15	.53	.0159
348.15	.554	.01662
358.15	.577	.01731
368.15	.601	.01803
