Measured thermophysical data. Determination and correlation of solubility and thermodynamics of mixing of 4-aminobutyric acid in mono-solvents and binary solvent mixtures
Source: J. Chem. Thermodyn., 2016, 10.1016/j.jct.2016.07.014
Compound 1: 4-aminobutyric acid, C4H9NO2, purity 99.5%
Compound 2: methanol, CH4O, purity 99.5%
Compound 3: formamide, CH3NO, purity 99.5%
Compound 4: 1,2-propanediol, C3H8O2, purity 99.5%
Compound 5: 1,3-propanediol, C3H8O2, purity 99.5%
Compound 6: water, H2O

System: 4-aminobutyric acid + methanol; phases: Liquid, Crystal
Fixed: Pressure, kPa = 100
Property: Mole fraction of 4-aminobutyric acid (Liquid); method: Titration method
Temperature, K	Mole fraction of 4-aminobutyric acid	uncertainty
283.15	.001733	
288.15	.002018	
293.15	.002322	
298.15	.002587	
303.15	.003043	
308.15	.00352	
313.15	.003914	
318.15	.004586	
323.15	.005381	

System: 4-aminobutyric acid + formamide; phases: Liquid, Crystal
Fixed: Pressure, kPa = 100
Property: Mole fraction of 4-aminobutyric acid (Liquid); method: Titration method
Temperature, K	Mole fraction of 4-aminobutyric acid	uncertainty
283.15	.01139	
288.15	.0131	
293.15	.01579	
298.15	.01872	
303.15	.02191	
308.15	.0251	
313.15	.02906	
318.15	.03225	
323.15	.03541	

System: 4-aminobutyric acid + 1,2-propanediol; phases: Liquid, Crystal
Fixed: Pressure, kPa = 100
Property: Mole fraction of 4-aminobutyric acid (Liquid); method: Titration method
Temperature, K	Mole fraction of 4-aminobutyric acid	uncertainty
283.15	.01518	
288.15	.01858	
293.15	.02277	
298.15	.02704	
303.15	.03232	
308.15	.03706	
313.15	.0426	
318.15	.04869	
323.15	.05478	

System: 4-aminobutyric acid + 1,3-propanediol; phases: Liquid, Crystal
Fixed: Pressure, kPa = 100
Property: Mole fraction of 4-aminobutyric acid (Liquid); method: Titration method
Temperature, K	Mole fraction of 4-aminobutyric acid	uncertainty
283.15	.00564	
288.15	.006478	
293.15	.007117	
298.15	.008027	
303.15	.009136	
308.15	.0103	
313.15	.01165	
318.15	.0135	
323.15	.01494	

System: 4-aminobutyric acid + methanol + water; phases: Liquid, Crystal
Fixed: Pressure, kPa = 100
Property: Mole fraction of 4-aminobutyric acid (Liquid); method: Titration method
Temperature, K	Solvent: Mole fraction of methanol	Mole fraction of 4-aminobutyric acid	uncertainty
283.15	.0588	.1621	
283.15	.1232	.1531	
283.15	.1941	.1356	
283.15	.2726	.1221	
283.15	.3598	.09939	
283.15	.4575	.07227	
283.15	.5674	.04065	
283.15	.6922	.01809	
283.15	.835	.006329	
288.15	.0588	.1696	
288.15	.1232	.1569	
288.15	.1941	.1408	
288.15	.2726	.1295	
288.15	.3598	.1054	
288.15	.4575	.07383	
288.15	.5674	.04401	
288.15	.6922	.01998	
288.15	.835	.006959	
293.15	.0588	.175	
293.15	.1232	.1613	
293.15	.1941	.146	
293.15	.2726	.1349	
293.15	.3598	.1112	
293.15	.4575	.07911	
293.15	.5674	.04787	
293.15	.6922	.02166	
293.15	.835	.007593	
298.15	.0588	.176	
298.15	.1232	.1666	
298.15	.1941	.1519	
298.15	.2726	.1409	
298.15	.3598	.1131	
298.15	.4575	.08507	
298.15	.5674	.05302	
298.15	.6922	.02427	
298.15	.835	.008481	
303.15	.0588	.1802	
303.15	.1232	.168	
303.15	.1941	.1575	
303.15	.2726	.1471	
303.15	.3598	.1201	
303.15	.4575	.09112	
303.15	.5674	.05757	
303.15	.6922	.02674	
303.15	.835	.009607	
308.15	.0588	.1842	
308.15	.1232	.174	
308.15	.1941	.1634	
308.15	.2726	.1495	
308.15	.3598	.1237	
308.15	.4575	.09788	
308.15	.5674	.05968	
308.15	.6922	.02859	
308.15	.835	.01051	
313.15	.0588	.1876	
313.15	.1232	.1794	
313.15	.1941	.1714	
313.15	.2726	.154	
313.15	.3598	.1325	
313.15	.4575	.1016	
313.15	.5674	.06335	
313.15	.6922	.03186	
313.15	.835	.01205	
318.15	.0588	.1909	
318.15	.1232	.1847	
318.15	.1941	.1763	
318.15	.2726	.1596	
318.15	.3598	.1426	
318.15	.4575	.1092	
318.15	.5674	.06665	
318.15	.6922	.03504	
318.15	.835	.01315	
323.15	.0588	.1957	
323.15	.1232	.19	
323.15	.1941	.1812	
323.15	.2726	.1643	
323.15	.3598	.1468	
323.15	.4575	.1136	
323.15	.5674	.07283	
323.15	.6922	.03818	
323.15	.835	.0148	
283.15	0	.1687	
288.15	0	.1733	
293.15	0	.176	
298.15	0	.1806	
303.15	0	.1832	
308.15	0	.1878	
313.15	0	.1904	
318.15	0	.195	
323.15	0	.1987	
283.15	1	.001733	
288.15	1	.002018	
293.15	1	.002322	
298.15	1	.002587	
303.15	1	.003043	
308.15	1	.00352	
313.15	1	.003914	
318.15	1	.004586	
323.15	1	.005381	

System: 4-aminobutyric acid + water; phases: Liquid, Crystal
Fixed: Pressure, kPa = 100
Property: Mole fraction of 4-aminobutyric acid (Liquid); method: Titration method
Temperature, K	Mole fraction of 4-aminobutyric acid	uncertainty
283.15	.1687	
288.15	.1733	
293.15	.176	
298.15	.1806	
303.15	.1832	
308.15	.1878	
313.15	.1904	
318.15	.195	
323.15	.1987	
