Measured thermophysical data. Complementary vapor pressure data for 2-methyl-1-propanol and  3-methyl-1-butanol at a pressure range of (15 to 177) kPa
Source: J. Chem. Thermodyn., 2009, 10.1016/j.jct.2009.04.009
Compound 1: 2-methyl-1-propanol, C4H10O
Compound 2: 3-methylbutan-1-ol, C5H12O

System: 2-methyl-1-propanol; phases: Liquid, Gas
Property: Vapor or sublimation pressure, kPa (Liquid); method: Recirculating still
Temperature, K	Vapor or sublimation pressure, kPa	uncertainty
336.9	15	.03
351.2	30	.06
357.7	40	.08
362.9	50	.1
367.4	60	.12
371.3	70	.14
374.7	80	.16
377.8	90	.18
380.7	100	.2
383.3	110	.22
385.8	120	.24
388	130	.26
390.2	140	.28
392.2	150	.3

System: 3-methylbutan-1-ol; phases: Liquid, Gas
Property: Vapor or sublimation pressure, kPa (Liquid); method: Recirculating Still
Temperature, K	Vapor or sublimation pressure, kPa	uncertainty
357.5	15	.03
367.2	23.5	.047
374.4	32	.064
380.1	40.5	.081
384.8	49	.098
389.1	57.5	.115
392.8	66	.132
402	91.5	.183
407	108.5	.217
409.3	117	.234
411.4	125.5	.251
413.5	134	.268
415.4	142.5	.285
417.3	151	.302
419.2	159.5	.319
420.9	168	.336
422.4	176.5	.353
