Measured thermophysical data. Solubility and solution thermodynamics of 2-methyl-6-nitroaniline in ten organic solvents at elevated temperatures
Source: J. Chem. Thermodyn., 2016, 10.1016/j.jct.2016.05.027
Compound 1: 2-methyl-6-nitroaniline, C7H8N2O2, purity 98.5%
Compound 2: 1,4-dioxane, C4H8O2, purity 99.5%
Compound 3: n-propanol, C3H8O, purity 99.7%
Compound 4: isopropanol, C3H8O, purity 99.6%
Compound 5: ethanol, C2H6O, purity 99.7%
Compound 6: methanol, CH4O, purity 99.5%
Compound 7: toluene, C7H8, purity 99.8%
Compound 8: ethyl acetate, C4H8O2, purity 99.5%
Compound 9: acetonitrile, C2H3N, purity 99.8%
Compound 10: cyclohexane, C6H12, purity 99.7%
Compound 11: acetone, C3H6O, purity 99.6%
Compound 12: carbon tetrachloride, CCl4, purity 99.5%

System: 2-methyl-6-nitroaniline; phases: Crystal, Liquid, Air at 1 atmosphere
Property: Normal melting temperature, K (Crystal); method: DSC/DTA
Normal melting temperature, K	uncertainty
366.75	.5

System: 2-methyl-6-nitroaniline; phases: Crystal, Liquid, Air at 1 atmosphere
Property: Molar enthalpy of transition or fusion, kJ/mol (Crystal); method: DSC
Molar enthalpy of transition or fusion, kJ/mol	uncertainty
24.15	.4

System: 2-methyl-6-nitroaniline; phases: Crystal
Fixed: Pressure, kPa = 101.325
Property: Mass density, kg/m3 (Crystal); method: flotation method
Temperature, K	Mass density, kg/m3	uncertainty
298.15	1242.4	1.2

System: acetonitrile + 2-methyl-6-nitroaniline; phases: Liquid, Crystal
Fixed: Pressure, kPa = 101.3
Property: Mole fraction of 2-methyl-6-nitroaniline (Liquid); method: Chromatography
Temperature, K	Mole fraction of 2-methyl-6-nitroaniline	uncertainty
278.15	.04179	
280.65	.04659	
283.15	.05288	
285.65	.05891	
288.15	.06702	
290.65	.07534	
293.15	.08441	
295.65	.0954	
298.15	.1063	
300.65	.1186	
303.15	.1325	
305.65	.1477	
308.15	.1646	
310.65	.183	
313.15	.2027	

System: ethyl acetate + 2-methyl-6-nitroaniline; phases: Liquid, Crystal
Fixed: Pressure, kPa = 101.3
Property: Mole fraction of 2-methyl-6-nitroaniline (Liquid); method: Chromatography
Temperature, K	Mole fraction of 2-methyl-6-nitroaniline	uncertainty
278.15	.08414	
280.65	.09236	
283.15	.1009	
285.65	.1104	
288.15	.1212	
290.65	.1311	
293.15	.1424	
295.65	.1547	
298.15	.1675	
300.65	.1817	
303.15	.1962	
305.65	.2121	
308.15	.2284	
310.65	.2462	
313.15	.2654	

System: ethanol + 2-methyl-6-nitroaniline; phases: Liquid, Crystal
Fixed: Pressure, kPa = 101.3
Property: Mole fraction of 2-methyl-6-nitroaniline (Liquid); method: Chromatography
Temperature, K	Mole fraction of 2-methyl-6-nitroaniline	uncertainty
278.15	.0102	
280.65	.01125	
283.15	.01249	
285.65	.01387	
288.15	.01538	
290.65	.01702	
293.15	.01898	
295.65	.02099	
298.15	.02327	
300.65	.02562	
303.15	.02845	
305.65	.03135	
308.15	.03463	
310.65	.03811	
313.15	.04202	

System: n-propanol + 2-methyl-6-nitroaniline; phases: Liquid, Crystal
Fixed: Pressure, kPa = 101.3
Property: Mole fraction of 2-methyl-6-nitroaniline (Liquid); method: Chromatography
Temperature, K	Mole fraction of 2-methyl-6-nitroaniline	uncertainty
278.15	.0108	
280.65	.01201	
283.15	.01329	
285.65	.01488	
288.15	.01652	
290.65	.01834	
293.15	.02025	
295.65	.02245	
298.15	.0248	
300.65	.02749	
303.15	.03051	
305.65	.03358	
308.15	.0371	
310.65	.04098	
313.15	.04514	

System: isopropanol + 2-methyl-6-nitroaniline; phases: Liquid, Crystal
Fixed: Pressure, kPa = 101.3
Property: Mole fraction of 2-methyl-6-nitroaniline (Liquid); method: Chromatography
Temperature, K	Mole fraction of 2-methyl-6-nitroaniline	uncertainty
278.15	.008595	
280.65	.009453	
283.15	.01052	
285.65	.01193	
288.15	.01327	
290.65	.01472	
293.15	.01632	
295.65	.01828	
298.15	.02024	
300.65	.02248	
303.15	.02487	
305.65	.02765	
308.15	.03059	
310.65	.03393	
313.15	.03763	

System: toluene + 2-methyl-6-nitroaniline; phases: Liquid, Crystal
Fixed: Pressure, kPa = 101.3
Property: Mole fraction of 2-methyl-6-nitroaniline (Liquid); method: Chromatography
Temperature, K	Mole fraction of 2-methyl-6-nitroaniline	uncertainty
278.15	.02367	
280.65	.0267	
283.15	.03005	
285.65	.03364	
288.15	.03754	
290.65	.04167	
293.15	.04692	
295.65	.05214	
298.15	.05807	
300.65	.06472	
303.15	.07188	
305.65	.08041	
308.15	.08931	
310.65	.09928	
313.15	.1104	

System: 1,4-dioxane + 2-methyl-6-nitroaniline; phases: Liquid, Crystal
Fixed: Pressure, kPa = 101.3
Property: Mole fraction of 2-methyl-6-nitroaniline (Liquid); method: Chromatography
Temperature, K	Mole fraction of 2-methyl-6-nitroaniline	uncertainty
283.15	.1799	
285.65	.1899	
288.15	.2006	
290.65	.2115	
293.15	.2231	
295.65	.236	
298.15	.2491	
300.65	.2624	
303.15	.2765	
305.65	.2912	
308.15	.3064	
310.65	.3229	
313.15	.339	

System: cyclohexane + 2-methyl-6-nitroaniline; phases: Liquid, Crystal
Fixed: Pressure, kPa = 101.3
Property: Mole fraction of 2-methyl-6-nitroaniline (Liquid); method: Chromatography
Temperature, K	Mole fraction of 2-methyl-6-nitroaniline	uncertainty
283.15	.001027	
285.65	.001182	
288.15	.001357	
290.65	.001584	
293.15	.001808	
295.65	.002112	
298.15	.002421	
300.65	.002794	
303.15	.003185	
305.65	.003695	
308.15	.004241	
310.65	.004893	
313.15	.005617	

System: methanol + 2-methyl-6-nitroaniline; phases: Liquid, Crystal
Fixed: Pressure, kPa = 101.3
Property: Mole fraction of 2-methyl-6-nitroaniline (Liquid); method: Chromatography
Temperature, K	Mole fraction of 2-methyl-6-nitroaniline	uncertainty
278.15	.007391	
280.65	.008294	
283.15	.009161	
285.65	.01018	
288.15	.01132	
290.65	.01245	
293.15	.01396	
295.65	.01547	
298.15	.01724	
300.65	.01915	
303.15	.02124	
305.65	.02341	
308.15	.02605	
310.65	.0288	
313.15	.03198	

System: acetone + 2-methyl-6-nitroaniline; phases: Liquid, Crystal
Fixed: Pressure, kPa = 101.3
Property: Mole fraction of 2-methyl-6-nitroaniline (Liquid); method: Chromatography
Temperature, K	Mole fraction of 2-methyl-6-nitroaniline	uncertainty
278.15	.1128	
280.65	.1219	
283.15	.1315	
285.65	.1423	
288.15	.1533	
290.65	.1652	
293.15	.1769	
295.65	.1899	
298.15	.2033	
300.65	.2174	
303.15	.2334	
305.65	.2494	
308.15	.2651	
310.65	.2828	
313.15	.301	

System: carbon tetrachloride + 2-methyl-6-nitroaniline; phases: Liquid, Crystal
Fixed: Pressure, kPa = 101.3
Property: Mole fraction of 2-methyl-6-nitroaniline (Liquid); method: Chromatography
Temperature, K	Mole fraction of 2-methyl-6-nitroaniline	uncertainty
298.15	.0001164	
