Measured thermophysical data. Volumetric property of glycine, L-serine, L-alanine and L-proline in aqueous solutions of 1-phenylpiperazinium tetrafluoroborate
Source: J. Chem. Thermodyn., 2016, 10.1016/j.jct.2016.03.045
Compound 1: glycine, C2H5NO2, purity 99%
Compound 2: L-serine, C3H7NO3, purity 99%
Compound 3: L-alanine, C3H7NO2, purity 99%
Compound 4: L-proline, C5H9NO2, purity 99%
Compound 5: 1-phenylpiperazinium tetrafluoroborate, C10H15BF4N2
Compound 6: water, H2O, purity 99.9%

System: glycine + water + 1-phenylpiperazinium tetrafluoroborate; phases: Liquid
Fixed: Pressure, kPa = 100
Property: Mass density, kg/m3 (Liquid); method: Vibrating tube method
Temperature, K	Solvent: Molality, mol/kg of 1-phenylpiperazinium tetrafluoroborate	Molality, mol/kg of glycine	Mass density, kg/m3	uncertainty
298.15	.025	.0499	1000.38	
298.15	.025	.0999	1001.94	
298.15	.025	.15	1003.52	
298.15	.025	.2	1005.05	
298.15	.025	.2499	1006.6	
298.15	.025	.3	1008.13	
298.15	.025	.35	1009.63	
298.15	.025	.3999	1011.21	
303.15	.025	.0499	998.94	
303.15	.025	.0999	1000.49	
303.15	.025	.15	1002.05	
303.15	.025	.2	1003.57	
303.15	.025	.2499	1005.11	
303.15	.025	.3	1006.63	
303.15	.025	.35	1008.11	
303.15	.025	.3999	1009.67	
308.15	.025	.0499	997.29	
308.15	.025	.0999	998.82	
308.15	.025	.15	1000.38	
308.15	.025	.2	1001.89	
308.15	.025	.2499	1003.41	
308.15	.025	.3	1004.92	
308.15	.025	.35	1006.39	
308.15	.025	.3999	1007.95	
298.15	.055	.05	1002.32	
298.15	.055	.1	1003.84	
298.15	.055	.1499	1005.43	
298.15	.055	.1999	1007.02	
298.15	.055	.25	1008.6	
298.15	.055	.3	1010.1	
298.15	.055	.3499	1011.62	
298.15	.055	.4	1013.14	
303.15	.055	.05	1000.85	
303.15	.055	.1	1002.36	
303.15	.055	.1499	1003.93	
303.15	.055	.1999	1005.5	
303.15	.055	.25	1007.07	
303.15	.055	.3	1008.57	
303.15	.055	.3499	1010.07	
303.15	.055	.4	1011.58	
308.15	.055	.05	999.17	
308.15	.055	.1	1000.67	
308.15	.055	.1499	1002.23	
308.15	.055	.1999	1003.79	
308.15	.055	.25	1005.35	
308.15	.055	.3	1006.83	
308.15	.055	.3499	1008.32	
308.15	.055	.4	1009.82	
298.15	.1	.0499	1005.12	
298.15	.1	.1	1006.76	
298.15	.1	.1499	1008.36	
298.15	.1	.2	1009.89	
298.15	.1	.2499	1011.42	
298.15	.1	.3	1012.96	
298.15	.1	.3499	1014.47	
298.15	.1	.3999	1015.68	
303.15	.1	.0499	1003.61	
303.15	.1	.1	1005.21	
303.15	.1	.1499	1006.81	
303.15	.1	.2	1008.34	
303.15	.1	.2499	1009.85	
303.15	.1	.3	1011.38	
303.15	.1	.3499	1013.1	
303.15	.1	.3999	1014.06	
308.15	.1	.0499	1001.88	
308.15	.1	.1	1003.48	
308.15	.1	.1499	1005.07	
308.15	.1	.2	1006.58	
308.15	.1	.2499	1008.09	
308.15	.1	.3	1009.6	
308.15	.1	.3499	1011.31	
308.15	.1	.3999	1012.25	

System: L-serine + water + 1-phenylpiperazinium tetrafluoroborate; phases: Liquid
Fixed: Pressure, kPa = 100
Property: Mass density, kg/m3 (Liquid); method: Vibrating tube method
Temperature, K	Solvent: Molality, mol/kg of 1-phenylpiperazinium tetrafluoroborate	Molality, mol/kg of L-serine	Mass density, kg/m3	uncertainty
298.15	.025	.05	1001.04	
298.15	.025	.1	1003.24	
298.15	.025	.15	1005.44	
298.15	.025	.2	1007.6	
298.15	.025	.2499	1009.77	
298.15	.025	.2999	1011.88	
298.15	.025	.35	1013.97	
298.15	.025	.4	1016.05	
303.15	.025	.05	999.6	
303.15	.025	.1	1001.78	
303.15	.025	.15	1003.96	
303.15	.025	.2	1006.11	
303.15	.025	.2499	1008.27	
303.15	.025	.2999	1010.36	
303.15	.025	.35	1012.43	
303.15	.025	.4	1014.5	
308.15	.025	.05	997.95	
308.15	.025	.1	1000.11	
308.15	.025	.15	1002.28	
308.15	.025	.2	1004.41	
308.15	.025	.2499	1006.55	
308.15	.025	.2999	1008.64	
308.15	.025	.35	1010.69	
308.15	.025	.4	1012.75	
298.15	.055	.0499	1003.06	
298.15	.055	.0999	1005.23	
298.15	.055	.1499	1007.39	
298.15	.055	.2	1009.5	
298.15	.055	.2499	1011.66	
298.15	.055	.3	1013.87	
298.15	.055	.35	1015.9	
298.15	.055	.4	1018.02	
303.15	.055	.0499	1001.58	
303.15	.055	.0999	1003.73	
303.15	.055	.1499	1005.88	
303.15	.055	.2	1007.98	
303.15	.055	.2499	1010.13	
303.15	.055	.3	1012.32	
303.15	.055	.35	1014.33	
303.15	.055	.4	1016.44	
308.15	.055	.0499	999.9	
308.15	.055	.0999	1002.04	
308.15	.055	.1499	1004.17	
308.15	.055	.2	1006.26	
308.15	.055	.2499	1008.39	
308.15	.055	.3	1010.57	
308.15	.055	.35	1012.57	
308.15	.055	.4	1014.66	
298.15	.1	.0499	1005.85	
298.15	.1	.0999	1008.09	
298.15	.1	.15	1010.23	
298.15	.1	.1999	1012.38	
298.15	.1	.25	1014.49	
298.15	.1	.2999	1016.6	
298.15	.1	.3499	1018.73	
298.15	.1	.4	1020.77	
303.15	.1	.0499	1004.33	
303.15	.1	.0999	1006.56	
303.15	.1	.15	1008.68	
303.15	.1	.1999	1010.82	
303.15	.1	.25	1012.91	
303.15	.1	.2999	1015	
303.15	.1	.3499	1017.12	
303.15	.1	.4	1019.14	
308.15	.1	.0499	1002.61	
308.15	.1	.0999	1004.82	
308.15	.1	.15	1006.93	
308.15	.1	.1999	1009.05	
308.15	.1	.25	1011.13	
308.15	.1	.2999	1013.21	
308.15	.1	.3499	1015.31	
308.15	.1	.4	1017.33	

System: L-alanine + water + 1-phenylpiperazinium tetrafluoroborate; phases: Liquid
Fixed: Pressure, kPa = 100
Property: Mass density, kg/m3 (Liquid); method: Vibrating tube method
Temperature, K	Solvent: Molality, mol/kg of 1-phenylpiperazinium tetrafluoroborate	Molality, mol/kg of L-alanine	Mass density, kg/m3	uncertainty
298.15	.025	.0499	1000.27	
298.15	.025	.0999	1001.72	
298.15	.025	.1499	1003.14	
298.15	.025	.2	1004.55	
298.15	.025	.25	1005.91	
298.15	.025	.2999	1007.29	
298.15	.025	.3499	1008.63	
298.15	.025	.4	1009.99	
303.15	.025	.0499	998.83	
303.15	.025	.0999	1000.27	
303.15	.025	.1499	1001.68	
303.15	.025	.2	1003.08	
303.15	.025	.25	1004.44	
303.15	.025	.2999	1005.8	
303.15	.025	.3499	1007.14	
303.15	.025	.4	1008.49	
308.15	.025	.0499	997.18	
308.15	.025	.0999	998.61	
308.15	.025	.1499	1000.02	
308.15	.025	.2	1001.41	
308.15	.025	.25	1002.76	
308.15	.025	.2999	1004.11	
308.15	.025	.3499	1005.44	
308.15	.025	.4	1006.78	
298.15	.055	.05	1002.23	
298.15	.055	.0999	1003.61	
298.15	.055	.15	1005.08	
298.15	.055	.2	1006.41	
298.15	.055	.2499	1007.8	
298.15	.055	.3	1009.2	
298.15	.055	.35	1010.5	
298.15	.055	.3999	1011.92	
303.15	.055	.05	1000.76	
303.15	.055	.0999	1002.13	
303.15	.055	.15	1003.59	
303.15	.055	.2	1004.92	
303.15	.055	.2499	1006.29	
303.15	.055	.3	1007.68	
303.15	.055	.35	1009.03	
303.15	.055	.3999	1010.38	
308.15	.055	.05	999.08	
308.15	.055	.0999	1000.44	
308.15	.055	.15	1001.89	
308.15	.055	.2	1003.22	
308.15	.055	.2499	1004.58	
308.15	.055	.3	1005.97	
308.15	.055	.35	1007.05	
308.15	.055	.3999	1008.64	
298.15	.1	.0499	1005.05	
298.15	.1	.1	1006.49	
298.15	.1	.1499	1007.88	
298.15	.1	.2	1009.29	
298.15	.1	.25	1010.7	
298.15	.1	.3	1012.06	
298.15	.1	.3499	1013.4	
298.15	.1	.3999	1014.78	
303.15	.1	.0499	1003.54	
303.15	.1	.1	1004.96	
303.15	.1	.1499	1006.34	
303.15	.1	.2	1007.75	
303.15	.1	.25	1009.14	
303.15	.1	.3	1010.5	
303.15	.1	.3499	1011.83	
303.15	.1	.3999	1013.2	
308.15	.1	.0499	1001.82	
308.15	.1	.1	1003.23	
308.15	.1	.1499	1004.61	
308.15	.1	.2	1006.01	
308.15	.1	.25	1007.39	
308.15	.1	.3	1008.74	
308.15	.1	.3499	1010.06	
308.15	.1	.3999	1011.42	

System: L-proline + water + 1-phenylpiperazinium tetrafluoroborate; phases: Liquid
Fixed: Pressure, kPa = 100
Property: Mass density, kg/m3 (Liquid); method: Vibrating tube method
Temperature, K	Solvent: Molality, mol/kg of 1-phenylpiperazinium tetrafluoroborate	Molality, mol/kg of L-proline	Mass density, kg/m3	uncertainty
298.15	.025	.0499	1000.54	
298.15	.025	.0999	1002.13	
298.15	.025	.1499	1003.71	
298.15	.025	.1999	1005.25	
298.15	.025	.2499	1006.79	
298.15	.025	.2999	1008.34	
298.15	.025	.35	1009.88	
298.15	.025	.4	1011.34	
303.15	.025	.0499	999.1	
303.15	.025	.0999	1000.68	
303.15	.025	.1499	1002.24	
303.15	.025	.1999	1003.76	
303.15	.025	.2499	1005.29	
303.15	.025	.2999	1006.86	
303.15	.025	.35	1008.35	
303.15	.025	.4	1009.8	
308.15	.025	.0499	997.44	
308.15	.025	.0999	999.01	
308.15	.025	.1499	1000.56	
308.15	.025	.1999	1002.07	
308.15	.025	.2499	1003.58	
308.15	.025	.2999	1005.14	
308.15	.025	.35	1006.62	
308.15	.025	.4	1008.06	
298.15	.055	.0499	1002.54	
298.15	.055	.0999	1004.13	
298.15	.055	.1499	1005.71	
298.15	.055	.1999	1007.26	
298.15	.055	.2499	1008.83	
298.15	.055	.2999	1010.32	
298.15	.055	.35	1011.87	
298.15	.055	.3999	1013.34	
303.15	.055	.0499	1001.06	
303.15	.055	.0999	1002.65	
303.15	.055	.1499	1004.2	
303.15	.055	.1999	1005.74	
303.15	.055	.2499	1007.3	
303.15	.055	.2999	1008.77	
303.15	.055	.35	1010.31	
303.15	.055	.3999	1011.76	
308.15	.055	.0499	999.38	
308.15	.055	.0999	1000.95	
308.15	.055	.1499	1002.5	
308.15	.055	.1999	1004	
308.15	.055	.2499	1005.56	
308.15	.055	.2999	1007.02	
308.15	.055	.35	1008.55	
308.15	.055	.3999	1009.99	
298.15	.1	.0499	1005.31	
298.15	.1	.0999	1006.94	
298.15	.1	.15	1008.49	
298.15	.1	.1999	1010.04	
298.15	.1	.2499	1011.62	
298.15	.1	.2999	1013.16	
298.15	.1	.3499	1014.65	
298.15	.1	.3999	1016.17	
303.15	.1	.0499	1003.79	
303.15	.1	.0999	1005.4	
303.15	.1	.15	1006.94	
303.15	.1	.1999	1008.48	
303.15	.1	.2499	1010.05	
303.15	.1	.2999	1011.56	
303.15	.1	.3499	1013.05	
303.15	.1	.3999	1014.55	
308.15	.1	.0499	1002.07	
308.15	.1	.0999	1003.66	
308.15	.1	.15	1005.19	
308.15	.1	.1999	1006.72	
308.15	.1	.2499	1008.27	
308.15	.1	.2999	1009.78	
308.15	.1	.3499	1011.24	
308.15	.1	.3999	1012.74	
