Measured thermophysical data. Comparative studies of intermolecular interaction of aromatic amines with ethyl lactate at different temperatures
Source: J. Chem. Thermodyn., 2017, 10.1016/j.jct.2016.09.010
Compound 1: DL-ethyl lactate, C5H10O3, purity 98%
Compound 2: aniline, C6H7N, purity 99%
Compound 3: N-methylaniline, C7H9N, purity 99%
Compound 4: N-ethylaniline, C8H11N, purity 99%

System: aniline; phases: Liquid
Property: Mass density, kg/m3 (Liquid); method: Vibrating tube method
Temperature, K	Pressure, kPa	Mass density, kg/m3	uncertainty
303.15	100	1012.81	
308.15	100	1008.91	
313.15	100	1004.59	
318.15	100	1000.21	

System: aniline; phases: Liquid
Fixed: Frequency, MHz = 2
Property: Speed of sound, m/s (Liquid); method: Linear variable-path acoustic interferometer
Temperature, K	Pressure, kPa	Speed of sound, m/s	uncertainty
303.15	100	1614	
308.15	100	1595	
313.15	100	1574.4	
318.15	100	1554.9	

System: N-methylaniline; phases: Liquid
Property: Mass density, kg/m3 (Liquid); method: Vibrating tube method
Temperature, K	Pressure, kPa	Mass density, kg/m3	uncertainty
303.15	100	978.2	
308.15	100	973.53	
313.15	100	969.92	
318.15	100	964.9	

System: N-methylaniline; phases: Liquid
Fixed: Frequency, MHz = 2
Property: Speed of sound, m/s (Liquid); method: Linear variable-path acoustic interferometer
Temperature, K	Pressure, kPa	Speed of sound, m/s	uncertainty
303.15	100	1547	
308.15	100	1526.9	
313.15	100	1511	
318.15	100	1491.4	

System: N-ethylaniline; phases: Liquid
Property: Mass density, kg/m3 (Liquid); method: Vibrating tube method
Temperature, K	Pressure, kPa	Mass density, kg/m3	uncertainty
303.15	100	952.41	
308.15	100	947.69	
313.15	100	942.95	
318.15	100	938.23	

System: N-ethylaniline; phases: Liquid
Fixed: Frequency, MHz = 2
Property: Speed of sound, m/s (Liquid); method: Linear variable-path acoustic interferometer
Temperature, K	Pressure, kPa	Speed of sound, m/s	uncertainty
303.15	100	1497	
308.15	100	1481	
313.15	100	1464	
318.15	100	1448	

System: aniline + DL-ethyl lactate; phases: Liquid
Fixed: Pressure, kPa = 100
Property: Mass density, kg/m3 (Liquid); method: Vibrating tube method
Temperature, K	Mole fraction of DL-ethyl lactate	Mass density, kg/m3	uncertainty
303.15	0	1012.81	
303.15	.0788	1014.12	
303.15	.1638	1015.39	
303.15	.2514	1016.56	
303.15	.3445	1017.64	
303.15	.4393	1018.65	
303.15	.5461	1019.69	
303.15	.6484	1020.59	
303.15	.7644	1021.47	
303.15	.8737	1022.17	
303.15	1	1022.88	
308.15	0	1008.91	
308.15	.0788	1010.12	
308.15	.1638	1011.23	
308.15	.2514	1012.23	
308.15	.3445	1013.15	
308.15	.4393	1014	
308.15	.5461	1014.87	
308.15	.6484	1015.62	
308.15	.7644	1016.33	
308.15	.8737	1016.88	
308.15	1	1017.39	
313.15	0	1004.59	
313.15	.0788	1005.75	
313.15	.1638	1006.72	
313.15	.2514	1007.57	
313.15	.3445	1008.36	
313.15	.4393	1009.09	
313.15	.5461	1009.83	
313.15	.6484	1010.46	
313.15	.7644	1011.05	
313.15	.8737	1011.49	
313.15	1	1011.83	
318.15	0	1000.21	
318.15	.0788	1001.3	
318.15	.1638	1002.15	
318.15	.2514	1002.88	
318.15	.3445	1003.55	
318.15	.4393	1004.17	
318.15	.5461	1004.79	
318.15	.6484	1005.31	
318.15	.7644	1005.79	
318.15	.8737	1006.13	
318.15	1	1006.31	

System: aniline + DL-ethyl lactate; phases: Liquid
Fixed: Pressure, kPa = 100
Fixed: Frequency, MHz = 2
Property: Speed of sound, m/s (Liquid); method: Linear variable-path acoustic interferometer
Temperature, K	Mole fraction of DL-ethyl lactate	Speed of sound, m/s	uncertainty
303.15	0	1614	
303.15	.0788	1588.7	
303.15	.1638	1560.8	
303.15	.2514	1531.4	
303.15	.3445	1499.5	
303.15	.4393	1466.5	
303.15	.5461	1428.6	
303.15	.6484	1391.7	
303.15	.7644	1349.3	
303.15	.8737	1308.3	
303.15	1	1261.1	
308.15	0	1595	
308.15	.0788	1570.3	
308.15	.1638	1542.5	
308.15	.2514	1513.2	
308.15	.3445	1481.4	
308.15	.4393	1448.5	
308.15	.5461	1410.8	
308.15	.6484	1374.1	
308.15	.7644	1331.9	
308.15	.8737	1291.1	
308.15	1	1243.8	
313.15	0	1574.4	
313.15	.0788	1550.3	
313.15	.1638	1522.7	
313.15	.2514	1493.5	
313.15	.3445	1461.8	
313.15	.4393	1429	
313.15	.5461	1391.4	
313.15	.6484	1354.9	
313.15	.7644	1312.9	
313.15	.8737	1272.3	
313.15	1	1224.8	
318.15	0	1554.9	
318.15	.0788	1531.4	
318.15	.1638	1504	
318.15	.2514	1474.8	
318.15	.3445	1443.2	
318.15	.4393	1410.5	
318.15	.5461	1373.1	
318.15	.6484	1336.8	
318.15	.7644	1295	
318.15	.8737	1254.7	
318.15	1	1206.9	

System: DL-ethyl lactate + N-methylaniline; phases: Liquid
Fixed: Pressure, kPa = 100
Property: Mass density, kg/m3 (Liquid); method: Vibrating tube method
Temperature, K	Mole fraction of DL-ethyl lactate	Mass density, kg/m3	uncertainty
303.15	0	978.2	
303.15	.1018	983.17	
303.15	.1939	987.58	
303.15	.2814	991.69	
303.15	.3934	996.86	
303.15	.491	1001.27	
303.15	.5902	1005.66	
303.15	.6894	1009.96	
303.15	.7851	1014.03	
303.15	.8937	1018.56	
303.15	1	1022.88	
308.15	0	973.53	
308.15	.1018	978.45	
308.15	.1939	982.78	
308.15	.2814	986.81	
308.15	.3934	991.88	
308.15	.491	996.21	
308.15	.5902	1000.52	
308.15	.6894	1004.74	
308.15	.7851	1008.74	
308.15	.8937	1013.19	
308.15	1	1017.39	
313.15	0	969.92	
313.15	.1018	974.67	
313.15	.1939	978.81	
313.15	.2814	982.67	
313.15	.3934	987.51	
313.15	.491	991.65	
313.15	.5902	995.77	
313.15	.6894	999.8	
313.15	.7851	1003.62	
313.15	.8937	1007.86	
313.15	1	1011.83	
318.15	0	964.9	
318.15	.1018	969.62	
318.15	.1939	973.71	
318.15	.2814	977.52	
318.15	.3934	982.3	
318.15	.491	986.39	
318.15	.5902	990.46	
318.15	.6894	994.45	
318.15	.7851	998.22	
318.15	.8937	1002.41	
318.15	1	1006.31	

System: DL-ethyl lactate + N-methylaniline; phases: Liquid
Fixed: Pressure, kPa = 100
Fixed: Frequency, MHz = 2
Property: Speed of sound, m/s (Liquid); method: Linear variable-path acoustic interferometer
Temperature, K	Mole fraction of DL-ethyl lactate	Speed of sound, m/s	uncertainty
303.15	0	1547	
303.15	.1018	1520.1	
303.15	.1939	1495.5	
303.15	.2814	1471.8	
303.15	.3934	1440.7	
303.15	.491	1413.1	
303.15	.5902	1384.5	
303.15	.6894	1355.5	
303.15	.7851	1326.8	
303.15	.8937	1293.5	
303.15	1	1261.1	
308.15	0	1526.9	
308.15	.1018	1500.8	
308.15	.1939	1476.5	
308.15	.2814	1452.9	
308.15	.3934	1422.1	
308.15	.491	1394.7	
308.15	.5902	1366.4	
308.15	.6894	1337.7	
308.15	.7851	1309.5	
308.15	.8937	1276.4	
308.15	1	1243.8	
313.15	0	1511	
313.15	.1018	1485	
313.15	.1939	1460.5	
313.15	.2814	1436.6	
313.15	.3934	1405.4	
313.15	.491	1377.7	
313.15	.5902	1349.1	
313.15	.6894	1320.1	
313.15	.7851	1291.7	
313.15	.8937	1258.3	
313.15	1	1224.8	
318.15	0	1491.4	
318.15	.1018	1466.1	
318.15	.1939	1441.7	
318.15	.2814	1417.8	
318.15	.3934	1386.7	
318.15	.491	1359.2	
318.15	.5902	1330.8	
318.15	.6894	1302	
318.15	.7851	1273.8	
318.15	.8937	1240.7	
318.15	1	1206.9	

System: DL-ethyl lactate + N-ethylaniline; phases: Liquid
Fixed: Pressure, kPa = 100
Property: Mass density, kg/m3 (Liquid); method: Vibrating tube method
Temperature, K	Mole fraction of DL-ethyl lactate	Mass density, kg/m3	uncertainty
303.15	0	952.41	
303.15	.1195	960.29	
303.15	.2183	966.93	
303.15	.3177	973.69	
303.15	.424	981.03	
303.15	.5225	987.95	
303.15	.6209	994.95	
303.15	.726	1002.55	
303.15	.8128	1008.91	
303.15	.9074	1015.91	
303.15	1	1022.88	
308.15	0	947.69	
308.15	.1195	955.52	
308.15	.2183	962.08	
308.15	.3177	968.76	
308.15	.424	976.02	
308.15	.5225	982.86	
308.15	.6209	989.79	
308.15	.726	997.31	
308.15	.8128	1003.61	
308.15	.9074	1010.52	
308.15	1	1017.39	
313.15	0	942.95	
313.15	.1195	950.71	
313.15	.2183	957.2	
313.15	.3177	963.8	
313.15	.424	970.97	
313.15	.5225	977.73	
313.15	.6209	984.58	
313.15	.726	992.01	
313.15	.8128	998.24	
313.15	.9074	1005.09	
313.15	1	1011.83	
318.15	0	938.23	
318.15	.1195	945.92	
318.15	.2183	952.34	
318.15	.3177	958.86	
318.15	.424	965.95	
318.15	.5225	972.63	
318.15	.6209	979.4	
318.15	.726	986.75	
318.15	.8128	992.91	
318.15	.9074	999.68	
318.15	1	1006.31	

System: DL-ethyl lactate + N-ethylaniline; phases: Liquid
Fixed: Pressure, kPa = 100
Fixed: Frequency, MHz = 2
Property: Speed of sound, m/s (Liquid); method: Linear variable-path acoustic interferometer
Temperature, K	Mole fraction of DL-ethyl lactate	Speed of sound, m/s	uncertainty
303.15	0	1497	
303.15	.1195	1471.1	
303.15	.2183	1449.5	
303.15	.3177	1427.2	
303.15	.424	1402.7	
303.15	.5225	1379.6	
303.15	.6209	1355.9	
303.15	.726	1330	
303.15	.8128	1308.3	
303.15	.9074	1284.5	
303.15	1	1261.1	
308.15	0	1481	
308.15	.1195	1455.4	
308.15	.2183	1433.6	
308.15	.3177	1411.2	
308.15	.424	1386.6	
308.15	.5225	1363.4	
308.15	.6209	1339.6	
308.15	.726	1313.6	
308.15	.8128	1291.7	
308.15	.9074	1267.6	
308.15	1	1243.8	
313.15	0	1464	
313.15	.1195	1438.5	
313.15	.2183	1416.6	
313.15	.3177	1394	
313.15	.424	1369.2	
313.15	.5225	1345.8	
313.15	.6209	1321.8	
313.15	.726	1295.6	
313.15	.8128	1273.6	
313.15	.9074	1249.2	
313.15	1	1224.8	
318.15	0	1448	
318.15	.1195	1422.6	
318.15	.2183	1400.6	
318.15	.3177	1377.7	
318.15	.424	1352.7	
318.15	.5225	1329.1	
318.15	.6209	1305	
318.15	.726	1278.6	
318.15	.8128	1256.4	
318.15	.9074	1231.8	
318.15	1	1206.9	
