Measured thermophysical data. Thermodynamic properties, detonation characterisation and free radical of N-acetyl-3,3-dinitroazetidine
Source: J. Chem. Thermodyn., 2015, 10.1016/j.jct.2015.08.004
Compound 1: N-acetyl-3,3-dinitro azetidine, C5H7N3O5

System: N-acetyl-3,3-dinitro azetidine; phases: Crystal, Liquid, Air at 1 atmosphere
Property: Molar enthalpy of transition or fusion, kJ/mol (Crystal); method: DSC
Molar enthalpy of transition or fusion, kJ/mol	uncertainty
22.90319493	2.290319493

System: N-acetyl-3,3-dinitro azetidine; phases: Crystal, Liquid, Air at 1 atmosphere
Property: Normal melting temperature, K (Crystal); method: DSC/DTA
Normal melting temperature, K	uncertainty
385.77	.65

System: N-acetyl-3,3-dinitro azetidine; phases: Crystal
Fixed: Pressure, kPa = 101.325
Property: Molar heat capacity at constant pressure, J/K/mol (Crystal); method: Small sample (50 mg) scanning calorimetry
Temperature, K	Molar heat capacity at constant pressure, J/K/mol	uncertainty
283.15	225.8	4.516
288.15	231.13	4.6226
293.15	235.98	4.7196
298.15	240.37	4.8074
303.15	244.33	4.8866
308.15	247.89	4.9578
313.15	251.06	5.0212
318.15	253.88	5.0776
323.15	256.38	5.1276
328.15	258.57	5.1714
333.15	260.49	5.2098
338.15	262.15	5.243
343.15	263.59	5.2718
348.15	264.83	5.2966
353.15	265.9	5.318
