Measured thermophysical data. Volumetric and viscometric studies of some drugs in aqueous solutions at different temperatures
Source: J. Chem. Thermodyn., 2012, 10.1016/j.jct.2011.12.022
Compound 1: dextin, C4H12ClN5, purity 99.9%
Compound 2: Ranitidine hydrochloride, C13H23ClN4O3S, purity 99.9%
Compound 3: Tramadol hydrochloride, C16H26ClNO2, purity 99.9%
Compound 4: water, H2O, purity 99.8%

System: dextin + water; phases: Liquid
Fixed: Pressure, kPa = 101
Property: Mass density, kg/m3 (Liquid); method: Pycnometric method
Temperature, K	Molality, mol/kg of dextin	Mass density, kg/m3	uncertainty
288.15	0	999.1	.1
288.15	.0309	1000.34	.1
288.15	.0416	1000.77	.1
288.15	.0506	1001.17	.1
288.15	.0608	1001.55	.1
288.15	.0712	1001.9	.1
288.15	.0815	1002.31	.1
288.15	.0922	1002.71	.1
288.15	.1028	1003.21	.1
288.15	.1138	1003.39	.1
288.15	.1207	1003.71	.1
288.15	.1527	1004.89	.1
298.15	0	997.05	.1
298.15	.029	998.2	.1
298.15	.0415	998.7	.1
298.15	.0508	999.07	.1
298.15	.0592	999.42	.1
298.15	.0725	999.91	.1
298.15	.0769	1000.1	.1
298.15	.0904	1000.51	.1
298.15	.1072	1001.13	.1
298.15	.1191	1001.63	.1
298.15	.1191	1001.57	.1
298.15	.1303	1002	.1
308.15	0	994.03	.1
308.15	0	995.14	.1
308.15	.0306	995.53	.1
308.15	.0404	995.89	.1
308.15	.0514	996.2	.1
308.15	.058	996.6	.1
308.15	.0704	996.95	.1
308.15	.0811	997.53	.1
308.15	.0915	997.74	.1
308.15	.1014	998.62	.1
308.15	.1218	999.56	.1
308.15	.152	1002	.1

System: water + Ranitidine hydrochloride; phases: Liquid
Fixed: Pressure, kPa = 101
Property: Mass density, kg/m3 (Liquid); method: Pycnometric method
Temperature, K	Molality, mol/kg of Ranitidine hydrochloride	Mass density, kg/m3	uncertainty
288.15	0	999.1	.1
288.15	.0202	1000.92	.1
288.15	.0306	1001.78	.1
288.15	.0407	1002.69	.1
288.15	.0488	1003.32	.1
288.15	.0602	1004.33	.1
288.15	.0702	1005.27	.1
288.15	.0813	1006.23	.1
288.15	.092	1007.13	.1
288.15	.1019	1007.93	.1
288.15	.1149	1009.12	.1
288.15	.1521	1012.15	.1
298.15	0	997.05	.1
298.15	.0103	997.99	.1
298.15	.0198	998.81	.1
298.15	.0295	999.58	.1
298.15	.0501	1001.38	.1
298.15	.0603	1002.17	.1
298.15	.0697	1002.94	.1
298.15	.0789	1003.7	.1
298.15	.0907	1004.69	.1
298.15	.0994	1005.38	.1
298.15	.1171	1006.83	.1
298.15	.1475	1009.32	.1
308.15	0	994.03	.1
308.15	.0109	994.91	.1
308.15	.0191	995.59	.1
308.15	.0313	996.62	.1
308.15	.0428	997.58	.1
308.15	.0507	998.2	.1
308.15	.059	998.85	.1
308.15	.0695	999.78	.1
308.15	.0876	1001.15	.1
308.15	.0986	1002.15	.1
308.15	.119	1003.69	.1
308.15	.1483	1006.01	.1

System: water + Tramadol hydrochloride; phases: Liquid
Fixed: Pressure, kPa = 101
Property: Mass density, kg/m3 (Liquid); method: Pycnometric method
Temperature, K	Molality, mol/kg of Tramadol hydrochloride	Mass density, kg/m3	uncertainty
288.15	0	999.1	.1
288.15	.0138	999.75	.1
288.15	.026	1000.36	.1
288.15	.0298	1000.53	.1
288.15	.04	1001.04	.1
288.15	.0536	1001.72	.1
288.15	.0604	1002.03	.1
288.15	.0702	1002.51	.1
288.15	.0805	1002.96	.1
288.15	.0903	1003.44	.1
288.15	.099	1003.81	.1
288.15	.1207	1004.82	.1
288.15	.1511	1006.21	.1
298.15	0	997.05	.1
298.15	.0114	997.56	.1
298.15	.0211	998.02	.1
298.15	.0296	998.42	.1
298.15	.0403	998.93	.1
298.15	.0501	999.29	.1
298.15	.0607	999.82	.1
298.15	.0804	1000.74	.1
298.15	.0923	1001.23	.1
298.15	.1016	1001.66	.1
298.15	.1183	1002.31	.1
298.15	.149	1003.78	.1
308.15	0	994.03	.1
308.15	.0117	994.5	.1
308.15	.0195	994.81	.1
308.15	.0299	995.32	.1
308.15	.0399	995.75	.1
308.15	.0493	996.19	.1
308.15	.06	996.6	.1
308.15	.0717	997.13	.1
308.15	.082	997.64	.1
308.15	.0912	997.99	.1
308.15	.1	998.39	.1
308.15	.1181	999.15	.1
308.15	.1501	1000.52	.1
