Measured thermophysical data. Determination of the vapor pressure of ethyl esters by Differential Scanning Calorimetry
Source: J. Chem. Thermodyn., 2011, 10.1016/j.jct.2011.01.017
Compound 1: ethyl dodecanoate, C14H28O2, purity 99%
Compound 2: ethyl palmitate, C18H36O2, purity 99%
Compound 3: (Z,Z)-9,12-octadecadienoic acid, ethyl ester, C20H36O2, purity 99%
Compound 4: ethyl (Z)-9-octadeceneoate, C20H38O2, purity 98%
Compound 5: myristic acid, ethyl ester, C16H32O2, purity 99%
Compound 6: ethyl stearate, C20H40O2, purity 99%

System: ethyl dodecanoate; phases: Liquid, Gas
Property: Vapor or sublimation pressure, kPa (Liquid); method: DSC
Temperature, K	Vapor or sublimation pressure, kPa	uncertainty
420.05	1.33	.07
432.13	2.67	.07
443.41	4	.07
451.05	5.33	.07
456.47	6.67	.07
462.44	8	.07
464.35	9.33	.07

System: ethyl palmitate; phases: Liquid, Gas
Property: Vapor or sublimation pressure, kPa (Liquid); method: DSC
Temperature, K	Vapor or sublimation pressure, kPa	uncertainty
464.49	1.33	.07
481.9	2.67	.07
495.23	4	.07
502.27	5.33	.07
508.1	6.67	.07
512.23	8	.07
515.13	9.33	.07

System: (Z,Z)-9,12-octadecadienoic acid, ethyl ester; phases: Liquid, Gas
Property: Vapor or sublimation pressure, kPa (Liquid); method: DSC
Temperature, K	Vapor or sublimation pressure, kPa	uncertainty
486.64	1.33	.07
501.94	2.67	.07
510.65	4	.07
515.7	5.33	.07
520.91	6.67	.07
527.47	8	.07
537.39	9.33	.07

System: ethyl (Z)-9-octadeceneoate; phases: Liquid, Gas
Property: Vapor or sublimation pressure, kPa (Liquid); method: DSC
Temperature, K	Vapor or sublimation pressure, kPa	uncertainty
486.64	1.33	.07
500.98	2.67	.07
508.03	4	.07
514.61	5.33	.07
523.69	6.67	.07
528.56	8	.07
536.83	9.33	.07

System: myristic acid, ethyl ester; phases: Liquid, Gas
Property: Vapor or sublimation pressure, kPa (Liquid); method: DSC
Temperature, K	Vapor or sublimation pressure, kPa	uncertainty
446.06	1.33	.07
460.03	2.67	.07
470.26	4	.07
476.75	5.33	.07
481.32	6.67	.07
487.01	8	.07
492.47	9.33	.07

System: ethyl stearate; phases: Liquid, Gas
Property: Vapor or sublimation pressure, kPa (Liquid); method: DSC
Temperature, K	Vapor or sublimation pressure, kPa	uncertainty
490.97	1.33	.07
505.55	2.67	.07
512.98	4	.07
520.56	5.33	.07
524.45	6.67	.07
525.78	8	.07
533.97	9.33	.07
