Measured thermophysical data. Measurements and group contribution analysis of 0.1 MPa densities for still poorly studied ionic liquids with the [PF6] and [NTf2] anions
Source: J. Chem. Thermodyn., 2014, 10.1016/j.jct.2014.04.017
Compound 1: 1-methyl-3-propylimidazolium hexafluorophosphate, C7H13F6N2P, purity 99%
Compound 2: 1-butyl-2,3-dimethylimidazolium hexafluorophosphate, C9H17F6N2P, purity 99%
Compound 3: 1-butyl-3-methylpyridinium hexafluorophosphate, C10H16F6NP, purity 99%
Compound 4: 1-methylimidazolium bis(trifluoromethylsulfonyl)imide, C6H7F6N3O4S2, purity 98%
Compound 5: 1-ethyl-3-methylimidazolium bis(trifluoromethylsulfonyl)imide, C8H11F6N3O4S2, purity 99.9%
Compound 6: 1-butyl-3-methylimidazolium bis(trifluoromethylsulfonyl)imide, C10H15F6N3O4S2, purity 99.9%
Compound 7: 1-hexyl-3-methylimidazolium bis(trifluoromethylsulfonyl)imide, C12H19F6N3O4S2, purity 99.9%

System: 1-methyl-3-propylimidazolium hexafluorophosphate; phases: Liquid
Fixed: Pressure, kPa = 101.325
Property: Mass density, kg/m3 (Liquid); method: Buoyancy - hydrostatic balance
Temperature, K	Mass density, kg/m3	uncertainty
303.08	1410.96	.28
313.18	1402.37	.28
318.04	1398.33	.28
323.07	1393.53	.28
328.22	1389.63	.28
333.39	1385.32	.28
338.41	1381.11	.28
343.27	1377.03	.28
348.16	1372.97	.28
352.56	1369.14	.28
358.11	1364.85	.28
364.89	1359.36	.28

System: 1-butyl-2,3-dimethylimidazolium hexafluorophosphate; phases: Liquid
Fixed: Pressure, kPa = 101.325
Property: Mass density, kg/m3 (Liquid); method: Buoyancy - hydrostatic balance
Temperature, K	Mass density, kg/m3	uncertainty
308.17	1342.4	.36
313.09	1338.43	.36
318.12	1334.34	.36
323.15	1330.39	.36
328.24	1326.32	.36
333.37	1322.54	.36
338.85	1318.34	.36
343.33	1314.8	.36
347.97	1310.87	.36
352.71	1307.2	.36
357.94	1302.89	.36
364.63	1298.26	.36

System: 1-butyl-3-methylpyridinium hexafluorophosphate; phases: Liquid
Fixed: Pressure, kPa = 101.325
Property: Mass density, kg/m3 (Liquid); method: Buoyancy - hydrostatic balance
Temperature, K	Mass density, kg/m3	uncertainty
322.98	1321.09	.1
327.57	1317.44	.1
333.44	1312.89	.1
338.78	1308.72	.1
343.67	1304.93	.1
348.19	1301.53	.1
353.1	1297.87	.1
358.08	1294.06	.1
364.61	1289.01	.1

System: 1-methylimidazolium bis(trifluoromethylsulfonyl)imide; phases: Liquid
Fixed: Pressure, kPa = 101.325
Property: Mass density, kg/m3 (Liquid); method: Buoyancy - hydrostatic balance
Temperature, K	Mass density, kg/m3	uncertainty
323.28	1614.04	.64
325.58	1610.84	.64
328.01	1607.46	.64
330.51	1605.18	.64
333.62	1601.54	.64
335.65	1599.35	.64
338.58	1596.52	.64
340.97	1593.47	.64
343.62	1590.71	.64

System: 1-ethyl-3-methylimidazolium bis(trifluoromethylsulfonyl)imide; phases: Liquid
Fixed: Pressure, kPa = 101.325
Property: Mass density, kg/m3 (Liquid); method: Buoyancy - hydrostatic balance
Temperature, K	Mass density, kg/m3	uncertainty
261.46	1556.58	1
268.29	1548.72	1
273.3	1544.02	1
278.37	1539.04	1
282.48	1535.02	1
287.45	1529.96	1
293.11	1524.41	1
298.13	1519.52	1
302.98	1514.33	1
308.32	1508.35	1
313.89	1503.28	1
318.09	1498.65	1
323.34	1493.84	1
328.03	1488.18	1
333.55	1483.58	1
337.88	1479.01	1
342.95	1473.82	1
348.1	1469.36	1
352.98	1464.95	1
357.53	1460.04	1
363.55	1453.65	1

System: 1-butyl-3-methylimidazolium bis(trifluoromethylsulfonyl)imide; phases: Liquid
Fixed: Pressure, kPa = 101.325
Property: Mass density, kg/m3 (Liquid); method: Buoyancy - hydrostatic balance
Temperature, K	Mass density, kg/m3	uncertainty
274.86	1458.44	.56
277.17	1456.4	.56
281.91	1452.1	.56
287.89	1446.21	.56
293.45	1441.4	.56
298.34	1436.71	.56
303.07	1432.1	.56
308.18	1426.64	.56
313.04	1422.13	.56
318.02	1417.45	.56
323.1	1412.39	.56
328.17	1407.64	.56
333.42	1403.16	.56
338.42	1398.52	.56
343.02	1394.25	.56
348.36	1389.71	.56
352.89	1385.06	.56
358.03	1380.66	.56
364.37	1374.57	.56

System: 1-hexyl-3-methylimidazolium bis(trifluoromethylsulfonyl)imide; phases: Liquid
Fixed: Pressure, kPa = 101.325
Property: Mass density, kg/m3 (Liquid); method: Buoyancy - hydrostatic balance
Temperature, K	Mass density, kg/m3	uncertainty
262.98	1405.31	.54
268.26	1400.21	.54
272.74	1395.9	.54
278.03	1390.98	.54
283.18	1385.8	.54
288.12	1381.67	.54
292.84	1377.27	.54
298.15	1372.76	.54
303.13	1368.35	.54
308.26	1362.94	.54
313.34	1358.8	.54
318.28	1354.33	.54
323.34	1349.1	.54
328.18	1345.78	.54
332.77	1341.44	.54
338.51	1336.76	.54
343.65	1332.79	.54
348.22	1328.79	.54
352.66	1324.84	.54
358.06	1320.79	.54
364.78	1314.72	.54
