Measured thermophysical data. Thermochemical and theoretical study of 2-oxazolidinone and 3-acetyl-2-oxazolidinone
Source: J. Chem. Thermodyn., 2016, 10.1016/j.jct.2016.07.038
Compound 1: 2-oxazolidone, C3H5NO2, purity 98%
Compound 2: 3-acetyl-2-oxazolidinone, C5H7NO3, purity 99%
Compound 3: carbon dioxide, CO2
Compound 4: nitrogen, N2
Compound 5: water, H2O
Compound 6: oxygen, O2

System: 2-oxazolidone; phases: Crystal, Gas
Property: Molar enthalpy of vaporization or sublimation, kJ/mol (Crystal); method: Derived by Second law
Temperature, K	Molar enthalpy of vaporization or sublimation, kJ/mol	uncertainty
334.15	83.18	1.61

System: 2-oxazolidone; phases: Crystal, Liquid, Air at 1 atmosphere
Property: Normal melting temperature, K (Crystal); method: DSC/DTA
Normal melting temperature, K	uncertainty
363	.2

System: 2-oxazolidone; phases: Crystal, Liquid, Air at 1 atmosphere
Property: Molar enthalpy of transition or fusion, kJ/mol (Crystal); method: DSC
Molar enthalpy of transition or fusion, kJ/mol	uncertainty
16.29	.45

System: 2-oxazolidone; phases: Crystal
Fixed: Pressure, kPa = 101.325
Property: Molar heat capacity at constant pressure, J/K/mol (Crystal); method: Small sample (50 mg) scanning calorimetry
Temperature, K	Molar heat capacity at constant pressure, J/K/mol	uncertainty
298.15	113.8	3.1

System: 3-acetyl-2-oxazolidinone; phases: Crystal
Fixed: Pressure, kPa = 101.325
Property: Mass density, kg/m3 (Crystal); method: measuring the mass and volume of a pellet of the compound
Temperature, K	Mass density, kg/m3	uncertainty
298.15	1230	30

System: 3-acetyl-2-oxazolidinone; phases: Crystal, Gas
Property: Molar enthalpy of vaporization or sublimation, kJ/mol (Crystal); method: Derived by Second law
Temperature, K	Molar enthalpy of vaporization or sublimation, kJ/mol	uncertainty
314.15	81.9	.92

System: 3-acetyl-2-oxazolidinone; phases: Crystal, Liquid, Air at 1 atmosphere
Property: Normal melting temperature, K (Crystal); method: DSC/DTA
Normal melting temperature, K	uncertainty
342.9	.5

System: 3-acetyl-2-oxazolidinone; phases: Crystal, Liquid, Air at 1 atmosphere
Property: Molar enthalpy of transition or fusion, kJ/mol (Crystal); method: DSC
Molar enthalpy of transition or fusion, kJ/mol	uncertainty
15.34	.39

System: 3-acetyl-2-oxazolidinone; phases: Crystal
Fixed: Pressure, kPa = 101.325
Property: Molar heat capacity at constant pressure, J/K/mol (Crystal); method: Small sample (50 mg) scanning calorimetry
Temperature, K	Molar heat capacity at constant pressure, J/K/mol	uncertainty
298.15	164.7	2.6

Reaction: -1 2-oxazolidone + 3 carbon dioxide + 0.5 nitrogen + 2.5 water + -3.25 oxygen
Property: Specific internal energy of reaction at constant volume, J/g
-16829

Reaction: -1 3-acetyl-2-oxazolidinone + 5 carbon dioxide + 0.5 nitrogen + 3.5 water + -5.25 oxygen
Property: Specific internal energy of reaction at constant volume, J/g
-18207.6
