Measured thermophysical data. Recommended vapor pressure and thermophysical data for ferrocene
Source: J. Chem. Thermodyn., 2013, 10.1016/j.jct.2012.07.023
Compound 1: ferrocene, C10H10Fe, purity 99.8%

System: ferrocene; phases: Crystal, Liquid, Air at 1 atmosphere
Property: Molar enthalpy of transition or fusion, kJ/mol (Crystal); method: DSC/DTA
Molar enthalpy of transition or fusion, kJ/mol	uncertainty
18.1	.3

System: ferrocene; phases: Crystal, Gas
Property: Vapor or sublimation pressure, kPa (Crystal); method: Closed cell (Static) method
Temperature, K	Vapor or sublimation pressure, kPa	uncertainty
288.16	.00036	.00005
288.16	.000355	.00005
288.16	.000353	.00005
289.18	.000387	.00005
289.18	.000386	.00005
289.18	.000386	.00005
290.17	.000426	.00005
290.17	.000425	.00005
290.17	.000423	.00005
291.17	.000469	.00005
291.17	.000472	.00005
291.17	.000474	.00005
292.16	.000547	.00005
292.16	.000538	.00005
292.16	.000541	.00005
293.16	.000588	.00005
293.16	.000592	.00005
293.16	.000585	.00005
294.16	.000668	.00005
294.16	.000665	.00005
294.16	.000651	.00005
295.17	.000711	.00005
295.17	.000707	.00005
295.17	.000695	.00005
296.17	.000802	.00005
296.17	.000803	.00005
296.17	.000803	.00005
297.17	.000876	.00005
297.17	.000878	.00005
298.17	.00098	.00005
298.17	.000985	.00005
298.17	.00098	.00005
299.18	.001083	.00006
299.18	.001089	.00006
300.17	.0012	.00006
300.17	.001191	.00006
300.17	.001195	.00006
301.17	.001316	.00006
301.17	.001315	.00006
302.18	.001425	.00006
302.18	.001424	.00006
302.18	.001403	.00006
303.18	.001611	.00006
303.18	.001601	.00006
303.18	.001605	.00006
304.18	.001759	.00006
304.18	.001762	.00006
304.18	.001752	.00006
305.18	.001937	.00006
305.18	.00194	.00006
305.18	.001939	.00006
306.18	.002128	.00006
306.18	.002128	.00006
306.18	.002136	.00006
307.18	.002347	.00006
307.18	.00235	.00006
307.18	.002349	.00006
308.18	.002581	.00006
308.18	.002572	.00006
308.18	.002587	.00006
309.18	.002804	.00006
309.18	.002788	.00006
309.18	.002806	.00006
310.18	.003109	.00007
310.18	.003104	.00007
310.18	.003108	.00007
311.19	.003412	.00007
311.19	.003412	.00007
311.19	.0034	.00007

System: ferrocene; phases: Crystal, Gas
Property: Vapor or sublimation pressure, kPa (Crystal); method: Closed cell (Static) method
Temperature, K	Vapor or sublimation pressure, kPa	uncertainty
322.209	.009	.00002
322.212	.00911	.00002
332.202	.02078	.00004
332.208	.02086	.00004
332.211	.02071	.00004
342.163	.04433	.00007
342.17	.04439	.00007
342.178	.04497	.00007
342.179	.04517	.00007
352.166	.09262	.00014
352.168	.0928	.00014
352.169	.09325	.00014
352.169	.09272	.00014
352.171	.09373	.00014
352.172	.0934	.00014
352.176	.09249	.00014
352.176	.09264	.00014
352.182	.09328	.00014
352.192	.0936	.00014
362.164	.18476	.00027
362.17	.185	.00027
362.171	.18506	.00027
362.178	.18476	.00027
362.184	.18547	.00027
372.197	.35419	.00051
382.169	.64818	.00092
382.193	.65113	.00092
392.198	1.1576	.00112
402.247	2.0062	.0012
402.249	2.0052	.0012
402.264	2.0005	.0012
402.277	2.0012	.0012
402.311	2.0081	.0012
412.238	3.3459	.00133
412.318	3.3606	.00134
422.287	5.4701	.00155
422.403	5.5017	.00155
432.418	8.7562	.00188
442.265	13.532	.00235

System: ferrocene; phases: Liquid, Gas
Property: Vapor or sublimation pressure, kPa (Liquid); method: Closed cell (Static) method
Temperature, K	Vapor or sublimation pressure, kPa	uncertainty
451.844	19.481	.00295
451.954	19.212	.00292
452.085	19.481	.00295

System: ferrocene; phases: Crystal
Fixed: Pressure, kPa = 101.325
Property: Molar heat capacity at constant pressure, J/K/mol (Crystal); method: Step
Temperature, K	Molar heat capacity at constant pressure, J/K/mol	uncertainty
273.4	172.6	.01726
278.52	177	.0177
283.62	180.4	.01804
288.72	183.8	.01838
293.83	186.2	.01862
298.93	189.9	.01899
304.04	194	.0194
309.14	197.2	.01972
314.25	200.6	.02006
319.35	204.4	.02044
324.46	207	.0207
329.56	211.3	.02113
334.66	214.2	.02142
339.77	218	.0218
344.88	220.2	.02202
349.98	223.7	.02237
355.09	227.2	.02272

System: ferrocene; phases: Crystal
Fixed: Pressure, kPa = 101.325
Property: Molar heat capacity at constant pressure, J/K/mol (Crystal); method: Drop calorimetry
Temperature, K	Molar heat capacity at constant pressure, J/K/mol	uncertainty
298.15	189.4	.3

System: ferrocene; phases: Crystal, Liquid
Property: Solid-liquid equilibrium temperature, K (Crystal); method: DSC/DTA
Pressure, kPa	Solid-liquid equilibrium temperature, K	uncertainty
101	446.9	.3
