Measured thermophysical data. Solubility measurement and modelling of ethyl 5-amino-4-cyano-3-(2-ethoxy-2-oxoethyl)-2-thiophenecarboxylate in four groups mixed solvents
Source: J. Chem. Thermodyn., 2016, 10.1016/j.jct.2016.09.001
Compound 1: ethyl 5-amino-4-cyano-3-(2-ethoxy-2-oxoethyl)-2-thiophenecarboxylate, C12H14N2O4S, purity 98%
Compound 2: methanol, CH4O, purity 99.6%
Compound 3: ethanol, C2H6O, purity 99.5%
Compound 4: 1-butanol, C4H10O, purity 99.5%
Compound 5: isopropanol, C3H8O, purity 99.4%
Compound 6: acetone, C3H6O, purity 99.5%

System: methanol + acetone + ethyl 5-amino-4-cyano-3-(2-ethoxy-2-oxoethyl)-2-thiophenecarboxylate; phases: Liquid, Crystal
Fixed: Pressure, kPa = 101.3
Property: Mole fraction of ethyl 5-amino-4-cyano-3-(2-ethoxy-2-oxoethyl)-2-thiophenecarboxylate (Liquid); method: Chromatography
Temperature, K	Solvent: Mass fraction of acetone	Mole fraction of ethyl 5-amino-4-cyano-3-(2-ethoxy-2-oxoethyl)-2-thiophenecarboxylate	uncertainty
273.15	.1	.006478	
275.65	.1	.007131	
278.15	.1	.007957	
280.65	.1	.008723	
283.15	.1	.009688	
285.65	.1	.01073	
288.15	.1	.01192	
290.65	.1	.01324	
293.15	.1	.01469	
295.65	.1	.01595	
298.15	.1	.01765	
300.65	.1	.0195	
303.15	.1	.02142	
305.65	.1	.02325	
308.15	.1	.02568	
310.65	.1	.02808	
313.15	.1	.03096	
315.65	.1	.03399	
318.15	.1	.03698	
273.15	.2	.008315	
275.65	.2	.009119	
278.15	.2	.01015	
280.65	.2	.01113	
283.15	.2	.01232	
285.65	.2	.01352	
288.15	.2	.01491	
290.65	.2	.0164	
293.15	.2	.01817	
295.65	.2	.01985	
298.15	.2	.02191	
300.65	.2	.02393	
303.15	.2	.02619	
305.65	.2	.02826	
308.15	.2	.0311	
310.65	.2	.03361	
313.15	.2	.03632	
315.65	.2	.03988	
318.15	.2	.04373	
273.15	.3	.01035	
275.65	.3	.01131	
278.15	.3	.0125	
280.65	.3	.01384	
283.15	.3	.01514	
285.65	.3	.0166	
288.15	.3	.01831	
290.65	.3	.0201	
293.15	.3	.02192	
295.65	.3	.02416	
298.15	.3	.02616	
300.65	.3	.02852	
303.15	.3	.03101	
305.65	.3	.03371	
308.15	.3	.0367	
310.65	.3	.03978	
313.15	.3	.04346	
315.65	.3	.04689	
318.15	.3	.05123	
273.15	.4	.01356	
275.65	.4	.01457	
278.15	.4	.01606	
280.65	.4	.01747	
283.15	.4	.01914	
285.65	.4	.02096	
288.15	.4	.02274	
290.65	.4	.02487	
293.15	.4	.02701	
295.65	.4	.0296	
298.15	.4	.03207	
300.65	.4	.03447	
303.15	.4	.03705	
305.65	.4	.04043	
308.15	.4	.04339	
310.65	.4	.04679	
313.15	.4	.05034	
315.65	.4	.05468	
318.15	.4	.05922	
273.15	.5	.01618	
275.65	.5	.01775	
278.15	.5	.01921	
280.65	.5	.021	
283.15	.5	.02287	
285.65	.5	.02487	
288.15	.5	.02695	
290.65	.5	.02952	
293.15	.5	.03207	
295.65	.5	.03467	
298.15	.5	.03783	
300.65	.5	.04042	
303.15	.5	.04387	
305.65	.5	.04709	
308.15	.5	.05056	
310.65	.5	.05468	
313.15	.5	.05887	
315.65	.5	.06346	
318.15	.5	.06857	
273.15	.6	.02065	
275.65	.6	.02226	
278.15	.6	.02385	
280.65	.6	.02598	
283.15	.6	.02806	
285.65	.6	.03061	
288.15	.6	.03308	
290.65	.6	.03579	
293.15	.6	.03866	
295.65	.6	.04155	
298.15	.6	.04489	
300.65	.6	.04822	
303.15	.6	.052	
305.65	.6	.05557	
308.15	.6	.05917	
310.65	.6	.06357	
313.15	.6	.06808	
315.65	.6	.07316	
318.15	.6	.07842	
273.15	.7	.0248	
275.65	.7	.02681	
278.15	.7	.02885	
280.65	.7	.03089	
283.15	.7	.03344	
285.65	.7	.03632	
288.15	.7	.03905	
290.65	.7	.04191	
293.15	.7	.04505	
295.65	.7	.04867	
298.15	.7	.05214	
300.65	.7	.05591	
303.15	.7	.05961	
305.65	.7	.0631	
308.15	.7	.06783	
310.65	.7	.07235	
313.15	.7	.07784	
315.65	.7	.08357	
318.15	.7	.08865	
273.15	.8	.03114	
275.65	.8	.03336	
278.15	.8	.03541	
280.65	.8	.03819	
283.15	.8	.04106	
285.65	.8	.0443	
288.15	.8	.04699	
290.65	.8	.0502	
293.15	.8	.05371	
295.65	.8	.05755	
298.15	.8	.06108	
300.65	.8	.06541	
303.15	.8	.0691	
305.65	.8	.07342	
308.15	.8	.07757	
310.65	.8	.08259	
313.15	.8	.08821	
315.65	.8	.09361	
318.15	.8	.0996	
273.15	.9	.03594	
275.65	.9	.03841	
278.15	.9	.04104	
280.65	.9	.04386	
283.15	.9	.04709	
285.65	.9	.05054	
288.15	.9	.05386	
290.65	.9	.05736	
293.15	.9	.06127	
295.65	.9	.06518	
298.15	.9	.06965	
300.65	.9	.07428	
303.15	.9	.07872	
305.65	.9	.08356	
308.15	.9	.08918	
310.65	.9	.09421	
313.15	.9	.09997	
315.65	.9	.1062	
318.15	.9	.1127	

System: ethanol + acetone + ethyl 5-amino-4-cyano-3-(2-ethoxy-2-oxoethyl)-2-thiophenecarboxylate; phases: Liquid, Crystal
Fixed: Pressure, kPa = 101.3
Property: Mole fraction of ethyl 5-amino-4-cyano-3-(2-ethoxy-2-oxoethyl)-2-thiophenecarboxylate (Liquid); method: Chromatography
Temperature, K	Solvent: Mass fraction of acetone	Mole fraction of ethyl 5-amino-4-cyano-3-(2-ethoxy-2-oxoethyl)-2-thiophenecarboxylate	uncertainty
273.15	.1	.005264	
275.65	.1	.005945	
278.15	.1	.006693	
280.65	.1	.007335	
283.15	.1	.008229	
285.65	.1	.009245	
288.15	.1	.01026	
290.65	.1	.01149	
293.15	.1	.01276	
295.65	.1	.01407	
298.15	.1	.01555	
300.65	.1	.01717	
303.15	.1	.0189	
305.65	.1	.02088	
308.15	.1	.023	
310.65	.1	.0253	
313.15	.1	.02783	
315.65	.1	.03057	
318.15	.1	.03341	
273.15	.2	.008382	
275.65	.2	.009345	
278.15	.2	.01028	
280.65	.2	.01146	
283.15	.2	.01265	
285.65	.2	.01379	
288.15	.2	.01517	
290.65	.2	.0169	
293.15	.2	.01828	
295.65	.2	.02019	
298.15	.2	.02188	
300.65	.2	.02402	
303.15	.2	.02626	
305.65	.2	.0286	
308.15	.2	.03128	
310.65	.2	.03403	
313.15	.2	.03692	
315.65	.2	.03995	
318.15	.2	.04347	
273.15	.3	.01102	
275.65	.3	.01214	
278.15	.3	.01363	
280.65	.3	.01473	
283.15	.3	.01631	
285.65	.3	.01803	
288.15	.3	.01978	
290.65	.3	.02173	
293.15	.3	.02374	
295.65	.3	.0261	
298.15	.3	.02829	
300.65	.3	.03088	
303.15	.3	.03364	
305.65	.3	.03668	
308.15	.3	.03982	
310.65	.3	.04345	
313.15	.3	.04765	
315.65	.3	.05143	
318.15	.3	.05596	
273.15	.4	.01429	
275.65	.4	.0157	
278.15	.4	.01732	
280.65	.4	.0188	
283.15	.4	.02035	
285.65	.4	.02265	
288.15	.4	.02464	
290.65	.4	.02681	
293.15	.4	.02937	
295.65	.4	.03221	
298.15	.4	.0348	
300.65	.4	.03797	
303.15	.4	.04093	
305.65	.4	.04479	
308.15	.4	.04791	
310.65	.4	.05178	
313.15	.4	.05648	
315.65	.4	.06094	
318.15	.4	.06616	
273.15	.5	.01821	
275.65	.5	.01989	
278.15	.5	.02141	
280.65	.5	.02326	
283.15	.5	.02537	
285.65	.5	.02763	
288.15	.5	.02982	
290.65	.5	.03234	
293.15	.5	.03509	
295.65	.5	.03771	
298.15	.5	.04077	
300.65	.5	.04387	
303.15	.5	.04712	
305.65	.5	.05044	
308.15	.5	.05464	
310.65	.5	.05898	
313.15	.5	.06333	
315.65	.5	.06739	
318.15	.5	.07182	
273.15	.6	.02151	
275.65	.6	.0233	
278.15	.6	.02512	
280.65	.6	.02732	
283.15	.6	.0295	
285.65	.6	.03192	
288.15	.6	.03434	
290.65	.6	.03681	
293.15	.6	.03965	
295.65	.6	.04278	
298.15	.6	.04566	
300.65	.6	.04919	
303.15	.6	.05238	
305.65	.6	.05658	
308.15	.6	.06088	
310.65	.6	.06515	
313.15	.6	.06924	
315.65	.6	.07371	
318.15	.6	.07907	
273.15	.7	.02542	
275.65	.7	.02748	
278.15	.7	.02951	
280.65	.7	.03174	
283.15	.7	.0341	
285.65	.7	.03681	
288.15	.7	.03943	
290.65	.7	.04282	
293.15	.7	.04544	
295.65	.7	.04885	
298.15	.7	.05225	
300.65	.7	.05605	
303.15	.7	.06013	
305.65	.7	.06357	
308.15	.7	.06757	
310.65	.7	.07254	
313.15	.7	.07722	
315.65	.7	.0823	
318.15	.7	.08732	
273.15	.8	.02983	
275.65	.8	.03208	
278.15	.8	.03438	
280.65	.8	.03687	
283.15	.8	.03913	
285.65	.8	.0422	
288.15	.8	.04495	
290.65	.8	.0485	
293.15	.8	.05176	
295.65	.8	.0553	
298.15	.8	.0587	
300.65	.8	.06276	
303.15	.8	.06656	
305.65	.8	.07124	
308.15	.8	.07606	
310.65	.8	.08096	
313.15	.8	.08518	
315.65	.8	.09054	
318.15	.8	.09544	
273.15	.9	.03576	
275.65	.9	.03848	
278.15	.9	.0406	
280.65	.9	.04366	
283.15	.9	.04697	
285.65	.9	.05009	
288.15	.9	.05362	
290.65	.9	.05675	
293.15	.9	.06068	
295.65	.9	.06451	
298.15	.9	.06911	
300.65	.9	.07311	
303.15	.9	.0777	
305.65	.9	.08239	
308.15	.9	.08713	
310.65	.9	.09256	
313.15	.9	.09891	
315.65	.9	.1043	
318.15	.9	.1101	

System: acetone + 1-butanol + ethyl 5-amino-4-cyano-3-(2-ethoxy-2-oxoethyl)-2-thiophenecarboxylate; phases: Liquid, Crystal
Fixed: Pressure, kPa = 101.3
Property: Mole fraction of ethyl 5-amino-4-cyano-3-(2-ethoxy-2-oxoethyl)-2-thiophenecarboxylate (Liquid); method: Chromatography
Temperature, K	Solvent: Mass fraction of acetone	Mole fraction of ethyl 5-amino-4-cyano-3-(2-ethoxy-2-oxoethyl)-2-thiophenecarboxylate	uncertainty
273.15	.1	.003644	
275.65	.1	.004176	
278.15	.1	.004718	
280.65	.1	.005366	
283.15	.1	.006034	
285.65	.1	.006781	
288.15	.1	.007497	
290.65	.1	.008415	
293.15	.1	.009536	
295.65	.1	.01061	
298.15	.1	.0117	
300.65	.1	.01317	
303.15	.1	.01469	
305.65	.1	.01625	
308.15	.1	.01774	
310.65	.1	.01983	
313.15	.1	.02202	
315.65	.1	.02418	
318.15	.1	.02698	
273.15	.2	.005932	
275.65	.2	.006657	
278.15	.2	.007495	
280.65	.2	.008267	
283.15	.2	.009228	
285.65	.2	.01026	
288.15	.2	.01145	
290.65	.2	.01274	
293.15	.2	.0141	
295.65	.2	.01569	
298.15	.2	.01732	
300.65	.2	.0191	
303.15	.2	.02109	
305.65	.2	.02311	
308.15	.2	.02517	
310.65	.2	.02814	
313.15	.2	.03057	
315.65	.2	.03368	
318.15	.2	.03654	
273.15	.3	.008757	
275.65	.3	.009671	
278.15	.3	.01064	
280.65	.3	.01174	
283.15	.3	.01302	
285.65	.3	.01437	
288.15	.3	.01586	
290.65	.3	.01741	
293.15	.3	.01896	
295.65	.3	.02105	
298.15	.3	.02303	
300.65	.3	.02522	
303.15	.3	.02739	
305.65	.3	.02978	
308.15	.3	.03257	
310.65	.3	.03573	
313.15	.3	.03878	
315.65	.3	.04209	
318.15	.3	.04539	
273.15	.4	.01123	
275.65	.4	.01246	
278.15	.4	.01361	
280.65	.4	.01508	
283.15	.4	.01636	
285.65	.4	.01824	
288.15	.4	.01987	
290.65	.4	.02183	
293.15	.4	.02397	
295.65	.4	.0261	
298.15	.4	.02845	
300.65	.4	.0312	
303.15	.4	.03431	
305.65	.4	.0374	
308.15	.4	.04065	
310.65	.4	.04391	
313.15	.4	.04771	
315.65	.4	.05148	
318.15	.4	.05565	
273.15	.5	.01524	
275.65	.5	.01652	
278.15	.5	.01819	
280.65	.5	.01974	
283.15	.5	.02138	
285.65	.5	.02349	
288.15	.5	.02584	
290.65	.5	.02809	
293.15	.5	.03037	
295.65	.5	.03323	
298.15	.5	.03611	
300.65	.5	.03918	
303.15	.5	.04216	
305.65	.5	.04565	
308.15	.5	.04833	
310.65	.5	.0529	
313.15	.5	.05745	
315.65	.5	.06174	
318.15	.5	.06563	
273.15	.6	.01877	
275.65	.6	.02046	
278.15	.6	.02231	
280.65	.6	.02451	
283.15	.6	.02635	
285.65	.6	.02881	
288.15	.6	.03123	
290.65	.6	.03429	
293.15	.6	.03713	
295.65	.6	.03991	
298.15	.6	.04328	
300.65	.6	.04666	
303.15	.6	.0506	
305.65	.6	.0542	
308.15	.6	.05866	
310.65	.6	.06233	
313.15	.6	.0671	
315.65	.6	.07203	
318.15	.6	.07799	
273.15	.7	.02271	
275.65	.7	.02466	
278.15	.7	.02693	
280.65	.7	.02927	
283.15	.7	.03157	
285.65	.7	.03399	
288.15	.7	.03715	
290.65	.7	.04017	
293.15	.7	.04347	
295.65	.7	.0471	
298.15	.7	.0506	
300.65	.7	.05495	
303.15	.7	.05882	
305.65	.7	.0631	
308.15	.7	.06766	
310.65	.7	.0723	
313.15	.7	.07722	
315.65	.7	.08295	
318.15	.7	.08823	
273.15	.8	.0297	
275.65	.8	.03196	
278.15	.8	.0343	
280.65	.8	.03678	
283.15	.8	.03925	
285.65	.8	.04235	
288.15	.8	.04545	
290.65	.8	.0481	
293.15	.8	.05162	
295.65	.8	.05499	
298.15	.8	.05856	
300.65	.8	.06321	
303.15	.8	.06741	
305.65	.8	.07172	
308.15	.8	.07603	
310.65	.8	.08096	
313.15	.8	.08582	
315.65	.8	.09062	
318.15	.8	.09523	
273.15	.9	.03523	
275.65	.9	.0379	
278.15	.9	.04065	
280.65	.9	.04344	
283.15	.9	.04689	
285.65	.9	.04987	
288.15	.9	.05307	
290.65	.9	.05654	
293.15	.9	.06076	
295.65	.9	.06467	
298.15	.9	.06861	
300.65	.9	.07351	
303.15	.9	.07831	
305.65	.9	.08347	
308.15	.9	.08852	
310.65	.9	.09342	
313.15	.9	.09918	
315.65	.9	.1044	
318.15	.9	.1104	

System: isopropanol + acetone + ethyl 5-amino-4-cyano-3-(2-ethoxy-2-oxoethyl)-2-thiophenecarboxylate; phases: Liquid, Crystal
Fixed: Pressure, kPa = 101.3
Property: Mole fraction of ethyl 5-amino-4-cyano-3-(2-ethoxy-2-oxoethyl)-2-thiophenecarboxylate (Liquid); method: Chromatography
Temperature, K	Solvent: Mass fraction of acetone	Mole fraction of ethyl 5-amino-4-cyano-3-(2-ethoxy-2-oxoethyl)-2-thiophenecarboxylate	uncertainty
273.15	.1	.00381	
275.65	.1	.004278	
278.15	.1	.004853	
280.65	.1	.005515	
283.15	.1	.006283	
285.65	.1	.007038	
288.15	.1	.008024	
290.65	.1	.008916	
293.15	.1	.01007	
295.65	.1	.01136	
298.15	.1	.01265	
300.65	.1	.01417	
303.15	.1	.01586	
305.65	.1	.0178	
308.15	.1	.01966	
310.65	.1	.02188	
313.15	.1	.02428	
315.65	.1	.02644	
318.15	.1	.02963	
273.15	.2	.005856	
275.65	.2	.006422	
278.15	.2	.007171	
280.65	.2	.00799	
283.15	.2	.008892	
285.65	.2	.01006	
288.15	.2	.01137	
290.65	.2	.01261	
293.15	.2	.01429	
295.65	.2	.0157	
298.15	.2	.01744	
300.65	.2	.01918	
303.15	.2	.02135	
305.65	.2	.02362	
308.15	.2	.02578	
310.65	.2	.02831	
313.15	.2	.03124	
315.65	.2	.03465	
318.15	.2	.0377	
273.15	.3	.008275	
275.65	.3	.009004	
278.15	.3	.009807	
280.65	.3	.01079	
283.15	.3	.01206	
285.65	.3	.01351	
288.15	.3	.01481	
290.65	.3	.01648	
293.15	.3	.01845	
295.65	.3	.02047	
298.15	.3	.02275	
300.65	.3	.02502	
303.15	.3	.02769	
305.65	.3	.0303	
308.15	.3	.0333	
310.65	.3	.03593	
313.15	.3	.03907	
315.65	.3	.04273	
318.15	.3	.04656	
273.15	.4	.01124	
275.65	.4	.01193	
278.15	.4	.01297	
280.65	.4	.01433	
283.15	.4	.01609	
285.65	.4	.01762	
288.15	.4	.01934	
290.65	.4	.02127	
293.15	.4	.0233	
295.65	.4	.02585	
298.15	.4	.02871	
300.65	.4	.03142	
303.15	.4	.03468	
305.65	.4	.03779	
308.15	.4	.04089	
310.65	.4	.04414	
313.15	.4	.04763	
315.65	.4	.05207	
318.15	.4	.05619	
273.15	.5	.01462	
275.65	.5	.01542	
278.15	.5	.01702	
280.65	.5	.01865	
283.15	.5	.02022	
285.65	.5	.02225	
288.15	.5	.02432	
290.65	.5	.02639	
293.15	.5	.02856	
295.65	.5	.03152	
298.15	.5	.03471	
300.65	.5	.03809	
303.15	.5	.04171	
305.65	.5	.04517	
308.15	.5	.04875	
310.65	.5	.05229	
313.15	.5	.05669	
315.65	.5	.06141	
318.15	.5	.06623	
273.15	.6	.01819	
275.65	.6	.01925	
278.15	.6	.02119	
280.65	.6	.0231	
283.15	.6	.02537	
285.65	.6	.02712	
288.15	.6	.02951	
290.65	.6	.03189	
293.15	.6	.03474	
295.65	.6	.03826	
298.15	.6	.04162	
300.65	.6	.04487	
303.15	.6	.04905	
305.65	.6	.05324	
308.15	.6	.05741	
310.65	.6	.06139	
313.15	.6	.06589	
315.65	.6	.07104	
318.15	.6	.07608	
273.15	.7	.02296	
275.65	.7	.02405	
278.15	.7	.02628	
280.65	.7	.02831	
283.15	.7	.03084	
285.65	.7	.03344	
288.15	.7	.03593	
290.65	.7	.03865	
293.15	.7	.04165	
295.65	.7	.04522	
298.15	.7	.04881	
300.65	.7	.05248	
303.15	.7	.05653	
305.65	.7	.06122	
308.15	.7	.06566	
310.65	.7	.07032	
313.15	.7	.07537	
315.65	.7	.08168	
318.15	.7	.08719	
273.15	.8	.02904	
275.65	.8	.0302	
278.15	.8	.03229	
280.65	.8	.03458	
283.15	.8	.03714	
285.65	.8	.03998	
288.15	.8	.04279	
290.65	.8	.04624	
293.15	.8	.04945	
295.65	.8	.05336	
298.15	.8	.05729	
300.65	.8	.06133	
303.15	.8	.06637	
305.65	.8	.07114	
308.15	.8	.07597	
310.65	.8	.08074	
313.15	.8	.08621	
315.65	.8	.09291	
318.15	.8	.09865	
273.15	.9	.03578	
275.65	.9	.03713	
278.15	.9	.0396	
280.65	.9	.04232	
283.15	.9	.04571	
285.65	.9	.04833	
288.15	.9	.05213	
290.65	.9	.05542	
293.15	.9	.05931	
295.65	.9	.06304	
298.15	.9	.06756	
300.65	.9	.07265	
303.15	.9	.07716	
305.65	.9	.08231	
308.15	.9	.0876	
310.65	.9	.09282	
313.15	.9	.09871	
315.65	.9	.1046	
318.15	.9	.1115	
