Measured thermophysical data. Energetics of flavone and flavanone
Source: J. Chem. Thermodyn., 2009, 10.1016/j.jct.2009.06.022
Compound 1: flavone, C15H10O2, purity 99.9%
Compound 2: flavanone, C15H12O2, purity 99.9%
Compound 3: carbon dioxide, CO2
Compound 4: water, H2O
Compound 5: oxygen, O2
Compound 6: carbon, C
Compound 7: hydrogen, H2

System: flavone; phases: Crystal, Liquid, Air at 1 atmosphere
Property: Normal melting temperature, K (Crystal); method: DSC/DTA
Normal melting temperature, K	uncertainty
369.89	.13

System: flavone; phases: Crystal, Liquid, Gas
Property: Molar enthalpy of transition or fusion, kJ/mol (Crystal); method: DSC/DTA
Molar enthalpy of transition or fusion, kJ/mol	uncertainty
20.32	.14

System: flavanone; phases: Crystal, Liquid, Air at 1 atmosphere
Property: Normal melting temperature, K (Crystal); method: DSC/DTA
Normal melting temperature, K	uncertainty
349.49	.13

System: flavanone; phases: Crystal, Liquid, Gas
Property: Molar enthalpy of transition or fusion, kJ/mol (Crystal); method: DSC/DTA
Molar enthalpy of transition or fusion, kJ/mol	uncertainty
21.04	.19

Reaction: -1 flavone + 15 carbon dioxide + 5 water + -16.5 oxygen
Property: Specific internal energy of reaction at constant volume, J/g
-32276.2

Reaction: -1 flavanone + 15 carbon dioxide + 6 water + -17 oxygen
Property: Specific internal energy of reaction at constant volume, J/g
-32998.2

Reaction: -1 flavone + 15 carbon + 5 hydrogen + 1 oxygen
Property: Molar enthalpy of reaction, kJ/mol
46.7

Reaction: -1 flavanone + 15 carbon + 6 hydrogen + 1 oxygen
Property: Molar enthalpy of reaction, kJ/mol
105.3
