Measured thermophysical data. Calorimetric measurements and first principles to study the (Ag-Li) liquid system
Source: J. Chem. Thermodyn., 2015, 10.1016/j.jct.2014.10.023
Compound 1: silver, Ag, purity 99.9%
Compound 2: lithium, Li, purity 99.9%

System: lithium + silver; phases: Liquid
Fixed: Pressure, kPa = 101
Property: Excess molar enthalpy (molar enthalpy of mixing), kJ/mol (Liquid); method: Calvet calorimetry
Temperature, K	Mole fraction of lithium	Excess molar enthalpy (molar enthalpy of mixing), kJ/mol	uncertainty
1253	.5245	-11.489	.5
1253	.4847	-11.379	.5
1253	.4371	-10.91	.5
1253	.4086	-10.553	.5
1253	.3774	-10.105	.5
1253	.3503	-9.574	.5
1253	.3281	-9.199	.5
1253	.3124	-8.856	.5
1253	.2976	-8.472	.5
1253	.2851	-8.153	.5
1253	.2711	-7.848	.5
1253	.264	-7.75	.5
1253	.2187	-7.224	.7
1253	.1995	-6.685	.7
1253	.1884	-6.326	.7
1253	.1698	-5.665	.7
1253	.1583	-5.052	.7
1253	.1461	-4.623	.7
1253	.1355	-4.233	.7
1253	.1287	-4	.7
1253	.1205	-3.754	.7
1253	.1152	-3.569	.7
1253	.1097	-3.342	.7
1253	.1043	-3.156	.7
1253	.1002	-3.056	.7
873	.9771	-.34	.5
873	.932	-1.984	.5
873	.8972	-3.208	.5
873	.8408	-5.094	.5
873	.7867	-7.102	.5
873	.7617	-7.808	.5
873	.7274	-8.727	.5
873	.7007	-9.395	.5
873	.6719	-10.035	.5
873	.6338	-10.743	.5
873	.5985	-11.265	.5
873	.5664	-11.679	.5
