Measured thermophysical data. (Liquid + liquid) equilibrium for the system {ethyl stearate(1) + ethanol(2) + glycerol(3)}
Source: J. Chem. Thermodyn., 2012, 10.1016/j.jct.2011.10.017
Compound 1: ethanol, C2H6O, purity 99.8%
Compound 2: glycerin, C3H8O3, purity 99.5%
Compound 3: ethyl stearate, C20H40O2, purity 97%

System: glycerin + ethanol + ethyl stearate; phases: Liquid mixture 1, Liquid mixture 2
Fixed: Pressure, kPa = 101
Property: Mole fraction of ethyl stearate (Liquid mixture 1); method: Chromatography
Property: Mole fraction of ethanol (Liquid mixture 2); method: Chromatography
Property: Mole fraction of ethyl stearate (Liquid mixture 2); method: Chromatography
Temperature, K	Mole fraction of ethanol	Mole fraction of ethyl stearate	uncertainty	Mole fraction of ethanol	uncertainty	Mole fraction of ethyl stearate	uncertainty
313.15	.005	.995	.0002	.01	.0002	0	.0002
313.15	.01	.9889	.0002	.025	.0002	.005	.0002
313.15	.01	.985	.0002	.04	.0002	.005	.0002
313.15	.0191	.9801	.0002	.09	.0002	.007	.0002
313.15	.043	.957	.0002	.142	.0002	.002	.0002
313.15	.0579	.9421	.0002	.21	.0002	.009	.0002
313.15	.091	.909	.0002	.24	.0002	.011	.0002
313.15	.159	.8406	.0002	.441	.0002	.015	.0002
313.15	.165	.8334	.0002	.51	.0002	.01	.0002
313.15	.176	.8198	.0002	.538	.0002	.011	.0002
313.15	.27	.721	.0002	.618	.0002	.035	.0002
323.15	.0042	.9958	.0002	.01	.0002	0	.0002
323.15	.006	.9902	.0002	.02	.0002	.01	.0002
323.15	.008	.982	.0002	.05	.0002	.01	.0002
323.15	.013	.9826	.0002	.06	.0002	.0103	.0002
323.15	.034	.9607	.0002	.11	.0002	.013	.0002
323.15	.038	.9603	.0002	.136	.0002	.014	.0002
323.15	.075	.9239	.0002	.201	.0002	.012	.0002
323.15	.073	.925	.0002	.287	.0002	.011	.0002
323.15	.13	.8638	.0002	.44	.0002	.02	.0002
323.15	.14	.8576	.0002	.516	.0002	.034	.0002
323.15	.305	.6462	.0002	.775	.0002	.064	.0002

System: ethanol + ethyl stearate; phases: Liquid mixture 1, Liquid mixture 2
Property: Mole fraction of ethyl stearate (Liquid mixture 1); method: Chromatography
Temperature, K	Pressure, kPa	Mole fraction of ethyl stearate	uncertainty
313.15	101	.995	.0002
313.15	101	.957	.0002
313.15	101	.9421	.0002
313.15	101	.909	.0002
323.15	101	.9958	.0002

System: glycerin + ethanol; phases: Liquid mixture 2, Liquid mixture 1
Property: Mole fraction of ethanol (Liquid mixture 2); method: Chromatography
Temperature, K	Pressure, kPa	Mole fraction of ethanol	uncertainty
313.15	101	.01	.0002
323.15	101	.01	.0002
