Measured thermophysical data. (Liquid + liquid) equilibrium for systems composed of clove and allspice essential oil compounds and hydrous ethanol at T = 298.2 K
Source: J. Chem. Thermodyn., 2016, 10.1016/j.jct.2015.10.023
Compound 1: .beta.-caryophyllene, C15H24, purity 90.44%
Compound 2: water, H2O, purity 99.8%
Compound 3: ethanol, C2H6O

System: ethanol + .beta.-caryophyllene + water; phases: Liquid mixture 2, Liquid mixture 1
Fixed: Temperature, K = 298.2
Fixed: Pressure, kPa = 100
Property: Mass fraction of ethanol (Liquid mixture 2); method: Chromatography
Property: Mass fraction of .beta.-caryophyllene (Liquid mixture 1); method: Chromatography
Property: Mass fraction of ethanol (Liquid mixture 1); method: Chromatography
Mass fraction of .beta.-caryophyllene	Mass fraction of ethanol	uncertainty	Mass fraction of .beta.-caryophyllene	uncertainty	Mass fraction of ethanol	uncertainty
.2414	.704	.005	.9235	.002	.0739	.001
.0156	.711	.005	.9822	.002	.0165	.001
.097	.79	.005	.963	.002	.035	.001
.0527	.784	.005	.9761	.002	.0226	.001
.024	.741	.005	.9826	.002	.0161	.001
.016	.71	.005	.982	.002	.0145	.001
.209	.739	.005	.9184	.002	.0793	.001
.0831	.7986	.005	.963	.002	.035	.001
.0476	.783	.005	.974	.002	.025	.001
.0246	.74	.005	.9799	.002	.019	.001
