Measured thermophysical data. (Liquid + liquid) equilibrium of {water + phenol + (1-butanol, or 2-butanol, or tert-butanol)} systems
Source: J. Chem. Thermodyn., 2010, 10.1016/j.jct.2010.06.007
Compound 1: water, H2O, purity 99.8%
Compound 2: phenol, C6H6O
Compound 3: tert-butanol, C4H10O
Compound 4: dl-sec-butyl alcohol, C4H10O
Compound 5: butan-1-ol, C4H10O

System: tert-butanol + phenol + water; phases: Liquid mixture 1, Liquid mixture 2
Fixed: Temperature, K = 298.15
Fixed: Pressure, kPa = 101
Property: Mass fraction of phenol (Liquid mixture 1); method: visual - cloud point
Mass fraction of water	Mass fraction of phenol	uncertainty
.2975	.7025	.0005
.2298	.6849	.0005
.201	.6346	.0005
.1878	.5671	.0005
.1822	.491	.0005
.2127	.3778	.0005
.2425	.303	.0005
.3217	.2048	.0005
.5482	.0916	.0005
.7016	.0458	.0005
.7624	.0335	.0005
.8419	.0278	.0005
.8951	.0401	.0005
.9176	.0824	.0005

System: tert-butanol + phenol + water; phases: Liquid mixture 1, Liquid mixture 2
Fixed: Temperature, K = 298.15
Fixed: Pressure, kPa = 101
Property: Mass fraction of tert-butanol (Liquid mixture 1); method: visual - cloud point
Mass fraction of water	Mass fraction of tert-butanol	uncertainty
.2975	0	.0005
.2298	.0853	.0005
.201	.1643	.0005
.1878	.2451	.0005
.1822	.3268	.0005
.2127	.4096	.0005
.2425	.4545	.0005
.3217	.4734	.0005
.5482	.3602	.0005
.7016	.2526	.0005
.7624	.2041	.0005
.8419	.1303	.0005
.8951	.0648	.0005
.9176	0	.0005

System: tert-butanol + phenol + water; phases: Liquid mixture 1, Liquid mixture 2
Fixed: Temperature, K = 298.15
Property: Mass density, kg/m3 (Liquid mixture 1); method: Vibrating tube method
Mass fraction of water	Mass fraction of phenol	Mass density, kg/m3	uncertainty
.2975	.7025	1046.436	.05
.2298	.6849	1024.939	.05
.201	.6346	1002.994	.05
.1878	.5671	979.713	.05
.1822	.491	956.816	.05
.2127	.3778	931.476	.05
.2425	.303	918.431	.05
.3217	.2048	910.889	.05
.5482	.0916	933.495	.05
.7016	.0458	956.355	.05
.7624	.0335	965.749	.05
.8419	.0278	979.309	.05
.8951	.0401	990.388	.05
.9176	.0824	1004.065	.05

System: tert-butanol + phenol + water; phases: Liquid mixture 1, Liquid mixture 2
Fixed: Temperature, K = 298.15
Property: Refractive index (Na D-line) (Liquid mixture 1); method: Standard Abbe refractometry
Mass fraction of water	Mass fraction of phenol	Refractive index (Na D-line)	uncertainty
.2975	.7025	1.4814	.0001
.2298	.6849	1.4769	.0001
.201	.6346	1.459	.0001
.1878	.5671	1.4447	.0001
.1822	.491	1.428	.0001
.2127	.3778	1.4153	.0001
.2425	.303	1.3989	.0001
.3217	.2048	1.3677	.0001
.5482	.0916	1.3549	.0001
.7016	.0458	1.3529	.0001
.7624	.0335	1.3493	.0001
.8419	.0278	1.4814	.0001
.8951	.0401	1.4769	.0001
.9176	.0824	1.459	.0001

System: tert-butanol + phenol + water; phases: Liquid mixture 1, Liquid mixture 2
Fixed: Pressure, kPa = 101
Fixed: Temperature, K = 298.15
Property: Mass fraction of phenol (Liquid mixture 1); method: UV-Vis spectrophotometry
Mass fraction of water	Mass fraction of phenol	uncertainty
.449	.1263	.0005
.293	.2372	.0005
.225	.3483	.0005
.1865	.4544	.0005

System: tert-butanol + phenol + water; phases: Liquid mixture 2, Liquid mixture 1
Fixed: Pressure, kPa = 101
Fixed: Temperature, K = 298.15
Property: Mass fraction of phenol (Liquid mixture 2); method: UV-Vis spectrophotometry
Mass fraction of water	Mass fraction of phenol	uncertainty
.7191	.0453	.0005
.8231	.0287	.0005
.8527	.031	.0005
.8692	.037	.0005

System: tert-butanol + phenol + water; phases: Liquid mixture 2, Liquid mixture 1
Fixed: Pressure, kPa = 101
Fixed: Temperature, K = 298.15
Property: Mass fraction of phenol (Liquid mixture 2); method: calibration curve - density and refractive index
Mass fraction of water	Mass fraction of phenol	uncertainty
.8845	.0333	.0005
.9003	.0366	.0005
.91	.0453	.0005
.9143	.056	.0005

System: tert-butanol + phenol + water; phases: Liquid mixture 1, Liquid mixture 2
Fixed: Pressure, kPa = 101
Fixed: Temperature, K = 298.15
Property: Mass fraction of phenol (Liquid mixture 1); method: calibration curve - density and refractive index
Mass fraction of water	Mass fraction of phenol	uncertainty
.186	.4958	.0005
.1891	.5722	.0005
.2102	.6515	.0005
.2595	.7026	.0005

System: dl-sec-butyl alcohol + phenol + water; phases: Liquid mixture 1, Liquid mixture 2
Property: Mass density, kg/m3 (Liquid mixture 1); method: Vibrating tube method
Temperature, K	Mass fraction of water	Mass fraction of phenol	Mass density, kg/m3	uncertainty
298.15	.2937	.7063	1046.818	.05
298.15	.2409	.6988	1032.783	.05
298.15	.1903	.6459	1006.972	.05
298.15	.1665	.5859	984.547	.05
298.15	.1479	.4259	938.035	.05
298.15	.1529	.3679	923.726	.05
298.15	.1608	.2987	909.642	.05
298.15	.179	.216	893.22	.05
298.15	.2199	.122	878.851	.05
298.15	.2671	.065	872.995	.05
298.15	.3551	0	875.001	.05
313.15	.3396	.6604	1032.591	.05
313.15	.2622	.6723	1018.767	.05
313.15	.2287	.645	1003.291	.05
313.15	.2075	.6075	987.085	.05
313.15	.1854	.5727	972.524	.05
313.15	.1732	.4871	947.287	.05
313.15	.171	.4648	940.118	.05
313.15	.1696	.4099	925.291	.05
313.15	.1796	.2883	896.402	.05
313.15	.1941	.2256	883.733	.05
313.15	.2165	.1553	871.974	.05
313.15	.2675	.0651	860.076	.05
313.15	.3304	0	858.02	.05

System: dl-sec-butyl alcohol + phenol + water; phases: Liquid mixture 2, Liquid mixture 1
Property: Mass density, kg/m3 (Liquid mixture 2); method: Vibrating tube method
Temperature, K	Mass fraction of water	Mass fraction of phenol	Mass density, kg/m3	uncertainty
298.15	.9176	.0824	1004.065	.05
298.15	.9209	.0723	1002.074	.05
298.15	.9276	.0521	998.383	.05
298.15	.9104	.0238	989.475	.05
298.15	.9001	.0089	981.766	.05
298.15	.8128	0	968.391	.05
313.15	.8454	0	967.206	.05
313.15	.8802	.0096	975.491	.05
313.15	.9046	.0203	981.697	.05
313.15	.9094	.0274	983.774	.05
313.15	.9166	.0422	988.341	.05
313.15	.917	.0714	995.371	.05
313.15	.9005	.0995	999.245	.05

System: dl-sec-butyl alcohol + phenol + water; phases: Liquid mixture 1, Liquid mixture 2
Property: Refractive index (Na D-line) (Liquid mixture 1); method: Standard Abbe refractometry
Temperature, K	Mass fraction of water	Mass fraction of phenol	Refractive index (Na D-line)	uncertainty
298.15	.2937	.7063	1.4798	.0001
298.15	.2409	.6988	1.4821	.0001
298.15	.1903	.6459	1.47	.0001
298.15	.1665	.5859	1.4578	.0001
298.15	.1479	.4259	1.4391	.0001
298.15	.1529	.3679	1.4289	.0001
298.15	.1608	.2987	1.4167	.0001
298.15	.179	.216	1.4027	.0001
298.15	.2199	.122	1.3932	.0001
298.15	.2671	.065	1.3811	.0001
298.15	.3551	0	1.4798	.0001
313.15	.3396	.6604	1.466	.0001
313.15	.2622	.6723	1.4729	.0001
313.15	.2287	.645	1.4702	.0001
313.15	.2075	.6075	1.4656	.0001
313.15	.1854	.5727	1.4616	.0001
313.15	.1732	.4871	1.4524	.0001
313.15	.171	.4648	1.4472	.0001
313.15	.1696	.4099	1.4391	.0001
313.15	.1796	.2883	1.4206	.0001
313.15	.1941	.2256	1.4117	.0001
313.15	.2165	.1553	1.4013	.0001
313.15	.2675	.0651	1.3877	.0001
313.15	.3304	0	1.3766	.0001

System: dl-sec-butyl alcohol + phenol + water; phases: Liquid mixture 2, Liquid mixture 1
Property: Refractive index (Na D-line) (Liquid mixture 2); method: Standard Abbe refractometry
Temperature, K	Mass fraction of water	Mass fraction of phenol	Refractive index (Na D-line)	uncertainty
298.15	.9176	.0824	1.3493	.0001
298.15	.9209	.0723	1.3477	.0001
298.15	.9276	.0521	1.345	.0001
298.15	.9104	.0238	1.3438	.0001
298.15	.9001	.0089	1.3461	.0001
298.15	.8128	0	1.3506	.0001
313.15	.8454	0	1.3452	.0001
313.15	.8802	.0096	1.3419	.0001
313.15	.9046	.0203	1.3409	.0001
313.15	.9094	.0274	1.34	.0001
313.15	.9166	.0422	1.3412	.0001
313.15	.917	.0714	1.3455	.0001
313.15	.9005	.0995	1.3503	.0001

System: dl-sec-butyl alcohol + phenol + water; phases: Liquid mixture 1, Liquid mixture 2
Fixed: Pressure, kPa = 101
Property: Mass fraction of phenol (Liquid mixture 1); method: UV-Vis spectrophotometry
Temperature, K	Mass fraction of water	Mass fraction of phenol	uncertainty
298.15	.2937	.7063	.0005
298.15	.2409	.6988	.0005
298.15	.1903	.6459	.0005
298.15	.1665	.5859	.0005
298.15	.1479	.4259	.0005
298.15	.1529	.3679	.0005
298.15	.1608	.2987	.0005
298.15	.179	.216	.0005
298.15	.2199	.122	.0005
298.15	.2671	.065	.0005
298.15	.3551	0	.0005
313.15	.3396	.6604	.0005
313.15	.2622	.6723	.0005
313.15	.2287	.645	.0005
313.15	.2075	.6075	.0005
313.15	.1854	.5727	.0005
313.15	.1732	.4871	.0005
313.15	.171	.4648	.0005
313.15	.1696	.4099	.0005
313.15	.1796	.2883	.0005
313.15	.1941	.2256	.0005
313.15	.2165	.1553	.0005
313.15	.2675	.0651	.0005
313.15	.3304	0	.0005

System: dl-sec-butyl alcohol + phenol + water; phases: Liquid mixture 2, Liquid mixture 1
Fixed: Pressure, kPa = 101
Property: Mass fraction of phenol (Liquid mixture 2); method: UV-Vis spectrophotometry
Temperature, K	Mass fraction of water	Mass fraction of phenol	uncertainty
298.15	.9176	.0824	.0005
298.15	.9209	.0723	.0005
298.15	.9276	.0521	.0005
298.15	.9104	.0238	.0005
298.15	.9001	.0089	.0005
298.15	.8128	0	.0005
313.15	.8454	0	.0005
313.15	.8802	.0096	.0005
313.15	.9046	.0203	.0005
313.15	.9094	.0274	.0005
313.15	.9166	.0422	.0005
313.15	.917	.0714	.0005
313.15	.9005	.0995	.0005

System: dl-sec-butyl alcohol + phenol + water; phases: Liquid mixture 1, Liquid mixture 2
Fixed: Pressure, kPa = 101
Property: Mass fraction of dl-sec-butyl alcohol (Liquid mixture 1); method: UV-Vis spectrophotometry
Temperature, K	Mass fraction of water	Mass fraction of dl-sec-butyl alcohol	uncertainty
298.15	.2937	0	.0005
298.15	.2409	.0603	.0005
298.15	.1903	.1638	.0005
298.15	.1665	.2476	.0005
298.15	.1479	.4262	.0005
298.15	.1529	.4791	.0005
298.15	.1608	.5405	.0005
298.15	.179	.6049	.0005
298.15	.2199	.6581	.0005
298.15	.2671	.6679	.0005
298.15	.3551	.6449	.0005
313.15	.3396	0	.0005
313.15	.2622	.0655	.0005
313.15	.2287	.1263	.0005
313.15	.2075	.185	.0005
313.15	.1854	.242	.0005
313.15	.1732	.3397	.0005
313.15	.171	.3642	.0005
313.15	.1696	.4205	.0005
313.15	.1796	.5321	.0005
313.15	.1941	.5803	.0005
313.15	.2165	.6282	.0005
313.15	.2675	.6674	.0005
313.15	.3304	.6696	.0005

System: dl-sec-butyl alcohol + phenol + water; phases: Liquid mixture 2, Liquid mixture 1
Fixed: Pressure, kPa = 101
Property: Mass fraction of dl-sec-butyl alcohol (Liquid mixture 2); method: UV-Vis Spectrophotometry
Temperature, K	Mass fraction of water	Mass fraction of dl-sec-butyl alcohol	uncertainty
298.15	.9176	0	.0005
298.15	.9209	.0068	.0005
298.15	.9276	.0203	.0005
298.15	.9104	.0658	.0005
298.15	.9001	.0909	.0005
298.15	.8128	.1872	.0005
313.15	.8454	.1546	.0005
313.15	.8802	.1102	.0005
313.15	.9046	.075	.0005
313.15	.9094	.0632	.0005
313.15	.9166	.0412	.0005
313.15	.917	.0116	.0005
313.15	.9005	0	.0005

System: dl-sec-butyl alcohol + phenol + water; phases: Liquid mixture 1, Liquid mixture 2
Fixed: Pressure, kPa = 101
Property: Mass fraction of water (Liquid mixture 1); method: UV-Vis spectrophotometry
Property: Mass fraction of water (Liquid mixture 2); method: UV-Vis spectrophotometry
Property: Mass fraction of phenol (Liquid mixture 2); method: UV-Vis spectrophotometry
Temperature, K	Mass fraction of phenol	Mass fraction of water	uncertainty	Mass fraction of water	uncertainty	Mass fraction of phenol	uncertainty
25	.0571	.273	.0005	.8478	.0005	.008	.0005
25	.2631	.1688	.0005	.9041	.0005	.0137	.0005
25	.3552	.1546	.0005	.9156	.0005	.0193	.0005
25	.4654	.1454	.0005	.9264	.0005	.0281	.0005
25	.5828	.1568	.0005	.9329	.0005	.0418	.0005
25	.6822	.2043	.0005	.9249	.0005	.0631	.0005
40	.1269	.2331	.0005	.8794	.0005	.0114	.0005
40	.3013	.1808	.0005	.902	.0005	.0243	.0005
40	.397	.167	.0005	.9136	.0005	.0303	.0005
40	.5028	.1764	.0005	.9167	.0005	.0441	.0005
40	.6099	.2023	.0005	.9176	.0005	.0607	.0005
40	.665	.2852	.0005	.9115	.0005	.0829	.0005

System: butan-1-ol + phenol + water; phases: Liquid mixture 1, Liquid mixture 2
Property: Mass density, kg/m3 (Liquid mixture 1); method: Vibrating tube method
Temperature, K	Mass fraction of water	Mass fraction of phenol	Mass density, kg/m3	uncertainty
298.15	.2937	.7063	1046.818	.05
298.15	.2196	.6929	1026.05	.05
298.15	.1707	.625	995.639	.05
298.15	.1582	.588	982.464	.05
298.15	.1416	.5159	959.376	.05
298.15	.1302	.4332	936.395	.05
298.15	.135	.3467	913.918	.05
298.15	.1404	.2587	893.105	.05
298.15	.1554	.165	873.638	.05
298.15	.1721	.089	858.986	.05
298.15	.1997	0	844.544	.05
313.15	.3396	.6604	1032.591	.05
313.15	.2334	.6579	1007.043	.05
313.15	.1904	.6043	981.911	.05
313.15	.1566	.5073	947.802	.05
313.15	.1545	.4217	924.481	.05
313.15	.1529	.3344	901.651	.05
313.15	.1678	.1738	865.547	.05
313.15	.1853	.0812	847.458	.05
313.15	.2099	0	834.14	.05

System: butan-1-ol + phenol + water; phases: Liquid mixture 2, Liquid mixture 1
Property: Mass density, kg/m3 (Liquid mixture 2); method: Vibrating tube method
Temperature, K	Mass fraction of water	Mass fraction of phenol	Mass density, kg/m3	uncertainty
298.15	.9176	.0824	1004.065	.05
298.15	.9249	.0695	1002.078	.05
298.15	.9304	.0532	998.818	.05
298.15	.9378	.0373	996.342	.05
298.15	.9404	.0214	993.072	.05
298.15	.9293	.007	988.525	.05
298.15	.9235	0	985.811	.05
313.15	.9005	.0995	999.245	.05
313.15	.9203	.0735	996.506	.05
313.15	.9298	.0608	995.074	.05
313.15	.9382	.0421	992.012	.05
313.15	.9433	.0277	989.46	.05
313.15	.9407	.0145	986.079	.05
313.15	.9298	0	980.718	.05

System: butan-1-ol + phenol + water; phases: Liquid mixture 1, Liquid mixture 2
Property: Refractive index (Na D-line) (Liquid mixture 1); method: Standard Abbe refractometry
Temperature, K	Mass fraction of water	Mass fraction of phenol	Refractive index (Na D-line)	uncertainty
298.15	.2937	.7063	1.4798	.0001
298.15	.2196	.6929	1.4826	.0001
298.15	.1707	.625	1.4753	.0001
298.15	.1582	.588	1.4709	.0001
298.15	.1416	.5159	1.4608	.0001
298.15	.1302	.4332	1.4494	.0001
298.15	.135	.3467	1.437	.0001
298.15	.1404	.2587	1.4245	.0001
298.15	.1554	.165	1.4118	.0001
298.15	.1721	.089	1.4011	.0001
298.15	.1997	0	1.3885	.0001
313.15	.3396	.6604	1.466	.0001
313.15	.2334	.6579	1.4708	.0001
313.15	.1904	.6043	1.4654	.0001
313.15	.1566	.5073	1.4526	.0001
313.15	.1545	.4217	1.4409	.0001
313.15	.1529	.3344	1.4284	.0001
313.15	.1678	.1738	1.4062	.0001
313.15	.1853	.0812	1.3935	.0001
313.15	.2099	0	1.3823	.0001

System: butan-1-ol + phenol + water; phases: Liquid mixture 2, Liquid mixture 1
Property: Refractive index (Na D-line) (Liquid mixture 2); method: Standard Abbe refractometry
Temperature, K	Mass fraction of water	Mass fraction of phenol	Refractive index (Na D-line)	uncertainty
298.15	.9176	.0824	1.3493	.0001
298.15	.9249	.0695	1.3469	.0001
298.15	.9304	.0532	1.3447	.0001
298.15	.9378	.0373	1.3423	.0001
298.15	.9404	.0214	1.3404	.0001
298.15	.9293	.007	1.3399	.0001
298.15	.9235	0	1.3401	.0001
313.15	.9005	.0995	1.3503	.0001
313.15	.9203	.0735	1.3455	.0001
313.15	.9298	.0608	1.3434	.0001
313.15	.9382	.0421	1.3407	.0001
313.15	.9433	.0277	1.3387	.0001
313.15	.9407	.0145	1.3375	.0001
313.15	.9298	0	1.3386	.0001

System: butan-1-ol + phenol + water; phases: Liquid mixture 1, Liquid mixture 2
Fixed: Pressure, kPa = 101
Property: Mass fraction of phenol (Liquid mixture 1); method: UV-Vis spectrophotometry
Temperature, K	Mass fraction of water	Mass fraction of phenol	uncertainty
298.15	.2937	.7063	.0005
298.15	.2196	.6929	.0005
298.15	.1707	.625	.0005
298.15	.1582	.588	.0005
298.15	.1416	.5159	.0005
298.15	.1302	.4332	.0005
298.15	.135	.3467	.0005
298.15	.1404	.2587	.0005
298.15	.1554	.165	.0005
298.15	.1721	.089	.0005
298.15	.1997	0	.0005
313.15	.3396	.6604	.0005
313.15	.2334	.6579	.0005
313.15	.1904	.6043	.0005
313.15	.1566	.5073	.0005
313.15	.1545	.4217	.0005
313.15	.1529	.3344	.0005
313.15	.1678	.1738	.0005
313.15	.1853	.0812	.0005
313.15	.2099	0	.0005

System: butan-1-ol + phenol + water; phases: Liquid mixture 2, Liquid mixture 1
Fixed: Pressure, kPa = 101
Property: Mass fraction of phenol (Liquid mixture 2); method: UV-Vis spectrophotometry
Temperature, K	Mass fraction of water	Mass fraction of phenol	uncertainty
298.15	.9176	.0824	.0005
298.15	.9249	.0695	.0005
298.15	.9304	.0532	.0005
298.15	.9378	.0373	.0005
298.15	.9404	.0214	.0005
298.15	.9293	.007	.0005
298.15	.9235	0	.0005
313.15	.9005	.0995	.0005
313.15	.9203	.0735	.0005
313.15	.9298	.0608	.0005
313.15	.9382	.0421	.0005
313.15	.9433	.0277	.0005
313.15	.9407	.0145	.0005
313.15	.9298	0	.0005

System: butan-1-ol + phenol + water; phases: Liquid mixture 1, Liquid mixture 2
Fixed: Pressure, kPa = 101
Property: Mass fraction of butan-1-ol (Liquid mixture 1); method: UV-Vis spectrophotometry
Temperature, K	Mass fraction of water	Mass fraction of butan-1-ol	uncertainty
298.15	.2937	0	.0005
298.15	.2196	.0875	.0005
298.15	.1707	.2043	.0005
298.15	.1582	.2539	.0005
298.15	.1416	.3425	.0005
298.15	.1302	.4366	.0005
298.15	.135	.5183	.0005
298.15	.1404	.6009	.0005
298.15	.1554	.6796	.0005
298.15	.1721	.7388	.0005
298.15	.1997	.8003	.0005
313.15	.3396	0	.0005
313.15	.2334	.1087	.0005
313.15	.1904	.2054	.0005
313.15	.1566	.3362	.0005
313.15	.1545	.4238	.0005
313.15	.1529	.5127	.0005
313.15	.1678	.6583	.0005
313.15	.1853	.7334	.0005
313.15	.2099	.7901	.0005

System: butan-1-ol + phenol + water; phases: Liquid mixture 2, Liquid mixture 1
Fixed: Pressure, kPa = 101
Property: Mass fraction of butan-1-ol (Liquid mixture 2); method: UV-Vis spectrophotometry
Temperature, K	Mass fraction of water	Mass fraction of butan-1-ol	uncertainty
298.15	.9176	0	.0005
298.15	.9249	.0056	.0005
298.15	.9304	.0164	.0005
298.15	.9378	.0248	.0005
298.15	.9404	.0382	.0005
298.15	.9293	.0637	.0005
298.15	.9235	.0765	.0005
313.15	.9005	0	.0005
313.15	.9203	.0062	.0005
313.15	.9298	.0094	.0005
313.15	.9382	.0197	.0005
313.15	.9433	.029	.0005
313.15	.9407	.0448	.0005
313.15	.9298	.0702	.0005

System: butan-1-ol + phenol + water; phases: Liquid mixture 1, Liquid mixture 2
Fixed: Pressure, kPa = 101
Property: Mass fraction of water (Liquid mixture 1); method: UV-Vis spectrophotometry
Property: Mass fraction of phenol (Liquid mixture 2); method: UV-Vis spectrophotometry
Property: Mass fraction of water (Liquid mixture 2); method: UV-Vis spectrophotometry
Temperature, K	Mass fraction of phenol	Mass fraction of water	uncertainty	Mass fraction of phenol	uncertainty	Mass fraction of water	uncertainty
25	.0652	.1772	.0005	.0014	.0005	.9271	.0005
25	.1683	.1551	.0005	.0083	.0005	.9296	.0005
25	.3026	.1396	.0005	.0167	.0005	.9348	.0005
25	.4434	.136	.0005	.0295	.0005	.9356	.0005
25	.5524	.1459	.0005	.0414	.0005	.9341	.0005
25	.6757	.1919	.0005	.0622	.0005	.9264	.0005
40	.0552	.192	.0005	.0008	.0005	.9372	.0005
40	.1979	.1618	.0005	.0108	.0005	.9379	.0005
40	.3238	.1501	.0005	.0191	.0005	.9405	.0005
40	.4899	.151	.0005	.0359	.0005	.9379	.0005
40	.5926	.1827	.0005	.0492	.0005	.9347	.0005
40	.6718	.2533	.0005	.0746	.0005	.919	.0005
