Measured thermophysical data. Solubilities of evodiamine in twelve organic solvents from T = (283.2 to 323.2) K
Source: J. Chem. Thermodyn., 2013, 10.1016/j.jct.2012.11.021
Compound 1: evodiamine, C19H17N3O, purity 98%
Compound 2: freon 20, CHCl3, purity 98%
Compound 3: ethyl ethanoate, C4H8O2, purity 98%
Compound 4: ethanol, C2H6O, purity 98%
Compound 5: cyclohexane, C6H12, purity 98%
Compound 6: methane, dichloro-, CH2Cl2, purity 98%
Compound 7: n-butanol, C4H10O, purity 98%
Compound 8: ether, C4H10O, purity 98%
Compound 9: pentane, C5H12, purity 98%
Compound 10: acetone, C3H6O, purity 98%
Compound 11: isopropanol, C3H8O, purity 98%
Compound 12: methyl alcohol, CH4O, purity 98%
Compound 13: n-hexane, C6H14, purity 98%

System: freon 20 + evodiamine; phases: Liquid, Crystal
Fixed: Pressure, kPa = 101
Property: Mole fraction of evodiamine (Liquid); method: Chromatography
Temperature, K	Mole fraction of evodiamine	uncertainty
283.2	.000683	.000016
293.2	.000876	.000019
303.2	.001053	.00002
313.2	.001352	.000033
323.2	.001831	.000061

System: ethyl ethanoate + evodiamine; phases: Liquid, Crystal
Fixed: Pressure, kPa = 101
Property: Mole fraction of evodiamine (Liquid); method: Chromatography
Temperature, K	Mole fraction of evodiamine	uncertainty
283.2	.000135	.0000041
293.2	.000165	.0000044
303.2	.000255	.0000047
313.2	.000321	.0000058
323.2	.000412	.000001

System: ethanol + evodiamine; phases: Liquid, Crystal
Fixed: Pressure, kPa = 101
Property: Mole fraction of evodiamine (Liquid); method: Chromatography
Temperature, K	Mole fraction of evodiamine	uncertainty
283.2	.0000612	.0000006
293.2	.0000802	.0000023
303.2	.0001156	.0000033
313.2	.0001728	.0000009
323.2	.0002565	.0000019

System: cyclohexane + evodiamine; phases: Liquid, Crystal
Fixed: Pressure, kPa = 101
Property: Mole fraction of evodiamine (Liquid); method: Chromatography
Temperature, K	Mole fraction of evodiamine	uncertainty
283.2	.00000168	.000000034
293.2	.00000281	.000000029
303.2	.00000449	.00000012
313.2	.00000647	.00000028
323.2	.00000936	.00000023

System: methane, dichloro- + evodiamine; phases: Liquid, Crystal
Fixed: Pressure, kPa = 101
Property: Mole fraction of evodiamine (Liquid); method: Chromatography
Temperature, K	Mole fraction of evodiamine	uncertainty
283.2	.000334	.0000019
288.2	.00037	.0000068
293.2	.000417	.0000081
298.2	.00048	.0000018
303.2	.000571	.0000046

System: n-butanol + evodiamine; phases: Liquid, Crystal
Fixed: Pressure, kPa = 101
Property: Mole fraction of evodiamine (Liquid); method: Chromatography
Temperature, K	Mole fraction of evodiamine	uncertainty
283.2	.000112	.0000024
288.2	.000139	.0000045
293.2	.000216	.0000026
298.2	.000317	.0000068
303.2	.000458	.0000066

System: ether + evodiamine; phases: Liquid, Crystal
Fixed: Pressure, kPa = 101
Property: Mole fraction of evodiamine (Liquid); method: Chromatography
Temperature, K	Mole fraction of evodiamine	uncertainty
283.2	.0000406	.0000012
288.2	.0000516	.000002
293.2	.0000693	.000002
298.2	.0000751	.0000031
303.2	.0000909	.0000032

System: pentane + evodiamine; phases: Liquid, Crystal
Fixed: Pressure, kPa = 101
Property: Mole fraction of evodiamine (Liquid); method: Chromatography
Temperature, K	Mole fraction of evodiamine	uncertainty
283.2	.00000159	.000000057
288.2	.0000022	.000000068
293.2	.00000292	.000000075
298.2	.00000379	.000000083
303.2	.0000047	.000000086

System: acetone + evodiamine; phases: Liquid, Crystal
Fixed: Pressure, kPa = 101
Property: Mole fraction of evodiamine (Liquid); method: Chromatography
Temperature, K	Mole fraction of evodiamine	uncertainty
283.2	.000216	.0000006
293.2	.000303	.00001
303.2	.00038	.000011
313.2	.000513	.000012
323.2	.000676	.0000058

System: isopropanol + evodiamine; phases: Liquid, Crystal
Fixed: Pressure, kPa = 101
Property: Mole fraction of evodiamine (Liquid); method: Chromatography
Temperature, K	Mole fraction of evodiamine	uncertainty
283.2	.00007	.0000013
293.2	.0000869	.0000023
303.2	.0001188	.0000025
313.2	.0001811	.0000019
323.2	.0002867	.0000015

System: methyl alcohol + evodiamine; phases: Liquid, Crystal
Fixed: Pressure, kPa = 101
Property: Mole fraction of evodiamine (Liquid); method: Chromatography
Temperature, K	Mole fraction of evodiamine	uncertainty
283.2	.0000352	.0000008
293.2	.0000519	.0000009
303.2	.0000724	.0000018
313.2	.0001099	.0000019
323.2	.0001763	.0000043

System: n-hexane + evodiamine; phases: Liquid, Crystal
Fixed: Pressure, kPa = 101
Property: Mole fraction of evodiamine (Liquid); method: Chromatography
Temperature, K	Mole fraction of evodiamine	uncertainty
283.2	.00000105	.000000043
293.2	.00000166	.000000036
303.2	.00000261	.000000038
313.2	.00000437	.000000075
323.2	.00000584	.000000063
