Measured thermophysical data. Thermodynamic study of the surface of liquid mixtures containing pyridinium-based ionic liquids and alkanols
Source: J. Chem. Thermodyn., 2014, 10.1016/j.jct.2014.07.001
Compound 1: 1-propylpyridinium tetrafluoroborate, C8H12BF4N, purity 99%
Compound 2: 1-butylpyridinium tetrafluoroborate, C9H14BF4N, purity 99%
Compound 3: 1-butyl-3-methylpyridinium tetrafluoroborate, C10H16BF4N, purity 99%
Compound 4: 1-butyl-4-methylpyridinium tetrafluoroborate, C10H16BF4N, purity 99%
Compound 5: methanol, CH4O, purity 99.8%
Compound 6: ethanol, C2H6O, purity 99.8%

System: 1-propylpyridinium tetrafluoroborate; phases: Liquid, Air at 1 atmosphere
Property: Surface tension liquid-gas, N/m (Liquid); method: Drop volume
Temperature, K	Surface tension liquid-gas, N/m	uncertainty
293.15	.05129	.00025645
303.15	.05051	.00025255
313.15	.04979	.00024895
323.15	.04903	.00024515

System: 1-butylpyridinium tetrafluoroborate; phases: Liquid, Air at 1 atmosphere
Property: Surface tension liquid-gas, N/m (Liquid); method: Drop volume
Temperature, K	Surface tension liquid-gas, N/m	uncertainty
293.15	.0469	.0002345
303.15	.0463	.0002315
313.15	.04569	.00022845
323.15	.04511	.00022555

System: 1-butyl-3-methylpyridinium tetrafluoroborate; phases: Liquid, Air at 1 atmosphere
Property: Surface tension liquid-gas, N/m (Liquid); method: Drop volume
Temperature, K	Surface tension liquid-gas, N/m	uncertainty
293.15	.04521	.00022605
303.15	.04448	.0002224
313.15	.0438	.000219
323.15	.04324	.0002162

System: 1-butyl-4-methylpyridinium tetrafluoroborate; phases: Liquid, Air at 1 atmosphere
Property: Surface tension liquid-gas, N/m (Liquid); method: Drop volume
Temperature, K	Surface tension liquid-gas, N/m	uncertainty
293.15	.04582	.0002291
303.15	.04509	.00022545
313.15	.04441	.00022205
323.15	.04371	.00021855

System: methanol; phases: Liquid, Air at 1 atmosphere
Property: Surface tension liquid-gas, N/m (Liquid); method: Drop volume
Temperature, K	Surface tension liquid-gas, N/m	uncertainty
293.15	.0226	.000113
303.15	.02181	.00010905
313.15	.02093	.00010465
323.15	.02005	.00010025

System: ethanol; phases: Liquid, Air at 1 atmosphere
Property: Surface tension liquid-gas, N/m (Liquid); method: Drop volume
Temperature, K	Surface tension liquid-gas, N/m	uncertainty
303.15	.02149	.00010745
313.15	.02066	.0001033
323.15	.01984	.0000992
293.15	.02228	.0001114

System: methanol + 1-propylpyridinium tetrafluoroborate; phases: Liquid, Air at 1 atmosphere
Property: Surface tension liquid-gas, N/m (Liquid); method: Drop volume
Temperature, K	Mole fraction of 1-propylpyridinium tetrafluoroborate	Surface tension liquid-gas, N/m	uncertainty
293.15	0	.0226	.000113
293.15	.0478	.02384	.0001192
293.15	.0964	.02501	.00012505
293.15	.1993	.02735	.00013675
293.15	.3036	.02978	.0001489
293.15	.3934	.03215	.00016075
293.15	.4987	.03523	.00017615
293.15	.5926	.03818	.0001909
293.15	.6946	.04144	.0002072
293.15	.7836	.04431	.00022155
293.15	.8822	.0475	.0002375
293.15	.945	.0495	.0002475
293.15	1	.05129	.00025645
303.15	0	.02181	.00010905
303.15	.0478	.02307	.00011535
303.15	.0964	.02431	.00012155
303.15	.1993	.02684	.0001342
303.15	.3036	.02949	.00014745
303.15	.3934	.03184	.0001592
303.15	.4987	.03481	.00017405
303.15	.5926	.03763	.00018815
303.15	.6946	.04083	.00020415
303.15	.7836	.04366	.0002183
303.15	.8822	.04681	.00023405
303.15	.945	.04878	.0002439
303.15	1	.05051	.00025255
313.15	0	.02093	.00010465
313.15	.0478	.0222	.000111
313.15	.0964	.02348	.0001174
313.15	.1993	.02618	.0001309
313.15	.3036	.02899	.00014495
313.15	.3934	.03146	.0001573
313.15	.4987	.03446	.0001723
313.15	.5926	.03721	.00018605
313.15	.6946	.04029	.00020145
313.15	.7836	.04304	.0002152
313.15	.8822	.04615	.00023075
313.15	.945	.0481	.0002405
313.15	1	.04979	.00024895
323.15	0	.02005	.00010025
323.15	.0478	.02135	.00010675
323.15	.0964	.02268	.0001134
323.15	.1993	.02555	.00012775
323.15	.3036	.02848	.0001424
323.15	.3934	.03102	.0001551
323.15	.4987	.03404	.0001702
323.15	.5926	.03676	.0001838
323.15	.6946	.03977	.00019885
323.15	.7836	.04245	.00021225
323.15	.8822	.04544	.0002272
323.15	.945	.04736	.0002368
323.15	1	.04903	.00024515

System: methanol + 1-butylpyridinium tetrafluoroborate; phases: Liquid, Air at 1 atmosphere
Property: Surface tension liquid-gas, N/m (Liquid); method: Drop volume
Temperature, K	Mole fraction of 1-butylpyridinium tetrafluoroborate	Surface tension liquid-gas, N/m	uncertainty
293.15	0	.0226	.000113
293.15	.025	.02333	.00011665
293.15	.0527	.0241	.0001205
293.15	.0987	.02537	.00012685
293.15	.1944	.02789	.00013945
293.15	.2933	.03044	.0001522
293.15	.3978	.03304	.0001652
293.15	.4934	.03537	.00017685
293.15	.5891	.03767	.00018835
293.15	.6784	.03974	.0001987
293.15	.7864	.04216	.0002108
293.15	.8724	.04406	.0002203
293.15	.93	.04533	.00022665
293.15	1	.0469	.0002345
303.15	0	.02181	.00010905
303.15	.025	.02259	.00011295
303.15	.0527	.02341	.00011705
303.15	.0987	.02473	.00012365
303.15	.1944	.02737	.00013685
303.15	.2933	.02992	.0001496
303.15	.3978	.03255	.00016275
303.15	.4934	.0349	.0001745
303.15	.5891	.03721	.00018605
303.15	.6784	.03926	.0001963
303.15	.7864	.04164	.0002082
303.15	.8724	.0435	.0002175
303.15	.93	.04476	.0002238
303.15	1	.0463	.0002315
313.15	0	.02093	.00010465
313.15	.025	.02177	.00010885
313.15	.0527	.02264	.0001132
313.15	.0987	.02404	.0001202
313.15	.1944	.02674	.0001337
313.15	.2933	.02938	.0001469
313.15	.3978	.03207	.00016035
313.15	.4934	.03446	.0001723
313.15	.5891	.03677	.00018385
313.15	.6784	.03882	.0001941
313.15	.7864	.04117	.00020585
313.15	.8724	.04297	.00021485
313.15	.93	.04417	.00022085
313.15	1	.04569	.00022845
323.15	0	.02005	.00010025
323.15	.025	.02096	.0001048
323.15	.0527	.0219	.0001095
323.15	.0987	.02338	.0001169
323.15	.1944	.02623	.00013115
323.15	.2933	.02896	.0001448
323.15	.3978	.0317	.0001585
323.15	.4934	.03411	.00017055
323.15	.5891	.03646	.0001823
323.15	.6784	.0385	.0001925
323.15	.7864	.04081	.00020405
323.15	.8724	.04254	.0002127
323.15	.93	.04369	.00021845
323.15	1	.04511	.00022555

System: ethanol + 1-butylpyridinium tetrafluoroborate; phases: Liquid, Air at 1 atmosphere
Property: Surface tension liquid-gas, N/m (Liquid); method: Drop volume
Temperature, K	Mole fraction of 1-butylpyridinium tetrafluoroborate	Surface tension liquid-gas, N/m	uncertainty
303.15	0	.02149	.00010745
303.15	.05	.02216	.0001108
303.15	.1021	.02272	.0001136
303.15	.1959	.02354	.0001177
303.15	.2902	.02472	.0001236
303.15	.3922	.02657	.00013285
303.15	.4914	.02889	.00014445
303.15	.5953	.03185	.00015925
303.15	.6898	.03504	.0001752
303.15	.7903	.03862	.0001931
303.15	.8879	.04228	.0002114
303.15	.94	.04415	.00022075
303.15	1	.0463	.0002315
313.15	0	.02066	.0001033
313.15	.05	.02151	.00010755
313.15	.1021	.02217	.00011085
313.15	.1959	.02325	.00011625
313.15	.2902	.02448	.0001224
313.15	.3922	.02627	.00013135
313.15	.4914	.02868	.0001434
313.15	.5953	.03163	.00015815
313.15	.6898	.03475	.00017375
313.15	.7903	.03826	.0001913
313.15	.8879	.04185	.00020925
313.15	.94	.04362	.0002181
313.15	1	.04569	.00022845
323.15	0	.01984	.0000992
323.15	.05	.02072	.0001036
323.15	.1021	.02141	.00010705
323.15	.1959	.02274	.0001137
323.15	.2902	.02426	.0001213
323.15	.3922	.02625	.00013125
323.15	.4914	.02854	.0001427
323.15	.5953	.03145	.00015725
323.15	.6898	.03453	.00017265
323.15	.7903	.03801	.00019005
323.15	.8879	.0415	.0002075
323.15	.94	.04324	.0002162
323.15	1	.04511	.00022555

System: methanol + 1-butyl-3-methylpyridinium tetrafluoroborate; phases: Liquid, Air at 1 atmosphere
Property: Surface tension liquid-gas, N/m (Liquid); method: Drop volume
Temperature, K	Mole fraction of 1-butyl-3-methylpyridinium tetrafluoroborate	Surface tension liquid-gas, N/m	uncertainty
293.15	0	.0226	.000113
293.15	.0489	.02393	.00011965
293.15	.1011	.02533	.00012665
293.15	.1984	.02789	.00013945
293.15	.2961	.03043	.00015215
293.15	.4021	.03315	.00016575
293.15	.4935	.03536	.0001768
293.15	.5892	.03757	.00018785
293.15	.688	.03967	.00019835
293.15	.7395	.04072	.0002036
293.15	.8001	.04187	.00020935
293.15	.8803	.0433	.0002165
293.15	.935	.04421	.00022105
293.15	1	.04521	.00022605
303.15	0	.02181	.00010905
303.15	.0489	.02318	.0001159
303.15	.1011	.02462	.0001231
303.15	.1984	.02726	.0001363
303.15	.2961	.02987	.00014935
303.15	.4021	.03266	.0001633
303.15	.4935	.03489	.00017445
303.15	.5892	.03712	.0001856
303.15	.688	.0392	.000196
303.15	.7395	.04022	.0002011
303.15	.8001	.04135	.00020675
303.15	.8803	.04272	.0002136
303.15	.935	.04356	.0002178
303.15	1	.04448	.0002224
313.15	0	.02093	.00010465
313.15	.0489	.02236	.0001118
313.15	.1011	.02388	.0001194
313.15	.1984	.02663	.00013315
313.15	.2961	.02936	.0001468
313.15	.4021	.03226	.0001613
313.15	.4935	.03455	.00017275
313.15	.5892	.03681	.00018405
313.15	.688	.03886	.0001943
313.15	.7395	.03987	.00019935
313.15	.8001	.04095	.00020475
313.15	.8803	.04223	.00021115
313.15	.935	.04299	.00021495
313.15	1	.0438	.000219
323.15	0	.02005	.00010025
323.15	.0489	.02155	.00010775
323.15	.1011	.02315	.00011575
323.15	.1984	.02604	.0001302
323.15	.2961	.0289	.0001445
323.15	.4021	.0319	.0001595
323.15	.4935	.03425	.00017125
323.15	.5892	.03656	.0001828
323.15	.688	.03862	.0001931
323.15	.7395	.0396	.000198
323.15	.8001	.04065	.00020325
323.15	.8803	.04186	.0002093
323.15	.935	.04253	.00021265
323.15	1	.04324	.0002162

System: ethanol + 1-butyl-3-methylpyridinium tetrafluoroborate; phases: Liquid, Air at 1 atmosphere
Property: Surface tension liquid-gas, N/m (Liquid); method: Drop volume
Temperature, K	Mole fraction of 1-butyl-3-methylpyridinium tetrafluoroborate	Surface tension liquid-gas, N/m	uncertainty
293.15	0	.02228	.0001114
293.15	.0279	.02256	.0001128
293.15	.0486	.02272	.0001136
293.15	.0988	.02315	.00011575
293.15	.2016	.02419	.00012095
293.15	.2987	.02571	.00012855
293.15	.3978	.02789	.00013945
293.15	.5001	.03059	.00015295
293.15	.5865	.03312	.0001656
293.15	.6878	.03616	.0001808
293.15	.7851	.03908	.0001954
293.15	.887	.04204	.0002102
293.15	.945	.04368	.0002184
293.15	1	.04521	.00022605
303.15	0	.02149	.00010745
303.15	.0279	.02182	.0001091
303.15	.0486	.02204	.0001102
303.15	.0988	.02256	.0001128
303.15	.2016	.0238	.000119
303.15	.2987	.02543	.00012715
303.15	.3978	.02763	.00013815
303.15	.5001	.03028	.0001514
303.15	.5865	.03273	.00016365
303.15	.6878	.03568	.0001784
303.15	.7851	.03851	.00019255
303.15	.887	.04138	.0002069
303.15	.945	.04299	.00021495
303.15	1	.04448	.0002224
313.15	0	.02066	.0001033
313.15	.0279	.02107	.00010535
313.15	.0486	.02134	.0001067
313.15	.0988	.02203	.00011015
313.15	.2016	.02355	.00011775
313.15	.2987	.02532	.0001266
313.15	.3978	.02756	.0001378
313.15	.5001	.03015	.00015075
313.15	.5865	.03251	.00016255
313.15	.6878	.03534	.0001767
313.15	.7851	.03804	.0001902
313.15	.887	.04081	.00020405
313.15	.945	.04235	.00021175
313.15	1	.0438	.000219
323.15	0	.01984	.0000992
323.15	.0279	.0203	.0001015
323.15	.0486	.02064	.0001032
323.15	.0988	.02143	.00010715
323.15	.2016	.02317	.00011585
323.15	.2987	.02507	.00012535
323.15	.3978	.02734	.0001367
323.15	.5001	.02991	.00014955
323.15	.5865	.03221	.00016105
323.15	.6878	.03496	.0001748
323.15	.7851	.03759	.00018795
323.15	.887	.0403	.0002015
323.15	.945	.04181	.00020905
323.15	1	.04324	.0002162

System: methanol + 1-butyl-4-methylpyridinium tetrafluoroborate; phases: Liquid, Air at 1 atmosphere
Property: Surface tension liquid-gas, N/m (Liquid); method: Drop volume
Temperature, K	Mole fraction of 1-butyl-4-methylpyridinium tetrafluoroborate	Surface tension liquid-gas, N/m	uncertainty
293.15	0	.0226	.000113
293.15	.0247	.0233	.0001165
293.15	.0983	.02535	.00012675
293.15	.195	.02793	.00013965
293.15	.2914	.03053	.00015265
293.15	.3909	.03311	.00016555
293.15	.4915	.03562	.0001781
293.15	.5378	.03677	.00018385
293.15	.61	.03846	.0001923
293.15	.6875	.04019	.00020095
293.15	.7911	.04237	.00021185
293.15	.842	.04332	.0002166
293.15	.8754	.04391	.00021955
293.15	1	.04582	.0002291
303.15	0	.02181	.00010905
303.15	.0247	.02255	.00011275
303.15	.0983	.02466	.0001233
303.15	.195	.02731	.00013655
303.15	.2914	.02998	.0001499
303.15	.3909	.03262	.0001631
303.15	.4915	.03517	.00017585
303.15	.5378	.03634	.0001817
303.15	.61	.03804	.0001902
303.15	.6875	.03977	.00019885
303.15	.7911	.0419	.0002095
303.15	.842	.04281	.00021405
303.15	.8754	.04336	.0002168
303.15	1	.04509	.00022545
313.15	0	.02093	.00010465
313.15	.0247	.02171	.00010855
313.15	.0983	.02392	.0001196
313.15	.195	.02668	.0001334
313.15	.2914	.02946	.0001473
313.15	.3909	.0322	.000161
313.15	.4915	.03481	.00017405
313.15	.5378	.03602	.0001801
313.15	.61	.03773	.00018865
313.15	.6875	.03945	.00019725
313.15	.7911	.04155	.00020775
313.15	.842	.0424	.000212
313.15	.8754	.04291	.00021455
313.15	1	.04441	.00022205
323.15	0	.02005	.00010025
323.15	.0247	.02088	.0001044
323.15	.0983	.02323	.00011615
323.15	.195	.02612	.0001306
323.15	.2914	.02905	.00014525
323.15	.3909	.03191	.00015955
323.15	.4915	.0346	.000173
323.15	.5378	.03584	.0001792
323.15	.61	.03757	.00018785
323.15	.6875	.03929	.00019645
323.15	.7911	.04132	.0002066
323.15	.842	.0421	.0002105
323.15	.8754	.04254	.0002127
323.15	1	.04371	.00021855

System: ethanol + 1-butyl-4-methylpyridinium tetrafluoroborate; phases: Liquid, Air at 1 atmosphere
Property: Surface tension liquid-gas, N/m (Liquid); method: Drop volume
Temperature, K	Mole fraction of 1-butyl-4-methylpyridinium tetrafluoroborate	Surface tension liquid-gas, N/m	uncertainty
293.15	0	.02228	.0001114
293.15	.0497	.0227	.0001135
293.15	.0993	.02317	.00011585
293.15	.1995	.02447	.00012235
293.15	.2946	.02595	.00012975
293.15	.36	.0272	.000136
293.15	.4269	.02857	.00014285
293.15	.4882	.02999	.00014995
293.15	.589	.03266	.0001633
293.15	.7001	.03592	.0001796
293.15	.7895	.03875	.00019375
293.15	.8345	.04028	.0002014
293.15	.8805	.04185	.00020925
293.15	1	.04582	.0002291
303.15	0	.02149	.00010745
303.15	.0497	.02202	.0001101
303.15	.0993	.0226	.000113
303.15	.1995	.02408	.0001204
303.15	.2946	.02568	.0001284
303.15	.36	.02698	.0001349
303.15	.4269	.02838	.0001419
303.15	.4882	.02981	.00014905
303.15	.589	.03244	.0001622
303.15	.7001	.03561	.00017805
303.15	.7895	.03833	.00019165
303.15	.8345	.03979	.00019895
303.15	.8805	.04129	.00020645
303.15	1	.04509	.00022545
313.15	0	.02066	.0001033
313.15	.0497	.02132	.0001066
313.15	.0993	.02202	.0001101
313.15	.1995	.02368	.0001184
313.15	.2946	.02541	.00012705
313.15	.36	.02677	.00013385
313.15	.4269	.02822	.0001411
313.15	.4882	.02965	.00014825
313.15	.589	.03225	.00016125
313.15	.7001	.03534	.0001767
313.15	.7895	.03795	.00018975
313.15	.8345	.03935	.00019675
313.15	.8805	.04077	.00020385
313.15	1	.04441	.00022205
323.15	0	.01984	.0000992
323.15	.0497	.02063	.00010315
323.15	.0993	.02144	.0001072
323.15	.1995	.02327	.00011635
323.15	.2946	.02514	.0001257
323.15	.36	.02655	.00013275
323.15	.4269	.02804	.0001402
323.15	.4882	.02949	.00014745
323.15	.589	.03205	.00016025
323.15	.7001	.03505	.00017525
323.15	.7895	.03757	.00018785
323.15	.8345	.03889	.00019445
323.15	.8805	.04025	.00020125
323.15	1	.04371	.00021855
