Measured thermophysical data. Ternary (liquid + liquid) equilibria of {trifluorotris(perfluoroethyl) phosphate based ionic liquids + thiophene + heptane}: Part 2
Source: J. Chem. Thermodyn., 2015, 10.1016/j.jct.2014.07.020
Compound 1: 1-ethyl-3-methylimidazolium tris(pentafluoroethyl)trifluorophosphate, C12H11F18N2P, purity 99%
Compound 2: 3-(2-hydroxyethyl)-1-methyl-1H-imidazolium trifluorotris(perfluoroethyl)phosphate(V), C12H11F18N2OP, purity 99.5%
Compound 3: ethyldimethyl-(2-methoxyethyl)ammonium trifluorotris(perfluoroethyl)phosphate, C12H16F18NOP, purity 99.5%
Compound 4: thiophene, C4H4S, purity 99.5%
Compound 5: heptane, C7H16, purity 99%

System: 3-(2-hydroxyethyl)-1-methyl-1H-imidazolium trifluorotris(perfluoroethyl)phosphate(V); phases: Liquid
Fixed: Pressure, kPa = 101.325
Property: Viscosity, Pa*s (Liquid); method: Falling or rolling sphere viscometry
Temperature, K	Viscosity, Pa*s	uncertainty
298.15	.2042	.002042
308.15	.1074	.001074
318.15	.06369	.0006369
328.15	.04098	.0004098
338.15	.02823	.0002823
348.15	.02049	.0002049

System: thiophene + heptane + 1-ethyl-3-methylimidazolium tris(pentafluoroethyl)trifluorophosphate; phases: Liquid mixture 2, Liquid mixture 1
Fixed: Temperature, K = 298.15
Fixed: Pressure, kPa = 100
Property: Mole fraction of 1-ethyl-3-methylimidazolium tris(pentafluoroethyl)trifluorophosphate (Liquid mixture 2); method: Chromatography
Property: Mole fraction of thiophene (Liquid mixture 1); method: Chromatography
Property: Mole fraction of 1-ethyl-3-methylimidazolium tris(pentafluoroethyl)trifluorophosphate (Liquid mixture 1); method: Chromatography
Mole fraction of thiophene	Mole fraction of 1-ethyl-3-methylimidazolium tris(pentafluoroethyl)trifluorophosphate	uncertainty	Mole fraction of thiophene	uncertainty	Mole fraction of 1-ethyl-3-methylimidazolium tris(pentafluoroethyl)trifluorophosphate	uncertainty
0	.958	.002	0	.002	0	.002
.234	.726	.002	.108	.002	0	.002
.33	.631	.002	.173	.002	0	.002
.462	.501	.002	.283	.002	0	.002
.547	.418	.002	.435	.002	0	.002
.599	.367	.002	.511	.002	0	.002
.607	.36	.002	.524	.002	0	.002
.636	.331	.002	.585	.002	0	.002
.683	.287	.002	.731	.002	0	.002
.688	.283	.002	.768	.002	0	.002
.738	.239	.002	.875	.002	0	.002
.004	.954	.002	.001	.002	0	.002
.754	.228	.002	.905	.002	0	.002
.79	.21	.002	.995	.002	.005	.002
.02	.938	.002	.006	.002	0	.002
.047	.911	.002	.014	.002	0	.002
.066	.892	.002	.021	.002	0	.002
.084	.875	.002	.03	.002	0	.002
.116	.843	.002	.044	.002	0	.002
.136	.824	.002	.055	.002	0	.002
.172	.787	.002	.073	.002	0	.002

System: thiophene + heptane + 3-(2-hydroxyethyl)-1-methyl-1H-imidazolium trifluorotris(perfluoroethyl)phosphate(V); phases: Liquid mixture 2, Liquid mixture 1
Fixed: Temperature, K = 298.15
Fixed: Pressure, kPa = 100
Property: Mole fraction of 3-(2-hydroxyethyl)-1-methyl-1H-imidazolium trifluorotris(perfluoroethyl)phosphate(V) (Liquid mixture 2); method: Chromatography
Property: Mole fraction of thiophene (Liquid mixture 1); method: Chromatography
Property: Mole fraction of 3-(2-hydroxyethyl)-1-methyl-1H-imidazolium trifluorotris(perfluoroethyl)phosphate(V) (Liquid mixture 1); method: Chromatography
Mole fraction of thiophene	Mole fraction of 3-(2-hydroxyethyl)-1-methyl-1H-imidazolium trifluorotris(perfluoroethyl)phosphate(V)	uncertainty	Mole fraction of thiophene	uncertainty	Mole fraction of 3-(2-hydroxyethyl)-1-methyl-1H-imidazolium trifluorotris(perfluoroethyl)phosphate(V)	uncertainty
0	.988	.002	0	.002	0	.002
.184	.797	.002	.113	.002	0	.002
.292	.689	.002	.193	.002	0	.002
.346	.635	.002	.242	.002	0	.002
.355	.625	.002	.256	.002	0	.002
.381	.6	.002	.279	.002	0	.002
.441	.54	.002	.363	.002	0	.002
.526	.455	.002	.491	.002	0	.002
.591	.391	.002	.633	.002	0	.002
.598	.384	.002	.646	.002	0	.002
.607	.374	.002	.661	.002	0	.002
.003	.984	.002	.002	.002	0	.002
.617	.366	.002	.692	.002	0	.002
.649	.335	.002	.777	.002	0	.002
.697	.289	.002	.878	.002	0	.002
.761	.239	.002	.993	.002	.007	.002
.011	.976	.002	.005	.002	0	.002
.021	.963	.002	.01	.002	0	.002
.066	.916	.002	.035	.002	0	.002
.068	.914	.002	.037	.002	0	.002
.071	.911	.002	.038	.002	0	.002
.084	.898	.002	.047	.002	0	.002
.17	.812	.002	.102	.002	0	.002

System: thiophene + heptane + ethyldimethyl-(2-methoxyethyl)ammonium trifluorotris(perfluoroethyl)phosphate; phases: Liquid mixture 2, Liquid mixture 1
Fixed: Temperature, K = 298.15
Fixed: Pressure, kPa = 100
Property: Mole fraction of ethyldimethyl-(2-methoxyethyl)ammonium trifluorotris(perfluoroethyl)phosphate (Liquid mixture 2); method: Chromatography
Property: Mole fraction of thiophene (Liquid mixture 1); method: Chromatography
Property: Mole fraction of ethyldimethyl-(2-methoxyethyl)ammonium trifluorotris(perfluoroethyl)phosphate (Liquid mixture 1); method: Chromatography
Mole fraction of thiophene	Mole fraction of ethyldimethyl-(2-methoxyethyl)ammonium trifluorotris(perfluoroethyl)phosphate	uncertainty	Mole fraction of thiophene	uncertainty	Mole fraction of ethyldimethyl-(2-methoxyethyl)ammonium trifluorotris(perfluoroethyl)phosphate	uncertainty
0	.958	.002	0	.002	0	.002
.223	.73	.002	.097	.002	0	.002
.272	.681	.002	.122	.002	0	.002
.4	.553	.002	.212	.002	0	.002
.466	.487	.002	.266	.002	0	.002
.471	.481	.002	.282	.002	0	.002
.559	.394	.002	.391	.002	0	.002
.618	.336	.002	.498	.002	0	.002
.651	.305	.002	.578	.002	0	.002
.692	.267	.002	.681	.002	0	.002
.724	.24	.002	.79	.002	0	.002
.004	.952	.002	.001	.002	0	.002
.774	.204	.002	.91	.002	0	.002
.785	.2	.002	.937	.002	0	.002
.817	.183	.002	.997	.002	.003	.002
.027	.929	.002	.007	.002	0	.002
.043	.912	.002	.012	.002	0	.002
.083	.871	.002	.026	.002	0	.002
.087	.867	.002	.028	.002	0	.002
.147	.806	.002	.055	.002	0	.002
.157	.796	.002	.06	.002	0	.002
.168	.785	.002	.065	.002	0	.002

System: thiophene + 1-ethyl-3-methylimidazolium tris(pentafluoroethyl)trifluorophosphate; phases: Liquid mixture 2, Liquid mixture 1
Property: Mole fraction of 1-ethyl-3-methylimidazolium tris(pentafluoroethyl)trifluorophosphate (Liquid mixture 2); method: Chromatography
Pressure, kPa	Temperature, K	Mole fraction of 1-ethyl-3-methylimidazolium tris(pentafluoroethyl)trifluorophosphate	uncertainty
100	298.15	.21	.002

System: thiophene + 1-ethyl-3-methylimidazolium tris(pentafluoroethyl)trifluorophosphate; phases: Liquid mixture 1, Liquid mixture 2
Property: Mole fraction of 1-ethyl-3-methylimidazolium tris(pentafluoroethyl)trifluorophosphate (Liquid mixture 1); method: Chromatography
Temperature, K	Pressure, kPa	Mole fraction of 1-ethyl-3-methylimidazolium tris(pentafluoroethyl)trifluorophosphate	uncertainty
298.15	100	.005	.002

System: heptane + 1-ethyl-3-methylimidazolium tris(pentafluoroethyl)trifluorophosphate; phases: Liquid mixture 2, Liquid mixture 1
Property: Mole fraction of 1-ethyl-3-methylimidazolium tris(pentafluoroethyl)trifluorophosphate (Liquid mixture 2); method: Chromatography
Pressure, kPa	Temperature, K	Mole fraction of 1-ethyl-3-methylimidazolium tris(pentafluoroethyl)trifluorophosphate	uncertainty
100	298.15	.958	.002

System: thiophene + 3-(2-hydroxyethyl)-1-methyl-1H-imidazolium trifluorotris(perfluoroethyl)phosphate(V); phases: Liquid mixture 2, Liquid mixture 1
Property: Mole fraction of 3-(2-hydroxyethyl)-1-methyl-1H-imidazolium trifluorotris(perfluoroethyl)phosphate(V) (Liquid mixture 2); method: Chromatography
Pressure, kPa	Temperature, K	Mole fraction of 3-(2-hydroxyethyl)-1-methyl-1H-imidazolium trifluorotris(perfluoroethyl)phosphate(V)	uncertainty
100	298.15	.239	.002

System: thiophene + 3-(2-hydroxyethyl)-1-methyl-1H-imidazolium trifluorotris(perfluoroethyl)phosphate(V); phases: Liquid mixture 1, Liquid mixture 2
Property: Mole fraction of 3-(2-hydroxyethyl)-1-methyl-1H-imidazolium trifluorotris(perfluoroethyl)phosphate(V) (Liquid mixture 1); method: Chromatography
Temperature, K	Pressure, kPa	Mole fraction of 3-(2-hydroxyethyl)-1-methyl-1H-imidazolium trifluorotris(perfluoroethyl)phosphate(V)	uncertainty
298.15	100	.007	.002

System: heptane + 3-(2-hydroxyethyl)-1-methyl-1H-imidazolium trifluorotris(perfluoroethyl)phosphate(V); phases: Liquid mixture 2, Liquid mixture 1
Property: Mole fraction of 3-(2-hydroxyethyl)-1-methyl-1H-imidazolium trifluorotris(perfluoroethyl)phosphate(V) (Liquid mixture 2); method: Chromatography
Pressure, kPa	Temperature, K	Mole fraction of 3-(2-hydroxyethyl)-1-methyl-1H-imidazolium trifluorotris(perfluoroethyl)phosphate(V)	uncertainty
100	298.15	.988	.002

System: thiophene + ethyldimethyl-(2-methoxyethyl)ammonium trifluorotris(perfluoroethyl)phosphate; phases: Liquid mixture 2, Liquid mixture 1
Property: Mole fraction of ethyldimethyl-(2-methoxyethyl)ammonium trifluorotris(perfluoroethyl)phosphate (Liquid mixture 2); method: Chromatography
Pressure, kPa	Temperature, K	Mole fraction of ethyldimethyl-(2-methoxyethyl)ammonium trifluorotris(perfluoroethyl)phosphate	uncertainty
100	298.15	.183	.002

System: thiophene + ethyldimethyl-(2-methoxyethyl)ammonium trifluorotris(perfluoroethyl)phosphate; phases: Liquid mixture 1, Liquid mixture 2
Property: Mole fraction of ethyldimethyl-(2-methoxyethyl)ammonium trifluorotris(perfluoroethyl)phosphate (Liquid mixture 1); method: Chromatography
Temperature, K	Pressure, kPa	Mole fraction of ethyldimethyl-(2-methoxyethyl)ammonium trifluorotris(perfluoroethyl)phosphate	uncertainty
298.15	100	.003	.002

System: heptane + ethyldimethyl-(2-methoxyethyl)ammonium trifluorotris(perfluoroethyl)phosphate; phases: Liquid mixture 2, Liquid mixture 1
Property: Mole fraction of ethyldimethyl-(2-methoxyethyl)ammonium trifluorotris(perfluoroethyl)phosphate (Liquid mixture 2); method: Chromatography
Pressure, kPa	Temperature, K	Mole fraction of ethyldimethyl-(2-methoxyethyl)ammonium trifluorotris(perfluoroethyl)phosphate	uncertainty
100	298.15	.958	.002
