Measured thermophysical data. Enthalpy of formation of natural hydrous copper sulfate: Chalcanthite
Source: J. Chem. Thermodyn., 2016, 10.1016/j.jct.2015.12.010
Compound 1: copper monosulfate, CuO4S, purity 98%
Compound 2: oxygen, O2
Compound 3: copper, Cu
Compound 4: copper(II) sulfate pentahydrate, CuH10O9S, purity 99%
Compound 5: hydrogen, H2
Compound 6: water, H2O
Compound 7: sulfur, S

System: copper monosulfate; phases: Crystal
Fixed: Pressure, kPa = 101.325
Property: Molar enthalpy, kJ/mol (Crystal); method: Drop calorimetry
Temperature, K	Molar enthalpy, kJ/mol	uncertainty
630	40.5	.5
630	40.8	1
630	40.5	.5

Reaction: -1 copper + -1 sulfur + 1 copper(II) sulfate pentahydrate + -5 hydrogen + -4.5 oxygen
Property: Molar enthalpy of reaction, kJ/mol
-2272.6

Reaction: -1 copper + -1 sulfur + 1 copper monosulfate + -2 oxygen
Property: Molar enthalpy of reaction, kJ/mol
-761.7

Reaction: 1 copper monosulfate + -1 copper(II) sulfate pentahydrate + 5 water
Property: Molar enthalpy of reaction, kJ/mol
81.9
