Measured thermophysical data. Solubility of N-phenylanthranilic acid in nine organic solvents from T = (283.15 to 318.15) K: Determination and modelling
Source: J. Chem. Thermodyn., 2016, 10.1016/j.jct.2016.08.017
Compound 1: N-phenylanthranilic acid, C13H11NO2, purity 98.5%
Compound 2: methanol, CH4O, purity 99.5%
Compound 3: ethanol, C2H6O, purity 99.7%
Compound 4: n-propanol, C3H8O, purity 99.5%
Compound 5: isopropanol, C3H8O, purity 99.7%
Compound 6: ethyl acetate, C4H8O2, purity 99.5%
Compound 7: acetone, C3H6O, purity 99.5%
Compound 8: acetonitrile, C2H3N, purity 99.0%
Compound 9: toluene, C7H8, purity 99.5%
Compound 10: 1-butanol, C4H10O, purity 99.5%

System: acetonitrile + N-phenylanthranilic acid; phases: Liquid, Crystal
Fixed: Pressure, kPa = 101.3
Property: Mole fraction of N-phenylanthranilic acid (Liquid); method: Chromatography
Temperature, K	Mole fraction of N-phenylanthranilic acid	uncertainty
283.15	.001475	
285.65	.001714	
288.15	.001974	
290.65	.002276	
293.15	.00268	
295.65	.003108	
298.15	.003726	
300.65	.004246	
303.15	.004913	
305.65	.005559	
308.15	.00617	
310.65	.006953	
313.15	.007796	
315.65	.00892	
318.15	.010241	

System: methanol + N-phenylanthranilic acid; phases: Liquid, Crystal
Fixed: Pressure, kPa = 101.3
Property: Mole fraction of N-phenylanthranilic acid (Liquid); method: Chromatography
Temperature, K	Mole fraction of N-phenylanthranilic acid	uncertainty
283.15	.003308	
285.65	.003815	
288.15	.004386	
290.65	.005207	
293.15	.0061	
295.65	.007227	
298.15	.008253	
300.65	.00944	
303.15	.01065	
305.65	.01193	
308.15	.01288	
310.65	.0145	
313.15	.01637	
315.65	.0186	
318.15	.02117	

System: ethanol + N-phenylanthranilic acid; phases: Liquid, Crystal
Fixed: Pressure, kPa = 101.3
Property: Mole fraction of N-phenylanthranilic acid (Liquid); method: Chromatography
Temperature, K	Mole fraction of N-phenylanthranilic acid	uncertainty
283.15	.007032	
285.65	.00768	
288.15	.008536	
290.65	.009579	
293.15	.0112	
295.65	.013	
298.15	.01525	
300.65	.01711	
303.15	.01961	
305.65	.02189	
308.15	.02493	
310.65	.02764	
313.15	.03108	
315.65	.03394	
318.15	.03745	

System: n-propanol + N-phenylanthranilic acid; phases: Liquid, Crystal
Fixed: Pressure, kPa = 101.3
Property: Mole fraction of N-phenylanthranilic acid (Liquid); method: Chromatography
Temperature, K	Mole fraction of N-phenylanthranilic acid	uncertainty
283.15	.007335	
285.65	.008306	
288.15	.009754	
290.65	.01139	
293.15	.01323	
295.65	.01519	
298.15	.01716	
300.65	.01942	
303.15	.02165	
305.65	.02393	
308.15	.02657	
310.65	.0292	
313.15	.03222	
315.65	.03504	
318.15	.03833	

System: isopropanol + N-phenylanthranilic acid; phases: Liquid, Crystal
Fixed: Pressure, kPa = 101.3
Property: Mole fraction of N-phenylanthranilic acid (Liquid); method: Chromatography
Temperature, K	Mole fraction of N-phenylanthranilic acid	uncertainty
283.15	.005931	
285.65	.006915	
288.15	.008052	
290.65	.009332	
293.15	.01071	
295.65	.01241	
298.15	.01444	
300.65	.01636	
303.15	.0184	
305.65	.02084	
308.15	.02319	
310.65	.02541	
313.15	.02807	
315.65	.0309	
318.15	.03403	

System: acetone + N-phenylanthranilic acid; phases: Liquid, Crystal
Fixed: Pressure, kPa = 101.3
Property: Mole fraction of N-phenylanthranilic acid (Liquid); method: Chromatography
Temperature, K	Mole fraction of N-phenylanthranilic acid	uncertainty
283.15	.01899	
285.65	.02015	
288.15	.02231	
290.65	.02522	
293.15	.02791	
295.65	.03044	
298.15	.0335	
300.65	.03613	
303.15	.03986	
305.65	.0427	
308.15	.04646	
310.65	.0499	
313.15	.05366	
315.65	.05822	
318.15	.063	

System: N-phenylanthranilic acid + toluene; phases: Liquid, Crystal
Fixed: Pressure, kPa = 101.3
Property: Mole fraction of N-phenylanthranilic acid (Liquid); method: Chromatography
Temperature, K	Mole fraction of N-phenylanthranilic acid	uncertainty
283.15	.002384	
285.65	.002747	
288.15	.00321	
290.65	.003739	
293.15	.004385	
295.65	.005022	
298.15	.005735	
300.65	.006483	
303.15	.007421	
305.65	.008412	
308.15	.009602	
310.65	.01092	
313.15	.01244	
315.65	.01396	
318.15	.0155	

System: 1-butanol + N-phenylanthranilic acid; phases: Liquid, Crystal
Fixed: Pressure, kPa = 101.3
Property: Mole fraction of N-phenylanthranilic acid (Liquid); method: Chromatography
Temperature, K	Mole fraction of N-phenylanthranilic acid	uncertainty
283.15	.00849	
285.65	.009719	
288.15	.0112	
290.65	.01301	
293.15	.01471	
295.65	.0167	
298.15	.01866	
300.65	.02095	
303.15	.02328	
305.65	.0256	
308.15	.02833	
310.65	.03108	
313.15	.03379	
315.65	.03669	
318.15	.03955	

System: N-phenylanthranilic acid + ethyl acetate; phases: Liquid, Crystal
Fixed: Pressure, kPa = 101.3
Property: Mole fraction of N-phenylanthranilic acid (Liquid); method: Chromatography
Temperature, K	Mole fraction of N-phenylanthranilic acid	uncertainty
283.15	.01198	
285.65	.01329	
288.15	.01556	
290.65	.01816	
293.15	.02125	
295.65	.02353	
298.15	.02667	
300.65	.03015	
303.15	.03401	
305.65	.03732	
308.15	.04137	
310.65	.04577	
313.15	.05025	
315.65	.05549	
318.15	.06037	
