Measured thermophysical data. Phase behaviour of the two binary systems formed by CO2 and the silane precursors N-[3-(trimethoxysilyl)propyl]aniline or (3-mercaptopropyl)trimethoxysilane
Source: J. Chem. Thermodyn., 2016, 10.1016/j.jct.2016.07.044
Compound 1: carbon dioxide, CO2, purity 99.99%
Compound 2: N-(3-(trimethoxysilyl)propyl)aniline, C12H21NO3Si, purity 96.9%
Compound 3: 3-(trimethoxysilyl)-1-propanethiol, C6H16O3SSi, purity 99%

System: carbon dioxide + N-(3-(trimethoxysilyl)propyl)aniline; phases: Liquid, Gas
Property: Vapor or sublimation pressure, kPa (Liquid); method: Closed cell (Static) method
Temperature, K	Mole fraction of carbon dioxide	Vapor or sublimation pressure, kPa	uncertainty
313.2	.459	4230	
313.2	.661	7600	
313.2	.68	7960	
313.2	.736	8290	
313.2	.775	9220	
313.2	.802	11130	
313.2	.861	16840	
313.2	.882	18970	
313.2	.909	20580	
313.2	.92	21020	
323.2	.459	5060	
323.2	.661	9050	
323.2	.68	9650	
323.2	.736	10040	
323.2	.775	11590	
323.2	.802	13350	
323.2	.861	18990	
323.2	.909	22270	
323.2	.92	22510	
333.2	.459	5720	
333.2	.661	10400	
333.2	.68	11420	
333.2	.736	11940	
333.2	.775	13700	
333.2	.802	15520	
333.2	.861	20890	
333.2	.909	24180	
333.2	.92	24660	

System: carbon dioxide + N-(3-(trimethoxysilyl)propyl)aniline; phases: Gas, Liquid
Property: Vapor or sublimation pressure, kPa (Gas); method: Closed cell (Static) method
Temperature, K	Mole fraction of carbon dioxide	Vapor or sublimation pressure, kPa	uncertainty
313.2	.938	20570	
313.2	.951	20740	
313.2	.954	20720	
313.2	.957	20480	
313.2	.965	20020	
313.2	.973	18200	
313.2	.982	16540	
313.2	.988	13930	
313.2	.995	10950	
313.2	.996	9860	
313.2	.999	9360	
323.2	.938	22560	
323.2	.951	22620	
323.2	.952	22150	
323.2	.954	22640	
323.2	.957	22570	
323.2	.965	22050	
323.2	.973	19980	
323.2	.982	18820	
323.2	.988	16420	
323.2	.995	13560	
323.2	.996	12140	
333.2	.938	24450	
333.2	.951	24690	
333.2	.954	24410	
333.2	.957	24950	
333.2	.965	24000	
333.2	.973	22800	
333.2	.982	21130	
333.2	.988	18890	
333.2	.995	15830	
333.2	.996	14270	

System: carbon dioxide + 3-(trimethoxysilyl)-1-propanethiol; phases: Liquid, Gas
Property: Vapor or sublimation pressure, kPa (Liquid); method: Closed cell (Static) method
Temperature, K	Mole fraction of carbon dioxide	Vapor or sublimation pressure, kPa	uncertainty
313.2	.405	3240	
313.2	.581	5100	
313.2	.717	6220	
313.2	.805	7320	
313.2	.879	7810	
313.2	.897	8050	
313.2	.916	8080	
313.2	.926	8150	
313.2	.934	8170	
313.2	.949	8360	
313.2	.952	8380	
313.2	.96	8240	
313.2	.977	8440	
313.2	.981	8490	
313.2	.985	8580	
313.2	.991	8650	
323.2	.405	3660	
323.2	.581	5920	
323.2	.717	7290	
323.2	.805	8940	
323.2	.879	9380	
323.2	.897	9770	
323.2	.916	9860	
323.2	.926	9920	
323.2	.934	10110	
323.2	.949	10040	
323.2	.952	10050	
323.2	.96	10210	
323.2	.963	10210	
323.2	.968	10250	
333.2	.405	4210	
333.2	.581	6770	
333.2	.717	8560	
333.2	.805	10570	
333.2	.879	11150	
333.2	.897	11500	
333.2	.916	11960	
333.2	.926	11880	
333.2	.934	12080	
333.2	.949	12170	
333.2	.96	12220	
333.2	.963	12230	

System: carbon dioxide + 3-(trimethoxysilyl)-1-propanethiol; phases: Gas, Liquid
Property: Vapor or sublimation pressure, kPa (Gas); method: Closed cell (Static) method
Temperature, K	Mole fraction of carbon dioxide	Vapor or sublimation pressure, kPa	uncertainty
313.2	.994	8570	
313.2	.996	8540	
313.2	.997	8530	
313.2	.998	8360	
323.2	.974	10180	
323.2	.977	10220	
323.2	.981	10240	
323.2	.985	10070	
323.2	.991	10120	
323.2	.994	10080	
323.2	.996	10050	
323.2	.997	9980	
333.2	.968	12270	
333.2	.974	12160	
333.2	.977	12240	
333.2	.981	12260	
333.2	.985	12260	
333.2	.991	12140	
333.2	.994	12000	
333.2	.996	11540	
