Measured thermophysical data. Volumetric behaviour of six ionic liquids from T = (278 to 398) K and up to 120 MPa
Source: J. Chem. Thermodyn., 2016, 10.1016/j.jct.2015.09.013
Compound 1: 1,3-dimethylimidazolium dimethylphosphate, C7H15N2O4P, purity 99.3%
Compound 2: 1-ethyl-3-methylimidazolium hexylsulfate, C12H24N2O4S, purity 99.9%
Compound 3: 1-butyl-1-methylpyrrolidinium tetracyanoborate, C13H20BN5, purity 99%
Compound 4: 1-butyl-1-methylpyrrolidinium trifluoromethanesulfonate, C10H20F3NO3S, purity 98%
Compound 5: 1-butyl-1-methylpyrrolidinium tris(pentafluoroethyl)trifluorophosphate, C15H20F18NP, purity 99%
Compound 6: trihexyl(tetradecyl)phosphonium tris(pentafluoroethyl)trifluorophosphate, C38H68F18P2, purity 99%

System: 1,3-dimethylimidazolium dimethylphosphate; phases: Liquid
Fixed: Pressure, kPa = 101.325
Property: Viscosity, Pa*s (Liquid); method: Concentric cylinders viscometry
Temperature, K	Viscosity, Pa*s	uncertainty
313.15	.093847	.00093847

System: 1,3-dimethylimidazolium dimethylphosphate; phases: Liquid
Property: Mass density, kg/m3 (Liquid); method: Vibrating tube method
Pressure, kPa	Temperature, K	Mass density, kg/m3	uncertainty
100	278.15	1276.4	.7
1000	278.15	1276.3	.7
10000	278.15	1279.8	.7
20000	278.15	1283.4	.7
40000	278.15	1290.5	.7
60000	278.15	1297.3	.7
80000	278.15	1303.7	.7
100000	278.15	1309.7	.7
120000	278.15	1315.1	.7
100	298.15	1261.2	.7
1000	298.15	1261.2	.7
10000	298.15	1264.9	.7
20000	298.15	1268.7	.7
40000	298.15	1276.2	.7
60000	298.15	1283.4	.7
80000	298.15	1290.1	.7
100000	298.15	1296.6	.7
120000	298.15	1302.8	.7
100	313.15	1250.5	.7
1000	313.15	1250.6	.7
10000	313.15	1254.4	.7
20000	313.15	1258.4	.7
40000	313.15	1266.1	.7
60000	313.15	1273.5	.7
80000	313.15	1280.5	.7
100000	313.15	1287.1	.7
120000	313.15	1293.4	.7
100	333.15	1236.5	.7
1000	333.15	1236.7	.7
10000	333.15	1240.7	.7
20000	333.15	1244.9	.7
40000	333.15	1253	.7
60000	333.15	1260.7	.7
80000	333.15	1267.9	.7
100000	333.15	1274.8	.7
120000	333.15	1281.4	.7
100	348.15	1226.3	.7
1000	348.15	1226.5	.7
10000	348.15	1230.7	.7
20000	348.15	1235	.7
40000	348.15	1243.4	.7
60000	348.15	1251.3	.7
80000	348.15	1258.8	.7
100000	348.15	1265.9	.7
120000	348.15	1272.7	.7
100	373.15	1208.7	5
1000	373.15	1209.5	3
10000	373.15	1214	3
20000	373.15	1218.7	3
40000	373.15	1227.5	3
60000	373.15	1235.8	3
80000	373.15	1243.7	3
100000	373.15	1251.2	3
120000	373.15	1258.2	3
100	398.15	1191.8	5
1000	398.15	1192.6	3
10000	398.15	1197.4	3
20000	398.15	1202.4	3
40000	398.15	1211.8	3
60000	398.15	1220.5	3
80000	398.15	1228.8	3
100000	398.15	1236.6	3
120000	398.15	1243.8	3

System: 1-ethyl-3-methylimidazolium hexylsulfate; phases: Liquid
Property: Mass density, kg/m3 (Liquid); method: Vibrating tube method
Pressure, kPa	Temperature, K	Mass density, kg/m3	uncertainty
100	278.15	1143.2	.7
1000	278.15	1143.2	.7
10000	278.15	1147.3	.7
20000	278.15	1151.5	.7
40000	278.15	1159.7	.7
60000	278.15	1167.4	.7
80000	278.15	1174.5	.7
100000	278.15	1181.2	.7
120000	278.15	1188.8	.7
100	298.15	1129.3	.7
1000	298.15	1129.3	.7
10000	298.15	1133.7	.7
20000	298.15	1138.3	.7
40000	298.15	1147	.7
60000	298.15	1155.1	.7
80000	298.15	1162.7	.7
100000	298.15	1169.7	.7
120000	298.15	1177.2	.7
100	313.15	1119.3	.7
1000	313.15	1119.4	.7
10000	313.15	1124	.7
20000	313.15	1128.7	.7
40000	313.15	1137.7	.7
60000	313.15	1146	.7
80000	313.15	1153.7	.7
100000	313.15	1161	.7
120000	313.15	1168.4	.7
100	333.15	1106.1	.7
1000	333.15	1106.3	.7
10000	333.15	1111.1	.7
20000	333.15	1116.1	.7
40000	333.15	1125.4	.7
60000	333.15	1134.2	.7
80000	333.15	1142.3	.7
100000	333.15	1149.9	.7
120000	333.15	1157.7	.7
100	348.15	1096.6	.7
1000	348.15	1096.9	.7
10000	348.15	1101.9	.7
20000	348.15	1107	.7
40000	348.15	1116.6	.7
60000	348.15	1125.6	.7
80000	348.15	1134	.7
100000	348.15	1141.8	.7
120000	348.15	1149.8	.7
100	373.15	1079.9	5
1000	373.15	1080.9	3
10000	373.15	1086.3	3
20000	373.15	1091.9	3
40000	373.15	1102.4	3
60000	373.15	1111.9	3
80000	373.15	1120.7	3
100000	373.15	1128.9	3
120000	373.15	1136.7	3
100	398.15	1064.7	5
1000	398.15	1065.7	3
10000	398.15	1071.5	3
20000	398.15	1077.5	3
40000	398.15	1088.6	3
60000	398.15	1098.6	3
80000	398.15	1107.9	3
100000	398.15	1116.5	3
120000	398.15	1124.5	3

System: 1-butyl-1-methylpyrrolidinium tetracyanoborate; phases: Liquid
Fixed: Pressure, kPa = 101.325
Property: Viscosity, Pa*s (Liquid); method: Concentric cylinders viscometry
Temperature, K	Viscosity, Pa*s	uncertainty
313.15	.027501	.00027501

System: 1-butyl-1-methylpyrrolidinium tetracyanoborate; phases: Liquid
Property: Mass density, kg/m3 (Liquid); method: Vibrating tube method
Pressure, kPa	Temperature, K	Mass density, kg/m3	uncertainty
100	298.15	976.4	.7
1000	298.15	976.9	.7
5000	298.15	978.8	.7
10000	298.15	981.3	.7
15000	298.15	983.7	.7
100	313.15	966.5	.7
1000	313.15	967	.7
5000	313.15	969.1	.7
10000	313.15	971.7	.7
15000	313.15	974.2	.7
20000	313.15	976.7	.7
25000	313.15	979.1	.7
30000	313.15	981.4	.7
35000	313.15	983.8	.7
40000	313.15	986	.7
45000	313.15	988.2	.7
50000	313.15	990.4	.7
55000	313.15	992.5	.7
60000	313.15	994.5	.7
100	333.15	953.4	.7
1000	333.15	953.9	.7
5000	333.15	956	.7
10000	333.15	958.7	.7
15000	333.15	961.4	.7
20000	333.15	963.9	.7
25000	333.15	966.5	.7
30000	333.15	968.9	.7
35000	333.15	971.3	.7
40000	333.15	973.7	.7
45000	333.15	976	.7
50000	333.15	978.3	.7
55000	333.15	980.5	.7
60000	333.15	982.7	.7
100	348.15	943.7	.7
1000	348.15	944.2	.7
5000	348.15	946.5	.7
10000	348.15	949.3	.7
15000	348.15	952	.7
20000	348.15	954.7	.7
25000	348.15	957.3	.7
30000	348.15	959.8	.7
35000	348.15	962.3	.7
40000	348.15	964.8	.7
45000	348.15	967.2	.7
50000	348.15	969.5	.7
55000	348.15	971.9	.7
60000	348.15	974.1	.7
100	373.15	927.3	5
1000	373.15	928.4	3
5000	373.15	930.8	3
10000	373.15	933.8	3
15000	373.15	936.7	3
20000	373.15	939.6	3
25000	373.15	942.4	3
30000	373.15	945.1	3
35000	373.15	947.7	3
40000	373.15	950.3	3
45000	373.15	952.9	3
50000	373.15	955.4	3
55000	373.15	957.9	3
60000	373.15	960.2	3
100	398.15	911.8	5
1000	398.15	913	3
5000	398.15	915.7	3
10000	398.15	918.9	3
15000	398.15	922.1	3
20000	398.15	925.1	3
25000	398.15	928	3
30000	398.15	930.9	3
35000	398.15	933.7	3
40000	398.15	936.5	3
45000	398.15	939.2	3
50000	398.15	941.8	3
55000	398.15	944.4	3
60000	398.15	946.9	3

System: 1-butyl-1-methylpyrrolidinium trifluoromethanesulfonate; phases: Liquid
Property: Mass density, kg/m3 (Liquid); method: Vibrating tube method
Pressure, kPa	Temperature, K	Mass density, kg/m3	uncertainty
100	278.15	1269.4	.7
1000	278.15	1269.4	.7
10000	278.15	1273.9	.7
20000	278.15	1278.7	.7
40000	278.15	1287.8	.7
60000	278.15	1296.3	.7
80000	278.15	1304.3	.7
100000	278.15	1311.7	.7
120000	278.15	1318.8	.7
100	298.15	1253.9	.7
1000	298.15	1254.1	.7
10000	298.15	1258.9	.7
20000	298.15	1263.9	.7
40000	298.15	1273.4	.7
60000	298.15	1282.4	.7
80000	298.15	1290.8	.7
100000	298.15	1298.7	.7
120000	298.15	1306.2	.7
100	313.15	1243.1	.7
1000	313.15	1243.3	.7
10000	313.15	1248.3	.7
20000	313.15	1253.5	.7
40000	313.15	1263.4	.7
60000	313.15	1272.6	.7
80000	313.15	1281.1	.7
100000	313.15	1289.2	.7
120000	313.15	1296.8	.7
100	333.15	1228.6	.7
1000	333.15	1229	.7
10000	333.15	1234.3	.7
20000	333.15	1239.8	.7
40000	333.15	1250.2	.7
60000	333.15	1259.8	.7
80000	333.15	1268.8	.7
100000	333.15	1277.2	.7
120000	333.15	1285.2	.7
100	348.15	1218	.7
1000	348.15	1218.4	.7
10000	348.15	1223.9	.7
20000	348.15	1229.6	.7
40000	348.15	1240.4	.7
60000	348.15	1250.4	.7
80000	348.15	1259.7	.7
100000	348.15	1268.4	.7
120000	348.15	1276.5	.7
100	373.15	1199.5	5
1000	373.15	1200.4	3
10000	373.15	1206.4	3
20000	373.15	1212.5	3
40000	373.15	1224	3
60000	373.15	1234.5	3
80000	373.15	1244.3	3
100000	373.15	1253.3	3
120000	373.15	1261.9	3
100	398.15	1181.9	5
1000	398.15	1183	3
10000	398.15	1189.3	3
20000	398.15	1195.9	3
40000	398.15	1208.1	3
60000	398.15	1219.1	3
80000	398.15	1229.3	3
100000	398.15	1238.9	3
120000	398.15	1247.8	3

System: 1-butyl-1-methylpyrrolidinium tris(pentafluoroethyl)trifluorophosphate; phases: Liquid
Property: Mass density, kg/m3 (Liquid); method: Vibrating tube method
Pressure, kPa	Temperature, K	Mass density, kg/m3	uncertainty
100	278.15	1606.7	.7
1000	278.15	1606.9	.7
10000	278.15	1614.1	.7
20000	278.15	1621.5	.7
40000	278.15	1635.5	.7
60000	278.15	1648.3	.7
80000	278.15	1660.1	.7
100000	278.15	1671.2	.7
120000	278.15	1681.7	.7
100	298.15	1584.9	.7
1000	298.15	1585.2	.7
10000	298.15	1592.8	.7
20000	298.15	1600.8	.7
40000	298.15	1615.7	.7
60000	298.15	1629.5	.7
80000	298.15	1642.1	.7
100000	298.15	1653.8	.7
120000	298.15	1664.8	.7
100	313.15	1568.9	.7
1000	313.15	1569.4	.7
10000	313.15	1577.4	.7
20000	313.15	1585.7	.7
40000	313.15	1601.2	.7
60000	313.15	1615.3	.7
80000	313.15	1628.4	.7
100000	313.15	1640.6	.7
120000	313.15	1652	.7
100	333.15	1547.5	.7
1000	333.15	1548.1	.7
10000	333.15	1556.8	.7
20000	333.15	1565.7	.7
40000	333.15	1582.2	.7
60000	333.15	1597.1	.7
80000	333.15	1610.8	.7
100000	333.15	1623.5	.7
120000	333.15	1635.4	.7
100	348.15	1531.7	.7
1000	348.15	1532.4	.7
10000	348.15	1541.6	.7
20000	348.15	1551	.7
40000	348.15	1568.2	.7
60000	348.15	1583.8	.7
80000	348.15	1598	.7
100000	348.15	1611.2	.7
120000	348.15	1623.5	.7
100	373.15	1504.6	5
1000	373.15	1506	3
10000	373.15	1516	3
20000	373.15	1526.2	3
40000	373.15	1544.8	3
60000	373.15	1561.4	3
80000	373.15	1576.5	3
100000	373.15	1590.3	3
120000	373.15	1603.3	3
100	398.15	1478.4	5
1000	398.15	1479.9	3
10000	398.15	1490.7	3
20000	398.15	1501.9	3
40000	398.15	1521.8	3
60000	398.15	1539.5	3
80000	398.15	1555.4	3
100000	398.15	1570.1	3
120000	398.15	1583.8	3

System: trihexyl(tetradecyl)phosphonium tris(pentafluoroethyl)trifluorophosphate; phases: Liquid
Property: Mass density, kg/m3 (Liquid); method: Vibrating tube method
Pressure, kPa	Temperature, K	Mass density, kg/m3	uncertainty
100	278.15	1200.1	.7
1000	278.15	1200.2	.7
10000	278.15	1206.4	.7
20000	278.15	1212.7	.7
40000	278.15	1224.5	.7
60000	278.15	1235.3	.7
80000	278.15	1245.1	.7
100000	278.15	1254.2	.7
120000	278.15	1262.7	.7
100	298.15	1183.3	.7
1000	298.15	1183.6	.7
10000	298.15	1190.3	.7
20000	298.15	1197.2	.7
40000	298.15	1209.8	.7
60000	298.15	1221.3	.7
80000	298.15	1231.8	.7
100000	298.15	1241.5	.7
120000	298.15	1250.5	.7
100	313.15	1170.8	.7
1000	313.15	1171.2	.7
10000	313.15	1178.3	.7
20000	313.15	1185.5	.7
40000	313.15	1198.9	.7
60000	313.15	1210.9	.7
80000	313.15	1221.7	.7
100000	313.15	1231.8	.7
120000	313.15	1241.1	.7
100	333.15	1153.9	.7
1000	333.15	1154.4	.7
10000	333.15	1162.1	.7
20000	333.15	1169.9	.7
40000	333.15	1184.1	.7
60000	333.15	1196.9	.7
80000	333.15	1208.4	.7
100000	333.15	1219	.7
120000	333.15	1228.7	.7
100	348.15	1141.5	.7
1000	348.15	1142.1	.7
10000	348.15	1150.3	.7
20000	348.15	1158.6	.7
40000	348.15	1173.5	.7
60000	348.15	1186.7	.7
80000	348.15	1198.7	.7
100000	348.15	1209.7	.7
120000	348.15	1219.7	.7
100	373.15	1120.4	5
1000	373.15	1121.7	3
10000	373.15	1130.7	3
20000	373.15	1139.7	3
40000	373.15	1155.9	3
60000	373.15	1170	3
80000	373.15	1182.6	3
100000	373.15	1194.2	3
120000	373.15	1204.6	3
100	398.15	1100.3	5
1000	398.15	1101.7	3
10000	398.15	1111.5	3
20000	398.15	1121.4	3
40000	398.15	1138.8	3
60000	398.15	1153.9	3
80000	398.15	1167.3	3
100000	398.15	1179.5	3
120000	398.15	1190.4	3
