Measured thermophysical data. Liquid range temperature of ionic liquids as potential working fluids for absorption heat pumps
Source: J. Chem. Thermodyn., 2015, 10.1016/j.jct.2015.07.034
Compound 1: 1-ethylpyridinium bis(trifluoromethylsulfonyl)imide, C9H10F6N2O4S2, purity 99%
Compound 2: 2-hydroxyethyl-N,N,N-trimethylammonium bis(trifluoromethylsulfonyl)imide, C7H14F6N2O5S2, purity 99%
Compound 3: 1-ethyl-3-methylimidazolium triflate, C7H11F3N2O3S, purity 99%
Compound 4: 1-ethyl-3-methylimidazolium bis(pentafluoroethylsulfonyl)imide, C10H11F10N3O4S2, purity 98%
Compound 5: 1-ethylpyridinium methanesulfonate, C8H13NO3S, purity 95%
Compound 6: 1-ethylpyridinium triflate, C8H10F3NO3S, purity 99%

System: 1-ethylpyridinium bis(trifluoromethylsulfonyl)imide; phases: Crystal 1, Liquid, Air at 1 atmosphere
Property: Normal melting temperature, K (Crystal 1); method: DSC/DTA
Normal melting temperature, K	uncertainty
305.15	2

System: 1-ethylpyridinium bis(trifluoromethylsulfonyl)imide; phases: Crystal 2, Crystal 1, Air at 1 atmosphere
Property: Triple point temperature, K (Crystal 2); method: DSC
Triple point temperature, K	uncertainty
294.15	2

System: 2-hydroxyethyl-N,N,N-trimethylammonium bis(trifluoromethylsulfonyl)imide; phases: Crystal 1, Liquid, Air at 1 atmosphere
Property: Normal melting temperature, K (Crystal 1); method: DSC/DTA
Normal melting temperature, K	uncertainty
306.15	2

System: 2-hydroxyethyl-N,N,N-trimethylammonium bis(trifluoromethylsulfonyl)imide; phases: Crystal 2, Crystal 1, Air at 1 atmosphere
Property: Triple point temperature, K (Crystal 2); method: DSC
Triple point temperature, K	uncertainty
300.15	2

System: 2-hydroxyethyl-N,N,N-trimethylammonium bis(trifluoromethylsulfonyl)imide; phases: Crystal 3, Crystal 2, Air at 1 atmosphere
Property: Triple point temperature, K (Crystal 3); method: DSC
Triple point temperature, K	uncertainty
275.15	2

System: 1-ethyl-3-methylimidazolium triflate; phases: Crystal, Liquid, Air at 1 atmosphere
Property: Normal melting temperature, K (Crystal); method: DSC/DTA
Normal melting temperature, K	uncertainty
259.15	2

System: 1-ethyl-3-methylimidazolium bis(pentafluoroethylsulfonyl)imide; phases: Crystal, Liquid, Air at 1 atmosphere
Property: Normal melting temperature, K (Crystal); method: DSC/DTA
Normal melting temperature, K	uncertainty
289.15	2

System: 1-ethyl-3-methylimidazolium bis(pentafluoroethylsulfonyl)imide; phases: Glass, Liquid, Air at 1 atmosphere
Property: Triple point temperature, K (Glass); method: DSC
Triple point temperature, K	uncertainty
221.15	2

System: 1-ethylpyridinium methanesulfonate; phases: Crystal, Liquid, Air at 1 atmosphere
Property: Normal melting temperature, K (Crystal); method: DSC/DTA
Normal melting temperature, K	uncertainty
335.15	2

System: 1-ethylpyridinium triflate; phases: Crystal 1, Liquid, Air at 1 atmosphere
Property: Normal melting temperature, K (Crystal 1); method: DSC/DTA
Normal melting temperature, K	uncertainty
305.15	2

System: 1-ethylpyridinium triflate; phases: Crystal 2, Crystal 1, Air at 1 atmosphere
Property: Triple point temperature, K (Crystal 2); method: DSC
Triple point temperature, K	uncertainty
266.15	2
