Measured thermophysical data. Physicochemical study of solute-solute and solute-solvent interactions of glycine, L-alanine, L-valine and L-isoleucine in aqueous-D-mannose solutions at temperatures from 293.15 K to 318.15 K
Source: J. Chem. Thermodyn., 2016, 10.1016/j.jct.2016.03.012
Compound 1: glycine, C2H5NO2
Compound 2: L-alanine, C3H7NO2
Compound 3: L-valine, C5H11NO2
Compound 4: L-isoleucine, C6H13NO2
Compound 5: D-mannose, C6H12O6, purity 99%
Compound 6: water, H2O

System: glycine + D-mannose + water; phases: Liquid
Fixed: Pressure, kPa = 101
Property: Mass density, kg/m3 (Liquid); method: Pycnometric method
Solvent: Mass fraction of D-mannose	Temperature, K	Molality, mol/kg of glycine	Mass density, kg/m3	uncertainty
.025	293.15	0	1007.81	
.025	293.15	.0249	1008.38	
.025	293.15	.0499	1008.93	
.025	293.15	.0749	1009.46	
.025	293.15	.0999	1009.96	
.025	293.15	.1249	1010.44	
.025	293.15	.1499	1010.89	
.05	293.15	0	1017.15	
.05	293.15	.0249	1017.84	
.05	293.15	.0499	1018.51	
.05	293.15	.0749	1019.17	
.05	293.15	.0999	1019.81	
.05	293.15	.1249	1020.42	
.05	293.15	.1499	1021.02	
.025	298.15	0	1006.66	
.025	298.15	.0249	1007.23	
.025	298.15	.0499	1007.79	
.025	298.15	.0749	1008.31	
.025	298.15	.0999	1008.81	
.025	298.15	.1249	1009.29	
.025	298.15	.1499	1009.74	
.05	298.15	0	1016.04	
.05	298.15	.0249	1016.73	
.05	298.15	.0499	1017.41	
.05	298.15	.0749	1018.06	
.05	298.15	.0999	1018.7	
.05	298.15	.1249	1019.31	
.05	298.15	.1499	1019.91	
.025	303.15	0	1005.29	
.025	303.15	.0249	1005.87	
.025	303.15	.0499	1006.42	
.025	303.15	.0749	1006.94	
.025	303.15	.0999	1007.44	
.025	303.15	.1249	1007.92	
.025	303.15	.1499	1008.37	
.05	303.15	0	1014.73	
.05	303.15	.0249	1015.42	
.05	303.15	.0499	1016.1	
.05	303.15	.0749	1016.75	
.05	303.15	.0999	1017.39	
.05	303.15	.1249	1018.01	
.05	303.15	.1499	1018.61	
.025	308.15	0	1003.71	
.025	308.15	.0249	1004.29	
.025	308.15	.0499	1004.84	
.025	308.15	.0749	1005.37	
.025	308.15	.0999	1005.87	
.025	308.15	.1249	1006.34	
.025	308.15	.1499	1006.79	
.05	308.15	0	1013.21	
.05	308.15	.0249	1013.9	
.05	308.15	.0499	1014.58	
.05	308.15	.0749	1015.23	
.05	308.15	.0999	1015.87	
.05	308.15	.1249	1016.49	
.05	308.15	.1499	1017.09	
.025	313.15	0	1001.93	
.025	313.15	.0249	1002.51	
.025	313.15	.0499	1003.07	
.025	313.15	.0749	1003.6	
.025	313.15	.0999	1004.1	
.025	313.15	.1249	1004.57	
.025	313.15	.1499	1005.02	
.05	313.15	0	1011.5	
.05	313.15	.0249	1012.19	
.05	313.15	.0499	1012.87	
.05	313.15	.0749	1013.53	
.05	313.15	.0999	1014.17	
.05	313.15	.1249	1014.79	
.05	313.15	.1499	1015.39	
.025	318.15	0	999.95	
.025	318.15	.0249	1000.54	
.025	318.15	.0499	1001.09	
.025	318.15	.0749	1001.63	
.025	318.15	.0999	1002.13	
.025	318.15	.1249	1002.61	
.025	318.15	.1499	1003.06	
.05	318.15	0	1009.58	
.05	318.15	.0249	1010.28	
.05	318.15	.0499	1010.96	
.05	318.15	.0749	1011.62	
.05	318.15	.0999	1012.26	
.05	318.15	.1249	1012.88	
.05	318.15	.1499	1013.49	

System: glycine + D-mannose + water; phases: Liquid
Fixed: Pressure, kPa = 101
Fixed: Frequency, MHz = 3
Property: Speed of sound, m/s (Liquid); method: Linear variable-path acoustic interferometer
Solvent: Mass fraction of D-mannose	Temperature, K	Molality, mol/kg of glycine	Speed of sound, m/s	uncertainty
.025	293.15	0	1495.7	
.025	293.15	.0249	1496.5	
.025	293.15	.0499	1497.6	
.025	293.15	.0749	1499.1	
.025	293.15	.0999	1501	
.025	293.15	.1249	1503.3	
.025	293.15	.1499	1506	
.025	298.15	0	1506.6	
.025	298.15	.0249	1507.3	
.025	298.15	.0499	1508.4	
.025	298.15	.0749	1510	
.025	298.15	.0999	1511.9	
.025	298.15	.1249	1514.2	
.025	298.15	.1499	1516.9	
.025	303.15	0	1516.9	
.025	303.15	.0249	1517.6	
.025	303.15	.0499	1518.7	
.025	303.15	.0749	1520.2	
.025	303.15	.0999	1522.1	
.025	303.15	.1249	1524.4	
.025	303.15	.1499	1527.1	
.025	308.15	0	1526.9	
.025	308.15	.0249	1527.6	
.025	308.15	.0499	1528.6	
.025	308.15	.0749	1530.1	
.025	308.15	.0999	1531.9	
.025	308.15	.1249	1534.2	
.025	308.15	.1499	1536.9	
.025	313.15	0	1535.2	
.025	313.15	.0249	1535.8	
.025	313.15	.0499	1536.8	
.025	313.15	.0749	1538.2	
.025	313.15	.0999	1540	
.025	313.15	.1249	1542.3	
.025	313.15	.1499	1545	
.025	318.15	0	1543	
.025	318.15	.0249	1543.6	
.025	318.15	.0499	1544.5	
.025	318.15	.0749	1545.9	
.025	318.15	.0999	1547.7	
.025	318.15	.1249	1549.9	
.025	318.15	.1499	1552.5	
.05	293.15	0	1508.3	
.05	293.15	.0249	1509.1	
.05	293.15	.0499	1510.3	
.05	293.15	.0749	1511.9	
.05	293.15	.0999	1513.9	
.05	293.15	.1249	1516.4	
.05	293.15	.1499	1519.3	
.05	298.15	0	1516.6	
.05	298.15	.0249	1517.4	
.05	298.15	.0499	1518.5	
.05	298.15	.0749	1520.1	
.05	298.15	.0999	1522.1	
.05	298.15	.1249	1524.5	
.05	298.15	.1499	1527.3	
.05	303.15	0	1525.2	
.05	303.15	.0249	1525.9	
.05	303.15	.0499	1527	
.05	303.15	.0749	1528.6	
.05	303.15	.0999	1530.5	
.05	303.15	.1249	1532.9	
.05	303.15	.1499	1535.7	
.05	308.15	0	1534.1	
.05	308.15	.0249	1534.8	
.05	308.15	.0499	1535.8	
.05	308.15	.0749	1537.3	
.05	308.15	.0999	1539.2	
.05	308.15	.1249	1541.6	
.05	308.15	.1499	1544.3	
.05	313.15	0	1542.6	
.05	313.15	.0249	1543.2	
.05	313.15	.0499	1544.2	
.05	313.15	.0749	1545.7	
.05	313.15	.0999	1547.5	
.05	313.15	.1249	1549.8	
.05	313.15	.1499	1552.5	
.05	318.15	0	1551	
.05	318.15	.0249	1551.6	
.05	318.15	.0499	1552.5	
.05	318.15	.0749	1553.9	
.05	318.15	.0999	1555.7	
.05	318.15	.1249	1557.9	
.05	318.15	.1499	1560.5	

System: glycine + D-mannose + water; phases: Liquid
Fixed: Pressure, kPa = 101
Property: Viscosity, Pa*s (Liquid); method: Capillary tube (Ostwald; Ubbelohde) method
Solvent: Mass fraction of D-mannose	Temperature, K	Molality, mol/kg of glycine	Viscosity, Pa*s	uncertainty
.025	293.15	0	.0010737	
.025	293.15	.0249	.0010841	
.025	293.15	.0499	.0010916	
.025	293.15	.0749	.0010983	
.025	293.15	.0999	.0011047	
.025	293.15	.1249	.0011112	
.025	293.15	.1499	.0011173	
.025	298.15	0	.0009514	
.025	298.15	.0249	.0009608	
.025	298.15	.0499	.0009677	
.025	298.15	.0749	.0009742	
.025	298.15	.0999	.0009804	
.025	298.15	.1249	.0009866	
.025	298.15	.1499	.0009925	
.025	303.15	0	.0008479	
.025	303.15	.0249	.0008564	
.025	303.15	.0499	.0008629	
.025	303.15	.0749	.000869	
.025	303.15	.0999	.000875	
.025	303.15	.1249	.0008811	
.025	303.15	.1499	.0008868	
.025	308.15	0	.0007636	
.025	308.15	.0249	.0007714	
.025	308.15	.0499	.0007776	
.025	308.15	.0749	.0007834	
.025	308.15	.0999	.0007894	
.025	308.15	.1249	.0007951	
.025	308.15	.1499	.0008006	
.025	313.15	0	.0006922	
.025	313.15	.0249	.0006994	
.025	313.15	.0499	.0007053	
.025	313.15	.0749	.0007112	
.025	313.15	.0999	.0007166	
.025	313.15	.1249	.0007222	
.025	313.15	.1499	.0007276	
.025	318.15	0	.0006347	
.025	318.15	.0249	.0006414	
.025	318.15	.0499	.0006471	
.025	318.15	.0749	.0006527	
.025	318.15	.0999	.0006581	
.025	318.15	.1249	.0006634	
.025	318.15	.1499	.0006688	
.05	293.15	0	.0011457	
.05	293.15	.0249	.0011582	
.05	293.15	.0499	.0011677	
.05	293.15	.0749	.0011766	
.05	293.15	.0999	.0011852	
.05	293.15	.1249	.0011938	
.05	293.15	.1499	.0012022	
.05	298.15	0	.0010067	
.05	298.15	.0249	.0010179	
.05	298.15	.0499	.0010267	
.05	298.15	.0749	.0010351	
.05	298.15	.0999	.0010435	
.05	298.15	.1249	.0010516	
.05	298.15	.1499	.0010594	
.05	303.15	0	.0008925	
.05	303.15	.0249	.0009027	
.05	303.15	.0499	.000911	
.05	303.15	.0749	.0009192	
.05	303.15	.0999	.000927	
.05	303.15	.1249	.0009347	
.05	303.15	.1499	.0009425	
.05	308.15	0	.0008017	
.05	308.15	.0249	.0008111	
.05	308.15	.0499	.000819	
.05	308.15	.0749	.0008268	
.05	308.15	.0999	.0008345	
.05	308.15	.1249	.0008419	
.05	308.15	.1499	.0008495	
.05	313.15	0	.0007265	
.05	313.15	.0249	.0007352	
.05	313.15	.0499	.0007428	
.05	313.15	.0749	.0007503	
.05	313.15	.0999	.0007577	
.05	313.15	.1249	.0007651	
.05	313.15	.1499	.0007724	
.05	318.15	0	.0006654	
.05	318.15	.0249	.0006735	
.05	318.15	.0499	.0006808	
.05	318.15	.0749	.0006882	
.05	318.15	.0999	.0006953	
.05	318.15	.1249	.0007024	
.05	318.15	.1499	.0007095	

System: L-alanine + D-mannose + water; phases: Liquid
Fixed: Pressure, kPa = 101
Property: Mass density, kg/m3 (Liquid); method: Pycnometric method
Solvent: Mass fraction of D-mannose	Temperature, K	Molality, mol/kg of L-alanine	Mass density, kg/m3	uncertainty
.025	293.15	0	1007.81	
.025	293.15	.0249	1008.47	
.025	293.15	.0499	1009.11	
.025	293.15	.0749	1009.72	
.025	293.15	.0999	1010.3	
.025	293.15	.1249	1010.85	
.025	293.15	.1499	1011.38	
.025	298.15	0	1006.66	
.025	298.15	.0249	1007.32	
.025	298.15	.0499	1007.96	
.025	298.15	.0749	1008.57	
.025	298.15	.0999	1009.15	
.025	298.15	.1249	1009.7	
.025	298.15	.1499	1010.22	
.025	303.15	0	1005.29	
.025	303.15	.0249	1005.95	
.025	303.15	.0499	1006.59	
.025	303.15	.0749	1007.19	
.025	303.15	.0999	1007.77	
.025	303.15	.1249	1008.32	
.025	303.15	.1499	1008.84	
.025	308.15	0	1003.71	
.025	308.15	.0249	1004.37	
.025	308.15	.0499	1005.01	
.025	308.15	.0749	1005.61	
.025	308.15	.0999	1006.19	
.025	308.15	.1249	1006.74	
.025	308.15	.1499	1007.26	
.025	313.15	0	1001.93	
.025	313.15	.0249	1002.6	
.025	313.15	.0499	1003.23	
.025	313.15	.0749	1003.84	
.025	313.15	.0999	1004.41	
.025	313.15	.1249	1004.96	
.025	313.15	.1499	1005.48	
.025	318.15	0	999.95	
.025	318.15	.0249	1000.62	
.025	318.15	.0499	1001.26	
.025	318.15	.0749	1001.86	
.025	318.15	.0999	1002.44	
.025	318.15	.1249	1002.99	
.025	318.15	.1499	1003.5	
.05	293.15	0	1017.15	
.05	293.15	.0249	1017.77	
.05	293.15	.0499	1018.37	
.05	293.15	.0749	1018.97	
.05	293.15	.0999	1019.54	
.05	293.15	.1249	1020.1	
.05	293.15	.1499	1020.65	
.05	298.15	0	1016.04	
.05	298.15	.0249	1016.66	
.05	298.15	.0499	1017.26	
.05	298.15	.0749	1017.85	
.05	298.15	.0999	1018.43	
.05	298.15	.1249	1018.99	
.05	298.15	.1499	1019.54	
.05	303.15	0	1014.73	
.05	303.15	.0249	1015.35	
.05	303.15	.0499	1015.95	
.05	303.15	.0749	1016.54	
.05	303.15	.0999	1017.12	
.05	303.15	.1249	1017.68	
.05	303.15	.1499	1018.23	
.05	308.15	0	1013.21	
.05	308.15	.0249	1013.83	
.05	308.15	.0499	1014.43	
.05	308.15	.0749	1015.02	
.05	308.15	.0999	1015.6	
.05	308.15	.1249	1016.16	
.05	308.15	.1499	1016.71	
.05	313.15	0	1011.5	
.05	313.15	.0249	1012.12	
.05	313.15	.0499	1012.73	
.05	313.15	.0749	1013.32	
.05	313.15	.0999	1013.9	
.05	313.15	.1249	1014.46	
.05	313.15	.1499	1015.01	
.05	318.15	0	1009.58	
.05	318.15	.0249	1010.2	
.05	318.15	.0499	1010.81	
.05	318.15	.0749	1011.41	
.05	318.15	.0999	1011.99	
.05	318.15	.1249	1012.55	
.05	318.15	.1499	1013.1	

System: L-alanine + D-mannose + water; phases: Liquid
Fixed: Pressure, kPa = 101
Fixed: Frequency, MHz = 3
Property: Speed of sound, m/s (Liquid); method: Linear variable-path acoustic interferometer
Solvent: Mass fraction of D-mannose	Temperature, K	Molality, mol/kg of L-alanine	Speed of sound, m/s	uncertainty
.025	293.15	0	1495.7	
.025	293.15	.0249	1496.4	
.025	293.15	.0499	1497.4	
.025	293.15	.0749	1498.9	
.025	293.15	.0999	1500.7	
.025	293.15	.1249	1502.9	
.025	293.15	.1499	1505.4	
.025	298.15	0	1506.6	
.025	298.15	.0249	1507.3	
.025	298.15	.0499	1508.3	
.025	298.15	.0749	1509.7	
.025	298.15	.0999	1511.5	
.025	298.15	.1249	1513.7	
.025	298.15	.1499	1516.3	
.025	303.15	0	1516.9	
.025	303.15	.0249	1517.5	
.025	303.15	.0499	1518.5	
.025	303.15	.0749	1519.9	
.025	303.15	.0999	1521.7	
.025	303.15	.1249	1523.9	
.025	303.15	.1499	1526.5	
.025	308.15	0	1526.9	
.025	308.15	.0249	1527.5	
.025	308.15	.0499	1528.5	
.025	308.15	.0749	1529.8	
.025	308.15	.0999	1531.6	
.025	308.15	.1249	1533.8	
.025	308.15	.1499	1536.3	
.025	313.15	0	1535.2	
.025	313.15	.0249	1535.7	
.025	313.15	.0499	1536.7	
.025	313.15	.0749	1538	
.025	313.15	.0999	1539.7	
.025	313.15	.1249	1541.9	
.025	313.15	.1499	1544.4	
.025	318.15	0	1543	
.025	318.15	.0249	1543.5	
.025	318.15	.0499	1544.4	
.025	318.15	.0749	1545.7	
.025	318.15	.0999	1547.4	
.025	318.15	.1249	1549.5	
.025	318.15	.1499	1552	
.05	293.15	0	1508.3	
.05	293.15	.0249	1509	
.05	293.15	.0499	1510	
.05	293.15	.0749	1511.4	
.05	293.15	.0999	1513.1	
.05	293.15	.1249	1515.2	
.05	293.15	.1499	1517.5	
.05	298.15	0	1516.6	
.05	298.15	.0249	1517.2	
.05	298.15	.0499	1518.2	
.05	298.15	.0749	1519.6	
.05	298.15	.0999	1521.3	
.05	298.15	.1249	1523.3	
.05	298.15	.1499	1525.7	
.05	303.15	0	1525.2	
.05	303.15	.0249	1525.8	
.05	303.15	.0499	1526.8	
.05	303.15	.0749	1528.1	
.05	303.15	.0999	1529.7	
.05	303.15	.1249	1531.7	
.05	303.15	.1499	1534	
.05	308.15	0	1534.1	
.05	308.15	.0249	1534.7	
.05	308.15	.0499	1535.6	
.05	308.15	.0749	1536.8	
.05	308.15	.0999	1538.4	
.05	308.15	.1249	1540.4	
.05	308.15	.1499	1542.7	
.05	313.15	0	1542.6	
.05	313.15	.0249	1543.1	
.05	313.15	.0499	1544	
.05	313.15	.0749	1545.2	
.05	313.15	.0999	1546.8	
.05	313.15	.1249	1548.7	
.05	313.15	.1499	1550.9	
.05	318.15	0	1551	
.05	318.15	.0249	1551.5	
.05	318.15	.0499	1552.3	
.05	318.15	.0749	1553.5	
.05	318.15	.0999	1555	
.05	318.15	.1249	1556.9	
.05	318.15	.1499	1559.1	

System: L-alanine + D-mannose + water; phases: Liquid
Fixed: Pressure, kPa = 101
Property: Viscosity, Pa*s (Liquid); method: Capillary tube (Ostwald; Ubbelohde) method
Solvent: Mass fraction of D-mannose	Temperature, K	Molality, mol/kg of L-alanine	Viscosity, Pa*s	uncertainty
.025	293.15	0	.0010737	
.025	293.15	.0249	.0010846	
.025	293.15	.0499	.0010936	
.025	293.15	.0749	.0011024	
.025	293.15	.0999	.001111	
.025	293.15	.1249	.0011195	
.025	293.15	.1499	.001128	
.025	298.15	0	.0009514	
.025	298.15	.0249	.0009612	
.025	298.15	.0499	.0009698	
.025	298.15	.0749	.000978	
.025	298.15	.0999	.0009861	
.025	298.15	.1249	.0009942	
.025	298.15	.1499	.0010022	
.025	303.15	0	.0008479	
.025	303.15	.0249	.0008568	
.025	303.15	.0499	.0008649	
.025	303.15	.0749	.0008727	
.025	303.15	.0999	.0008804	
.025	303.15	.1249	.0008881	
.025	303.15	.1499	.0008956	
.025	308.15	0	.0007636	
.025	308.15	.0249	.0007718	
.025	308.15	.0499	.0007794	
.025	308.15	.0749	.0007868	
.025	308.15	.0999	.0007942	
.025	308.15	.1249	.0008015	
.025	308.15	.1499	.0008088	
.025	313.15	0	.0006922	
.025	313.15	.0249	.0006998	
.025	313.15	.0499	.000707	
.025	313.15	.0749	.0007141	
.025	313.15	.0999	.0007212	
.025	313.15	.1249	.0007281	
.025	313.15	.1499	.0007352	
.025	318.15	0	.0006347	
.025	318.15	.0249	.0006418	
.025	318.15	.0499	.0006486	
.025	318.15	.0749	.0006555	
.025	318.15	.0999	.0006623	
.025	318.15	.1249	.000669	
.025	318.15	.1499	.0006758	
.05	293.15	0	.0011457	
.05	293.15	.0249	.0011586	
.05	293.15	.0499	.0011696	
.05	293.15	.0749	.0011803	
.05	293.15	.0999	.0011908	
.05	293.15	.1249	.0012013	
.05	293.15	.1499	.0012117	
.05	298.15	0	.0010067	
.05	298.15	.0249	.0010183	
.05	298.15	.0499	.0010284	
.05	298.15	.0749	.0010384	
.05	298.15	.0999	.0010484	
.05	298.15	.1249	.0010583	
.05	298.15	.1499	.001068	
.05	303.15	0	.0008925	
.05	303.15	.0249	.0009031	
.05	303.15	.0499	.0009126	
.05	303.15	.0749	.0009222	
.05	303.15	.0999	.0009317	
.05	303.15	.1249	.000941	
.05	303.15	.1499	.0009503	
.05	308.15	0	.0008017	
.05	308.15	.0249	.0008115	
.05	308.15	.0499	.0008206	
.05	308.15	.0749	.0008297	
.05	308.15	.0999	.0008388	
.05	308.15	.1249	.0008478	
.05	308.15	.1499	.0008569	
.05	313.15	0	.0007265	
.05	313.15	.0249	.0007356	
.05	313.15	.0499	.0007443	
.05	313.15	.0749	.0007529	
.05	313.15	.0999	.0007616	
.05	313.15	.1249	.0007703	
.05	313.15	.1499	.000779	
.05	318.15	0	.0006654	
.05	318.15	.0249	.0006739	
.05	318.15	.0499	.0006823	
.05	318.15	.0749	.0006906	
.05	318.15	.0999	.000699	
.05	318.15	.1249	.0007075	
.05	318.15	.1499	.0007158	

System: L-valine + D-mannose + water; phases: Liquid
Fixed: Pressure, kPa = 101
Property: Mass density, kg/m3 (Liquid); method: Pycnometric method
Solvent: Mass fraction of D-mannose	Temperature, K	Molality, mol/kg of L-valine	Mass density, kg/m3	uncertainty
.025	293.15	0	1007.81	
.025	293.15	.0249	1008.41	
.025	293.15	.0499	1008.99	
.025	293.15	.0749	1009.55	
.025	293.15	.0999	1010.08	
.025	293.15	.1249	1010.59	
.025	293.15	.1499	1011.08	
.025	298.15	0	1006.66	
.025	298.15	.0249	1007.26	
.025	298.15	.0499	1007.85	
.025	298.15	.0749	1008.4	
.025	298.15	.0999	1008.93	
.025	298.15	.1249	1009.44	
.025	298.15	.1499	1009.93	
.025	303.15	0	1005.29	
.025	303.15	.0249	1005.89	
.025	303.15	.0499	1006.48	
.025	303.15	.0749	1007.03	
.025	303.15	.0999	1007.56	
.025	303.15	.1249	1008.07	
.025	303.15	.1499	1008.55	
.025	308.15	0	1003.71	
.025	308.15	.0249	1004.32	
.025	308.15	.0499	1004.9	
.025	308.15	.0749	1005.45	
.025	308.15	.0999	1005.98	
.025	308.15	.1249	1006.49	
.025	308.15	.1499	1006.97	
.025	313.15	0	1001.93	
.025	313.15	.0249	1002.54	
.025	313.15	.0499	1003.13	
.025	313.15	.0749	1003.68	
.025	313.15	.0999	1004.22	
.025	313.15	.1249	1004.72	
.025	313.15	.1499	1005.2	
.025	318.15	0	999.95	
.025	318.15	.0249	1000.56	
.025	318.15	.0499	1001.15	
.025	318.15	.0749	1001.71	
.025	318.15	.0999	1002.24	
.025	318.15	.1249	1002.75	
.025	318.15	.1499	1003.23	
.05	293.15	0	1017.15	
.05	293.15	.0249	1017.7	
.05	293.15	.0499	1018.25	
.05	293.15	.0749	1018.78	
.05	293.15	.0999	1019.31	
.05	293.15	.1249	1019.83	
.05	293.15	.1499	1020.33	
.05	298.15	0	1016.04	
.05	298.15	.0249	1016.59	
.05	298.15	.0499	1017.14	
.05	298.15	.0749	1017.68	
.05	298.15	.0999	1018.2	
.05	298.15	.1249	1018.72	
.05	298.15	.1499	1019.23	
.05	303.15	0	1014.73	
.05	303.15	.0249	1015.28	
.05	303.15	.0499	1015.83	
.05	303.15	.0749	1016.37	
.05	303.15	.0999	1016.9	
.05	303.15	.1249	1017.42	
.05	303.15	.1499	1017.93	
.05	308.15	0	1013.21	
.05	308.15	.0249	1013.77	
.05	308.15	.0499	1014.32	
.05	308.15	.0749	1014.86	
.05	308.15	.0999	1015.39	
.05	308.15	.1249	1015.91	
.05	308.15	.1499	1016.43	
.05	313.15	0	1011.5	
.05	313.15	.0249	1012.06	
.05	313.15	.0499	1012.61	
.05	313.15	.0749	1013.16	
.05	313.15	.0999	1013.69	
.05	313.15	.1249	1014.22	
.05	313.15	.1499	1014.73	
.05	318.15	0	1009.58	
.05	318.15	.0249	1010.14	
.05	318.15	.0499	1010.7	
.05	318.15	.0749	1011.25	
.05	318.15	.0999	1011.78	
.05	318.15	.1249	1012.31	
.05	318.15	.1499	1012.83	

System: L-valine + D-mannose + water; phases: Liquid
Fixed: Pressure, kPa = 101
Fixed: Frequency, MHz = 3
Property: Speed of sound, m/s (Liquid); method: Linear variable-path acoustic interferometer
Solvent: Mass fraction of D-mannose	Temperature, K	Molality, mol/kg of L-valine	Speed of sound, m/s	uncertainty
.025	293.15	0	1495.7	
.025	293.15	.0249	1496.1	
.025	293.15	.0499	1497	
.025	293.15	.0749	1498.2	
.025	293.15	.0999	1499.9	
.025	293.15	.1249	1502	
.025	293.15	.1499	1504.5	
.025	298.15	0	1506.6	
.025	298.15	.0249	1507	
.025	298.15	.0499	1507.8	
.025	298.15	.0749	1509	
.025	298.15	.0999	1510.7	
.025	298.15	.1249	1512.8	
.025	298.15	.1499	1515.3	
.025	303.15	0	1516.9	
.025	303.15	.0249	1517.3	
.025	303.15	.0499	1518	
.025	303.15	.0749	1519.2	
.025	303.15	.0999	1520.8	
.025	303.15	.1249	1522.9	
.025	303.15	.1499	1525.4	
.025	308.15	0	1526.9	
.025	308.15	.0249	1527.2	
.025	308.15	.0499	1528	
.025	308.15	.0749	1529.1	
.025	308.15	.0999	1530.7	
.025	308.15	.1249	1532.8	
.025	308.15	.1499	1535.2	
.025	313.15	0	1535.2	
.025	313.15	.0249	1535.5	
.025	313.15	.0499	1536.2	
.025	313.15	.0749	1537.3	
.025	313.15	.0999	1538.9	
.025	313.15	.1249	1540.9	
.025	313.15	.1499	1543.3	
.025	318.15	0	1543	
.025	318.15	.0249	1543.2	
.025	318.15	.0499	1543.9	
.025	318.15	.0749	1545	
.025	318.15	.0999	1546.5	
.025	318.15	.1249	1548.5	
.025	318.15	.1499	1550.9	
.05	293.15	0	1508.3	
.05	293.15	.0249	1508.8	
.05	293.15	.0499	1509.8	
.05	293.15	.0749	1511.2	
.05	293.15	.0999	1513.2	
.05	293.15	.1249	1515.6	
.05	293.15	.1499	1518.6	
.05	298.15	0	1516.6	
.05	298.15	.0249	1517	
.05	298.15	.0499	1518	
.05	298.15	.0749	1519.4	
.05	298.15	.0999	1521.3	
.05	298.15	.1249	1523.7	
.05	298.15	.1499	1526.6	
.05	303.15	0	1525.2	
.05	303.15	.0249	1525.6	
.05	303.15	.0499	1526.5	
.05	303.15	.0749	1527.8	
.05	303.15	.0999	1529.7	
.05	303.15	.1249	1532.1	
.05	303.15	.1499	1534.9	
.05	308.15	0	1534.1	
.05	308.15	.0249	1534.5	
.05	308.15	.0499	1535.3	
.05	308.15	.0749	1536.6	
.05	308.15	.0999	1538.4	
.05	308.15	.1249	1540.7	
.05	308.15	.1499	1543.5	
.05	313.15	0	1542.6	
.05	313.15	.0249	1542.9	
.05	313.15	.0499	1543.7	
.05	313.15	.0749	1545	
.05	313.15	.0999	1546.7	
.05	313.15	.1249	1549	
.05	313.15	.1499	1551.6	
.05	318.15	0	1551	
.05	318.15	.0249	1551.3	
.05	318.15	.0499	1552	
.05	318.15	.0749	1553.2	
.05	318.15	.0999	1554.9	
.05	318.15	.1249	1557.1	
.05	318.15	.1499	1559.8	

System: L-valine + D-mannose + water; phases: Liquid
Fixed: Pressure, kPa = 101
Property: Viscosity, Pa*s (Liquid); method: Capillary tube (Ostwald; Ubbelohde) method
Solvent: Mass fraction of D-mannose	Temperature, K	Molality, mol/kg of L-valine	Viscosity, Pa*s	uncertainty
.025	293.15	0	.0010737	
.025	293.15	.0249	.001085	
.025	293.15	.0499	.0010974	
.025	293.15	.0749	.00111	
.025	293.15	.0999	.0011228	
.025	293.15	.1249	.0011356	
.025	293.15	.1499	.0011484	
.025	298.15	0	.0009514	
.025	298.15	.0249	.0009616	
.025	298.15	.0499	.000973	
.025	298.15	.0749	.0009846	
.025	298.15	.0999	.0009965	
.025	298.15	.1249	.0010084	
.025	298.15	.1499	.0010204	
.025	303.15	0	.0008479	
.025	303.15	.0249	.0008572	
.025	303.15	.0499	.000868	
.025	303.15	.0749	.0008789	
.025	303.15	.0999	.0008899	
.025	303.15	.1249	.000901	
.025	303.15	.1499	.0009121	
.025	308.15	0	.0007636	
.025	308.15	.0249	.0007722	
.025	308.15	.0499	.0007824	
.025	308.15	.0749	.0007925	
.025	308.15	.0999	.0008029	
.025	308.15	.1249	.0008134	
.025	308.15	.1499	.0008239	
.025	313.15	0	.0006922	
.025	313.15	.0249	.0007002	
.025	313.15	.0499	.0007097	
.025	313.15	.0749	.0007194	
.025	313.15	.0999	.0007292	
.025	313.15	.1249	.0007391	
.025	313.15	.1499	.0007489	
.025	318.15	0	.0006347	
.025	318.15	.0249	.0006422	
.025	318.15	.0499	.0006512	
.025	318.15	.0749	.0006605	
.025	318.15	.0999	.0006697	
.025	318.15	.1249	.0006792	
.025	318.15	.1499	.0006886	
.05	293.15	0	.0011457	
.05	293.15	.0249	.0011591	
.05	293.15	.0499	.0011734	
.05	293.15	.0749	.001188	
.05	293.15	.0999	.0012024	
.05	293.15	.1249	.001217	
.05	293.15	.1499	.0012319	
.05	298.15	0	.0010067	
.05	298.15	.0249	.0010187	
.05	298.15	.0499	.0010318	
.05	298.15	.0749	.0010454	
.05	298.15	.0999	.0010588	
.05	298.15	.1249	.0010721	
.05	298.15	.1499	.0010856	
.05	303.15	0	.0008925	
.05	303.15	.0249	.0009033	
.05	303.15	.0499	.0009156	
.05	303.15	.0749	.0009282	
.05	303.15	.0999	.0009407	
.05	303.15	.1249	.000953	
.05	303.15	.1499	.0009654	
.05	308.15	0	.0008017	
.05	308.15	.0249	.0008116	
.05	308.15	.0499	.0008232	
.05	308.15	.0749	.0008349	
.05	308.15	.0999	.0008467	
.05	308.15	.1249	.0008583	
.05	308.15	.1499	.0008701	
.05	313.15	0	.0007265	
.05	313.15	.0249	.0007357	
.05	313.15	.0499	.0007465	
.05	313.15	.0749	.0007576	
.05	313.15	.0999	.0007687	
.05	313.15	.1249	.0007798	
.05	313.15	.1499	.000791	
.05	318.15	0	.0006654	
.05	318.15	.0249	.000674	
.05	318.15	.0499	.0006842	
.05	318.15	.0749	.0006947	
.05	318.15	.0999	.0007054	
.05	318.15	.1249	.0007159	
.05	318.15	.1499	.0007267	

System: L-isoleucine + D-mannose + water; phases: Liquid
Fixed: Pressure, kPa = 101
Property: Mass density, kg/m3 (Liquid); method: Pycnometric method
Solvent: Mass fraction of D-mannose	Temperature, K	Molality, mol/kg of L-isoleucine	Mass density, kg/m3	uncertainty
.025	293.15	0	1007.81	
.025	293.15	.0249	1008.38	
.025	293.15	.0499	1008.93	
.025	293.15	.0749	1009.46	
.025	293.15	.0999	1009.96	
.025	293.15	.1249	1010.44	
.025	293.15	.1499	1010.89	
.025	298.15	0	1006.66	
.025	298.15	.0249	1007.23	
.025	298.15	.0499	1007.79	
.025	298.15	.0749	1008.31	
.025	298.15	.0999	1008.81	
.025	298.15	.1249	1009.29	
.025	298.15	.1499	1009.74	
.025	303.15	0	1005.29	
.025	303.15	.0249	1005.87	
.025	303.15	.0499	1006.42	
.025	303.15	.0749	1006.94	
.025	303.15	.0999	1007.44	
.025	303.15	.1249	1007.92	
.025	303.15	.1499	1008.37	
.025	308.15	0	1003.71	
.025	308.15	.0249	1004.29	
.025	308.15	.0499	1004.84	
.025	308.15	.0749	1005.37	
.025	308.15	.0999	1005.87	
.025	308.15	.1249	1006.34	
.025	308.15	.1499	1006.79	
.025	313.15	0	1001.93	
.025	313.15	.0249	1002.51	
.025	313.15	.0499	1003.07	
.025	313.15	.0749	1003.6	
.025	313.15	.0999	1004.1	
.025	313.15	.1249	1004.57	
.025	313.15	.1499	1005.02	
.025	318.15	0	999.95	
.025	318.15	.0249	1000.54	
.025	318.15	.0499	1001.09	
.025	318.15	.0749	1001.63	
.025	318.15	.0999	1002.13	
.025	318.15	.1249	1002.61	
.025	318.15	.1499	1003.06	
.05	293.15	0	1017.15	
.05	293.15	.0249	1017.67	
.05	293.15	.0499	1018.18	
.05	293.15	.0749	1018.67	
.05	293.15	.0999	1019.16	
.05	293.15	.1249	1019.63	
.05	293.15	.1499	1020.08	
.05	298.15	0	1016.04	
.05	298.15	.0249	1016.56	
.05	298.15	.0499	1017.07	
.05	298.15	.0749	1017.57	
.05	298.15	.0999	1018.05	
.05	298.15	.1249	1018.52	
.05	298.15	.1499	1018.98	
.05	303.15	0	1014.73	
.05	303.15	.0249	1015.25	
.05	303.15	.0499	1015.76	
.05	303.15	.0749	1016.26	
.05	303.15	.0999	1016.75	
.05	303.15	.1249	1017.22	
.05	303.15	.1499	1017.68	
.05	308.15	0	1013.21	
.05	308.15	.0249	1013.73	
.05	308.15	.0499	1014.25	
.05	308.15	.0749	1014.75	
.05	308.15	.0999	1015.24	
.05	308.15	.1249	1015.72	
.05	308.15	.1499	1016.18	
.05	313.15	0	1011.5	
.05	313.15	.0249	1012.03	
.05	313.15	.0499	1012.54	
.05	313.15	.0749	1013.05	
.05	313.15	.0999	1013.54	
.05	313.15	.1249	1014.02	
.05	313.15	.1499	1014.49	
.05	318.15	0	1009.58	
.05	318.15	.0249	1010.11	
.05	318.15	.0499	1010.63	
.05	318.15	.0749	1011.14	
.05	318.15	.0999	1011.64	
.05	318.15	.1249	1012.12	
.05	318.15	.1499	1012.59	

System: L-isoleucine + D-mannose + water; phases: Liquid
Fixed: Pressure, kPa = 101
Fixed: Frequency, MHz = 3
Property: Speed of sound, m/s (Liquid); method: Linear variable-path acoustic interferometer
Solvent: Mass fraction of D-mannose	Temperature, K	Molality, mol/kg of L-isoleucine	Speed of sound, m/s	uncertainty
.025	293.15	0	1495.7	
.025	293.15	.0249	1496	
.025	293.15	.0499	1496.8	
.025	293.15	.0749	1497.9	
.025	293.15	.0999	1499.5	
.025	293.15	.1249	1501.5	
.025	293.15	.1499	1504	
.025	298.15	0	1506.6	
.025	298.15	.0249	1506.9	
.025	298.15	.0499	1507.6	
.025	298.15	.0749	1508.7	
.025	298.15	.0999	1510.3	
.025	298.15	.1249	1512.3	
.025	298.15	.1499	1514.7	
.025	303.15	0	1516.9	
.025	303.15	.0249	1517.1	
.025	303.15	.0499	1517.8	
.025	303.15	.0749	1518.9	
.025	303.15	.0999	1520.4	
.025	303.15	.1249	1522.4	
.025	303.15	.1499	1524.8	
.025	308.15	0	1526.9	
.025	308.15	.0249	1527.1	
.025	308.15	.0499	1527.7	
.025	308.15	.0749	1528.8	
.025	308.15	.0999	1530.3	
.025	308.15	.1249	1532.2	
.025	308.15	.1499	1534.6	
.025	313.15	0	1535.2	
.025	313.15	.0249	1535.4	
.025	313.15	.0499	1535.9	
.025	313.15	.0749	1537	
.025	313.15	.0999	1538.4	
.025	313.15	.1249	1540.3	
.025	313.15	.1499	1542.6	
.025	318.15	0	1543	
.025	318.15	.0249	1543.1	
.025	318.15	.0499	1543.6	
.025	318.15	.0749	1544.6	
.025	318.15	.0999	1546	
.025	318.15	.1249	1547.8	
.025	318.15	.1499	1550.1	
.05	293.15	0	1508.3	
.05	293.15	.0249	1508.6	
.05	293.15	.0499	1509.5	
.05	293.15	.0749	1510.7	
.05	293.15	.0999	1512.5	
.05	293.15	.1249	1514.7	
.05	293.15	.1499	1517.4	
.05	298.15	0	1516.6	
.05	298.15	.0249	1516.9	
.05	298.15	.0499	1517.7	
.05	298.15	.0749	1518.9	
.05	298.15	.0999	1520.6	
.05	298.15	.1249	1522.8	
.05	298.15	.1499	1525.5	
.05	303.15	0	1525.2	
.05	303.15	.0249	1525.5	
.05	303.15	.0499	1526.2	
.05	303.15	.0749	1527.4	
.05	303.15	.0999	1529.1	
.05	303.15	.1249	1531.2	
.05	303.15	.1499	1533.8	
.05	308.15	0	1534.1	
.05	308.15	.0249	1534.3	
.05	308.15	.0499	1535	
.05	308.15	.0749	1536.2	
.05	308.15	.0999	1537.8	
.05	308.15	.1249	1539.9	
.05	308.15	.1499	1542.5	
.05	313.15	0	1542.6	
.05	313.15	.0249	1542.8	
.05	313.15	.0499	1543.4	
.05	313.15	.0749	1544.5	
.05	313.15	.0999	1546.1	
.05	313.15	.1249	1548.2	
.05	313.15	.1499	1550.7	
.05	318.15	0	1551	
.05	318.15	.0249	1551.1	
.05	318.15	.0499	1551.7	
.05	318.15	.0749	1552.8	
.05	318.15	.0999	1554.3	
.05	318.15	.1249	1556.3	
.05	318.15	.1499	1558.8	

System: L-isoleucine + D-mannose + water; phases: Liquid
Fixed: Pressure, kPa = 101
Property: Viscosity, Pa*s (Liquid); method: Capillary tube (Ostwald; Ubbelohde) method
Solvent: Mass fraction of D-mannose	Temperature, K	Molality, mol/kg of L-isoleucine	Viscosity, Pa*s	uncertainty
.025	293.15	0	.0010737	
.025	293.15	.0249	.0010855	
.025	293.15	.0499	.0010995	
.025	293.15	.0749	.0011142	
.025	293.15	.0999	.0011293	
.025	293.15	.1249	.0011437	
.025	293.15	.1499	.001159	
.025	298.15	0	.0009514	
.025	298.15	.0249	.0009621	
.025	298.15	.0499	.0009751	
.025	298.15	.0749	.0009888	
.025	298.15	.0999	.0010021	
.025	298.15	.1249	.0010162	
.025	298.15	.1499	.00103	
.025	303.15	0	.0008479	
.025	303.15	.0249	.0008577	
.025	303.15	.0499	.0008699	
.025	303.15	.0749	.0008824	
.025	303.15	.0999	.0008952	
.025	303.15	.1249	.0009079	
.025	303.15	.1499	.0009208	
.025	308.15	0	.0007636	
.025	308.15	.0249	.0007726	
.025	308.15	.0499	.0007843	
.025	308.15	.0749	.000796	
.025	308.15	.0999	.0008078	
.025	308.15	.1249	.0008197	
.025	308.15	.1499	.0008318	
.025	313.15	0	.0006922	
.025	313.15	.0249	.0007006	
.025	313.15	.0499	.0007117	
.025	313.15	.0749	.0007226	
.025	313.15	.0999	.0007337	
.025	313.15	.1249	.000745	
.025	313.15	.1499	.0007564	
.025	318.15	0	.0006347	
.025	318.15	.0249	.0006426	
.025	318.15	.0499	.0006529	
.025	318.15	.0749	.0006633	
.025	318.15	.0999	.000674	
.025	318.15	.1249	.0006846	
.025	318.15	.1499	.0006954	
.05	293.15	0	.0011457	
.05	293.15	.0249	.0011593	
.05	293.15	.0499	.001175	
.05	293.15	.0749	.0011915	
.05	293.15	.0999	.001208	
.05	293.15	.1249	.0012247	
.05	293.15	.1499	.0012415	
.05	298.15	0	.0010067	
.05	298.15	.0249	.0010189	
.05	298.15	.0499	.0010334	
.05	298.15	.0749	.0010485	
.05	298.15	.0999	.0010636	
.05	298.15	.1249	.0010792	
.05	298.15	.1499	.0010945	
.05	303.15	0	.0008925	
.05	303.15	.0249	.0009036	
.05	303.15	.0499	.000917	
.05	303.15	.0749	.000931	
.05	303.15	.0999	.0009452	
.05	303.15	.1249	.0009594	
.05	303.15	.1499	.0009735	
.05	308.15	0	.0008017	
.05	308.15	.0249	.0008119	
.05	308.15	.0499	.0008246	
.05	308.15	.0749	.0008377	
.05	308.15	.0999	.0008508	
.05	308.15	.1249	.0008641	
.05	308.15	.1499	.0008775	
.05	313.15	0	.0007265	
.05	313.15	.0249	.0007359	
.05	313.15	.0499	.0007479	
.05	313.15	.0749	.0007601	
.05	313.15	.0999	.0007725	
.05	313.15	.1249	.0007849	
.05	313.15	.1499	.0007975	
.05	318.15	0	.0006654	
.05	318.15	.0249	.0006742	
.05	318.15	.0499	.0006856	
.05	318.15	.0749	.0006972	
.05	318.15	.0999	.0007088	
.05	318.15	.1249	.0007208	
.05	318.15	.1499	.0007327	

System: D-mannose + water; phases: Liquid
Property: Mass density, kg/m3 (Liquid); method: Pycnometric method
Mass fraction of D-mannose	Temperature, K	Pressure, kPa	Mass density, kg/m3	uncertainty
.025	293.15	101	1007.81	
.05	293.15	101	1017.15	
.025	298.15	101	1006.66	
.05	298.15	101	1016.04	
.025	303.15	101	1005.29	
.05	303.15	101	1014.73	
.025	308.15	101	1003.71	
.05	308.15	101	1013.21	
.025	313.15	101	1001.93	
.05	313.15	101	1011.5	
.025	318.15	101	999.95	
.05	318.15	101	1009.58	

System: D-mannose + water; phases: Liquid
Fixed: Frequency, MHz = 3
Property: Speed of sound, m/s (Liquid); method: Linear variable-path acoustic interferometer
Mass fraction of D-mannose	Temperature, K	Pressure, kPa	Speed of sound, m/s	uncertainty
.025	293.15	101	1495.7	
.025	298.15	101	1506.6	
.025	303.15	101	1516.9	
.025	308.15	101	1526.9	
.025	313.15	101	1535.2	
.025	318.15	101	1543	
.05	293.15	101	1508.3	
.05	298.15	101	1516.6	
.05	303.15	101	1525.2	
.05	308.15	101	1534.1	
.05	313.15	101	1542.6	
.05	318.15	101	1551	

System: D-mannose + water; phases: Liquid
Property: Viscosity, Pa*s (Liquid); method: Capillary tube (Ostwald; Ubbelohde) method
Mass fraction of D-mannose	Temperature, K	Pressure, kPa	Viscosity, Pa*s	uncertainty
.025	293.15	101	.0010737	
.025	298.15	101	.0009514	
.025	303.15	101	.0008479	
.025	308.15	101	.0007636	
.025	313.15	101	.0006922	
.025	318.15	101	.0006347	
.05	293.15	101	.0011457	
.05	298.15	101	.0010067	
.05	303.15	101	.0008925	
.05	308.15	101	.0008017	
.05	313.15	101	.0007265	
.05	318.15	101	.0006654	
