Measured thermophysical data. Partial molar volumes of organic solutes in water. XXI: Cyclic ethers at temperatures T = (278 to 373) K and at low pressure
Source: J. Chem. Thermodyn., 2010, 10.1016/j.jct.2009.08.015
Compound 1: tetrahydrofuran, C4H8O, purity 99%
Compound 2: 1,3-dioxolane, C3H6O2, purity 99%
Compound 3: 1,4-dioxane, C4H8O2, purity 99.5%
Compound 4: 1,3,5-trioxane, C3H6O3, purity 99%
Compound 5: water, H2O, purity 99.8%
Compound 6: tetrahydropyran, C5H10O, purity 99%

System: tetrahydrofuran + water; phases: Liquid
Fixed: Pressure, kPa = 101
Fixed: Mole fraction of tetrahydrofuran = 0
Property: Molar volume, m3/mol (Liquid); method: Vibrating tube method
Temperature, K	Molar volume, m3/mol	uncertainty
278.15	.00007569	.00000045414
283.15	.00007598	.00000045588
288.15	.00007628	.00000045768
293.15	.00007657	.00000045942
298.15	.00007689	.00000046134
308.15	.00007756	.00000046536
318.15	.00007837	.00000047022

System: tetrahydrofuran + water; phases: Liquid
Fixed: Pressure, kPa = 500
Fixed: Mole fraction of tetrahydrofuran = 0
Property: Molar volume, m3/mol (Liquid); method: High temperature high pressure (HTHP) densimeter
Temperature, K	Molar volume, m3/mol	uncertainty
298.15	.0000769	.0000004614
318.15	.0000783	.0000004698
338.15	.00008003	.00000048018
358.15	.00008206	.00000049236
373.15	.00008391	.00000050346

System: 1,3-dioxolane + water; phases: Liquid
Fixed: Pressure, kPa = 101
Fixed: Mole fraction of 1,3-dioxolane = 0
Property: Molar volume, m3/mol (Liquid); method: Vibrating tube method
Temperature, K	Molar volume, m3/mol	uncertainty
278.15	.0000633	.0000001266
283.15	.00006388	.00000012776
288.15	.00006442	.00000012884
293.15	.00006492	.00000012984
298.15	.00006538	.00000013076
308.15	.00006636	.00000013272
318.15	.00006718	.00000013436

System: 1,3-dioxolane + water; phases: Liquid
Fixed: Pressure, kPa = 500
Fixed: Mole fraction of 1,3-dioxolane = 0
Property: Molar volume, m3/mol (Liquid); method: HTHP densimeter
Temperature, K	Molar volume, m3/mol	uncertainty
298.15	.00006542	.00000013084
318.15	.00006719	.00000013438
338.15	.000069	.000000138
358.15	.00007088	.00000014176
373.15	.00007238	.00000014476

System: tetrahydropyran + water; phases: Liquid
Fixed: Pressure, kPa = 101
Fixed: Mole fraction of tetrahydropyran = 0
Property: Molar volume, m3/mol (Liquid); method: Vibrating tube method
Temperature, K	Molar volume, m3/mol	uncertainty
278.15	.0000903	.0000000903
283.15	.00009065	.00000009065
288.15	.00009101	.00000009101
293.15	.00009133	.00000009133
298.15	.00009173	.00000009173
308.15	.00009248	.00000009248
318.15	.00009344	.00000009344

System: tetrahydropyran + water; phases: Liquid
Fixed: Pressure, kPa = 500
Fixed: Mole fraction of tetrahydropyran = 0
Property: Molar volume, m3/mol (Liquid); method: HTHP densimeter
Temperature, K	Molar volume, m3/mol	uncertainty
298.15	.00009176	.00000009176
318.15	.00009342	.00000009342
338.15	.00009549	.00000009549
358.15	.00009804	.00000009804
373.15	.00010022	.00000010022

System: 1,4-dioxane + water; phases: Liquid
Fixed: Pressure, kPa = 101
Fixed: Mole fraction of 1,4-dioxane = 0
Property: Molar volume, m3/mol (Liquid); method: Vibrating tube method
Temperature, K	Molar volume, m3/mol	uncertainty
278.15	.00007883	.00000007883
283.15	.00007942	.00000007942
288.15	.00007998	.00000007998
293.15	.00008048	.00000008048
298.15	.00008095	.00000008095
308.15	.00008185	.00000008185
318.15	.00008274	.00000008274

System: 1,4-dioxane + water; phases: Liquid
Fixed: Pressure, kPa = 500
Fixed: Mole fraction of 1,4-dioxane = 0
Property: Molar volume, m3/mol (Liquid); method: HTHP densimeter
Temperature, K	Molar volume, m3/mol	uncertainty
298.15	.000081	.000000081
318.15	.00008281	.00000008281
338.15	.00008468	.00000008468
358.15	.00008658	.00000008658
373.15	.00008815	.00000008815

System: 1,3,5-trioxane + water; phases: Liquid
Fixed: Pressure, kPa = 101
Fixed: Mole fraction of 1,3,5-trioxane = 0
Property: Molar volume, m3/mol (Liquid); method: Vibrating tube method
Temperature, K	Molar volume, m3/mol	uncertainty
278.15	.00006715	.00000006715
283.15	.00006783	.00000006783
288.15	.00006848	.00000006848
293.15	.00006906	.00000006906
298.15	.00006964	.00000006964
308.15	.0000707	.0000000707
318.15	.00007171	.00000007171

System: 1,3,5-trioxane + water; phases: Liquid
Fixed: Pressure, kPa = 500
Fixed: Mole fraction of 1,3,5-trioxane = 0
Property: Molar volume, m3/mol (Liquid); method: HTHP densimeter
Temperature, K	Molar volume, m3/mol	uncertainty
298.15	.00006968	.00000006968
318.15	.00007173	.00000007173
338.15	.00007372	.00000007372
358.15	.00007565	.00000007565
373.15	.00007719	.00000007719
