Measured thermophysical data. Energetics of neutral and deprotonated (Z)-cinnamic acid
Source: J. Chem. Thermodyn., 2016, 10.1016/j.jct.2015.12.014
Compound 1: (Z)-cinnamic acid, C9H8O2
Compound 2: carbon dioxide, CO2
Compound 3: water, H2O
Compound 4: oxygen, O2

System: (Z)-cinnamic acid; phases: Crystal, Liquid, Air at 1 atmosphere
Property: Normal melting temperature, K (Crystal); method: DSC/DTA
Normal melting temperature, K	uncertainty
340.1	.6

System: (Z)-cinnamic acid; phases: Crystal, Liquid, Air at 1 atmosphere
Property: Molar enthalpy of transition or fusion, kJ/mol (Crystal); method: DSC
Molar enthalpy of transition or fusion, kJ/mol	uncertainty
16.8	.9

System: (Z)-cinnamic acid; phases: Crystal
Fixed: Pressure, kPa = 101.325
Property: Molar heat capacity at constant pressure, J/K/mol (Crystal); method: Small sample (50 mg) scanning calorimetry
Temperature, K	Molar heat capacity at constant pressure, J/K/mol	uncertainty
257.15	155	2.325
258.15	155.9	2.3385
259.15	156	2.34
260.15	156.5	2.3475
261.15	156.9	2.3535
262.15	157.5	2.3625
263.15	158.1	2.3715
264.15	158.7	2.3805
265.15	159.1	2.3865
266.15	159.7	2.3955
267.15	160.2	2.403
268.15	160.8	2.412
269.15	161.2	2.418
270.15	161.6	2.424
271.15	162.2	2.433
272.15	163	2.445
273.15	163.3	2.4495
274.15	163.9	2.4585
275.15	164.3	2.4645
276.15	165.3	2.4795
277.15	165.8	2.487
278.15	166.2	2.493
279.15	166.7	2.5005
280.15	167.3	2.5095
281.15	167.9	2.5185
282.15	168.5	2.5275
283.15	169.1	2.5365
284.15	169.5	2.5425
285.15	170.4	2.556
286.15	170.8	2.562
287.15	171.4	2.571
288.15	171.9	2.5785
289.15	172.6	2.589
290.15	173.2	2.598
291.15	173.9	2.6085
292.15	174.5	2.6175
293.15	175.1	2.6265
294.15	175.9	2.6385
295.15	176.5	2.6475
296.15	176.9	2.6535
297.15	177.6	2.664
298.15	178.1	2.6715
299.15	178.7	2.6805
300.15	179.1	2.6865
301.15	179.9	2.6985
302.15	180.6	2.709
303.15	181.3	2.7195
304.15	182.1	2.7315
305.15	183	2.745
306.15	183.7	2.7555
307.15	184.6	2.769
308.15	185.3	2.7795
309.15	185.9	2.7885
310.15	186.8	2.802
311.15	187.9	2.8185
312.15	188.6	2.829
313.15	189.3	2.8395
314.15	190.2	2.853
315.15	191.3	2.8695
316.15	192.3	2.8845
317.15	193.5	2.9025
318.15	194.5	2.9175
319.15	195.9	2.9385
320.15	197.5	2.9625
321.15	199.1	2.9865
322.15	201.1	3.0165

System: (Z)-cinnamic acid; phases: Crystal, Gas
Property: Vapor or sublimation pressure, kPa (Crystal); method: Knudsen effusion method
Temperature, K	Vapor or sublimation pressure, kPa	uncertainty
306.21	.0000816	.000005
308.18	.0001123	.000005
310.2	.0001346	.000005
312.15	.0001819	.000005
314.14	.0002297	.000005
316.16	.0002837	.000005
318.1	.0003808	.000005
320.19	.0004592	.000005
322.05	.000572	.000005
324.08	.0007647	.000005
326.1	.0009201	.000005

Reaction: -1 (Z)-cinnamic acid + 9 carbon dioxide + 4 water + -10 oxygen
Property: Specific internal energy of reaction at constant volume, J/g
-29467.4
