Measured thermophysical data. Volumetric properties of dilute solutions of water in ethanol and water-d2 in ethanol-d1 between T = (278.15 and 318.15) K
Source: J. Chem. Thermodyn., 2012, 10.1016/j.jct.2011.10.009
Compound 1: water, H2O, purity 99.9%
Compound 2: ethanol, C2H6O, purity 99.9%
Compound 3: deuterium oxide (18O), D2O
Compound 4: ethanol-1-d, C2H5DO, purity 99.5%

System: ethanol; phases: Liquid
Fixed: Pressure, kPa = 101.325
Property: Mass density, kg/m3 (Liquid); method: Vibrating tube method
Temperature, K	Mass density, kg/m3	uncertainty
278.15	802.08	.01
288.15	793.6	.01
298.15	785.03	.01
308.15	776.35	.01
318.15	767.54	.01

System: ethanol-1-d; phases: Liquid
Fixed: Pressure, kPa = 101.325
Property: Mass density, kg/m3 (Liquid); method: Vibrating tube method
Temperature, K	Mass density, kg/m3	uncertainty
278.15	818.95	.01
288.15	810.32	.01
298.15	801.57	.01
308.15	792.68	.01
318.15	783.63	.01

System: ethanol + water; phases: Liquid
Fixed: Pressure, kPa = 101
Property: Mass density, kg/m3 (Liquid); method: Vibrating tube method
Temperature, K	Mole fraction of water	Mass density, kg/m3	uncertainty
278.15	.00099606	802.2	.01
278.15	.0021435	802.34	.01
278.15	.0041425	802.59	.01
278.15	.0067399	802.91	.01
278.15	.0092865	803.22	.01
278.15	.011889	803.54	.01
278.15	.014418	803.85	.01
278.15	.017943	804.29	.01
278.15	.021145	804.68	.01
278.15	.02506	805.17	.01
278.15	.0292	805.69	.01
278.15	.031248	805.94	.01
278.15	.033601	806.24	.01
278.15	.036609	806.61	.01
288.15	.00099606	793.72	.01
288.15	.0021435	793.86	.01
288.15	.0041425	794.1	.01
288.15	.0067399	794.42	.01
288.15	.0092865	794.73	.01
288.15	.011889	795.06	.01
288.15	.014418	795.37	.01
288.15	.017943	795.8	.01
288.15	.021145	796.2	.01
288.15	.02506	796.68	.01
288.15	.0292	797.2	.01
288.15	.031248	797.46	.01
288.15	.033601	797.75	.01
288.15	.036609	798.13	.01
298.15	.00099606	785.15	.01
298.15	.0021435	785.29	.01
298.15	.0041425	785.53	.01
298.15	.0067399	785.85	.01
298.15	.0092865	786.16	.01
298.15	.011889	786.48	.01
298.15	.014418	786.79	.01
298.15	.017943	787.22	.01
298.15	.021145	787.61	.01
298.15	.02506	788.1	.01
298.15	.0292	788.61	.01
298.15	.031248	788.87	.01
298.15	.033601	789.16	.01
298.15	.036609	789.54	.01
308.15	.00099606	776.47	.01
308.15	.0021435	776.61	.01
308.15	.0041425	776.85	.01
308.15	.0067399	777.16	.01
308.15	.0092865	777.47	.01
308.15	.011889	777.79	.01
308.15	.014418	778.09	.01
308.15	.017943	778.52	.01
308.15	.021145	778.92	.01
308.15	.02506	779.4	.01
308.15	.0292	779.91	.01
308.15	.031248	780.16	.01
308.15	.033601	780.45	.01
308.15	.036609	780.83	.01
318.15	.00099606	767.66	.01
318.15	.0021435	767.79	.01
318.15	.0041425	768.03	.01
318.15	.0067399	768.34	.01
318.15	.0092865	768.65	.01
318.15	.011889	768.96	.01
318.15	.014418	769.26	.01
318.15	.017943	769.69	.01
318.15	.021145	770.08	.01
318.15	.02506	770.56	.01
318.15	.0292	771.06	.01
318.15	.031248	771.31	.01
318.15	.033601	771.6	.01
318.15	.036609	771.97	.01

System: ethanol-1-d + deuterium oxide (18O); phases: Liquid
Fixed: Pressure, kPa = 101
Property: Mass density, kg/m3 (Liquid); method: Vibrating tube method
Temperature, K	Mole fraction of deuterium oxide (18O)	Mass density, kg/m3	uncertainty
278.15	.0010035	819.11	.01
278.15	.0016797	819.21	.01
278.15	.0030796	819.43	.01
278.15	.0051921	819.67	.01
278.15	.0081587	820.22	.01
278.15	.010893	820.65	.01
278.15	.014256	821.17	.01
278.15	.017298	821.64	.01
278.15	.02028	822.1	.01
278.15	.023252	822.56	.01
278.15	.026394	823.05	.01
278.15	.030257	823.65	.01
278.15	.034723	824.23	.01
278.15	.037225	824.72	.01
288.15	.0010035	810.48	.01
288.15	.0016797	810.58	.01
288.15	.0030796	810.8	.01
288.15	.0051921	811.12	.01
288.15	.0081587	811.58	.01
288.15	.010893	812.01	.01
288.15	.014256	812.53	.01
288.15	.017298	813	.01
288.15	.02028	813.46	.01
288.15	.023252	813.91	.01
288.15	.026394	814.4	.01
288.15	.030257	814.99	.01
288.15	.034723	815.57	.01
288.15	.037225	816.06	.01
298.15	.0010035	801.72	.01
298.15	.0016797	801.83	.01
298.15	.0030796	802.05	.01
298.15	.0051921	802.37	.01
298.15	.0081587	802.83	.01
298.15	.010893	803.25	.01
298.15	.014256	803.76	.01
298.15	.017298	804.23	.01
298.15	.02028	804.69	.01
298.15	.023252	805.14	.01
298.15	.026394	805.62	.01
298.15	.030257	806.21	.01
298.15	.034723	806.78	.01
298.15	.037225	807.27	.01
308.15	.0010035	792.83	.01
308.15	.0016797	792.94	.01
308.15	.0030796	793.15	.01
308.15	.0051921	793.47	.01
308.15	.0081587	793.93	.01
308.15	.010893	794.34	.01
308.15	.014256	794.86	.01
308.15	.017298	795.32	.01
308.15	.02028	795.77	.01
308.15	.023252	796.22	.01
308.15	.026394	796.7	.01
308.15	.030257	797.28	.01
308.15	.034723	797.85	.01
308.15	.037225	798.33	.01
318.15	.0010035	783.78	.01
318.15	.0016797	783.89	.01
318.15	.0030796	784.1	.01
318.15	.0051921	784.42	.01
318.15	.0081587	784.87	.01
318.15	.010893	785.28	.01
318.15	.014256	785.79	.01
318.15	.017298	786.25	.01
318.15	.02028	786.7	.01
318.15	.023252	787.14	.01
318.15	.026394	787.61	.01
318.15	.030257	788.19	.01
318.15	.034723	788.76	.01
318.15	.037225	789.23	.01
