Measured thermophysical data. Activity coefficients at infinite dilution of organic solutes in N-formylmorpholine and N-methylpyrrolidone from gas-liquid chromatography
Source: J. Chem. Thermodyn., 2013, 10.1016/j.jct.2013.02.006
Compound 1: morpholine, N-formyl-, C5H9NO2
Compound 2: 1-methylpyrrolidone, C5H9NO
Compound 3: pentane, C5H12, purity 98%
Compound 4: n-hexane, C6H14, purity 98%
Compound 5: n-heptane, C7H16, purity 98%
Compound 6: n-octane, C8H18, purity 98%
Compound 7: n-nonane, C9H20, purity 98%
Compound 8: 1-pentene, C5H10, purity 98%
Compound 9: 1-hexene, C6H12, purity 98%
Compound 10: 1-heptene, C7H14, purity 98%
Compound 11: 1-octene, C8H16, purity 98%
Compound 12: 1-pentyne, C5H8, purity 98%
Compound 13: 1-hexyne, C6H10, purity 98%
Compound 14: 1-heptyne, C7H12, purity 98%
Compound 15: 1-octyne, C8H14, purity 98%
Compound 16: cyclopentane, C5H10, purity 98%
Compound 17: cyclohexane, C6H12, purity 98%
Compound 18: cycloheptane, C7H14, purity 98%
Compound 19: cyclooctane, C8H16, purity 98%
Compound 20: methyl alcohol, CH4O, purity 98%
Compound 21: ethanol, C2H6O, purity 98%
Compound 22: n-propyl alcohol, C3H8O, purity 98%
Compound 23: isopropanol, C3H8O, purity 98%
Compound 24: benzene, C6H6, purity 98%
Compound 25: methylbenzene, C7H8, purity 98%
Compound 26: ethylbenzene, C8H10, purity 98%

System: pentane + morpholine, N-formyl-; phases: Liquid
Fixed: Pressure, kPa = 101
Fixed: Mole fraction of pentane = 0
Property: Activity coefficient of pentane (Liquid); method: Chromatography
Temperature, K	Activity coefficient of pentane	uncertainty
333.2	19.25	.5775
348.2	17.3	.519
363.2	15.3	.459

System: n-hexane + morpholine, N-formyl-; phases: Liquid
Fixed: Pressure, kPa = 101
Fixed: Mole fraction of n-hexane = 0
Property: Activity coefficient of n-hexane (Liquid); method: Chromatography
Temperature, K	Activity coefficient of n-hexane	uncertainty
333.2	24.6	.738
348.2	21.47	.6441
363.2	19.59	.5877

System: n-heptane + morpholine, N-formyl-; phases: Liquid
Fixed: Pressure, kPa = 101
Fixed: Mole fraction of n-heptane = 0
Property: Activity coefficient of n-heptane (Liquid); method: Chromatography
Temperature, K	Activity coefficient of n-heptane	uncertainty
333.2	31.26	.9378
348.2	27.54	.8262
363.2	25.89	.7767

System: n-octane + morpholine, N-formyl-; phases: Liquid
Fixed: Pressure, kPa = 101
Fixed: Mole fraction of n-octane = 0
Property: Activity coefficient of n-octane (Liquid); method: Chromatography
Temperature, K	Activity coefficient of n-octane	uncertainty
333.2	39.45	1.1835
348.2	34.32	1.0296
363.2	30.55	.9165

System: n-nonane + morpholine, N-formyl-; phases: Liquid
Fixed: Pressure, kPa = 101
Fixed: Mole fraction of n-nonane = 0
Property: Activity coefficient of n-nonane (Liquid); method: Chromatography
Temperature, K	Activity coefficient of n-nonane	uncertainty
333.2	50.25	1.5075
348.2	43.51	1.3053
363.2	38.18	1.1454

System: 1-pentene + morpholine, N-formyl-; phases: Liquid
Fixed: Pressure, kPa = 101
Fixed: Mole fraction of 1-pentene = 0
Property: Activity coefficient of 1-pentene (Liquid); method: Chromatography
Temperature, K	Activity coefficient of 1-pentene	uncertainty
333.2	9.97	.2991
348.2	9.43	.2829
363.2	8.61	.2583

System: 1-hexene + morpholine, N-formyl-; phases: Liquid
Fixed: Pressure, kPa = 101
Fixed: Mole fraction of 1-hexene = 0
Property: Activity coefficient of 1-hexene (Liquid); method: Chromatography
Temperature, K	Activity coefficient of 1-hexene	uncertainty
333.2	13.52	.4056
348.2	11.58	.3474
363.2	10.53	.3159

System: 1-heptene + morpholine, N-formyl-; phases: Liquid
Fixed: Pressure, kPa = 101
Fixed: Mole fraction of 1-heptene = 0
Property: Activity coefficient of 1-heptene (Liquid); method: Chromatography
Temperature, K	Activity coefficient of 1-heptene	uncertainty
333.2	15.98	.4794
348.2	14.58	.4374
363.2	13.27	.3981

System: 1-octene + morpholine, N-formyl-; phases: Liquid
Fixed: Pressure, kPa = 101
Fixed: Mole fraction of 1-octene = 0
Property: Activity coefficient of 1-octene (Liquid); method: Chromatography
Temperature, K	Activity coefficient of 1-octene	uncertainty
333.2	20.51	.6153
348.2	18.43	.5529
363.2	16.71	.5013

System: 1-pentyne + morpholine, N-formyl-; phases: Liquid
Fixed: Pressure, kPa = 101
Fixed: Mole fraction of 1-pentyne = 0
Property: Activity coefficient of 1-pentyne (Liquid); method: Chromatography
Temperature, K	Activity coefficient of 1-pentyne	uncertainty
333.2	2.56	.0768
348.2	2.58	.0774
363.2	2.38	.0714

System: 1-hexyne + morpholine, N-formyl-; phases: Liquid
Fixed: Pressure, kPa = 101
Fixed: Mole fraction of 1-hexyne = 0
Property: Activity coefficient of 1-hexyne (Liquid); method: Chromatography
Temperature, K	Activity coefficient of 1-hexyne	uncertainty
333.2	3.25	.0975
348.2	3.19	.0957
363.2	2.78	.0834

System: 1-heptyne + morpholine, N-formyl-; phases: Liquid
Fixed: Pressure, kPa = 101
Fixed: Mole fraction of 1-heptyne = 0
Property: Activity coefficient of 1-heptyne (Liquid); method: Chromatography
Temperature, K	Activity coefficient of 1-heptyne	uncertainty
333.2	3.85	.1155
348.2	3.83	.1149
363.2	3.68	.1104

System: 1-octyne + morpholine, N-formyl-; phases: Liquid
Fixed: Pressure, kPa = 101
Fixed: Mole fraction of 1-octyne = 0
Property: Activity coefficient of 1-octyne (Liquid); method: Chromatography
Temperature, K	Activity coefficient of 1-octyne	uncertainty
333.2	5.15	.1545
348.2	4.9	.147
363.2	4.65	.1395

System: cyclopentane + morpholine, N-formyl-; phases: Liquid
Fixed: Pressure, kPa = 101
Fixed: Mole fraction of cyclopentane = 0
Property: Activity coefficient of cyclopentane (Liquid); method: Chromatography
Temperature, K	Activity coefficient of cyclopentane	uncertainty
333.2	10.22	.3066
348.2	8.75	.2625
363.2	7.59	.2277

System: cyclohexane + morpholine, N-formyl-; phases: Liquid
Fixed: Pressure, kPa = 101
Fixed: Mole fraction of cyclohexane = 0
Property: Activity coefficient of cyclohexane (Liquid); method: Chromatography
Temperature, K	Activity coefficient of cyclohexane	uncertainty
333.2	13.77	.4131
348.2	12.27	.3681
363.2	11	.33

System: cycloheptane + morpholine, N-formyl-; phases: Liquid
Fixed: Pressure, kPa = 101
Fixed: Mole fraction of cycloheptane = 0
Property: Activity coefficient of cycloheptane (Liquid); method: Chromatography
Temperature, K	Activity coefficient of cycloheptane	uncertainty
333.2	15.43	.4629
348.2	12.72	.3816
363.2	10.46	.3138

System: cyclooctane + morpholine, N-formyl-; phases: Liquid
Fixed: Pressure, kPa = 101
Fixed: Mole fraction of cyclooctane = 0
Property: Activity coefficient of cyclooctane (Liquid); method: Chromatography
Temperature, K	Activity coefficient of cyclooctane	uncertainty
333.2	17.68	.5304
348.2	14.47	.4341
363.2	11.89	.3567

System: methyl alcohol + morpholine, N-formyl-; phases: Liquid
Fixed: Pressure, kPa = 101
Fixed: Mole fraction of methyl alcohol = 0
Property: Activity coefficient of methyl alcohol (Liquid); method: Chromatography
Temperature, K	Activity coefficient of methyl alcohol	uncertainty
333.2	.852	.02556
348.2	.847	.02541
363.2	.706	.02118

System: ethanol + morpholine, N-formyl-; phases: Liquid
Fixed: Pressure, kPa = 101
Fixed: Mole fraction of ethanol = 0
Property: Activity coefficient of ethanol (Liquid); method: Chromatography
Temperature, K	Activity coefficient of ethanol	uncertainty
333.2	1.204	.03612
348.2	1.141	.03423
363.2	.914	.02742

System: n-propyl alcohol + morpholine, N-formyl-; phases: Liquid
Fixed: Pressure, kPa = 101
Fixed: Mole fraction of n-propyl alcohol = 0
Property: Activity coefficient of n-propyl alcohol (Liquid); method: Chromatography
Temperature, K	Activity coefficient of n-propyl alcohol	uncertainty
333.2	1.246	.03738
348.2	1.153	.03459
363.2	.913	.02739

System: isopropanol + morpholine, N-formyl-; phases: Liquid
Fixed: Pressure, kPa = 101
Fixed: Mole fraction of isopropanol = 0
Property: Activity coefficient of isopropanol (Liquid); method: Chromatography
Temperature, K	Activity coefficient of isopropanol	uncertainty
333.2	1.46	.0438
348.2	1.289	.03867
363.2	.933	.02799

System: benzene + morpholine, N-formyl-; phases: Liquid
Fixed: Pressure, kPa = 101
Fixed: Mole fraction of benzene = 0
Property: Activity coefficient of benzene (Liquid); method: Chromatography
Temperature, K	Activity coefficient of benzene	uncertainty
333.2	1.91	.0573
348.2	1.82	.0546
363.2	1.81	.0543

System: methylbenzene + morpholine, N-formyl-; phases: Liquid
Fixed: Pressure, kPa = 101
Fixed: Mole fraction of methylbenzene = 0
Property: Activity coefficient of methylbenzene (Liquid); method: Chromatography
Temperature, K	Activity coefficient of methylbenzene	uncertainty
333.2	2.71	.0813
348.2	4.04	.1212
363.2	2.55	.0765

System: ethylbenzene + morpholine, N-formyl-; phases: Liquid
Fixed: Pressure, kPa = 101
Fixed: Mole fraction of ethylbenzene = 0
Property: Activity coefficient of ethylbenzene (Liquid); method: Chromatography
Temperature, K	Activity coefficient of ethylbenzene	uncertainty
333.2	3.46	.1038
348.2	3.41	.1023
363.2	3.21	.0963

System: pentane + 1-methylpyrrolidone; phases: Liquid
Fixed: Pressure, kPa = 101
Fixed: Mole fraction of pentane = 0
Property: Activity coefficient of pentane (Liquid); method: Chromatography
Temperature, K	Activity coefficient of pentane	uncertainty
333.2	8.32	.2496
348.2	8.11	.2433
363.2	7.54	.2262

System: n-hexane + 1-methylpyrrolidone; phases: Liquid
Fixed: Pressure, kPa = 101
Fixed: Mole fraction of n-hexane = 0
Property: Activity coefficient of n-hexane (Liquid); method: Chromatography
Temperature, K	Activity coefficient of n-hexane	uncertainty
333.2	9.51	.2853
348.2	9.19	.2757
363.2	8.51	.2553

System: n-heptane + 1-methylpyrrolidone; phases: Liquid
Fixed: Pressure, kPa = 101
Fixed: Mole fraction of n-heptane = 0
Property: Activity coefficient of n-heptane (Liquid); method: Chromatography
Temperature, K	Activity coefficient of n-heptane	uncertainty
333.2	11.43	.3429
348.2	10.74	.3222
363.2	10	.3

System: n-octane + 1-methylpyrrolidone; phases: Liquid
Fixed: Pressure, kPa = 101
Fixed: Mole fraction of n-octane = 0
Property: Activity coefficient of n-octane (Liquid); method: Chromatography
Temperature, K	Activity coefficient of n-octane	uncertainty
333.2	13.76	.4128
348.2	13.21	.3963
363.2	10.59	.3177

System: n-nonane + 1-methylpyrrolidone; phases: Liquid
Fixed: Pressure, kPa = 101
Fixed: Mole fraction of n-nonane = 0
Property: Activity coefficient of n-nonane (Liquid); method: Chromatography
Temperature, K	Activity coefficient of n-nonane	uncertainty
333.2	16.67	.5001
348.2	14.86	.4458
363.2	12.02	.3606

System: 1-pentene + 1-methylpyrrolidone; phases: Liquid
Fixed: Pressure, kPa = 101
Fixed: Mole fraction of 1-pentene = 0
Property: Activity coefficient of 1-pentene (Liquid); method: Chromatography
Temperature, K	Activity coefficient of 1-pentene	uncertainty
333.2	4.75	.1425
348.2	4.84	.1452
363.2	4.99	.1497

System: 1-hexene + 1-methylpyrrolidone; phases: Liquid
Fixed: Pressure, kPa = 101
Fixed: Mole fraction of 1-hexene = 0
Property: Activity coefficient of 1-hexene (Liquid); method: Chromatography
Temperature, K	Activity coefficient of 1-hexene	uncertainty
333.2	5.51	.1653
348.2	5.44	.1632
363.2	5.57	.1671

System: 1-heptene + 1-methylpyrrolidone; phases: Liquid
Fixed: Pressure, kPa = 101
Fixed: Mole fraction of 1-heptene = 0
Property: Activity coefficient of 1-heptene (Liquid); method: Chromatography
Temperature, K	Activity coefficient of 1-heptene	uncertainty
333.2	6.37	.1911
348.2	6.24	.1872
363.2	6.28	.1884

System: 1-octene + 1-methylpyrrolidone; phases: Liquid
Fixed: Pressure, kPa = 101
Fixed: Mole fraction of 1-octene = 0
Property: Activity coefficient of 1-octene (Liquid); method: Chromatography
Temperature, K	Activity coefficient of 1-octene	uncertainty
333.2	8.39	.2517
348.2	7.6	.228
363.2	6.7	.201

System: 1-pentyne + 1-methylpyrrolidone; phases: Liquid
Fixed: Pressure, kPa = 101
Fixed: Mole fraction of 1-pentyne = 0
Property: Activity coefficient of 1-pentyne (Liquid); method: Chromatography
Temperature, K	Activity coefficient of 1-pentyne	uncertainty
333.2	1.27	.0381
348.2	1.41	.0423
363.2	1.63	.0489

System: 1-hexyne + 1-methylpyrrolidone; phases: Liquid
Fixed: Pressure, kPa = 101
Fixed: Mole fraction of 1-hexyne = 0
Property: Activity coefficient of 1-hexyne (Liquid); method: Chromatography
Temperature, K	Activity coefficient of 1-hexyne	uncertainty
333.2	1.47	.0441
348.2	1.57	.0471
363.2	1.77	.0531

System: 1-heptyne + 1-methylpyrrolidone; phases: Liquid
Fixed: Pressure, kPa = 101
Fixed: Mole fraction of 1-heptyne = 0
Property: Activity coefficient of 1-heptyne (Liquid); method: Chromatography
Temperature, K	Activity coefficient of 1-heptyne	uncertainty
333.2	1.72	.0516
348.2	1.79	.0537
363.2	1.92	.0576

System: 1-octyne + 1-methylpyrrolidone; phases: Liquid
Fixed: Pressure, kPa = 101
Fixed: Mole fraction of 1-octyne = 0
Property: Activity coefficient of 1-octyne (Liquid); method: Chromatography
Temperature, K	Activity coefficient of 1-octyne	uncertainty
333.2	2.07	.0621
348.2	2.15	.0645
363.2	2.16	.0648

System: cyclopentane + 1-methylpyrrolidone; phases: Liquid
Fixed: Pressure, kPa = 101
Fixed: Mole fraction of cyclopentane = 0
Property: Activity coefficient of cyclopentane (Liquid); method: Chromatography
Temperature, K	Activity coefficient of cyclopentane	uncertainty
333.2	5.16	.1548
348.2	4.68	.1404
363.2	4.55	.1365

System: cyclohexane + 1-methylpyrrolidone; phases: Liquid
Fixed: Pressure, kPa = 101
Fixed: Mole fraction of cyclohexane = 0
Property: Activity coefficient of cyclohexane (Liquid); method: Chromatography
Temperature, K	Activity coefficient of cyclohexane	uncertainty
333.2	6.32	.1896
348.2	5.83	.1749
363.2	5.41	.1623

System: cycloheptane + 1-methylpyrrolidone; phases: Liquid
Fixed: Pressure, kPa = 101
Fixed: Mole fraction of cycloheptane = 0
Property: Activity coefficient of cycloheptane (Liquid); method: Chromatography
Temperature, K	Activity coefficient of cycloheptane	uncertainty
333.2	7.51	.2253
348.2	6.71	.2013
363.2	6.8	.204

System: cyclooctane + 1-methylpyrrolidone; phases: Liquid
Fixed: Pressure, kPa = 101
Fixed: Mole fraction of cyclooctane = 0
Property: Activity coefficient of cyclooctane (Liquid); method: Chromatography
Temperature, K	Activity coefficient of cyclooctane	uncertainty
333.2	8.23	.2469
348.2	7.62	.2286
363.2	6.06	.1818

System: methyl alcohol + 1-methylpyrrolidone; phases: Liquid
Fixed: Pressure, kPa = 101
Fixed: Mole fraction of methyl alcohol = 0
Property: Activity coefficient of methyl alcohol (Liquid); method: Chromatography
Temperature, K	Activity coefficient of methyl alcohol	uncertainty
333.2	.482	.01446
348.2	.556	.01668
363.2	.511	.01533

System: ethanol + 1-methylpyrrolidone; phases: Liquid
Fixed: Pressure, kPa = 101
Fixed: Mole fraction of ethanol = 0
Property: Activity coefficient of ethanol (Liquid); method: Chromatography
Temperature, K	Activity coefficient of ethanol	uncertainty
333.2	.606	.01818
348.2	.605	.01815
363.2	.618	.01854

System: n-propyl alcohol + 1-methylpyrrolidone; phases: Liquid
Fixed: Pressure, kPa = 101
Fixed: Mole fraction of n-propyl alcohol = 0
Property: Activity coefficient of n-propyl alcohol (Liquid); method: Chromatography
Temperature, K	Activity coefficient of n-propyl alcohol	uncertainty
333.2	.537	.01611
348.2	.552	.01656
363.2	.548	.01644

System: isopropanol + 1-methylpyrrolidone; phases: Liquid
Fixed: Pressure, kPa = 101
Fixed: Mole fraction of isopropanol = 0
Property: Activity coefficient of isopropanol (Liquid); method: Chromatography
Temperature, K	Activity coefficient of isopropanol	uncertainty
333.2	.627	.01881
348.2	.639	.01917
363.2	.632	.01896

System: benzene + 1-methylpyrrolidone; phases: Liquid
Fixed: Pressure, kPa = 101
Fixed: Mole fraction of benzene = 0
Property: Activity coefficient of benzene (Liquid); method: Chromatography
Temperature, K	Activity coefficient of benzene	uncertainty
333.2	1.1	.033
348.2	1.14	.0342
363.2	1.1	.033

System: methylbenzene + 1-methylpyrrolidone; phases: Liquid
Fixed: Pressure, kPa = 101
Fixed: Mole fraction of methylbenzene = 0
Property: Activity coefficient of methylbenzene (Liquid); method: Chromatography
Temperature, K	Activity coefficient of methylbenzene	uncertainty
333.2	1.39	.0417
348.2	1.35	.0405
363.2	1.42	.0426

System: ethylbenzene + 1-methylpyrrolidone; phases: Liquid
Fixed: Pressure, kPa = 101
Fixed: Mole fraction of ethylbenzene = 0
Property: Activity coefficient of ethylbenzene (Liquid); method: Chromatography
Temperature, K	Activity coefficient of ethylbenzene	uncertainty
333.2	1.73	.0519
348.2	1.83	.0549
363.2	1.61	.0483
