Measured thermophysical data. Equilibrium surface tension and the interaction energy of DMSO with tert-butyl alcohol or iso-amyl alcohol at various temperatures
Source: J. Chem. Thermodyn., 2014, 10.1016/j.jct.2014.06.005
Compound 1: dimethyl sulfoxide, C2H6OS, purity 99.5%
Compound 2: tert-butyl alcohol, C4H10O, purity 99.5%
Compound 3: isoamyl alcohol, C5H12O, purity 98.5%

System: dimethyl sulfoxide; phases: Liquid, Air at 1 atmosphere
Property: Surface tension liquid-gas, N/m (Liquid); method: Ring tensiometer
Temperature, K	Surface tension liquid-gas, N/m	uncertainty
298.15	.042282	.0005
308.15	.041175	.0005
318.15	.04014	.0005
328.15	.038928	.0005

System: tert-butyl alcohol; phases: Liquid, Air at 1 atmosphere
Property: Surface tension liquid-gas, N/m (Liquid); method: Ring tensiometer
Temperature, K	Surface tension liquid-gas, N/m	uncertainty
298.15	.019957	.0005
308.15	.019258	.0005
318.15	.018349	.0005
328.15	.017618	.0005

System: isoamyl alcohol; phases: Liquid, Air at 1 atmosphere
Property: Surface tension liquid-gas, N/m (Liquid); method: Ring tensiometer
Temperature, K	Surface tension liquid-gas, N/m	uncertainty
298.15	.022825	.0005
308.15	.022024	.0005
318.15	.021305	.0005
328.15	.020489	.0005

System: dimethyl sulfoxide + tert-butyl alcohol; phases: Liquid, Air at 1 atmosphere
Property: Surface tension liquid-gas, N/m (Liquid); method: Ring tensiometer
Temperature, K	Mole fraction of tert-butyl alcohol	Surface tension liquid-gas, N/m	uncertainty
298.15	.0183	.039247	.0005
298.15	.0361	.036854	.0005
298.15	.0695	.034201	.0005
298.15	.1008	.032359	.0005
298.15	.1301	.031035	.0005
298.15	.1832	.029194	.0005
298.15	.2302	.028079	.0005
298.15	.3096	.026306	.0005
298.15	.4022	.024985	.0005
298.15	.4928	.023725	.0005
298.15	.5736	.022873	.0005
298.15	.6322	.02219	.0005
298.15	.6767	.021719	.0005
298.15	.7115	.021508	.0005
298.15	.8511	.020644	.0005
308.15	.0183	.038291	.0005
308.15	.0361	.036013	.0005
308.15	.0695	.033389	.0005
308.15	.1008	.031539	.0005
308.15	.1301	.030171	.0005
308.15	.1832	.028353	.0005
308.15	.2302	.027235	.0005
308.15	.3096	.025507	.0005
308.15	.4022	.024208	.0005
308.15	.4928	.023021	.0005
308.15	.5736	.022012	.0005
308.15	.6322	.021404	.0005
308.15	.6767	.021021	.0005
308.15	.7115	.020849	.0005
308.15	.8511	.019923	.0005
318.15	.0183	.037564	.0005
318.15	.0361	.035317	.0005
318.15	.0695	.032734	.0005
318.15	.1008	.030776	.0005
318.15	.1301	.029529	.0005
318.15	.1832	.027714	.0005
318.15	.2302	.026527	.0005
318.15	.3096	.024959	.0005
318.15	.4022	.023686	.0005
318.15	.4928	.022371	.0005
318.15	.5736	.021357	.0005
318.15	.6322	.020851	.0005
318.15	.6767	.020467	.0005
318.15	.7115	.020179	.0005
318.15	.8511	.019031	.0005
328.15	.0183	.03651	.0005
328.15	.0361	.034282	.0005
328.15	.0695	.031663	.0005
328.15	.1008	.029891	.0005
328.15	.1301	.028543	.0005
328.15	.1832	.026826	.0005
328.15	.2302	.025712	.0005
328.15	.3096	.02417	.0005
328.15	.4022	.022856	.0005
328.15	.4928	.021633	.0005
328.15	.5736	.020627	.0005
328.15	.6322	.020056	.0005
328.15	.6767	.019713	.0005
328.15	.7115	.019376	.0005
328.15	.8511	.018256	.0005
298.15	0	.042282	.0005
308.15	0	.041175	.0005
318.15	0	.04014	.0005
328.15	0	.038928	.0005
298.15	1	.019957	.0005
308.15	1	.019258	.0005
318.15	1	.018349	.0005
328.15	1	.017618	.0005

System: dimethyl sulfoxide + isoamyl alcohol; phases: Liquid, Air at 1 atmosphere
Property: Surface tension liquid-gas, N/m (Liquid); method: Ring tensiometer
Temperature, K	Mole fraction of isoamyl alcohol	Surface tension liquid-gas, N/m	uncertainty
298.15	.0033	.041601	.0005
298.15	.0065	.040981	.0005
298.15	.0129	.040068	.0005
298.15	.0255	.0385	.0005
298.15	.0377	.037321	.0005
298.15	.0783	.03425	.0005
298.15	.1307	.031962	.0005
298.15	.1774	.030507	.0005
298.15	.2572	.028716	.0005
298.15	.323	.027655	.0005
298.15	.378	.026868	.0005
298.15	.4456	.025997	.0005
298.15	.4999	.025542	.0005
298.15	.5578	.025002	.0005
298.15	.6036	.024542	.0005
298.15	.6491	.024137	.0005
298.15	.6851	.02381	.0005
298.15	.786	.023421	.0005
298.15	.8875	.023158	.0005
298.15	.9511	.022945	.0005
308.15	.0033	.040665	.0005
308.15	.0065	.040124	.0005
308.15	.0129	.039088	.0005
308.15	.0255	.037776	.0005
308.15	.0377	.036798	.0005
308.15	.0783	.033777	.0005
308.15	.1307	.031488	.0005
308.15	.1774	.030005	.0005
308.15	.2572	.028056	.0005
308.15	.323	.027063	.0005
308.15	.378	.026281	.0005
308.15	.4456	.025475	.0005
308.15	.4999	.024813	.0005
308.15	.5578	.024226	.0005
308.15	.6036	.023781	.0005
308.15	.6491	.023363	.0005
308.15	.6851	.023108	.0005
308.15	.786	.022688	.0005
308.15	.8875	.022415	.0005
308.15	.9511	.022201	.0005
318.15	.0033	.039647	.0005
318.15	.0065	.03919	.0005
318.15	.0129	.038421	.0005
318.15	.0255	.037051	.0005
318.15	.0377	.035855	.0005
318.15	.0783	.032994	.0005
318.15	.1307	.030903	.0005
318.15	.1774	.029393	.0005
318.15	.2572	.027389	.0005
318.15	.323	.026373	.0005
318.15	.378	.025588	.0005
318.15	.4456	.024777	.0005
318.15	.4999	.024058	.0005
318.15	.5578	.023513	.0005
318.15	.6036	.022994	.0005
318.15	.6491	.022698	.0005
318.15	.6851	.022458	.0005
318.15	.786	.022008	.0005
318.15	.8875	.021635	.0005
318.15	.9511	.021458	.0005
328.15	.0033	.03838	.0005
328.15	.0065	.037832	.0005
328.15	.0129	.037084	.0005
328.15	.0255	.035842	.0005
328.15	.0377	.034865	.0005
328.15	.0783	.03237	.0005
328.15	.1307	.030175	.0005
328.15	.1774	.02879	.0005
328.15	.2572	.026798	.0005
328.15	.323	.025598	.0005
328.15	.378	.024913	.0005
328.15	.4456	.02398	.0005
328.15	.4999	.023386	.0005
328.15	.5578	.02281	.0005
328.15	.6036	.022186	.0005
328.15	.6491	.021816	.0005
328.15	.6851	.021506	.0005
328.15	.786	.021155	.0005
328.15	.8875	.020894	.0005
328.15	.9511	.020685	.0005
298.15	0	.042282	.0005
308.15	0	.041175	.0005
318.15	0	.04014	.0005
328.15	0	.038928	.0005
298.15	1	.022825	.0005
308.15	1	.022024	.0005
318.15	1	.021305	.0005
328.15	1	.020489	.0005
