Measured thermophysical data. Salting-out behaviour of 1-butyl-3-methylimidazolium bromide, [C4mim][Br], ionic liquid on aqueous L-serine solutions at T = 298.15 K
Source: J. Chem. Thermodyn., 2015, 10.1016/j.jct.2014.11.014
Compound 1: L-serine, C3H7NO3, purity 99%
Compound 2: 1-butyl-3-methylimidazolium bromide, C8H15BrN2, purity 98%
Compound 3: water, H2O

System: L-serine + water + 1-butyl-3-methylimidazolium bromide; phases: Liquid
Fixed: Pressure, kPa = 100
Fixed: Temperature, K = 298.15
Property: Osmotic coefficient (Liquid); method: Isopiestic method
Molality, mol/kg of 1-butyl-3-methylimidazolium bromide	Molality, mol/kg of L-serine	Osmotic coefficient	uncertainty
.6482	0	.771	.005
.4348	.2334	.877	.005
.2542	.5089	.906	.005
0	1.0138	.986	.005
1.3436	0	.742	.005
.9038	.5048	.823	.005
.5878	.9658	.863	.005
0	2.2761	.876	.005
1.7063	0	.734	.005
1.1563	.5914	.83	.005
.736	1.1935	.863	.005
0	2.9307	.855	.005
1.8688	0	.731	.005
1.244	.5627	.926	.005
.6526	1.3278	.895	.005
0	3.1206	.875	.005
1.9208	0	.726	.005
1.2425	.6938	.839	.005
.8144	1.3258	.877	.005
0	3.2007	.872	.005
2.0339	0	.729	.005
1.3642	.6164	.893	.005
.7351	1.4952	.887	.005
0	3.445	.861	.005
2.2469	0	.719	.005
1.4867	.6717	.926	.005
.7733	1.5729	.887	.005
0	3.6386	.889	.005

System: L-serine + water + 1-butyl-3-methylimidazolium bromide; phases: Liquid, Crystal
Fixed: Pressure, kPa = 85.5
Fixed: Temperature, K = 298.15
Property: Mass ratio of solute to solvent of L-serine (Liquid); method: gravimetric method
Molality, mol/kg of 1-butyl-3-methylimidazolium bromide	Mass ratio of solute to solvent of L-serine	uncertainty
.1578	.4102	.0005
.3056	.3993	.0005
.4485	.3786	.0005
.6021	.367	.0005
.8	.3378	.0005
.9758	.3339	.0005

System: water + 1-butyl-3-methylimidazolium bromide; phases: Liquid
Property: Osmotic coefficient (Liquid); method: Isopiestic method
Molality, mol/kg of 1-butyl-3-methylimidazolium bromide	Pressure, kPa	Temperature, K	Osmotic coefficient	uncertainty
.6482	100	298.15	.771	.005
1.3436	100	298.15	.742	.005
1.7063	100	298.15	.734	.005
1.8688	100	298.15	.731	.005
1.9208	100	298.15	.726	.005
2.0339	100	298.15	.729	.005
2.2469	100	298.15	.719	.005

System: L-serine + water; phases: Liquid
Property: Osmotic coefficient (Liquid); method: Isopiestic method
Molality, mol/kg of L-serine	Pressure, kPa	Temperature, K	Osmotic coefficient	uncertainty
1.0138	100	298.15	.986	.005
2.2761	100	298.15	.876	.005
2.9307	100	298.15	.855	.005
3.1206	100	298.15	.875	.005
3.2007	100	298.15	.872	.005
3.445	100	298.15	.861	.005
3.6386	100	298.15	.889	.005
