Measured thermophysical data. Excess enthalpies of ternary mixtures of (oxygenated additives + aromatic hydrocarbon) mixtures in fuels and bio-fuels: (Dibutyl-ether + 1-propanol + benzene), or toluene, at T = (298.15 and 313.15) K
Source: J. Chem. Thermodyn., 2015, 10.1016/j.jct.2015.01.003
Compound 1: dibutyl ether, C8H18O, purity 99.3%
Compound 2: 1-propanol, C3H8O, purity 99.9%
Compound 3: benzene, C6H6, purity 99.9%
Compound 4: toluene, C7H8, purity 99.9%

System: 1-propanol + benzene; phases: Liquid
Fixed: Pressure, kPa = 100
Property: Excess molar enthalpy (molar enthalpy of mixing), kJ/mol (Liquid); method: Flow calorimetry
Temperature, K	Mole fraction of benzene	Excess molar enthalpy (molar enthalpy of mixing), kJ/mol	uncertainty
298.15	.0492	.106	.01
298.15	.0993	.219	.01
298.15	.1503	.334	.01
298.15	.2006	.444	.01
298.15	.2499	.551	.01
298.15	.3001	.652	.01
298.15	.3493	.745	.01
298.15	.3994	.83	.01
298.15	.4505	.906	.01
298.15	.5004	.968	.01
298.15	.5491	1.018	.01
298.15	.5987	1.051	.01
298.15	.6492	1.07	.01
298.15	.7006	1.067	.01
298.15	.7507	1.041	.01
298.15	.7994	.99	.01
298.15	.8489	.906	.01
298.15	.8992	.768	.01
298.15	.9504	.535	.01
313.15	.0493	.136	.01
313.15	.0995	.277	.01
313.15	.1506	.42	.01
313.15	.2009	.555	.01
313.15	.2503	.678	.01
313.15	.3005	.798	.01
313.15	.3498	.906	.01
313.15	.3999	1.006	.01
313.15	.451	1.095	.01
313.15	.5009	1.165	.01
313.15	.5497	1.218	.01
313.15	.5993	1.253	.01
313.15	.6497	1.267	.01
313.15	.701	1.257	.01
313.15	.7511	1.219	.01
313.15	.7997	1.154	.01
313.15	.8491	1.046	.01
313.15	.8994	.875	.01
313.15	.9505	.585	.01

System: 1-propanol + toluene; phases: Liquid
Fixed: Pressure, kPa = 100
Property: Excess molar enthalpy (molar enthalpy of mixing), kJ/mol (Liquid); method: Flow calorimetry
Temperature, K	Mole fraction of toluene	Excess molar enthalpy (molar enthalpy of mixing), kJ/mol	uncertainty
298.15	.0503	.1	.01
298.15	.0998	.204	.01
298.15	.1497	.306	.01
298.15	.2	.41	.01
298.15	.2506	.509	.01
298.15	.2997	.601	.01
298.15	.3506	.69	.01
298.15	.3997	.767	.01
298.15	.4505	.839	.01
298.15	.5012	.897	.01
298.15	.5495	.943	.01
298.15	.5993	.976	.01
298.15	.651	.996	.01
298.15	.6997	.997	.01
298.15	.7501	.978	.01
298.15	.7996	.933	.01
298.15	.8506	.858	.01
298.15	.9008	.737	.01
298.15	.9496	.528	.01
313.15	.0503	.142	.01
313.15	.0998	.285	.01
313.15	.1497	.416	.01
313.15	.2001	.555	.01
313.15	.2507	.684	.01
313.15	.2997	.801	.01
313.15	.3507	.91	.01
313.15	.3998	.994	.01
313.15	.4506	1.078	.01
313.15	.5013	1.143	.01
313.15	.5495	1.191	.01
313.15	.5995	1.224	.01
313.15	.651	1.241	.01
313.15	.6998	1.237	.01
313.15	.7501	1.203	.01
313.15	.7996	1.143	.01
313.15	.8507	1.039	.01
313.15	.9007	.877	.01
313.15	.9496	.6	.01

System: 1-propanol + benzene + dibutyl ether; phases: Liquid
Fixed: Pressure, kPa = 100
Property: Molar enthalpy of mixing with solvent, kJ/mol of benzene (Liquid); method: Flow calorimetry
Temperature, K	Mole fraction of benzene	Solvent: Mole fraction of 1-propanol	Molar enthalpy of mixing with solvent, kJ/mol of benzene	uncertainty
298.15	.9504	.8	.454	.01
298.15	.9006	.8	.664	.01
298.15	.8504	.8	.784	.01
298.15	.8	.8	.857	.01
298.15	.7004	.8	.916	.01
298.15	.5999	.8	.894	.01
298.15	.5003	.8	.817	.01
298.15	.3998	.8	.698	.01
298.15	.3003	.8	.549	.01
298.15	.1998	.8	.375	.01
298.15	.1004	.8	.19	.01
298.15	.9503	.6	.375	.01
298.15	.8992	.6	.565	.01
298.15	.8503	.6	.668	.01
298.15	.8	.6	.73	.01
298.15	.6993	.6	.778	.01
298.15	.5992	.6	.758	.01
298.15	.5002	.6	.691	.01
298.15	.4006	.6	.591	.01
298.15	.3008	.6	.464	.01
298.15	.201	.6	.321	.01
298.15	.099	.6	.16	.01
298.15	.9501	.4	.282	.01
298.15	.8993	.4	.449	.01
298.15	.8506	.4	.542	.01
298.15	.7997	.4	.601	.01
298.15	.6997	.4	.647	.01
298.15	.6001	.4	.633	.01
298.15	.5003	.4	.579	.01
298.15	.399	.4	.494	.01
298.15	.299	.4	.389	.01
298.15	.1991	.4	.268	.01
298.15	.1001	.4	.137	.01
298.15	.9498	.2001	.184	.01
298.15	.9001	.2001	.313	.01
298.15	.8498	.2001	.398	.01
298.15	.7993	.2001	.453	.01
298.15	.7001	.2001	.505	.01
298.15	.5998	.2001	.503	.01
298.15	.5005	.2001	.464	.01
298.15	.3991	.2001	.4	.01
298.15	.2998	.2001	.317	.01
298.15	.1989	.2001	.219	.01
298.15	.1006	.2001	.115	.01
313.15	.9007	.8001	.747	.01
313.15	.8003	.8001	.99	.01
313.15	.7008	.8001	1.068	.01
313.15	.6003	.8001	1.051	.01
313.15	.5007	.8001	.968	.01
313.15	.4002	.8001	.833	.01
313.15	.3006	.8001	.658	.01
313.15	.2001	.8001	.453	.01
313.15	.1505	.8001	.344	.01
313.15	.1006	.8001	.232	.01
313.15	.0504	.8001	.116	.01
313.15	.8995	.6	.617	.01
313.15	.8003	.6	.822	.01
313.15	.6997	.6	.885	.01
313.15	.5996	.6	.866	.01
313.15	.5506	.6	.836	.01
313.15	.5006	.6	.794	.01
313.15	.4493	.6	.74	.01
313.15	.401	.6	.68	.01
313.15	.3012	.6	.537	.01
313.15	.2013	.6	.371	.01
313.15	.0992	.6	.187	.01
313.15	.8994	.3999	.467	.01
313.15	.8	.3999	.649	.01
313.15	.7	.3999	.707	.01
313.15	.6005	.3999	.694	.01
313.15	.5008	.3999	.637	.01
313.15	.3994	.3999	.544	.01
313.15	.2993	.3999	.429	.01
313.15	.1993	.3999	.296	.01
313.15	.1493	.3999	.225	.01
313.15	.1003	.3999	.152	.01
313.15	.0495	.3999	.076	.01
313.15	.9003	.1998	.3	.01
313.15	.7996	.1998	.452	.01
313.15	.7005	.1998	.51	.01
313.15	.6004	.1998	.512	.01
313.15	.5009	.1998	.475	.01
313.15	.3995	.1998	.41	.01
313.15	.3001	.1998	.326	.01
313.15	.1992	.1998	.225	.01
313.15	.1496	.1998	.172	.01
313.15	.1007	.1998	.117	.01
313.15	.0498	.1998	.057	.01

System: 1-propanol + toluene + dibutyl ether; phases: Liquid
Fixed: Pressure, kPa = 100
Property: Molar enthalpy of mixing with solvent, kJ/mol of toluene (Liquid); method: Flow calorimetry
Temperature, K	Mole fraction of toluene	Solvent: Mole fraction of 1-propanol	Molar enthalpy of mixing with solvent, kJ/mol of toluene	uncertainty
298.15	.9566	.8	.44	.01
298.15	.9111	.8	.632	.01
298.15	.8676	.8	.73	.01
298.15	.822	.8	.791	.01
298.15	.7286	.8	.839	.01
298.15	.6331	.8	.818	.01
298.15	.5353	.8	.748	.01
298.15	.4353	.8	.644	.01
298.15	.331	.8	.507	.01
298.15	.2244	.8	.35	.01
298.15	.1134	.8	.177	.01
298.15	.9507	.6	.337	.01
298.15	.8993	.6	.496	.01
298.15	.8494	.6	.575	.01
298.15	.7993	.6	.615	.01
298.15	.7001	.6	.634	.01
298.15	.5998	.6	.602	.01
298.15	.5003	.6	.539	.01
298.15	.3996	.6	.452	.01
298.15	.2999	.6	.35	.01
298.15	.201	.6	.239	.01
298.15	.1011	.6	.12	.01
298.15	.9493	.3999	.236	.01
298.15	.9008	.3999	.356	.01
298.15	.8494	.3999	.425	.01
298.15	.8003	.3999	.456	.01
298.15	.7006	.3999	.469	.01
298.15	.6001	.3999	.445	.01
298.15	.4992	.3999	.394	.01
298.15	.4	.3999	.33	.01
298.15	.301	.3999	.256	.01
298.15	.2	.3999	.173	.01
298.15	.0996	.3999	.087	.01
298.15	.9496	.2	.122	.01
298.15	.9	.2	.199	.01
298.15	.85	.2	.248	.01
298.15	.7997	.2	.275	.01
298.15	.6998	.2	.292	.01
298.15	.5998	.2	.28	.01
298.15	.5003	.2	.252	.01
298.15	.4001	.2	.211	.01
298.15	.2998	.2	.164	.01
298.15	.2001	.2	.112	.01
298.15	.0991	.2	.055	.01
313.15	.9566	.8	.478	.01
313.15	.9111	.8	.73	.01
313.15	.8675	.8	.862	.01
313.15	.822	.8	.945	.01
313.15	.7287	.8	1.022	.01
313.15	.6332	.8	1.011	.01
313.15	.5354	.8	.942	.01
313.15	.4355	.8	.826	.01
313.15	.3311	.8	.663	.01
313.15	.2245	.8	.461	.01
313.15	.1134	.8	.24	.01
313.15	.8993	.6001	.575	.01
313.15	.7993	.6001	.745	.01
313.15	.7001	.6001	.786	.01
313.15	.5998	.6001	.757	.01
313.15	.5003	.6001	.688	.01
313.15	.3997	.6001	.586	.01
313.15	.2999	.6001	.46	.01
313.15	.2011	.6001	.319	.01
313.15	.1011	.6001	.164	.01
313.15	.9493	.4	.246	.01
313.15	.9008	.4	.393	.01
313.15	.8494	.4	.488	.01
313.15	.8003	.4	.537	.01
313.15	.7006	.4	.57	.01
313.15	.6002	.4	.548	.01
313.15	.4992	.4	.493	.01
313.15	.4001	.4	.418	.01
313.15	.301	.4	.327	.01
313.15	.2001	.4	.224	.01
313.15	.0996	.4	.114	.01
313.15	.9496	.2	.12	.01
313.15	.9001	.2	.207	.01
313.15	.8501	.2	.269	.01
313.15	.7998	.2	.305	.01
313.15	.7	.2	.336	.01
313.15	.5998	.2	.33	.01
313.15	.5004	.2	.302	.01
313.15	.4002	.2	.257	.01
313.15	.2998	.2	.202	.01
313.15	.2002	.2	.14	.01
313.15	.0991	.2	.071	.01
