Measured thermophysical data. (Liquid + liquid) equilibria in {water + acrylic acid + (1-butanol, or 2-butanol, or 1-pentanol)} systems at T = 293.2 K, T = 303.2 K, and T = 313.2 K and atmospheric pressure
Source: J. Chem. Thermodyn., 2011, 10.1016/j.jct.2011.04.009
Compound 1: water, H2O, purity 99.8%
Compound 2: vinylformic acid, C3H4O2, purity 99%
Compound 3: n-hexanoic acid, C6H12O2, purity 99.5%
Compound 4: n-butyl alcohol, C4H10O, purity 99.5%
Compound 5: sec-butanol, C4H10O, purity 99%
Compound 6: pentan-1-ol, C5H12O, purity 99%

System: vinylformic acid + n-hexanoic acid + water; phases: Liquid mixture 1, Liquid mixture 2
Fixed: Pressure, kPa = 101
Fixed: Temperature, K = 296.2
Property: Mass fraction of n-hexanoic acid (Liquid mixture 1); method: Titration method
Mass fraction of water	Mass fraction of n-hexanoic acid	uncertainty
.9832	.0168	.00005
.9368	.0115	.00005
.883	.0199	.00005
.8278	.025	.00005
.7649	.0452	.00005
.6745	.0984	.00005
.5907	.1546	.00005
.2031	.5581	.00005
.1449	.6842	.00005
.1187	.7481	.00005
.0913	.8186	.00005
.0615	.9385	.00005

System: vinylformic acid + n-hexanoic acid + water; phases: Liquid
Fixed: Pressure, kPa = 101
Fixed: Temperature, K = 296.2
Property: Mass density, kg/m3 (Liquid); method: Vibrating tube method
Mass fraction of water	Mass fraction of n-hexanoic acid	Mass density, kg/m3	uncertainty
.9832	.0168	997.3	.005
.9368	.0115	1005.22	.005
.883	.0199	1011.02	.005
.8278	.025	1017.51	.005
.7649	.0452	1020.15	.005
.6745	.0984	1020.58	.005
.5907	.1546	1018.33	.005
.2031	.5581	981.6	.005
.1449	.6842	965.2	.005
.1187	.7481	957.14	.005
.0913	.8186	948.3	.005
.0615	.9385	932.76	.005

System: vinylformic acid + n-hexanoic acid + water; phases: Liquid
Fixed: Pressure, kPa = 101
Fixed: Temperature, K = 296.2
Property: Mass density, kg/m3 (Liquid); method: Vibrating tube method
Mole fraction of water	Mole fraction of vinylformic acid	Mass density, kg/m3	uncertainty
.9919	.0042	1001.49	.005
.9736	.0242	1010.31	.005
.9628	.0347	1013.96	.005
.9539	.0439	1017.28	.005
.3486	.0661	941.7	.005
.5032	.1437	967.8	.005
.5722	.1629	980.77	.005
.6596	.1599	993.32	.005

System: vinylformic acid + n-hexanoic acid + water; phases: Liquid mixture 1, Liquid mixture 2
Fixed: Temperature, K = 296.2
Fixed: Pressure, kPa = 101.3
Property: Mole fraction of vinylformic acid (Liquid mixture 1); method: Density calibration data
Property: Mole fraction of water (Liquid mixture 2); method: Density calibration data
Property: Mole fraction of vinylformic acid (Liquid mixture 2); method: Density calibration data
Mole fraction of water	Mole fraction of vinylformic acid	uncertainty	Mole fraction of water	uncertainty	Mole fraction of vinylformic acid	uncertainty
.9919	.0042	.00005	.3486	.00005	.0661	.00005
.9736	.0242	.00005	.5032	.00005	.1437	.00005
.9628	.0347	.00005	.5722	.00005	.1629	.00005
.9539	.0439	.00005	.6596	.00005	.1599	.00005

System: n-butyl alcohol + vinylformic acid + water; phases: Liquid mixture 1, Liquid mixture 2
Fixed: Pressure, kPa = 101
Property: Mass fraction of n-butyl alcohol (Liquid mixture 1); method: Titration method
Temperature, K	Mass fraction of water	Mass fraction of n-butyl alcohol	uncertainty
293.2	.2037	.7963	.00005
293.2	.2115	.7491	.00005
293.2	.2149	.7098	.00005
293.2	.2203	.663	.00005
293.2	.2315	.615	.00005
293.2	.2451	.5674	.00005
293.2	.6172	.1762	.00005
293.2	.6969	.13	.00005
293.2	.7685	.0958	.00005
293.2	.8323	.075	.00005
293.2	.8759	.076	.00005
293.2	.9194	.0806	.00005
303.2	.2115	.7885	.00005
303.2	.2171	.7383	.00005
303.2	.2216	.7006	.00005
303.2	.2314	.6529	.00005
303.2	.247	.5968	.00005
303.2	.2631	.5491	.00005
303.2	.6099	.1892	.00005
303.2	.6937	.137	.00005
303.2	.7638	.1016	.00005
303.2	.8304	.0772	.00005
303.2	.8776	.0767	.00005
303.2	.9196	.0804	.00005
313.2	.2185	.7815	.00005
313.2	.2311	.732	.00005
313.2	.2368	.6866	.00005
313.2	.2547	.6343	.00005
313.2	.264	.5869	.00005
313.2	.2741	.5451	.00005
313.2	.6652	.1651	.00005
313.2	.7495	.1163	.00005
313.2	.8241	.0828	.00005
313.2	.8851	.0686	.00005
313.2	.9293	.0707	.00005

System: n-butyl alcohol + vinylformic acid + water; phases: Liquid
Fixed: Pressure, kPa = 101
Property: Mass density, kg/m3 (Liquid); method: Vibrating tube method
Temperature, K	Mass fraction of water	Mass fraction of n-butyl alcohol	Mass density, kg/m3	uncertainty
293.2	.2037	.7963	848.03	.005
293.2	.2115	.7491	859.06	.005
293.2	.2149	.7098	867.85	.005
293.2	.2203	.663	878.87	.005
293.2	.2315	.615	890.22	.005
293.2	.2451	.5674	901.94	.005
293.2	.6172	.1762	987.41	.005
293.2	.6969	.13	995.05	.005
293.2	.7685	.0958	999.25	.005
293.2	.8323	.075	999.16	.005
293.2	.8759	.076	993.16	.005
293.2	.9194	.0806	986.95	.005
303.2	.2115	.7885	842.45	.005
303.2	.2171	.7383	853.25	.005
303.2	.2216	.7006	862.07	.005
303.2	.2314	.6529	872.97	.005
303.2	.247	.5968	886.17	.005
303.2	.2631	.5491	897.94	.005
303.2	.6099	.1892	979.87	.005
303.2	.6937	.137	987.2	.005
303.2	.7638	.1016	992.32	.005
303.2	.8304	.0772	993.95	.005
303.2	.8776	.0767	988.13	.005
303.2	.9196	.0804	981.96	.005
313.2	.2185	.7815	835.83	.005
313.2	.2311	.732	846.12	.005
313.2	.2368	.6866	857.02	.005
313.2	.2547	.6343	868.13	.005
313.2	.264	.5869	880.43	.005
313.2	.2741	.5451	890.45	.005
313.2	.6652	.1651	978.58	.005
313.2	.7495	.1163	983.72	.005
313.2	.8241	.0828	987.32	.005
313.2	.8851	.0686	985.93	.005
313.2	.9293	.0707	980.67	.005

System: n-butyl alcohol + vinylformic acid + water; phases: Liquid
Fixed: Pressure, kPa = 101
Property: Mass density, kg/m3 (Liquid); method: Vibrating tube method
Temperature, K	Mole fraction of water	Mole fraction of vinylformic acid	Mass density, kg/m3	uncertainty
293.2	.974	.0019	988.546	.005
293.2	.9699	.005	988.873	.005
293.2	.9684	.0107	993.638	.005
293.2	.963	.016	995.094	.005
293.2	.5203	.0213	855.328	.005
293.2	.5367	.0556	873.369	.005
293.2	.5538	.0853	890.212	.005
293.2	.5782	.101	902.835	.005
303.2	.9662	.0126	989.051	.005
303.2	.9596	.0201	991.822	.005
303.2	.9491	.0284	992.438	.005
303.2	.9324	.0415	993.304	.005
303.2	.547	.0736	875.739	.005
303.2	.5815	.0999	895.497	.005
303.2	.6058	.1181	910.4	.005
303.2	.6826	.1293	938.827	.005
313.2	.9764	.0024	982.13	.005
313.2	.9726	.0069	983.843	.005
313.2	.952	.0246	986.112	.005
313.2	.9467	.0306	988.053	.005
313.2	.5097	.0258	839.939	.005
313.2	.5418	.049	855.448	.005
313.2	.6097	.0913	889.734	.005
313.2	.6469	.1014	904.592	.005

System: n-butyl alcohol + vinylformic acid + water; phases: Liquid mixture 1, Liquid mixture 2
Fixed: Pressure, kPa = 101.3
Property: Mole fraction of vinylformic acid (Liquid mixture 1); method: Density calibration data
Property: Mole fraction of water (Liquid mixture 2); method: Density calibration data
Property: Mole fraction of vinylformic acid (Liquid mixture 2); method: Density calibration data
Temperature, K	Mole fraction of water	Mole fraction of vinylformic acid	uncertainty	Mole fraction of water	uncertainty	Mole fraction of vinylformic acid	uncertainty
293.2	.974	.0019	.00005	.5203	.00005	.0213	.00005
293.2	.9699	.005	.00005	.5367	.00005	.0556	.00005
293.2	.9684	.0107	.00005	.5538	.00005	.0853	.00005
293.2	.963	.016	.00005	.5782	.00005	.101	.00005
303.2	.9662	.0126	.00005	.547	.00005	.0736	.00005
303.2	.9596	.0201	.00005	.5815	.00005	.0999	.00005
303.2	.9491	.0284	.00005	.6058	.00005	.1181	.00005
303.2	.9324	.0415	.00005	.6826	.00005	.1293	.00005
313.2	.9764	.0024	.00005	.5097	.00005	.0258	.00005
313.2	.9726	.0069	.00005	.5418	.00005	.049	.00005
313.2	.952	.0246	.00005	.6097	.00005	.0913	.00005
313.2	.9467	.0306	.00005	.6469	.00005	.1014	.00005

System: sec-butanol + vinylformic acid + water; phases: Liquid mixture 1, Liquid mixture 2
Fixed: Pressure, kPa = 101
Property: Mass fraction of sec-butanol (Liquid mixture 1); method: Titration method
Temperature, K	Mass fraction of water	Mass fraction of sec-butanol	uncertainty
293.2	.3666	.6333	.00005
293.2	.3741	.5619	.00005
293.2	.386	.5208	.00005
293.2	.4359	.4503	.00005
293.2	.6808	.2427	.00005
293.2	.7303	.2151	.00005
293.2	.7982	.2018	.00005
303.2	.3503	.6497	.00005
303.2	.3556	.5801	.00005
303.2	.3608	.5437	.00005
303.2	.4013	.4789	.00005
303.2	.5219	.3531	.00005
303.2	.5534	.3273	.00005
303.2	.7072	.2135	.00005
303.2	.6984	.2154	.00005
303.2	.75	.187	.00005
303.2	.7877	.1701	.00005
303.2	.8439	.1561	.00005
313.2	.3311	.6689	.00005
313.2	.3404	.6273	.00005
313.2	.3466	.5884	.00005
313.2	.3605	.5477	.00005
313.2	.3766	.5133	.00005
313.2	.6285	.2667	.00005
313.2	.7049	.2101	.00005
313.2	.7526	.1804	.00005
313.2	.7987	.1598	.00005
313.2	.846	.154	.00005

System: sec-butanol + vinylformic acid + water; phases: Liquid
Fixed: Pressure, kPa = 101
Property: Mass density, kg/m3 (Liquid); method: Vibrating tube method
Temperature, K	Mass fraction of water	Mass fraction of sec-butanol	Mass density, kg/m3	uncertainty
293.2	.3666	.6333	881.62	.005
293.2	.3741	.5619	898.54	.005
293.2	.386	.5208	908.76	.005
293.2	.4359	.4503	924.14	.005
293.2	.6808	.2427	964.92	.005
293.2	.7303	.2151	972.13	.005
293.2	.7982	.2018	968.25	.005
303.2	.3503	.6497	869.94	.005
303.2	.3556	.5801	886.73	.005
303.2	.3608	.5437	897.63	.005
303.2	.4013	.4789	911.07	.005
303.2	.5219	.3531	938.04	.005
303.2	.5534	.3273	943.64	.005
303.2	.7072	.2135	965.89	.005
303.2	.6984	.2154	965.78	.005
303.2	.75	.187	970.41	.005
303.2	.7877	.1701	972.37	.005
303.2	.8439	.1561	971.05	.005
313.2	.3311	.6689	857.89	.005
313.2	.3404	.6273	867.37	.005
313.2	.3466	.5884	876.92	.005
313.2	.3605	.5477	886.36	.005
313.2	.3766	.5133	894.93	.005
313.2	.6285	.2667	952.57	.005
313.2	.7049	.2101	960.74	.005
313.2	.7526	.1804	966.15	.005
313.2	.7987	.1598	968.9	.005
313.2	.846	.154	967.27	.005

System: sec-butanol + vinylformic acid + water; phases: Liquid
Fixed: Pressure, kPa = 101
Property: Mass density, kg/m3 (Liquid); method: Vibrating tube method
Temperature, K	Mole fraction of water	Mole fraction of vinylformic acid	Mass density, kg/m3	uncertainty
293.2	.9381	.0034	970.33	.005
293.2	.9361	.0044	970	.005
293.2	.9293	.0099	970.7	.005
293.2	.9191	.0159	969.93	.005
293.2	.9125	.0192	968.9	.005
293.2	.7063	.0066	884.93	.005
293.2	.7066	.0165	890.39	.005
293.2	.7182	.0389	905.77	.005
293.2	.7443	.0467	917.89	.005
293.2	.7547	.0488	922.43	.005
303.2	.9493	.004	971.25	.005
303.2	.9467	.0062	971.61	.005
303.2	.9437	.0079	971.3	.005
303.2	.9308	.0123	967.22	.005
303.2	.9263	.0152	967.06	.005
303.2	.9129	.0208	964.02	.005
303.2	.6891	.0094	874.3	.005
303.2	.69	.0231	882.02	.005
303.2	.6947	.0312	887.67	.005
303.2	.7035	.0451	897.78	.005
303.2	.7203	.0475	903.94	.005
303.2	.7522	.0505	915.64	.005
313.2	.9525	.0033	864.09	.005
313.2	.9502	.0058	968.8	.005
313.2	.9463	.0086	877.62	.005
313.2	.9441	.0104	969.09	.005
313.2	.9362	.0156	968.65	.005
313.2	.9344	.017	968.72	.005
313.2	.6764	.0119	967.97	.005
313.2	.6792	.0185	868.37	.005
313.2	.6857	.0323	968.86	.005
313.2	.6883	.0387	881.89	.005
313.2	.7033	.0457	889.97	.005
313.2	.7117	.0506	895.24	.005

System: sec-butanol + vinylformic acid + water; phases: Liquid mixture 1, Liquid mixture 2
Fixed: Pressure, kPa = 101.3
Property: Mole fraction of vinylformic acid (Liquid mixture 1); method: Density calibration data
Property: Mole fraction of water (Liquid mixture 2); method: Density calibration data
Property: Mole fraction of vinylformic acid (Liquid mixture 2); method: Density calibration data
Temperature, K	Mole fraction of water	Mole fraction of vinylformic acid	uncertainty	Mole fraction of water	uncertainty	Mole fraction of vinylformic acid	uncertainty
293.2	.9381	.0034	.00005	.7063	.00005	.0066	.00005
293.2	.9361	.0044	.00005	.7066	.00005	.0165	.00005
293.2	.9293	.0099	.00005	.7182	.00005	.0389	.00005
293.2	.9191	.0159	.00005	.7443	.00005	.0467	.00005
293.2	.9125	.0192	.00005	.7547	.00005	.0488	.00005
303.2	.9493	.004	.00005	.6891	.00005	.0094	.00005
303.2	.9467	.0062	.00005	.69	.00005	.0231	.00005
303.2	.9437	.0079	.00005	.6947	.00005	.0312	.00005
303.2	.9308	.0123	.00005	.7035	.00005	.0451	.00005
303.2	.9263	.0152	.00005	.7203	.00005	.0475	.00005
303.2	.9129	.0208	.00005	.7522	.00005	.0505	.00005
313.2	.9525	.0033	.00005	.6764	.00005	.0119	.00005
313.2	.9502	.0058	.00005	.6792	.00005	.0185	.00005
313.2	.9463	.0086	.00005	.6857	.00005	.0323	.00005
313.2	.9441	.0104	.00005	.6883	.00005	.0387	.00005
313.2	.9362	.0156	.00005	.7033	.00005	.0457	.00005
313.2	.9344	.017	.00005	.7117	.00005	.0506	.00005

System: pentan-1-ol + vinylformic acid + water; phases: Liquid mixture 1, Liquid mixture 2
Fixed: Pressure, kPa = 101
Property: Mass fraction of pentan-1-ol (Liquid mixture 1); method: Titration method
Temperature, K	Mass fraction of water	Mass fraction of pentan-1-ol	uncertainty
293.2	.9514	.0486	.00005
293.2	.8776	.0224	.00005
293.2	.7667	.0397	.00005
293.2	.6346	.0922	.00005
293.2	.1594	.5893	.00005
293.2	.137	.6895	.00005
293.2	.1218	.7898	.00005
293.2	.1143	.8857	.00005
303.2	.9712	.0288	.00005
303.2	.8728	.0313	.00005
303.2	.7674	.0413	.00005
303.2	.6315	.0982	.00005
303.2	.1692	.5818	.00005
303.2	.1402	.6869	.00005
303.2	.1269	.7631	.00005
303.2	.1227	.8773	.00005
313.2	.9723	.0277	.00005
313.2	.8743	.0283	.00005
313.2	.764	.044	.00005
313.2	.6265	.1059	.00005
313.2	.1905	.566	.00005
313.2	.1484	.6788	.00005
313.2	.1313	.7815	.00005
313.2	.1289	.8711	.00005

System: pentan-1-ol + vinylformic acid + water; phases: Liquid
Fixed: Pressure, kPa = 101
Property: Mass density, kg/m3 (Liquid); method: Vibrating tube method
Temperature, K	Mass fraction of water	Mass fraction of pentan-1-ol	Mass density, kg/m3	uncertainty
293.2	.9514	.0486	993.3	.005
293.2	.8776	.0224	1009.71	.005
293.2	.7667	.0397	1017.14	.005
293.2	.6346	.0922	1012.56	.005
293.2	.1594	.5893	901.27	.005
293.2	.137	.6895	877.75	.005
293.2	.1218	.7898	855.18	.005
293.2	.1143	.8857	833.93	.005
303.2	.9712	.0288	991.57	.005
303.2	.8728	.0313	1001.56	.005
303.2	.7674	.0413	1011.82	.005
303.2	.6315	.0982	1004.76	.005
303.2	.1692	.5818	894.74	.005
303.2	.1402	.6869	878.27	.005
303.2	.1269	.7631	861.43	.005
303.2	.1227	.8773	834.9	.005
313.2	.9723	.0277	988.34	.005
313.2	.8743	.0283	998.99	.005
313.2	.764	.044	1005.53	.005
313.2	.6265	.1059	995.72	.005
313.2	.1905	.566	888.53	.005
313.2	.1484	.6788	863.67	.005
313.2	.1313	.7815	840.84	.005
313.2	.1289	.8711	820.28	.005

System: pentan-1-ol + vinylformic acid + water; phases: Liquid
Fixed: Pressure, kPa = 101
Property: Mass density, kg/m3 (Liquid); method: Vibrating tube method
Temperature, K	Mole fraction of water	Mole fraction of vinylformic acid	Mass density, kg/m3	uncertainty
293.2	.9889	.0035	1001.42	.005
293.2	.9668	.0274	1007.87	.005
293.2	.9587	.0348	1010.76	.005
293.2	.4104	.1243	874.43	.005
293.2	.4656	.1838	906.79	.005
293.2	.4962	.2053	922.48	.005
303.2	.9827	.0076	995.66	.005
303.2	.9701	.0207	999.29	.005
303.2	.9637	.028	1001.82	.005
303.2	.9629	.0312	1004.58	.005
303.2	.945	.0483	1007.44	.005
303.2	.3812	.0651	848.83	.005
303.2	.4186	.1176	870.89	.005
303.2	.4444	.15	886.39	.005
303.2	.4721	.1838	904.14	.005
303.2	.5089	.2061	921.08	.005
313.2	.9912	.0015	992.23	.005
313.2	.9866	.0071	994.44	.005
313.2	.9835	.0111	996.34	.005
313.2	.9692	.0248	998.72	.005
313.2	.9585	.0362	1001.77	.005
313.2	.4022	.0296	824.02	.005
313.2	.4404	.1218	861.53	.005
313.2	.4622	.1557	878.24	.005
313.2	.4792	.1748	889.22	.005
313.2	.5259	.1967	909.31	.005

System: pentan-1-ol + vinylformic acid + water; phases: Liquid mixture 1, Liquid mixture 2
Fixed: Pressure, kPa = 101.3
Property: Mole fraction of vinylformic acid (Liquid mixture 1); method: Density calibration data
Property: Mole fraction of water (Liquid mixture 2); method: Density calibration data
Property: Mole fraction of vinylformic acid (Liquid mixture 2); method: Density calibration data
Temperature, K	Mole fraction of water	Mole fraction of vinylformic acid	uncertainty	Mole fraction of water	uncertainty	Mole fraction of vinylformic acid	uncertainty
293.2	.9889	.0035	.00005	.4104	.00005	.1243	.00005
293.2	.9668	.0274	.00005	.4656	.00005	.1838	.00005
293.2	.9587	.0348	.00005	.4962	.00005	.2053	.00005
303.2	.9827	.0076	.00005	.3812	.00005	.0651	.00005
303.2	.9701	.0207	.00005	.4186	.00005	.1176	.00005
303.2	.9637	.028	.00005	.4444	.00005	.15	.00005
303.2	.9629	.0312	.00005	.4721	.00005	.1838	.00005
303.2	.945	.0483	.00005	.5089	.00005	.2061	.00005
313.2	.9912	.0015	.00005	.4022	.00005	.0296	.00005
313.2	.9866	.0071	.00005	.4404	.00005	.1218	.00005
313.2	.9835	.0111	.00005	.4622	.00005	.1557	.00005
313.2	.9692	.0248	.00005	.4792	.00005	.1748	.00005
313.2	.9585	.0362	.00005	.5259	.00005	.1967	.00005
