Measured thermophysical data. Determination and thermodynamic modelling for 2-methyl-6-nitroaniline solubility in binary solvent mixtures of ethyl acetate + (methanol, ethanol, n-propanol and isopropanol)
Source: J. Chem. Thermodyn., 2017, 10.1016/j.jct.2016.10.043
Compound 1: 2-methyl-6-nitroaniline, C7H8N2O2, purity 98.5%
Compound 2: methanol, CH4O
Compound 3: ethanol, C2H6O
Compound 4: n-propanol, C3H8O
Compound 5: isopropanol, C3H8O
Compound 6: ethyl acetate, C4H8O2

System: methanol + ethyl acetate + 2-methyl-6-nitroaniline; phases: Liquid, Crystal
Fixed: Pressure, kPa = 101.2
Property: Mole fraction of 2-methyl-6-nitroaniline (Liquid); method: Chromatography
Solvent: Mass fraction of ethyl acetate	Temperature, K	Mole fraction of 2-methyl-6-nitroaniline	uncertainty
.0997	278.15	.01082	
.0997	280.65	.01194	
.0997	283.15	.01314	
.0997	285.65	.01459	
.0997	288.15	.01639	
.0997	290.65	.01798	
.0997	293.15	.0199	
.0997	295.65	.02228	
.0997	298.15	.02479	
.0997	300.65	.02743	
.0997	303.15	.03017	
.0997	305.65	.03334	
.0997	308.15	.03657	
.0997	310.65	.04031	
.0997	313.15	.04457	
.2002	278.15	.01494	
.2002	280.65	.01656	
.2002	283.15	.01821	
.2002	285.65	.02028	
.2002	288.15	.02245	
.2002	290.65	.0248	
.2002	293.15	.02731	
.2002	295.65	.03024	
.2002	298.15	.03351	
.2002	300.65	.03677	
.2002	303.15	.04035	
.2002	305.65	.04418	
.2002	308.15	.0489	
.2002	310.65	.05354	
.2002	313.15	.05909	
.2994	278.15	.01982	
.2994	280.65	.02197	
.2994	283.15	.02438	
.2994	285.65	.02677	
.2994	288.15	.02973	
.2994	290.65	.03257	
.2994	293.15	.03568	
.2994	295.65	.03938	
.2994	298.15	.04354	
.2994	300.65	.04765	
.2994	303.15	.05239	
.2994	305.65	.05741	
.2994	308.15	.0631	
.2994	310.65	.06911	
.2994	313.15	.07589	
.4005	278.15	.02573	
.4005	280.65	.02846	
.4005	283.15	.03124	
.4005	285.65	.03449	
.4005	288.15	.03804	
.4005	290.65	.04188	
.4005	293.15	.04636	
.4005	295.65	.05091	
.4005	298.15	.05584	
.4005	300.65	.06104	
.4005	303.15	.06672	
.4005	305.65	.07281	
.4005	308.15	.07992	
.4005	310.65	.08704	
.4005	313.15	.09544	
.4999	278.15	.03311	
.4999	280.65	.03659	
.4999	283.15	.04041	
.4999	285.65	.04438	
.4999	288.15	.04898	
.4999	290.65	.05365	
.4999	293.15	.05868	
.4999	295.65	.06419	
.4999	298.15	.07018	
.4999	300.65	.07692	
.4999	303.15	.0841	
.4999	305.65	.09132	
.4999	308.15	.09981	
.4999	310.65	.1089	
.4999	313.15	.1189	
.6006	278.15	.04236	
.6006	280.65	.04671	
.6006	283.15	.05119	
.6006	285.65	.05624	
.6006	288.15	.0617	
.6006	290.65	.06743	
.6006	293.15	.07366	
.6006	295.65	.08047	
.6006	298.15	.08768	
.6006	300.65	.09606	
.6006	303.15	.1045	
.6006	305.65	.1135	
.6006	308.15	.1237	
.6006	310.65	.1346	
.6006	313.15	.1465	
.6998	278.15	.05293	
.6998	280.65	.05812	
.6998	283.15	.06358	
.6998	285.65	.07011	
.6998	288.15	.07706	
.6998	290.65	.08335	
.6998	293.15	.09141	
.6998	295.65	.09982	
.6998	298.15	.1087	
.6998	300.65	.1184	
.6998	303.15	.1285	
.6998	305.65	.1396	
.6998	308.15	.1515	
.6998	310.65	.1641	
.6998	313.15	.1783	
.7999	278.15	.06463	
.7999	280.65	.07103	
.7999	283.15	.07815	
.7999	285.65	.08548	
.7999	288.15	.09356	
.7999	290.65	.1018	
.7999	293.15	.1108	
.7999	295.65	.1209	
.7999	298.15	.1307	
.7999	300.65	.1428	
.7999	303.15	.1546	
.7999	305.65	.1677	
.7999	308.15	.1815	
.7999	310.65	.196	
.7999	313.15	.2121	
.9003	278.15	.076	
.9003	280.65	.08374	
.9003	283.15	.09146	
.9003	285.65	.1003	
.9003	288.15	.1099	
.9003	290.65	.1192	
.9003	293.15	.1292	
.9003	295.65	.1403	
.9003	298.15	.1524	
.9003	300.65	.1659	
.9003	303.15	.1795	
.9003	305.65	.1937	
.9003	308.15	.2091	
.9003	310.65	.2258	
.9003	313.15	.2435	

System: ethanol + ethyl acetate + 2-methyl-6-nitroaniline; phases: Liquid, Crystal
Fixed: Pressure, kPa = 101.2
Property: Mole fraction of 2-methyl-6-nitroaniline (Liquid); method: Chromatography
Solvent: Mass fraction of ethyl acetate	Temperature, K	Mole fraction of 2-methyl-6-nitroaniline	uncertainty
.0998	278.15	.01467	
.0998	280.65	.01602	
.0998	283.15	.01776	
.0998	285.65	.01969	
.0998	288.15	.02193	
.0998	290.65	.02416	
.0998	293.15	.02683	
.0998	295.65	.02953	
.0998	298.15	.03273	
.0998	300.65	.0358	
.0998	303.15	.03963	
.0998	305.65	.04349	
.0998	308.15	.0478	
.0998	310.65	.05249	
.0998	313.15	.05778	
.1994	278.15	.01983	
.1994	280.65	.02188	
.1994	283.15	.02414	
.1994	285.65	.0267	
.1994	288.15	.02931	
.1994	290.65	.03232	
.1994	293.15	.03573	
.1994	295.65	.03935	
.1994	298.15	.04336	
.1994	300.65	.04738	
.1994	303.15	.05233	
.1994	305.65	.05721	
.1994	308.15	.06283	
.1994	310.65	.06885	
.1994	313.15	.07534	
.2995	278.15	.02566	
.2995	280.65	.02819	
.2995	283.15	.03119	
.2995	285.65	.0344	
.2995	288.15	.03797	
.2995	290.65	.04151	
.2995	293.15	.04586	
.2995	295.65	.05027	
.2995	298.15	.05529	
.2995	300.65	.06036	
.2995	303.15	.06633	
.2995	305.65	.0725	
.2995	308.15	.07931	
.2995	310.65	.08657	
.2995	313.15	.09456	
.4007	278.15	.03227	
.4007	280.65	.03522	
.4007	283.15	.03884	
.4007	285.65	.04289	
.4007	288.15	.0471	
.4007	290.65	.05173	
.4007	293.15	.05687	
.4007	295.65	.06217	
.4007	298.15	.06805	
.4007	300.65	.07453	
.4007	303.15	.0814	
.4007	305.65	.08898	
.4007	308.15	.09719	
.4007	310.65	.1057	
.4007	313.15	.1152	
.4998	278.15	.03919	
.4998	280.65	.04311	
.4998	283.15	.04748	
.4998	285.65	.052	
.4998	288.15	.05748	
.4998	290.65	.06256	
.4998	293.15	.06863	
.4998	295.65	.0753	
.4998	298.15	.08214	
.4998	300.65	.08952	
.4998	303.15	.09776	
.4998	305.65	.1066	
.4998	308.15	.1161	
.4998	310.65	.1261	
.4998	313.15	.1369	
.6003	278.15	.04715	
.6003	280.65	.05172	
.6003	283.15	.05653	
.6003	285.65	.06215	
.6003	288.15	.06832	
.6003	290.65	.07449	
.6003	293.15	.08164	
.6003	295.65	.0892	
.6003	298.15	.09774	
.6003	300.65	.1063	
.6003	303.15	.1152	
.6003	305.65	.1253	
.6003	308.15	.1362	
.6003	310.65	.1475	
.6003	313.15	.1601	
.7006	278.15	.05569	
.7006	280.65	.06091	
.7006	283.15	.06672	
.7006	285.65	.07332	
.7006	288.15	.08026	
.7006	290.65	.08734	
.7006	293.15	.09573	
.7006	295.65	.104	
.7006	298.15	.1135	
.7006	300.65	.1234	
.7006	303.15	.1342	
.7006	305.65	.1457	
.7006	308.15	.158	
.7006	310.65	.1708	
.7006	313.15	.1853	
.8002	278.15	.06461	
.8002	280.65	.07009	
.8002	283.15	.07653	
.8002	285.65	.08427	
.8002	288.15	.09248	
.8002	290.65	.1007	
.8002	293.15	.1101	
.8002	295.65	.1205	
.8002	298.15	.1309	
.8002	300.65	.1417	
.8002	303.15	.154	
.8002	305.65	.167	
.8002	308.15	.1807	
.8002	310.65	.1955	
.8002	313.15	.211	
.9009	278.15	.07425	
.9009	280.65	.08148	
.9009	283.15	.08941	
.9009	285.65	.09785	
.9009	288.15	.1071	
.9009	290.65	.116	
.9009	293.15	.1265	
.9009	295.65	.1371	
.9009	298.15	.149	
.9009	300.65	.162	
.9009	303.15	.1753	
.9009	305.65	.1896	
.9009	308.15	.2043	
.9009	310.65	.2211	
.9009	313.15	.2384	

System: n-propanol + ethyl acetate + 2-methyl-6-nitroaniline; phases: Liquid, Crystal
Fixed: Pressure, kPa = 101.2
Property: Mole fraction of 2-methyl-6-nitroaniline (Liquid); method: Chromatography
Solvent: Mass fraction of ethyl acetate	Temperature, K	Mole fraction of 2-methyl-6-nitroaniline	uncertainty
.0991	278.15	.01554	
.0991	280.65	.0171	
.0991	283.15	.01909	
.0991	285.65	.02121	
.0991	288.15	.02353	
.0991	290.65	.0259	
.0991	293.15	.02852	
.0991	295.65	.03151	
.0991	298.15	.03468	
.0991	300.65	.03834	
.0991	303.15	.04238	
.0991	305.65	.04634	
.0991	308.15	.05119	
.0991	310.65	.05634	
.0991	313.15	.06183	
.1995	278.15	.02145	
.1995	280.65	.02374	
.1995	283.15	.02614	
.1995	285.65	.02906	
.1995	288.15	.03211	
.1995	290.65	.03536	
.1995	293.15	.03887	
.1995	295.65	.0428	
.1995	298.15	.04708	
.1995	300.65	.05173	
.1995	303.15	.05698	
.1995	305.65	.06244	
.1995	308.15	.06843	
.1995	310.65	.07507	
.1995	313.15	.0822	
.3007	278.15	.02857	
.3007	280.65	.03172	
.3007	283.15	.03488	
.3007	285.65	.03867	
.3007	288.15	.04236	
.3007	290.65	.04676	
.3007	293.15	.05105	
.3007	295.65	.05611	
.3007	298.15	.06141	
.3007	300.65	.06758	
.3007	303.15	.07417	
.3007	305.65	.08094	
.3007	308.15	.08855	
.3007	310.65	.09661	
.3007	313.15	.1056	
.4006	278.15	.03677	
.4006	280.65	.04028	
.4006	283.15	.04428	
.4006	285.65	.0486	
.4006	288.15	.05341	
.4006	290.65	.05867	
.4006	293.15	.06443	
.4006	295.65	.07049	
.4006	298.15	.07706	
.4006	300.65	.08451	
.4006	303.15	.09263	
.4006	305.65	.1007	
.4006	308.15	.1099	
.4006	310.65	.1191	
.4006	313.15	.1305	
.5012	278.15	.04495	
.5012	280.65	.0494	
.5012	283.15	.05445	
.5012	285.65	.05998	
.5012	288.15	.06587	
.5012	290.65	.07197	
.5012	293.15	.07856	
.5012	295.65	.08599	
.5012	298.15	.09357	
.5012	300.65	.1025	
.5012	303.15	.1117	
.5012	305.65	.1216	
.5012	308.15	.1322	
.5012	310.65	.1438	
.5012	313.15	.1562	
.5996	278.15	.05366	
.5996	280.65	.05876	
.5996	283.15	.06411	
.5996	285.65	.07052	
.5996	288.15	.07716	
.5996	290.65	.08482	
.5996	293.15	.09276	
.5996	295.65	.1007	
.5996	298.15	.1099	
.5996	300.65	.1196	
.5996	303.15	.1305	
.5996	305.65	.1415	
.5996	308.15	.1538	
.5996	310.65	.1666	
.5996	313.15	.1807	
.7005	278.15	.06186	
.7005	280.65	.06756	
.7005	283.15	.0743	
.7005	285.65	.08189	
.7005	288.15	.08872	
.7005	290.65	.09761	
.7005	293.15	.1062	
.7005	295.65	.1158	
.7005	298.15	.1255	
.7005	300.65	.1371	
.7005	303.15	.1486	
.7005	305.65	.1614	
.7005	308.15	.1744	
.7005	310.65	.1896	
.7005	313.15	.2051	
.7994	278.15	.0695	
.7994	280.65	.07632	
.7994	283.15	.08372	
.7994	285.65	.09183	
.7994	288.15	.0999	
.7994	290.65	.1092	
.7994	293.15	.1189	
.7994	295.65	.1291	
.7994	298.15	.1402	
.7994	300.65	.1526	
.7994	303.15	.1657	
.7994	305.65	.1793	
.7994	308.15	.1936	
.7994	310.65	.2091	
.7994	313.15	.2266	
.9002	278.15	.0769	
.9002	280.65	.08414	
.9002	283.15	.09251	
.9002	285.65	.1013	
.9002	288.15	.1108	
.9002	290.65	.1208	
.9002	293.15	.1306	
.9002	295.65	.1426	
.9002	298.15	.1539	
.9002	300.65	.167	
.9002	303.15	.1809	
.9002	305.65	.1951	
.9002	308.15	.2113	
.9002	310.65	.2281	
.9002	313.15	.2463	

System: isopropanol + ethyl acetate + 2-methyl-6-nitroaniline; phases: Liquid, Crystal
Fixed: Pressure, kPa = 101.2
Property: Mole fraction of 2-methyl-6-nitroaniline (Liquid); method: Chromatography
Solvent: Mass fraction of ethyl acetate	Temperature, K	Mole fraction of 2-methyl-6-nitroaniline	uncertainty
.1005	278.15	.01308	
.1005	280.65	.01454	
.1005	283.15	.01605	
.1005	285.65	.01802	
.1005	288.15	.02001	
.1005	290.65	.02215	
.1005	293.15	.02448	
.1005	295.65	.02727	
.1005	298.15	.03015	
.1005	300.65	.03333	
.1005	303.15	.03657	
.1005	305.65	.04048	
.1005	308.15	.04474	
.1005	310.65	.04933	
.1005	313.15	.05448	
.1999	278.15	.01879	
.1999	280.65	.02071	
.1999	283.15	.0229	
.1999	285.65	.02565	
.1999	288.15	.02848	
.1999	290.65	.03134	
.1999	293.15	.03451	
.1999	295.65	.03833	
.1999	298.15	.04192	
.1999	300.65	.04638	
.1999	303.15	.0509	
.1999	305.65	.05617	
.1999	308.15	.06174	
.1999	310.65	.06779	
.1999	313.15	.07463	
.2994	278.15	.02577	
.2994	280.65	.02834	
.2994	283.15	.03097	
.2994	285.65	.0344	
.2994	288.15	.03828	
.2994	290.65	.04202	
.2994	293.15	.04624	
.2994	295.65	.05085	
.2994	298.15	.05592	
.2994	300.65	.06133	
.2994	303.15	.06719	
.2994	305.65	.0738	
.2994	308.15	.08083	
.2994	310.65	.08845	
.2994	313.15	.09721	
.4006	278.15	.0332	
.4006	280.65	.0363	
.4006	283.15	.04019	
.4006	285.65	.04437	
.4006	288.15	.04871	
.4006	290.65	.05367	
.4006	293.15	.0589	
.4006	295.65	.06484	
.4006	298.15	.07073	
.4006	300.65	.07756	
.4006	303.15	.08419	
.4006	305.65	.09307	
.4006	308.15	.1014	
.4006	310.65	.1108	
.4006	313.15	.1213	
.4994	278.15	.04071	
.4994	280.65	.04466	
.4994	283.15	.04871	
.4994	285.65	.0543	
.4994	288.15	.05992	
.4994	290.65	.06529	
.4994	293.15	.07141	
.4994	295.65	.07873	
.4994	298.15	.08564	
.4994	300.65	.09386	
.4994	303.15	.1023	
.4994	305.65	.1119	
.4994	308.15	.1217	
.4994	310.65	.1324	
.4994	313.15	.1443	
.6002	278.15	.04819	
.6002	280.65	.053	
.6002	283.15	.05836	
.6002	285.65	.06439	
.6002	288.15	.07047	
.6002	290.65	.07708	
.6002	293.15	.0841	
.6002	295.65	.09242	
.6002	298.15	.1007	
.6002	300.65	.1099	
.6002	303.15	.1194	
.6002	305.65	.1301	
.6002	308.15	.1415	
.6002	310.65	.1537	
.6002	313.15	.1672	
.7005	278.15	.05588	
.7005	280.65	.06157	
.7005	283.15	.06726	
.7005	285.65	.07398	
.7005	288.15	.08161	
.7005	290.65	.08876	
.7005	293.15	.09693	
.7005	295.65	.1057	
.7005	298.15	.1152	
.7005	300.65	.1255	
.7005	303.15	.1362	
.7005	305.65	.1481	
.7005	308.15	.1605	
.7005	310.65	.1739	
.7005	313.15	.1887	
.7998	278.15	.06385	
.7998	280.65	.06998	
.7998	283.15	.07647	
.7998	285.65	.08429	
.7998	288.15	.09246	
.7998	290.65	.1006	
.7998	293.15	.1094	
.7998	295.65	.1195	
.7998	298.15	.1298	
.7998	300.65	.141	
.7998	303.15	.1529	
.7998	305.65	.166	
.7998	308.15	.1798	
.7998	310.65	.1947	
.7998	313.15	.2107	
.9013	278.15	.0727	
.9013	280.65	.08027	
.9013	283.15	.08726	
.9013	285.65	.09611	
.9013	288.15	.1055	
.9013	290.65	.1148	
.9013	293.15	.1245	
.9013	295.65	.1354	
.9013	298.15	.1466	
.9013	300.65	.159	
.9013	303.15	.1725	
.9013	305.65	.1865	
.9013	308.15	.2014	
.9013	310.65	.218	
.9013	313.15	.2353	
