Measured thermophysical data. Excess enthalpies of ternary mixtures of (oxygenated additives + cycloalkane) in fuels and bio-fuels: (dibutyl ether + 1-propanol + cyclohexane), or methylcyclohexane, at T = (298.15 and 313.15) K
Source: J. Chem. Thermodyn., 2017, 10.1016/j.jct.2016.10.005
Compound 1: dibutyl ether, C8H18O, purity 99.3%
Compound 2: 1-propanol, C3H8O, purity 99.9%
Compound 3: cyclohexane, C6H12, purity 99.9%
Compound 4: methylcyclohexane, C7H14, purity 99.9%

System: 1-propanol + cyclohexane; phases: Liquid
Fixed: Pressure, kPa = 100
Property: Excess molar enthalpy (molar enthalpy of mixing), kJ/mol (Liquid); method: Flow calorimetry
Temperature, K	Mole fraction of cyclohexane	Excess molar enthalpy (molar enthalpy of mixing), kJ/mol	uncertainty
298.15	.0503	.091	
298.15	.1005	.173	
298.15	.1499	.247	
298.15	.2005	.316	
298.15	.2499	.378	
298.15	.3005	.435	
298.15	.3503	.486	
298.15	.4003	.531	
298.15	.4501	.569	
298.15	.4998	.599	
298.15	.5504	.623	
298.15	.6006	.637	
298.15	.6503	.642	
298.15	.6995	.636	
298.15	.8005	.582	
298.15	.8497	.53	
298.15	.9005	.456	
298.15	.9502	.346	
313.15	.0503	.107	
313.15	.1005	.208	
313.15	.1499	.3	
313.15	.2005	.388	
313.15	.2498	.467	
313.15	.3004	.541	
313.15	.3502	.607	
313.15	.4001	.666	
313.15	.45	.717	
313.15	.4997	.758	
313.15	.5502	.79	
313.15	.6006	.81	
313.15	.6503	.819	
313.15	.6994	.813	
313.15	.7503	.791	
313.15	.8005	.75	
313.15	.8497	.689	
313.15	.9005	.598	
313.15	.9502	.459	

System: 1-propanol + methylcyclohexane; phases: Liquid
Fixed: Pressure, kPa = 100
Property: Excess molar enthalpy (molar enthalpy of mixing), kJ/mol (Liquid); method: Flow calorimetry
Temperature, K	Mole fraction of methylcyclohexane	Excess molar enthalpy (molar enthalpy of mixing), kJ/mol	uncertainty
298.15	.0498	.075	
298.15	.1005	.144	
298.15	.1504	.207	
298.15	.2	.265	
298.15	.2504	.321	
298.15	.3005	.372	
298.15	.3501	.419	
298.15	.3998	.462	
298.15	.4503	.501	
298.15	.5004	.533	
298.15	.55	.559	
298.15	.5998	.577	
298.15	.6497	.587	
298.15	.6995	.587	
298.15	.7505	.574	
298.15	.7996	.549	
298.15	.8495	.508	
298.15	.9002	.446	
313.15	.0498	.1	
313.15	.1005	.195	
313.15	.1505	.283	
313.15	.2	.365	
313.15	.2504	.443	
313.15	.3005	.515	
313.15	.3502	.581	
313.15	.3998	.64	
313.15	.4503	.694	
313.15	.5005	.74	
313.15	.55	.781	
313.15	.5999	.798	
313.15	.6497	.81	
313.15	.6995	.808	
313.15	.7505	.79	
313.15	.7996	.756	
313.15	.8495	.702	
313.15	.9002	.619	
313.15	.9499	.486	

System: 1-propanol + cyclohexane + dibutyl ether; phases: Liquid
Fixed: Pressure, kPa = 100
Property: Molar enthalpy of mixing with solvent, kJ/mol of cyclohexane (Liquid); method: Flow calorimetry
Temperature, K	Solvent: Mole fraction of dibutyl ether	Mole fraction of cyclohexane	Molar enthalpy of mixing with solvent, kJ/mol of cyclohexane	uncertainty
298.15	.2	.9495	.315	
298.15	.2	.8996	.409	
298.15	.2	.8504	.473	
298.15	.2	.7997	.52	
298.15	.2	.7004	.57	
298.15	.2	.5997	.577	
298.15	.2	.4998	.548	
298.15	.2	.3998	.489	
298.15	.2	.2998	.403	
298.15	.2	.1999	.293	
298.15	.2	.1002	.159	
298.15	.4	.9499	.278	
298.15	.4	.8996	.364	
298.15	.4	.85	.421	
298.15	.4	.8003	.462	
298.15	.4	.7002	.507	
298.15	.4	.6004	.514	
298.15	.4	.4998	.489	
298.15	.4	.4004	.437	
298.15	.4	.3003	.36	
298.15	.4	.2003	.262	
298.15	.4	.1006	.141	
298.15	.6001	.9001	.319	
298.15	.6001	.8001	.409	
298.15	.6001	.6996	.449	
298.15	.6001	.5997	.454	
298.15	.6001	.4998	.431	
298.15	.6001	.4	.383	
298.15	.6001	.3006	.315	
298.15	.6001	.2007	.229	
298.15	.6001	.1505	.177	
298.15	.6001	.1005	.121	
298.15	.6001	.0495	.062	
298.15	.8001	.9	.265	
298.15	.8001	.8002	.354	
298.15	.8001	.6997	.393	
298.15	.8001	.6003	.397	
298.15	.8001	.5	.377	
298.15	.8001	.4003	.334	
298.15	.8001	.2997	.273	
298.15	.8001	.1998	.196	
298.15	.8001	.1508	.153	
298.15	.8001	.1002	.105	
298.15	.8001	.0495	.053	
313.15	.2	.8998	.526	
313.15	.2	.7999	.652	
313.15	.2	.7005	.702	
313.15	.2	.5997	.698	
313.15	.2	.4998	.656	
313.15	.2	.3998	.58	
313.15	.2	.2998	.473	
313.15	.2	.1999	.34	
313.15	.2	.1506	.26	
313.15	.4	.8997	.459	
313.15	.4	.8004	.564	
313.15	.4	.7003	.604	
313.15	.4	.6004	.602	
313.15	.4	.4998	.564	
313.15	.4	.4004	.499	
313.15	.4	.3003	.406	
313.15	.4	.2003	.292	
313.15	.4	.1007	.148	
313.15	.6	.9001	.388	
313.15	.6	.8002	.484	
313.15	.6	.6999	.516	
313.15	.6	.6	.513	
313.15	.6	.5001	.48	
313.15	.6	.4003	.423	
313.15	.6	.3008	.344	
313.15	.6	.2008	.247	
313.15	.6	.1004	.127	
313.15	.8001	.8001	.386	
313.15	.8001	.6997	.421	
313.15	.8001	.6002	.421	
313.15	.8001	.4998	.394	
313.15	.8001	.4001	.347	
313.15	.8001	.2995	.28	
313.15	.8001	.1998	.195	
313.15	.8001	.1002	.101	

System: 1-propanol + methylcyclohexane + dibutyl ether; phases: Liquid
Fixed: Pressure, kPa = 100
Property: Molar enthalpy of mixing with solvent, kJ/mol of methylcyclohexane (Liquid); method: Flow calorimetry
Temperature, K	Solvent: Mole fraction of dibutyl ether	Mole fraction of methylcyclohexane	Molar enthalpy of mixing with solvent, kJ/mol of methylcyclohexane	uncertainty
298.15	.2002	.9004	.383	
298.15	.2002	.8506	.429	
298.15	.2002	.7997	.46	
298.15	.2002	.6999	.488	
298.15	.2002	.6001	.484	
298.15	.2002	.4998	.45	
298.15	.2002	.3996	.396	
298.15	.2002	.3	.322	
298.15	.2002	.1997	.232	
298.15	.2002	.1003	.126	
298.15	.4	.9002	.323	
298.15	.4	.8495	.358	
298.15	.4	.8005	.38	
298.15	.4	.7001	.399	
298.15	.4	.6	.394	
298.15	.4	.5003	.369	
298.15	.4	.4003	.325	
298.15	.4	.2998	.265	
298.15	.4	.2	.192	
298.15	.4	.1001	.103	
298.15	.6	.8998	.263	
298.15	.6	.8499	.29	
298.15	.6	.7998	.307	
298.15	.6	.7002	.319	
298.15	.6	.6002	.314	
298.15	.6	.5005	.294	
298.15	.6	.4001	.259	
298.15	.6	.3003	.211	
298.15	.6	.1998	.153	
298.15	.6	.0997	.082	
298.15	.8002	.8981	.19	
298.15	.8002	.8475	.215	
298.15	.8002	.7969	.23	
298.15	.8002	.6959	.243	
298.15	.8002	.5952	.239	
298.15	.8002	.4951	.223	
298.15	.8002	.3946	.195	
298.15	.8002	.2952	.159	
298.15	.8002	.1969	.113	
298.15	.8002	.0977	.061	
313.15	.2	.9004	.529	
313.15	.2	.8506	.592	
313.15	.2	.7997	.631	
313.15	.2	.6999	.664	
313.15	.2	.6001	.654	
313.15	.2	.4998	.603	
313.15	.2	.4006	.525	
313.15	.2	.3	.423	
313.15	.2	.2006	.304	
313.15	.2	.1003	.165	
313.15	.4	.9002	.445	
313.15	.4	.8495	.494	
313.15	.4	.8005	.521	
313.15	.4	.7	.54	
313.15	.4	.5999	.528	
313.15	.4	.5003	.489	
313.15	.4	.4003	.426	
313.15	.4	.2998	.345	
313.15	.4	.2001	.247	
313.15	.4	.1001	.131	
313.15	.6	.8997	.356	
313.15	.6	.8498	.395	
313.15	.6	.7998	.416	
313.15	.6	.7002	.428	
313.15	.6	.6001	.415	
313.15	.6	.5004	.383	
313.15	.6	.4001	.333	
313.15	.6	.3003	.27	
313.15	.6	.1998	.192	
313.15	.6	.0997	.102	
313.15	.8	.7997	.29	
313.15	.8	.6997	.304	
313.15	.8	.6001	.297	
313.15	.8	.5001	.275	
313.15	.8	.3999	.24	
313.15	.8	.3006	.194	
313.15	.8	.2002	.139	
313.15	.8	.0999	.073	
