Measured thermophysical data. Ionic liquid 1-hexyl-3-methylimidazolium hexafluorophosphate, an efficient solvent for extraction of acetone from aqueous solutions
Source: J. Chem. Thermodyn., 2015, 10.1016/j.jct.2015.08.027
Compound 1: 1-hexyl-3-methylimidazolium hexafluorophosphate, C10H19F6N2P
Compound 2: water, H2O, purity 99.9%
Compound 3: acetone, C3H6O, purity 99.9%

System: 1-hexyl-3-methylimidazolium hexafluorophosphate; phases: Liquid
Fixed: Pressure, kPa = 101.325
Property: Mass density, kg/m3 (Liquid); method: Vibrating tube method
Temperature, K	Mass density, kg/m3	uncertainty
293.2	1294.91	1.29491
298.2	1290.88	1.29088
303.2	1286.85	1.28685

System: 1-hexyl-3-methylimidazolium hexafluorophosphate; phases: Liquid
Fixed: Pressure, kPa = 101.325
Property: Refractive index (Na D-line) (Liquid); method: Standard Abbe refractometry
Temperature, K	Refractive index (Na D-line)	uncertainty
293.2	1.4176	.0002
298.2	1.4164	.0002
303.2	1.41515	.0002

System: water; phases: Liquid
Fixed: Pressure, kPa = 101.325
Property: Mass density, kg/m3 (Liquid); method: Vibrating tube method
Temperature, K	Mass density, kg/m3	uncertainty
293.2	998.2	.9982
298.2	997.04	.99704
303.2	995.65	.99565

System: water; phases: Liquid
Fixed: Pressure, kPa = 101.325
Property: Refractive index (Na D-line) (Liquid); method: Standard Abbe refractometry
Temperature, K	Refractive index (Na D-line)	uncertainty
293.2	1.33305	.0002
298.2	1.3325	.0002
303.2	1.33195	.0002

System: acetone; phases: Liquid
Fixed: Pressure, kPa = 101.325
Property: Mass density, kg/m3 (Liquid); method: Vibrating tube method
Temperature, K	Mass density, kg/m3	uncertainty
293.2	790.66	.79066
298.2	784.4	.7844
303.2	778.7	.7787

System: acetone; phases: Liquid
Fixed: Pressure, kPa = 101.325
Property: Refractive index (Na D-line) (Liquid); method: Standard Abbe refractometry
Temperature, K	Refractive index (Na D-line)	uncertainty
293.2	1.3588	.0002
298.2	1.35575	.0002
303.2	1.35265	.0002

System: acetone + water + 1-hexyl-3-methylimidazolium hexafluorophosphate; phases: Liquid mixture 1, Liquid mixture 2
Fixed: Pressure, kPa = 81.5
Property: Mass fraction of acetone (Liquid mixture 1); method: Titration method
Temperature, K	Mass fraction of water	Mass fraction of acetone	uncertainty
293.2	.993	0	.005
293.2	.936	.0554	.005
293.2	.8836	.1053	.005
293.2	.8356	.1495	.005
293.2	.7753	.2051	.005
293.2	.7226	.2452	.005
293.2	.6676	.2823	.005
293.2	.609	.3268	.005
293.2	.5395	.3583	.005
298.2	.9924	0	.005
298.2	.9398	.0503	.005
298.2	.883	.1031	.005
298.2	.837	.1429	.005
298.2	.7755	.1982	.005
298.2	.714	.2513	.005
298.2	.6773	.2766	.005
298.2	.6192	.3165	.005
298.2	.5341	.3517	.005
303.2	.9914	0	.005
303.2	.9357	.0542	.005
303.2	.878	.1084	.005
303.2	.8312	.1475	.005
303.2	.767	.1984	.005
303.2	.7081	.2408	.005
303.2	.6606	.276	.005
303.2	.6004	.3231	.005
303.2	.5406	.3567	.005

System: acetone + water + 1-hexyl-3-methylimidazolium hexafluorophosphate; phases: Liquid mixture 2, Liquid mixture 1
Fixed: Pressure, kPa = 81.5
Property: Mass fraction of acetone (Liquid mixture 2); method: Titration method
Temperature, K	Mass fraction of water	Mass fraction of acetone	uncertainty
293.2	.0142	0	.005
293.2	.019	.0516	.005
293.2	.0238	.1004	.005
293.2	.0302	.1458	.005
293.2	.0396	.1937	.005
293.2	.0517	.2401	.005
293.2	.0727	.2803	.005
293.2	.0936	.3183	.005
293.2	.1252	.3508	.005
298.2	.0161	0	.005
298.2	.0198	.0505	.005
298.2	.0253	.0976	.005
298.2	.0344	.1448	.005
298.2	.0453	.189	.005
298.2	.0586	.2316	.005
298.2	.0791	.2768	.005
298.2	.1042	.3122	.005
298.2	.1291	.3469	.005
303.2	.0164	0	.005
303.2	.0234	.0501	.005
303.2	.0308	.0966	.005
303.2	.0404	.1425	.005
303.2	.0508	.1894	.005
303.2	.0667	.235	.005
303.2	.0862	.2756	.005
303.2	.1091	.3131	.005
303.2	.142	.3437	.005

System: acetone + water + 1-hexyl-3-methylimidazolium hexafluorophosphate; phases: Liquid
Fixed: Pressure, kPa = 81.5
Property: Refractive index (Na D-line) (Liquid); method: Standard Abbe refractometry
Temperature, K	Mass fraction of water	Mass fraction of acetone	Refractive index (Na D-line)	uncertainty
293.2	.993	0	1.3334	.0002
293.2	.936	.0554	1.33715	.0002
293.2	.8836	.1053	1.34155	.0002
293.2	.8356	.1495	1.34415	.0002
293.2	.7753	.2051	1.34845	.0002
293.2	.7226	.2452	1.3521	.0002
293.2	.6676	.2823	1.35535	.0002
293.2	.609	.3268	1.35925	.0002
293.2	.5395	.3583	1.36305	.0002
298.2	.9924	0	1.3332	.0002
298.2	.9398	.0503	1.33675	.0002
298.2	.883	.1031	1.34005	.0002
298.2	.837	.1429	1.34245	.0002
298.2	.7755	.1982	1.3462	.0002
298.2	.714	.2513	1.34982	.0002
298.2	.6773	.2766	1.35225	.0002
298.2	.6192	.3165	1.35525	.0002
298.2	.5341	.3517	1.35845	.0002
303.2	.9914	0	1.33345	.0002
303.2	.9357	.0542	1.33635	.0002
303.2	.878	.1084	1.33965	.0002
303.2	.8312	.1475	1.34215	.0002
303.2	.767	.1984	1.3457	.0002
303.2	.7081	.2408	1.3485	.0002
303.2	.6606	.276	1.35065	.0002
303.2	.6004	.3231	1.35285	.0002
303.2	.5406	.3567	1.35515	.0002
293.2	.0142	0	1.4164	.0002
293.2	.019	.0516	1.41325	.0002
293.2	.0238	.1004	1.41005	.0002
293.2	.0302	.1458	1.4072	.0002
293.2	.0396	.1937	1.40375	.0002
293.2	.0517	.2401	1.4001	.0002
293.2	.0727	.2803	1.39745	.0002
293.2	.0936	.3183	1.39405	.0002
293.2	.1252	.3508	1.39185	.0002
298.2	.0161	0	1.41525	.0002
298.2	.0198	.0505	1.41255	.0002
298.2	.0253	.0976	1.40885	.0002
298.2	.0344	.1448	1.40625	.0002
298.2	.0453	.189	1.4023	.0002
298.2	.0586	.2316	1.39925	.0002
298.2	.0791	.2768	1.3957	.0002
298.2	.1042	.3122	1.39325	.0002
298.2	.1291	.3469	1.3907	.0002
303.2	.0164	0	1.4135	.0002
303.2	.0234	.0501	1.4101	.0002
303.2	.0308	.0966	1.40675	.0002
303.2	.0404	.1425	1.40325	.0002
303.2	.0508	.1894	1.4004	.0002
303.2	.0667	.235	1.39675	.0002
303.2	.0862	.2756	1.3933	.0002
303.2	.1091	.3131	1.39075	.0002
303.2	.142	.3437	1.388	.0002

System: acetone + water + 1-hexyl-3-methylimidazolium hexafluorophosphate; phases: Liquid mixture 1, Liquid mixture 2
Fixed: Pressure, kPa = 81.5
Property: Mass fraction of water (Liquid mixture 1); method: Index of refraction calibration data
Property: Mass fraction of acetone (Liquid mixture 2); method: Index of refraction calibration data
Property: Mass fraction of water (Liquid mixture 2); method: Index of refraction calibration data
Temperature, K	Mass fraction of acetone	Mass fraction of water	uncertainty	Mass fraction of acetone	uncertainty	Mass fraction of water	uncertainty
293.2	.0538	.9392	.005	.0538	.005	.0173	.005
298.2	.1133	.8771	.005	.115	.005	.026	.005
298.2	.1546	.8311	.005	.1639	.005	.0367	.005
298.2	.2012	.7745	.005	.2202	.005	.0557	.005
298.2	.2302	.7365	.005	.2549	.005	.0712	.005
298.2	.2396	.7236	.005	.2661	.005	.0768	.005
298.2	.2878	.6536	.005	.3259	.005	.1128	.005
298.2	.3424	.5641	.005	.3945	.005	.1676	.005
303.2	.0709	.9186	.005	.0625	.005	.0228	.005
303.2	.0957	.8915	.005	.0868	.005	.0258	.005
303.2	.1534	.824	.005	.1457	.005	.0376	.005
293.2	.1098	.8823	.005	.1167	.005	.0223	.005
303.2	.2019	.7632	.005	.196	.005	.0535	.005
303.2	.2432	.7081	.005	.2417	.005	.0728	.005
303.2	.3183	.6009	.005	.3219	.005	.1195	.005
303.2	.3816	.5036	.005	.3886	.005	.1723	.005
293.2	.15	.8382	.005	.1667	.005	.0318	.005
293.2	.1749	.8093	.005	.1994	.005	.0408	.005
293.2	.2118	.7641	.005	.2474	.005	.0588	.005
293.2	.2715	.6838	.005	.3283	.005	.1039	.005
293.2	.302	.6389	.005	.3702	.005	.136	.005
293.2	.3188	.6128	.005	.3937	.005	.1571	.005
298.2	.0673	.9244	.005	.0647	.005	.0199	.005

System: water + 1-hexyl-3-methylimidazolium hexafluorophosphate; phases: Liquid mixture 1, Liquid mixture 2
Property: Mass fraction of water (Liquid mixture 1); method: Titration method
Temperature, K	Pressure, kPa	Mass fraction of water	uncertainty
293.2	81.5	.993	.005
298.2	81.5	.9924	.005
303.2	81.5	.9914	.005

System: water + 1-hexyl-3-methylimidazolium hexafluorophosphate; phases: Liquid mixture 2, Liquid mixture 1
Property: Mass fraction of water (Liquid mixture 2); method: Titration method
Temperature, K	Pressure, kPa	Mass fraction of water	uncertainty
293.2	81.5	.0142	.005
298.2	81.5	.0161	.005
303.2	81.5	.0164	.005

System: water + 1-hexyl-3-methylimidazolium hexafluorophosphate; phases: Liquid
Property: Refractive index (Na D-line) (Liquid); method: Standard Abbe refractometry
Temperature, K	Mass fraction of water	Pressure, kPa	Refractive index (Na D-line)	uncertainty
293.2	.993	81.5	1.3334	.0002
298.2	.9924	81.5	1.3332	.0002
303.2	.9914	81.5	1.33345	.0002
293.2	.0142	81.5	1.4164	.0002
298.2	.0161	81.5	1.41525	.0002
303.2	.0164	81.5	1.4135	.0002
