Measured thermophysical data. Liquid-liquid equilibria study of the (water + phosphoric acid + hexyl or cyclohexyl acetate) systems at T = (298.15, 308.15, and 318.15) K: Measurement and thermodynamic modelling
Source: J. Chem. Thermodyn., 2016, 10.1016/j.jct.2016.03.025
Compound 1: hexyl acetate, C8H16O2, purity 98%
Compound 2: cyclohexyl acetate, C8H14O2, purity 98%
Compound 3: water, H2O
Compound 4: phosphoric acid, H3O4P, purity 99.9%

System: hexyl acetate; phases: Liquid
Fixed: Pressure, kPa = 101.325
Property: Refractive index (Na D-line) (Liquid); method: Standard Abbe refractometry
Temperature, K	Refractive index (Na D-line)	uncertainty
293.15	1.4096	.0005

System: hexyl acetate; phases: Liquid
Fixed: Pressure, kPa = 101.325
Property: Mass density, kg/m3 (Liquid); method: Vibrating tube method
Temperature, K	Mass density, kg/m3	uncertainty
293.15	873.3	.5

System: cyclohexyl acetate; phases: Liquid
Fixed: Pressure, kPa = 101.325
Property: Refractive index (Na D-line) (Liquid); method: Standard Abbe refractometry
Temperature, K	Refractive index (Na D-line)	uncertainty
293.15	1.4425	.0005

System: cyclohexyl acetate; phases: Liquid
Fixed: Pressure, kPa = 101.325
Property: Mass density, kg/m3 (Liquid); method: Vibrating tube method
Temperature, K	Mass density, kg/m3	uncertainty
293.15	970.1	.5

System: water; phases: Liquid
Fixed: Pressure, kPa = 101.325
Property: Refractive index (Na D-line) (Liquid); method: Standard Abbe refractometry
Temperature, K	Refractive index (Na D-line)	uncertainty
293.15	1.333	.0005

System: water; phases: Liquid
Fixed: Pressure, kPa = 101.325
Property: Mass density, kg/m3 (Liquid); method: Vibrating tube method
Temperature, K	Mass density, kg/m3	uncertainty
293.15	998.3	.5

System: hexyl acetate + phosphoric acid + water; phases: Liquid mixture 1, Liquid mixture 2
Fixed: Pressure, kPa = 101.3
Property: Mass fraction of phosphoric acid (Liquid mixture 1); method: Titration method
Temperature, K	Mass fraction of water	Mass fraction of phosphoric acid	uncertainty
298.15	.9993	0	
298.15	.9543	.0447	
298.15	.8692	.1286	
298.15	.786	.2108	
298.15	.6172	.3789	
298.15	.5323	.463	
298.15	.4038	.5908	
298.15	.3185	.6751	
298.15	.2569	.735	
298.15	.162	.8227	
298.15	.11	.8423	
298.15	.0852	.7958	
298.15	.0723	.7347	
298.15	.0647	.6909	
298.15	.0566	.6046	
298.15	.0469	.5132	
298.15	.0329	.3329	
298.15	.0203	.1931	
298.15	.0125	.0986	
298.15	.0057	0	
308.15	.9989	0	
308.15	.9492	.0497	
308.15	.9072	.0901	
308.15	.7842	.2119	
308.15	.6137	.3815	
308.15	.5307	.4639	
308.15	.405	.5886	
308.15	.3215	.671	
308.15	.2561	.7353	
308.15	.1615	.8182	
308.15	.1179	.8341	
308.15	.0882	.7923	
308.15	.0737	.7364	
308.15	.067	.6905	
308.15	.0575	.6017	
308.15	.0493	.5129	
308.15	.0357	.3286	
308.15	.022	.1927	
308.15	.0151	.0959	
308.15	.0074	0	
318.15	.9979	0	
318.15	.948	.0498	
318.15	.87	.1268	
318.15	.7805	.2157	
318.15	.6111	.3836	
318.15	.5287	.4648	
318.15	.4457	.5468	
318.15	.3199	.6715	
318.15	.255	.7354	
318.15	.166	.8113	
318.15	.1263	.8224	
318.15	.0924	.7898	
318.15	.0776	.7306	
318.15	.0716	.6888	
318.15	.0653	.6454	
318.15	.0574	.5498	
318.15	.0439	.3745	
318.15	.0259	.1877	
318.15	.0178	.0976	
318.15	.0089	0	

System: hexyl acetate + phosphoric acid + water; phases: Liquid mixture 2, Liquid mixture 1
Fixed: Pressure, kPa = 101.3
Property: Mass fraction of water (Liquid mixture 2); method: Titration method
Property: Mass fraction of phosphoric acid (Liquid mixture 1); method: Titration method
Property: Mass fraction of water (Liquid mixture 1); method: Titration method
Temperature, K	Mass fraction of phosphoric acid	Mass fraction of water	uncertainty	Mass fraction of phosphoric acid	uncertainty	Mass fraction of water	uncertainty
298.15	.009	.006	.005	.164	.005	.833	.005
308.15	.039	.011	.005	.438	.005	.556	.005
308.15	.049	.012	.005	.479	.005	.515	.005
308.15	.057	.012	.005	.512	.005	.482	.005
318.15	.015	.01	.005	.202	.005	.795	.005
318.15	.023	.011	.005	.291	.005	.705	.005
318.15	.032	.012	.005	.371	.005	.624	.005
318.15	.042	.013	.005	.44	.005	.554	.005
318.15	.051	.014	.005	.48	.005	.513	.005
318.15	.061	.014	.005	.514	.005	.479	.005
298.15	.019	.007	.005	.288	.005	.708	.005
298.15	.028	.008	.005	.362	.005	.634	.005
298.15	.037	.008	.005	.424	.005	.572	.005
298.15	.046	.009	.005	.473	.005	.522	.005
298.15	.054	.009	.005	.507	.005	.489	.005
308.15	.013	.008	.005	.199	.005	.797	.005
308.15	.02	.009	.005	.281	.005	.715	.005
308.15	.029	.01	.005	.37	.005	.626	.005

System: cyclohexyl acetate + phosphoric acid + water; phases: Liquid mixture 1, Liquid mixture 2
Fixed: Pressure, kPa = 101.3
Property: Mass fraction of phosphoric acid (Liquid mixture 1); method: Titration method
Temperature, K	Mass fraction of water	Mass fraction of phosphoric acid	uncertainty
298.15	.9988	0	
298.15	.9489	.0489	
298.15	.866	.1309	
298.15	.788	.208	
298.15	.6121	.3831	
298.15	.5305	.4635	
298.15	.4025	.5903	
298.15	.2561	.7343	
298.15	.1921	.7931	
298.15	.1356	.8154	
298.15	.1168	.7896	
298.15	.1012	.712	
298.15	.0947	.6687	
298.15	.0785	.544	
298.15	.0619	.4116	
298.15	.0495	.3236	
298.15	.0364	.2336	
298.15	.0252	.1425	
298.15	.0126	.0481	
298.15	.0062	0	
308.15	.9988	0	
308.15	.9553	.0423	
308.15	.8664	.13	
308.15	.7823	.2134	
308.15	.6151	.3789	
308.15	.4052	.5865	
308.15	.3186	.6719	
308.15	.256	.7333	
308.15	.1954	.7901	
308.15	.1371	.8132	
308.15	.1234	.7857	
308.15	.1088	.7065	
308.15	.0902	.5602	
308.15	.0799	.4962	
308.15	.0679	.4103	
308.15	.0552	.3239	
308.15	.041	.2306	
308.15	.0286	.1429	
308.15	.0154	.0496	
308.15	.0079	0	
318.15	.9976	0	
318.15	.9479	.0485	
318.15	.8659	.1293	
318.15	.7711	.2239	
318.15	.6132	.3796	
318.15	.4008	.5901	
318.15	.3198	.6694	
318.15	.2532	.7349	
318.15	.2001	.7827	
318.15	.1393	.808	
318.15	.1253	.7824	
318.15	.1124	.7028	
318.15	.0956	.5788	
318.15	.0845	.4918	
318.15	.0732	.4104	
318.15	.0598	.321	
318.15	.0469	.233	
318.15	.0314	.142	
318.15	.0172	.0489	
318.15	.0096	0	

System: cyclohexyl acetate + phosphoric acid + water; phases: Liquid mixture 2, Liquid mixture 1
Fixed: Pressure, kPa = 101.3
Property: Mass fraction of water (Liquid mixture 2); method: Titration method
Property: Mass fraction of phosphoric acid (Liquid mixture 1); method: Titration method
Property: Mass fraction of water (Liquid mixture 1); method: Titration method
Temperature, K	Mass fraction of phosphoric acid	Mass fraction of water	uncertainty	Mass fraction of phosphoric acid	uncertainty	Mass fraction of water	uncertainty
298.15	.01	.008	.005	.175	.005	.822	.005
308.15	.052	.016	.005	.438	.005	.555	.005
308.15	.064	.017	.005	.481	.005	.512	.005
308.15	.074	.017	.005	.524	.005	.468	.005
318.15	.012	.012	.005	.179	.005	.816	.005
318.15	.023	.013	.005	.287	.005	.707	.005
318.15	.039	.016	.005	.384	.005	.609	.005
318.15	.054	.018	.005	.443	.005	.549	.005
318.15	.066	.02	.005	.483	.005	.508	.005
318.15	.078	.022	.005	.526	.005	.466	.005
298.15	.022	.009	.005	.29	.005	.705	.005
298.15	.036	.011	.005	.376	.005	.619	.005
298.15	.048	.013	.005	.424	.005	.571	.005
298.15	.062	.015	.005	.48	.005	.515	.005
298.15	.072	.016	.005	.516	.005	.478	.005
308.15	.014	.01	.005	.213	.005	.783	.005
308.15	.023	.011	.005	.293	.005	.702	.005
308.15	.035	.013	.005	.37	.005	.624	.005

System: hexyl acetate + water; phases: Liquid mixture 1, Liquid mixture 2
Property: Mass fraction of water (Liquid mixture 1); method: Titration method
Temperature, K	Pressure, kPa	Mass fraction of water	uncertainty
298.15	101.3	.9993	
298.15	101.3	.0057	
308.15	101.3	.9989	
308.15	101.3	.0074	
318.15	101.3	.9979	
318.15	101.3	.0089	

System: cyclohexyl acetate + water; phases: Liquid mixture 1, Liquid mixture 2
Property: Mass fraction of water (Liquid mixture 1); method: Titration method
Temperature, K	Pressure, kPa	Mass fraction of water	uncertainty
298.15	101.3	.9988	
298.15	101.3	.0062	
308.15	101.3	.9988	
308.15	101.3	.0079	
318.15	101.3	.9976	
318.15	101.3	.0096	

System: phosphoric acid + water; phases: Liquid
Fixed: Pressure, kPa = 101.3
Fixed: Temperature, K = 293.15
Property: Mass density, kg/m3 (Liquid); method: Vibrating tube method
Mass fraction of phosphoric acid	Mass density, kg/m3	uncertainty
.85	1682.8	

System: phosphoric acid + water; phases: Liquid
Fixed: Pressure, kPa = 101.3
Fixed: Temperature, K = 293.15
Property: Refractive index (Na D-line) (Liquid); method: Standard Abbe refractometry
Mass fraction of phosphoric acid	Refractive index (Na D-line)	uncertainty
.85	1.4345	
