Measured thermophysical data. Thermodynamic properties of 2,7-di-tert-butylfluorene - An experimental and computational study
Source: J. Chem. Thermodyn., 2016, 10.1016/j.jct.2016.05.007
Compound 1: 2,7-di-tert-butyl-9H-fluorene, C21H26, purity 99.5%
Compound 2: carbon dioxide, CO2
Compound 3: water, H2O
Compound 4: oxygen, O2

System: 2,7-di-tert-butyl-9H-fluorene; phases: Crystal 2, Crystal 1, Air at 1 atmosphere
Property: Triple point temperature, K (Crystal 2); method: DSC
Triple point temperature, K	uncertainty
367	

System: 2,7-di-tert-butyl-9H-fluorene; phases: Crystal 1, Liquid, Air at 1 atmosphere
Property: Triple point temperature, K (Crystal 1); method: DSC
Triple point temperature, K	uncertainty
395.9	

System: 2,7-di-tert-butyl-9H-fluorene; phases: Crystal 2, Crystal 1, Air at 1 atmosphere
Property: Molar enthalpy of transition or fusion, kJ/mol (Crystal 2); method: DSC
Molar enthalpy of transition or fusion, kJ/mol	uncertainty
10	

System: 2,7-di-tert-butyl-9H-fluorene; phases: Crystal 1, Liquid, Air at 1 atmosphere
Property: Molar enthalpy of transition or fusion, kJ/mol (Crystal 1); method: DSC
Molar enthalpy of transition or fusion, kJ/mol	uncertainty
15.6	

System: 2,7-di-tert-butyl-9H-fluorene; phases: Crystal 2, Gas
Property: Molar enthalpy of vaporization or sublimation, kJ/mol (Crystal 2); method: Static calorimetry
Temperature, K	Molar enthalpy of vaporization or sublimation, kJ/mol	uncertainty
298.15	119.9	.9

System: 2,7-di-tert-butyl-9H-fluorene; phases: Crystal 1, Gas
Property: Vapor or sublimation pressure, kPa (Crystal 1); method: Closed cell (Static) method
Temperature, K	Vapor or sublimation pressure, kPa	uncertainty
368.55	.000873	
370.54	.001055	
372.5	.001246	
374.5	.001492	
376.45	.001778	
378.41	.002106	
380.4	.002524	
382.38	.002965	
384.34	.003492	
386.3	.004126	
388.27	.004862	
390.24	.00567	

System: 2,7-di-tert-butyl-9H-fluorene; phases: Liquid, Gas
Property: Vapor or sublimation pressure, kPa (Liquid); method: Closed cell (Static) method
Temperature, K	Vapor or sublimation pressure, kPa	uncertainty
384.34	.003946	
386.32	.004548	
388.28	.005217	
390.28	.005976	
392.22	.006859	
394.2	.007843	
396.17	.008987	
398.15	.01026	
400.05	.01164	
402.07	.01327	
404.04	.01508	

System: 2,7-di-tert-butyl-9H-fluorene; phases: Crystal 2, Gas
Property: Vapor or sublimation pressure, kPa (Crystal 2); method: Knudsen effusion method
Temperature, K	Vapor or sublimation pressure, kPa	uncertainty
349.14	.000106	
351.14	.000135	
355.28	.000215	
357.2	.000261	
359.19	.00033	
361.14	.000409	
363.27	.000514	
351.14	.000132	
353.3	.000171	
355.28	.000217	
357.2	.000271	
359.19	.000321	
361.14	.000408	
363.27	.000509	
349.14	.000105	
351.14	.000136	
353.3	.000169	
355.28	.000213	
357.2	.000267	
359.19	.000336	
361.14	.000409	
363.27	.000507	

System: 2,7-di-tert-butyl-9H-fluorene; phases: Crystal 1, Gas
Property: Vapor or sublimation pressure, kPa (Crystal 1); method: Knudsen effusion method
Temperature, K	Vapor or sublimation pressure, kPa	uncertainty
368.2	.000805	
369.13	.000886	
371.21	.001082	
368.2	.000816	
369.13	.000888	
370.26	.000979	
371.21	.00107	
372.21	.001178	
368.2	.000828	
369.13	.000889	
370.26	.000975	
371.21	.001079	
372.21	.00118	

Reaction: -1 2,7-di-tert-butyl-9H-fluorene + 21 carbon dioxide + 13 water + -27.5 oxygen
Property: Specific internal energy of reaction at constant volume, J/g
-42458.53
