Measured thermophysical data. Sodium carbonate as phase promoter in aqueous solutions of imidazolium and  pyridinium ionic liquids
Source: J. Chem. Thermodyn., 2011, 10.1016/j.jct.2011.02.023
Compound 1: 1-benzyl-3-methylimidazolium methylsulfate, C12H16N2O4S, purity 98%
Compound 2: 1,3-dimethylimidazolium methylsulfate, C6H12N2O4S, purity 98%
Compound 3: 1-butyl-3-methylimidazolium methylsulfate, C9H18N2O4S, purity 98%
Compound 4: 1-ethyl-3-methylimazolium methylsulfate, C7H14N2O4S, purity 98%
Compound 5: 1-Benzyl-3-methylimidazolium chloride, C11H13ClN2, purity 98%
Compound 6: 1-hexyl-3-methylimidazolium chloride, C10H19ClN2, purity 98%
Compound 7: 1-methylpyridinium methylsulfate, C7H11NO4S, purity 98%
Compound 8: sodium carbonate, CNa2O3, purity 99%
Compound 9: water, H2O, purity 98%

System: sodium carbonate + water + 1-benzyl-3-methylimidazolium methylsulfate; phases: Liquid mixture 1, Liquid mixture 2
Fixed: Temperature, K = 298.15
Fixed: Pressure, kPa = 101
Property: Mass fraction of sodium carbonate (Liquid mixture 1); method: Titration method
Mass fraction of 1-benzyl-3-methylimidazolium methylsulfate	Mass fraction of sodium carbonate	uncertainty
.7579	.0008	.0002
.727	.0018	.0002
.6919	.003	.0002
.6831	.0029	.0002
.665	.0046	.0002
.5687	.014	.0002
.5515	.0168	.0002
.5453	.0204	.0002
.5214	.0241	.0002
.4887	.028	.0002
.4754	.0348	.0002
.4621	.034	.0002
.4301	.0448	.0002
.4077	.0492	.0002
.3878	.0546	.0002
.363	.0596	.0002
.3434	.066	.0002
.3201	.0743	.0002
.2835	.0829	.0002
.2699	.0881	.0002
.2479	.0932	.0002
.2402	.0978	.0002
.2002	.1073	.0002
.1834	.1123	.0002
.1731	.1179	.0002
.1653	.1215	.0002
.157	.1248	.0002
.1484	.129	.0002
.1383	.1321	.0002
.1284	.1359	.0002
.12	.1399	.0002
.1126	.1433	.0002
.1034	.1471	.0002
.0971	.1508	.0002
.0903	.1548	.0002
.0806	.1603	.0002
.0759	.1635	.0002
.0671	.1681	.0002
.0622	.1707	.0002
.0364	.186	.0002
.0203	.1987	.0002
.012	.2076	.0002
.0056	.2294	.0002
.002	.2468	.0002
.0004	.2761	.0002

System: sodium carbonate + water + 1-benzyl-3-methylimidazolium methylsulfate; phases: Liquid mixture 2, Liquid mixture 1
Fixed: Pressure, kPa = 101.325
Fixed: Temperature, K = 298.15
Property: Mass fraction of sodium carbonate (Liquid mixture 2); method: Titration method
Property: Mass fraction of 1-benzyl-3-methylimidazolium methylsulfate (Liquid mixture 1); method: Titration method
Property: Mass fraction of sodium carbonate (Liquid mixture 1); method: Titration method
Mass fraction of 1-benzyl-3-methylimidazolium methylsulfate	Mass fraction of sodium carbonate	uncertainty	Mass fraction of 1-benzyl-3-methylimidazolium methylsulfate	uncertainty	Mass fraction of sodium carbonate	uncertainty
.4754	.0348	.0002	.1987	.0002	.0203	.0002
.5687	.014	.0002	.2294	.0002	.0056	.0002
.6916	.003	.0002	.2468	.0002	.002	.0002
.7579	.0008	.0002	.2761	.0002	.0004	.0002

System: sodium carbonate + water + 1,3-dimethylimidazolium methylsulfate; phases: Liquid mixture 1, Liquid mixture 2
Fixed: Temperature, K = 298.15
Fixed: Pressure, kPa = 101
Property: Mass fraction of sodium carbonate (Liquid mixture 1); method: Titration method
Mass fraction of 1,3-dimethylimidazolium methylsulfate	Mass fraction of sodium carbonate	uncertainty
.5384	.0143	.0002
.5158	.0189	.0002
.4521	.0322	.0002
.4242	.0446	.0002
.3621	.0631	.0002
.3377	.0686	.0002
.321	.0805	.0002
.2797	.0958	.0002
.253	.1081	.0002
.2316	.1252	.0002
.2102	.1336	.0002
.1806	.1468	.0002
.1702	.1569	.0002
.1468	.1702	.0002
.1247	.1827	.0002
.1105	.1901	.0002
.1036	.1984	.0002
.0854	.2136	.0002
.0757	.2211	.0002
.0649	.2325	.0002
.0423	.2476	.0002
.0367	.2649	.0002
.0316	.261	.0002
.028	.2865	.0002
.0175	.2955	.0002
.0098	.3187	.0002

System: sodium carbonate + water + 1,3-dimethylimidazolium methylsulfate; phases: Liquid mixture 2, Liquid mixture 1
Fixed: Pressure, kPa = 101.325
Fixed: Temperature, K = 298.15
Property: Mass fraction of 1,3-dimethylimidazolium methylsulfate (Liquid mixture 2); method: Titration method
Property: Mass fraction of 1,3-dimethylimidazolium methylsulfate (Liquid mixture 1); method: Titration method
Property: Mass fraction of sodium carbonate (Liquid mixture 1); method: Titration method
Mass fraction of sodium carbonate	Mass fraction of 1,3-dimethylimidazolium methylsulfate	uncertainty	Mass fraction of 1,3-dimethylimidazolium methylsulfate	uncertainty	Mass fraction of sodium carbonate	uncertainty
.3187	.0098	.0002	.5158	.0002	.0189	.0002
.2649	.0367	.0002	.3377	.0002	.0686	.0002
.2955	.0175	.0002	.4521	.0002	.0322	.0002

System: sodium carbonate + water + 1-butyl-3-methylimidazolium methylsulfate; phases: Liquid mixture 1, Liquid mixture 2
Fixed: Temperature, K = 298.15
Fixed: Pressure, kPa = 101
Property: Mass fraction of sodium carbonate (Liquid mixture 1); method: Titration method
Mass fraction of 1-butyl-3-methylimidazolium methylsulfate	Mass fraction of sodium carbonate	uncertainty
.524	.0118	.0002
.5802	.0067	.0002
.487	.0168	.0002
.432	.025	.0002
.4187	.0269	.0002
.3816	.0349	.0002
.3429	.0466	.0002
.3079	.0566	.0002
.2802	.0673	.0002
.2532	.0779	.0002
.2371	.0849	.0002
.2119	.0964	.0002
.1941	.1039	.0002
.1768	.1116	.0002
.1625	.119	.0002
.1422	.1287	.0002
.1249	.1387	.0002
.112	.1462	.0002
.1008	.1517	.0002
.0826	.1657	.0002
.0517	.1903	.0002
.0429	.2003	.0002
.0208	.2274	.0002
.0105	.2502	.0002
.0072	.2874	.0002
.0056	.2679	.0002

System: sodium carbonate + water + 1-butyl-3-methylimidazolium methylsulfate; phases: Liquid mixture 2, Liquid mixture 1
Fixed: Pressure, kPa = 101.325
Fixed: Temperature, K = 298.15
Property: Mass fraction of 1-butyl-3-methylimidazolium methylsulfate (Liquid mixture 2); method: Titration method
Property: Mass fraction of 1-butyl-3-methylimidazolium methylsulfate (Liquid mixture 1); method: Titration method
Property: Mass fraction of sodium carbonate (Liquid mixture 1); method: Titration method
Mass fraction of sodium carbonate	Mass fraction of 1-butyl-3-methylimidazolium methylsulfate	uncertainty	Mass fraction of 1-butyl-3-methylimidazolium methylsulfate	uncertainty	Mass fraction of sodium carbonate	uncertainty
.331	.0035	.0002	.5032	.0002	.0154	.0002
.2823	.0151	.0002	.4052	.0002	.0356	.0002
.2594	.0263	.0002	.3289	.0002	.06	.0002

System: sodium carbonate + water + 1-ethyl-3-methylimazolium methylsulfate; phases: Liquid mixture 1, Liquid mixture 2
Fixed: Temperature, K = 298.15
Fixed: Pressure, kPa = 101
Property: Mass fraction of sodium carbonate (Liquid mixture 1); method: Titration method
Mass fraction of 1-ethyl-3-methylimazolium methylsulfate	Mass fraction of sodium carbonate	uncertainty
.5032	.0154	.0002
.4052	.0356	.0002
.3329	.0605	.0002
.3289	.06	.0002
.2619	.0899	.0002
.2374	.1031	.0002
.2213	.1071	.0002
.1799	.1327	.0002
.1625	.1443	.0002
.1475	.1518	.0002
.1383	.1585	.0002
.1242	.1673	.0002
.1134	.1741	.0002
.0982	.1851	.0002
.0886	.1919	.0002
.0747	.2013	.0002
.0589	.2182	.0002
.0563	.2173	.0002
.0468	.231	.0002
.0418	.2419	.0002
.034	.2539	.0002
.0263	.2594	.0002
.0259	.267	.0002
.0185	.2751	.0002
.0151	.2823	.0002
.0035	.331	.0002

System: sodium carbonate + water + 1-ethyl-3-methylimazolium methylsulfate; phases: Liquid mixture 2, Liquid mixture 1
Fixed: Pressure, kPa = 101.325
Fixed: Temperature, K = 298.15
Property: Mass fraction of 1-ethyl-3-methylimazolium methylsulfate (Liquid mixture 2); method: Titration method
Property: Mass fraction of 1-ethyl-3-methylimazolium methylsulfate (Liquid mixture 1); method: Titration method
Property: Mass fraction of sodium carbonate (Liquid mixture 1); method: Titration method
Mass fraction of sodium carbonate	Mass fraction of 1-ethyl-3-methylimazolium methylsulfate	uncertainty	Mass fraction of 1-ethyl-3-methylimazolium methylsulfate	uncertainty	Mass fraction of sodium carbonate	uncertainty
.2502	.0105	.0002	.524	.0002	.0118	.0002
.2274	.0208	.0002	.432	.0002	.025	.0002
.2679	.0056	.0002	.5802	.0002	.0067	.0002

System: sodium carbonate + water + 1-Benzyl-3-methylimidazolium chloride; phases: Liquid mixture 1, Liquid mixture 2
Fixed: Temperature, K = 298.15
Fixed: Pressure, kPa = 101
Property: Mass fraction of sodium carbonate (Liquid mixture 1); method: Titration method
Mass fraction of 1-Benzyl-3-methylimidazolium chloride	Mass fraction of sodium carbonate	uncertainty
.5664	.0092	.0002
.4516	.0272	.0002
.4221	.0311	.0002
.3903	.0417	.0002
.3362	.0553	.0002
.324	.0591	.0002
.3057	.0668	.0002
.2834	.0735	.0002
.2722	.0781	.0002
.2635	.0821	.0002
.2423	.0902	.0002
.226	.0981	.0002
.214	.1022	.0002
.2087	.1067	.0002
.1731	.1249	.0002
.1607	.1302	.0002
.1384	.1418	.0002
.1186	.1545	.0002

System: sodium carbonate + water + 1-Benzyl-3-methylimidazolium chloride; phases: Liquid mixture 2, Liquid mixture 1
Fixed: Pressure, kPa = 101.325
Fixed: Temperature, K = 298.15
Property: Mass fraction of 1-Benzyl-3-methylimidazolium chloride (Liquid mixture 2); method: Titration method
Property: Mass fraction of 1-Benzyl-3-methylimidazolium chloride (Liquid mixture 1); method: Titration method
Property: Mass fraction of sodium carbonate (Liquid mixture 1); method: Titration method
Mass fraction of sodium carbonate	Mass fraction of 1-Benzyl-3-methylimidazolium chloride	uncertainty	Mass fraction of 1-Benzyl-3-methylimidazolium chloride	uncertainty	Mass fraction of sodium carbonate	uncertainty
.2764	.0315	.0002	.4506	.0002	.0411	.0002
.3042	.017	.0002	.5611	.0002	.0189	.0002
.2497	.052	.0002	.3621	.0002	.0689	.0002

System: sodium carbonate + water + 1-hexyl-3-methylimidazolium chloride; phases: Liquid mixture 1, Liquid mixture 2
Fixed: Temperature, K = 298.15
Fixed: Pressure, kPa = 101
Property: Mass fraction of sodium carbonate (Liquid mixture 1); method: Titration method
Mass fraction of 1-hexyl-3-methylimidazolium chloride	Mass fraction of sodium carbonate	uncertainty
.4653	.0405	.0002
.3747	.0609	.0002
.336	.0711	.0002
.3156	.078	.0002
.2809	.0866	.0002
.2529	.0985	.0002
.2222	.1116	.0002
.1967	.1234	.0002
.1709	.1349	.0002
.1593	.1423	.0002
.1502	.1449	.0002
.1362	.1554	.0002
.1252	.1619	.0002
.1141	.1661	.0002
.1025	.1748	.0002
.0926	.1821	.0002
.0811	.1888	.0002
.0642	.2021	.0002
.0556	.2071	.0002
.0457	.2185	.0002
.0405	.2226	.0002
.0365	.2294	.0002
.0355	.2294	.0002
.0318	.2348	.0002
.026	.244	.0002
.0228	.2506	.0002
.0155	.2654	.0002
.0962	.1712	.0002
.0786	.1848	.0002
.061	.1989	.0002
.0513	.2084	.0002
.0432	.2158	.0002
.0367	.2241	.0002
.0308	.2298	.0002
.0303	.2343	.0002
.0213	.2461	.0002
.0182	.2508	.0002
.0055	.2923	.0002

System: sodium carbonate + water + 1-hexyl-3-methylimidazolium chloride; phases: Liquid mixture 2, Liquid mixture 1
Fixed: Pressure, kPa = 101.325
Fixed: Temperature, K = 298.15
Property: Mass fraction of 1-hexyl-3-methylimidazolium chloride (Liquid mixture 2); method: Titration method
Property: Mass fraction of 1-hexyl-3-methylimidazolium chloride (Liquid mixture 1); method: Titration method
Property: Mass fraction of sodium carbonate (Liquid mixture 1); method: Titration method
Mass fraction of sodium carbonate	Mass fraction of 1-hexyl-3-methylimidazolium chloride	uncertainty	Mass fraction of 1-hexyl-3-methylimidazolium chloride	uncertainty	Mass fraction of sodium carbonate	uncertainty
.2298	.0308	.0002	.2722	.0002	.0781	.0002
.2508	.0182	.0002	.324	.0002	.0591	.0002
.2923	.0055	.0002	.4221	.0002	.0311	.0002

System: sodium carbonate + water + 1-methylpyridinium methylsulfate; phases: Liquid mixture 1, Liquid mixture 2
Fixed: Temperature, K = 298.15
Fixed: Pressure, kPa = 101
Property: Mass fraction of sodium carbonate (Liquid mixture 1); method: Titration method
Mass fraction of 1-methylpyridinium methylsulfate	Mass fraction of sodium carbonate	uncertainty
.5611	.0189	.0002
.4699	.0392	.0002
.4506	.0411	.0002
.4271	.0456	.0002
.3831	.0598	.0002
.3621	.0689	.0002
.3419	.0734	.0002
.2787	.1005	.0002
.2725	.1077	.0002
.2502	.1164	.0002
.2223	.1344	.0002
.2081	.1412	.0002
.196	.1472	.0002
.1882	.1534	.0002
.1715	.1642	.0002
.1582	.1717	.0002
.1376	.1783	.0002
.1191	.1974	.0002
.1043	.2055	.0002
.0933	.2092	.0002
.0857	.213	.0002
.0703	.2242	.0002
.0647	.2344	.0002
.052	.2497	.0002
.0315	.2764	.0002
.017	.3042	.0002

System: sodium carbonate + water + 1-methylpyridinium methylsulfate; phases: Liquid mixture 2, Liquid mixture 1
Fixed: Pressure, kPa = 101.325
Fixed: Temperature, K = 298.15
Property: Mass fraction of 1-methylpyridinium methylsulfate (Liquid mixture 2); method: Titration method
Property: Mass fraction of 1-methylpyridinium methylsulfate (Liquid mixture 1); method: Titration method
Property: Mass fraction of sodium carbonate (Liquid mixture 1); method: Titration method
Mass fraction of sodium carbonate	Mass fraction of 1-methylpyridinium methylsulfate	uncertainty	Mass fraction of 1-methylpyridinium methylsulfate	uncertainty	Mass fraction of sodium carbonate	uncertainty
.2654	.0155	.0002	.4653	.0002	.0405	.0002
.2506	.0228	.0002	.336	.0002	.0711	.0002
.2303	.0365	.0002	.2529	.0002	.0985	.0002
