Measured thermophysical data. Unusual trend of viscosities and densities for four ionic liquids containing a tetraalkyl phosphonium cation and the anion bis(2,4,4-trimethylpentyl) phosphinate
Source: J. Chem. Thermodyn., 2014, 10.1016/j.jct.2013.09.037
Compound 1: bis(2,4,4-trimethylpentyl)phosphinate tetrabutylphosphonium, C32H70O2P2, purity 97%
Compound 2: bis(2,4,4-trimethylpentyl)phosphinate trimethyloctylphosphonium, C27H60O2P2, purity 97%
Compound 3: bis(2,4,4-trimethylpentyl)phosphinate tributylmethylphosphonium, C29H64O2P2, purity 97%

System: bis(2,4,4-trimethylpentyl)phosphinate tetrabutylphosphonium; phases: Liquid
Fixed: Pressure, kPa = 101.325
Property: Viscosity, Pa*s (Liquid); method: Cone and plate viscometry
Temperature, K	Viscosity, Pa*s	uncertainty
298.15	1.74	.0522
303.15	1.199	.03597
308.15	.844	.02532
313.15	.616	.01848
318.15	.473	.01419
323.15	.358	.01074
328.15	.256	.00768
333.15	.192	.00576
338.15	.153	.00459
343.15	.131	.00393
348.15	.107	.00321

System: bis(2,4,4-trimethylpentyl)phosphinate tetrabutylphosphonium; phases: Liquid
Fixed: Pressure, kPa = 101.325
Property: Mass density, kg/m3 (Liquid); method: Vibrating tube method
Temperature, K	Mass density, kg/m3	uncertainty
293.15	919.8	.1
298.15	916.8	.1
303.15	914.2	.1
308.15	910.9	.1
313.15	907.8	.1
318.15	904.8	.1
323.15	901.8	.1
328.15	898.8	.1
333.15	895.8	.1
338.15	892.8	.1
343.15	889.8	.1
348.15	886.9	.1
353.15	883.9	.1

System: bis(2,4,4-trimethylpentyl)phosphinate trimethyloctylphosphonium; phases: Liquid
Fixed: Pressure, kPa = 101.325
Property: Viscosity, Pa*s (Liquid); method: Cone and plate viscometry
Temperature, K	Viscosity, Pa*s	uncertainty
298.15	.804	.02412
303.15	.56	.0168
308.15	.408	.01224
313.15	.306	.00918
318.15	.227	.00681
323.15	.177	.00531
328.15	.149	.00447
333.15	.11	.0033
338.15	.091	.00273
343.15	.071	.00213

System: bis(2,4,4-trimethylpentyl)phosphinate trimethyloctylphosphonium; phases: Liquid
Fixed: Pressure, kPa = 101.325
Property: Mass density, kg/m3 (Liquid); method: Vibrating tube method
Temperature, K	Mass density, kg/m3	uncertainty
293.15	893.8	.1
298.15	890.6	.1
303.15	887.4	.1
308.15	884.3	.1
313.15	881.1	.1
318.15	878	.1
323.15	874.9	.1
328.15	871.9	.1
333.15	868.8	.1
338.15	865.7	.1
343.15	862.7	.1
348.15	859.4	.1
353.15	856.3	.1

System: bis(2,4,4-trimethylpentyl)phosphinate tributylmethylphosphonium; phases: Liquid
Fixed: Pressure, kPa = 101.325
Property: Viscosity, Pa*s (Liquid); method: Cone and plate viscometry
Temperature, K	Viscosity, Pa*s	uncertainty
323.15	.283	.00849
328.15	.21	.0063
333.15	.162	.00486
338.15	.124	.00372
343.15	.096	.00288
348.15	.078	.00234
353.15	.063	.00189

System: bis(2,4,4-trimethylpentyl)phosphinate tributylmethylphosphonium; phases: Liquid
Fixed: Pressure, kPa = 101.325
Property: Mass density, kg/m3 (Liquid); method: Vibrating tube method
Temperature, K	Mass density, kg/m3	uncertainty
323.15	895.6	.1
328.15	892.5	.1
333.15	889.4	.1
338.15	886.3	.1
343.15	883.3	.1
348.15	880.3	.1
353.15	877.2	.1
