Measured thermophysical data. On the solubility of nicotinic acid and isonicotinic acid in water and organic solvents
Source: J. Chem. Thermodyn., 2013, 10.1016/j.jct.2013.01.024
Compound 1: 3-pyridinecarboxylic acid, C6H5NO2, purity 99%
Compound 2: isonicotinic acid, C6H5NO2, purity 99%
Compound 3: n-butanol, C4H10O, purity 99.8%
Compound 4: dl-2-butanol, C4H10O, purity 99.5%
Compound 5: pentyl alcohol, C5H12O, purity 99%
Compound 6: amylcarbinol, C6H14O, purity 99%
Compound 7: acetone, C3H6O, purity 99.8%
Compound 8: oxacyclopentane, C4H8O, purity 99.9%

System: 3-pyridinecarboxylic acid + n-butanol; phases: Liquid, Crystal
Fixed: Pressure, kPa = 101
Property: Mole fraction of 3-pyridinecarboxylic acid (Liquid); method: Spectrophotometry
Temperature, K	Mole fraction of 3-pyridinecarboxylic acid	uncertainty
298.2	.00306	

System: 3-pyridinecarboxylic acid + pentyl alcohol; phases: Liquid, Crystal
Fixed: Pressure, kPa = 101
Property: Mole fraction of 3-pyridinecarboxylic acid (Liquid); method: Spectrophotometry
Temperature, K	Mole fraction of 3-pyridinecarboxylic acid	uncertainty
298.2	.00332	

System: 3-pyridinecarboxylic acid + amylcarbinol; phases: Liquid, Crystal
Fixed: Pressure, kPa = 101
Property: Mole fraction of 3-pyridinecarboxylic acid (Liquid); method: Spectrophotometry
Temperature, K	Mole fraction of 3-pyridinecarboxylic acid	uncertainty
298.2	.00362	

System: 3-pyridinecarboxylic acid + dl-2-butanol; phases: Liquid, Crystal
Fixed: Pressure, kPa = 101
Property: Mole fraction of 3-pyridinecarboxylic acid (Liquid); method: Spectrophotometry
Temperature, K	Mole fraction of 3-pyridinecarboxylic acid	uncertainty
298.2	.0036	

System: isonicotinic acid + pentyl alcohol; phases: Liquid, Crystal
Fixed: Pressure, kPa = 101
Property: Mole fraction of isonicotinic acid (Liquid); method: Spectrophotometry
Temperature, K	Mole fraction of isonicotinic acid	uncertainty
298.2	.000529	

System: isonicotinic acid + dl-2-butanol; phases: Liquid, Crystal
Fixed: Pressure, kPa = 101
Property: Mole fraction of isonicotinic acid (Liquid); method: Spectrophotometry
Temperature, K	Mole fraction of isonicotinic acid	uncertainty
298.2	.000569	

System: isonicotinic acid + acetone; phases: Liquid, Crystal
Fixed: Pressure, kPa = 101
Property: Mole fraction of isonicotinic acid (Liquid); method: Spectrophotometry
Temperature, K	Mole fraction of isonicotinic acid	uncertainty
298.2	.000602	

System: isonicotinic acid + oxacyclopentane; phases: Liquid, Crystal
Fixed: Pressure, kPa = 101
Property: Mole fraction of isonicotinic acid (Liquid); method: Spectrophotometry
Temperature, K	Mole fraction of isonicotinic acid	uncertainty
298.2	.00117	
