Measured thermophysical data. Solid-liquid phase equilibrium study of n-octadecane + lauryl alcohol binary mixtures
Source: J. Chem. Thermodyn., 2013, 10.1016/j.jct.2013.01.019
Compound 1: octadecane, C18H38, purity 99.5%
Compound 2: dodecyl alcohol, C12H26O, purity 99.5%

System: octadecane; phases: Crystal, Liquid, Air at 1 atmosphere
Property: Molar enthalpy of transition or fusion, kJ/mol (Crystal); method: DSC/DTA
Molar enthalpy of transition or fusion, kJ/mol	uncertainty
61.65	.6165

System: octadecane; phases: Crystal, Liquid, Air at 1 atmosphere
Property: Normal melting temperature, K (Crystal); method: DSC/DTA
Normal melting temperature, K	uncertainty
300.95	.2

System: dodecyl alcohol; phases: Crystal, Liquid, Air at 1 atmosphere
Property: Molar enthalpy of transition or fusion, kJ/mol (Crystal); method: DSC/DTA
Molar enthalpy of transition or fusion, kJ/mol	uncertainty
39.05	.3905

System: dodecyl alcohol; phases: Crystal, Liquid, Air at 1 atmosphere
Property: Normal melting temperature, K (Crystal); method: DSC/DTA
Normal melting temperature, K	uncertainty
297.15	.2

System: dodecyl alcohol + octadecane; phases: Crystal, Crystal, Liquid, Air at 1 atmosphere
Fixed: Pressure, kPa = 101.325
Property: Eutectic composition: mole fraction of octadecane (Crystal); method: Derived from phase diagram analysis
Eutectic composition: mole fraction of octadecane	uncertainty
.257	.001

System: dodecyl alcohol + octadecane; phases: Crystal, Crystal, Liquid, Air at 1 atmosphere
Fixed: Pressure, kPa = 101.325
Property: Eutectic temperature, K (Crystal); method: DSC/DTA
Eutectic temperature, K	uncertainty
292.1	.2

System: dodecyl alcohol + octadecane; phases: Liquid, Crystal
Fixed: Pressure, kPa = 101
Property: Solid-liquid equilibrium temperature, K (Liquid); method: DSC/DTA
Mole fraction of octadecane	Solid-liquid equilibrium temperature, K	uncertainty
1	300.95	.28
.9512	300.35	.28
.898	299.85	.28
.7984	298.85	.28
.7015	298.3	.28
.6019	297.85	.28
.5513	297.45	.28
.5008	296.95	.28
.4728	296.6	.28
.4138	295.55	.28
.3744	294.85	.28
.3142	293.8	.28
.289	293.05	.28

System: dodecyl alcohol + octadecane; phases: Liquid, Crystal
Fixed: Pressure, kPa = 101
Property: Solid-liquid equilibrium temperature, K (Liquid); method: DSC/DTA
Mole fraction of octadecane	Solid-liquid equilibrium temperature, K	uncertainty
.209	293.15	.28
.1724	293.85	.28
.08414	295.55	.28
0	297.15	.28
