Measured thermophysical data. (Vapor + liquid) equilibria of alcohol + 1-methyl-1-propylpiperidinium triflate ionic liquid: VPO measurements and modeling
Source: J. Chem. Thermodyn., 2016, 10.1016/j.jct.2016.01.026
Compound 1: 1-methyl-1-propylpiperidinium triflate, C10H20F3NO3S, purity 99%
Compound 2: 1-propanol, C3H8O, purity 99.9%
Compound 3: 2-propanol, C3H8O, purity 99.8%
Compound 4: 1-butanol, C4H10O, purity 99.9%
Compound 5: 2-butanol, C4H10O, purity 99.5%
Compound 6: 1-pentanol, C5H12O, purity 99.0%

System: 1-propanol + 1-methyl-1-propylpiperidinium triflate; phases: Liquid
Fixed: Temperature, K = 323.15
Fixed: Pressure, kPa = 100
Property: Osmotic coefficient (Liquid); method: Knauer K-7000 vapor pressure osmometer (VPO)
Molality, mol/kg of 1-methyl-1-propylpiperidinium triflate	Osmotic coefficient	uncertainty
.0866	.825	
.1046	.769	
.1966	.661	
.2936	.585	
.3928	.521	
.5005	.483	
.6023	.468	
.7009	.452	
.8047	.438	
1.0077	.418	
1.1946	.398	
1.4216	.379	

System: 2-propanol + 1-methyl-1-propylpiperidinium triflate; phases: Liquid
Fixed: Temperature, K = 323.15
Fixed: Pressure, kPa = 100
Property: Osmotic coefficient (Liquid); method: Knauer K-7000 vapor pressure osmometer (VPO)
Molality, mol/kg of 1-methyl-1-propylpiperidinium triflate	Osmotic coefficient	uncertainty
.0801	.897	
.1937	.743	
.3155	.645	
.4021	.587	
.5062	.545	
.5964	.516	
.7001	.491	
.7943	.466	
.9894	.443	
1.2685	.422	

System: 1-butanol + 1-methyl-1-propylpiperidinium triflate; phases: Liquid
Fixed: Temperature, K = 323.15
Fixed: Pressure, kPa = 100
Property: Osmotic coefficient (Liquid); method: Knauer K-7000 vapor pressure osmometer (VPO)
Molality, mol/kg of 1-methyl-1-propylpiperidinium triflate	Osmotic coefficient	uncertainty
.053	.781	
.0791	.706	
.0996	.657	
.1455	.604	
.2006	.559	
.25	.519	
.3019	.491	
.355	.467	
.4011	.453	
.4998	.417	
.5953	.403	
.7001	.387	
.78	.379	

System: 2-butanol + 1-methyl-1-propylpiperidinium triflate; phases: Liquid
Fixed: Temperature, K = 323.15
Fixed: Pressure, kPa = 100
Property: Osmotic coefficient (Liquid); method: Knauer K-7000 vapor pressure osmometer (VPO)
Molality, mol/kg of 1-methyl-1-propylpiperidinium triflate	Osmotic coefficient	uncertainty
.0525	.851	
.081	.769	
.0996	.701	
.1561	.608	
.1983	.572	
.2451	.528	
.304	.498	
.3569	.477	
.4029	.457	
.498	.432	
.5936	.419	
.7108	.405	

System: 1-pentanol + 1-methyl-1-propylpiperidinium triflate; phases: Liquid
Fixed: Temperature, K = 323.15
Fixed: Pressure, kPa = 100
Property: Osmotic coefficient (Liquid); method: Knauer K-7000 vapor pressure osmometer (VPO)
Molality, mol/kg of 1-methyl-1-propylpiperidinium triflate	Osmotic coefficient	uncertainty
.0415	.757	
.0616	.593	
.0823	.542	
.1025	.521	
.1211	.502	
.1427	.48	
.1632	.472	
.1816	.465	
.2018	.451	
.2209	.441	
.2407	.431	
.2643	.418	
