Measured thermophysical data. Solvent extraction of aromatic sulfur compounds from n-heptane using the 1-ethyl-3-methylimidazolium tricyanomethanide ionic liquid
Source: J. Chem. Thermodyn., 2013, 10.1016/j.jct.2013.05.048
Compound 1: 1-ethyl-3-methyl-1H-imidazolium tricyanomethanide, C10H11N5, purity 98%
Compound 2: thiophene, C4H4S, purity 99.8%
Compound 3: benzo[b]thiophene, C8H6S, purity 99.5%
Compound 4: n-heptane, C7H16, purity 99.8%

System: 1-ethyl-3-methyl-1H-imidazolium tricyanomethanide; phases: Liquid
Property: Mass density, kg/m3 (Liquid); method: Vibrating tube method
Temperature, K	Pressure, kPa	Mass density, kg/m3	uncertainty
298.15	100	1081.46	.1
308.15	100	1074.41	.1
318.15	100	1067.42	.1
328.15	100	1060.5	.1
338.15	100	1053.64	.1
348.15	100	1046.85	.1

System: thiophene + n-heptane + 1-ethyl-3-methyl-1H-imidazolium tricyanomethanide; phases: Liquid mixture 1, Liquid mixture 2
Property: Mole fraction of 1-ethyl-3-methyl-1H-imidazolium tricyanomethanide (Liquid mixture 1); method: Chromatography
Property: Mole fraction of thiophene (Liquid mixture 2); method: Chromatography
Property: Mole fraction of 1-ethyl-3-methyl-1H-imidazolium tricyanomethanide (Liquid mixture 2); method: Chromatography
Temperature, K	Pressure, kPa	Mole fraction of thiophene	Mole fraction of 1-ethyl-3-methyl-1H-imidazolium tricyanomethanide	uncertainty	Mole fraction of thiophene	uncertainty	Mole fraction of 1-ethyl-3-methyl-1H-imidazolium tricyanomethanide	uncertainty
298.15	100	0	0	.003	0	.005	.991	.005
298.15	100	.217	0	.003	.369	.005	.62	.005
298.15	100	.284	0	.003	.436	.005	.553	.005
298.15	100	.407	0	.003	.541	.005	.447	.005
298.15	100	.511	0	.003	.605	.005	.383	.005
298.15	100	.592	0	.003	.65	.005	.338	.005
308.15	100	.523	0	.003	.595	.005	.391	.005
308.15	100	.602	0	.003	.637	.005	.351	.005
308.15	100	.611	0	.003	.642	.005	.345	.005
308.15	100	.681	0	.003	.672	.005	.316	.005
308.15	100	.699	0	.003	.674	.005	.313	.005
298.15	100	.682	0	.003	.679	.005	.31	.005
308.15	100	.79	0	.003	.71	.005	.279	.005
308.15	100	.92	0	.003	.76	.005	.233	.005
308.15	100	1	0	.003	.805	.005	.195	.005
308.15	100	.066	0	.003	.128	.005	.861	.005
308.15	100	.15	0	.003	.258	.005	.73	.005
308.15	100	.22	0	.003	.349	.005	.639	.005
308.15	100	.291	0	.003	.418	.005	.57	.005
308.15	100	0	0	.003	0	.005	.99	.005
308.15	100	.344	0	.003	.475	.005	.513	.005
308.15	100	.418	0	.003	.527	.005	.46	.005
298.15	100	.775	0	.003	.716	.005	.274	.005
298.15	100	.879	0	.003	.752	.005	.239	.005
298.15	100	.975	0	.003	.792	.005	.205	.005
298.15	100	1	0	.003	.813	.005	.187	.005
298.15	100	.016	0	.003	.038	.005	.951	.005
298.15	100	.085	0	.003	.174	.005	.816	.005
298.15	100	.183	0	.003	.317	.005	.672	.005

System: benzo[b]thiophene + n-heptane + 1-ethyl-3-methyl-1H-imidazolium tricyanomethanide; phases: Liquid mixture 2, Liquid mixture 1
Property: Mole fraction of 1-ethyl-3-methyl-1H-imidazolium tricyanomethanide (Liquid mixture 2); method: Chromatography
Property: Mole fraction of benzo[b]thiophene (Liquid mixture 1); method: Chromatography
Property: Mole fraction of 1-ethyl-3-methyl-1H-imidazolium tricyanomethanide (Liquid mixture 1); method: Chromatography
Temperature, K	Pressure, kPa	Mole fraction of benzo[b]thiophene	Mole fraction of 1-ethyl-3-methyl-1H-imidazolium tricyanomethanide	uncertainty	Mole fraction of benzo[b]thiophene	uncertainty	Mole fraction of 1-ethyl-3-methyl-1H-imidazolium tricyanomethanide	uncertainty
308.15	100	0	.99	.005	0	.003	0	.003
308.15	100	.181	.805	.005	.064	.003	0	.003
308.15	100	.336	.649	.005	.131	.003	0	.003
308.15	100	.378	.605	.005	.154	.003	0	.003
308.15	100	.495	.484	.005	.244	.003	0	.003
308.15	100	.57	.408	.005	.297	.003	0	.003
308.15	100	.625	.352	.005	.427	.003	0	.003
308.15	100	.68	.294	.005	.48	.003	0	.003
308.15	100	.709	.265	.005	.59	.003	0	.003
308.15	100	.719	.254	.005	.735	.003	0	.003
308.15	100	.759	.216	.005	.817	.003	0	.003
308.15	100	.781	.196	.005	.9	.003	0	.003
308.15	100	.865	.135	.005	1	.003	0	.003
308.15	100	.039	.951	.005	.012	.003	0	.003
308.15	100	.124	.864	.005	.041	.003	0	.003

System: n-heptane + 1-ethyl-3-methyl-1H-imidazolium tricyanomethanide; phases: Liquid mixture 2, Liquid mixture 1
Property: Mole fraction of 1-ethyl-3-methyl-1H-imidazolium tricyanomethanide (Liquid mixture 2); method: Chromatography
Temperature, K	Pressure, kPa	Mole fraction of 1-ethyl-3-methyl-1H-imidazolium tricyanomethanide	uncertainty
298.15	100	.991	.005
308.15	100	.99	.005

System: thiophene + 1-ethyl-3-methyl-1H-imidazolium tricyanomethanide; phases: Liquid mixture 2, Liquid mixture 1
Property: Mole fraction of 1-ethyl-3-methyl-1H-imidazolium tricyanomethanide (Liquid mixture 2); method: Chromatography
Temperature, K	Pressure, kPa	Mole fraction of 1-ethyl-3-methyl-1H-imidazolium tricyanomethanide	uncertainty
308.15	100	.195	.005
298.15	100	.187	.005

System: benzo[b]thiophene + 1-ethyl-3-methyl-1H-imidazolium tricyanomethanide; phases: Liquid mixture 2, Liquid mixture 1
Property: Mole fraction of 1-ethyl-3-methyl-1H-imidazolium tricyanomethanide (Liquid mixture 2); method: Chromatography
Temperature, K	Pressure, kPa	Mole fraction of 1-ethyl-3-methyl-1H-imidazolium tricyanomethanide	uncertainty
308.15	100	.135	.005
