Measured thermophysical data. Isothermal (vapour + liquid) equilibrium measurements and correlation for the {n-butane (R600) + 1,1,1,3,3-pentafluoropropane (R245fa)} system at temperatures from (303.150 to 373.150) K
Source: J. Chem. Thermodyn., 2016, 10.1016/j.jct.2015.11.021
Compound 1: n-butane, C4H10, purity 99.8%
Compound 2: 1,1,1,3,3-pentafluoropropane, C3H3F5, purity 99.0%

System: n-butane; phases: Liquid, Gas
Property: Vapor or sublimation pressure, kPa (Liquid); method: Closed cell (Static) method
Temperature, K	Vapor or sublimation pressure, kPa	uncertainty
303.15	283.7	.5
323.15	496.2	.5
343.15	809.8	.5
363.15	1249.8	.5
373.15	1526.8	.5

System: 1,1,1,3,3-pentafluoropropane; phases: Liquid, Gas
Property: Vapor or sublimation pressure, kPa (Liquid); method: Closed cell (Static) method
Temperature, K	Vapor or sublimation pressure, kPa	uncertainty
303.15	177.8	.5
323.15	344.7	.5
343.15	610.2	.5
363.15	1006.7	.5
373.15	1266.2	.5

System: n-butane + 1,1,1,3,3-pentafluoropropane; phases: Liquid, Gas
Property: Vapor or sublimation pressure, kPa (Liquid); method: Closed cell (Static) method
Mole fraction of n-butane	Temperature, K	Vapor or sublimation pressure, kPa	uncertainty
0	303.15	177.8	.5
.104	303.15	273.8	.5
.26	303.15	330.8	.5
.39	303.15	349.4	.5
.538	303.15	358.5	.5
.581	303.15	359.8	.5
.624	303.15	360.3	.5
.677	303.15	360	.5
.835	303.15	348.6	.5
1	303.15	283.7	.5
0	323.15	344.7	.5
.101	323.15	472.4	.5
.252	323.15	571.3	.5
.385	323.15	608	.5
.537	323.15	627.1	.5
.579	323.15	628.9	.5
.622	323.15	629.8	.5
.675	323.15	628.8	.5
.81	323.15	608.3	.5
.835	323.15	602.4	.5
1	323.15	496.2	.5
0	343.15	610.2	.5
.099	343.15	774.6	.5
.241	343.15	927.5	.5
.386	343.15	994.6	.5
.427	343.15	1008.5	.5
.534	343.15	1023.1	.5
.552	343.15	1024.8	.5
.62	343.15	1026.7	.5
.711	343.15	1015.9	.5
.81	343.15	982.4	.5
.85	343.15	969.7	.5
1	343.15	809.8	.5
0	363.15	1006.7	.5
.095	363.15	1218.4	.5
.24	363.15	1431.3	.5
.394	363.15	1538.3	.5
.532	363.15	1581.5	.5
.55	363.15	1583.9	.5
.622	363.15	1584.1	.5
.844	363.15	1481.8	.5
1	363.15	1249.8	.5
0	373.15	1266.2	.5
.092	373.15	1495.3	.5
.234	373.15	1751.4	.5
.385	373.15	1881.3	.5
.529	373.15	1934.1	.5
.576	373.15	1937.1	.5
.624	373.15	1934.2	.5
.847	373.15	1798.1	.5
1	373.15	1526.8	.5

System: n-butane + 1,1,1,3,3-pentafluoropropane; phases: Gas, Liquid
Property: Mole fraction of n-butane (Gas); method: Chromatography
Mole fraction of n-butane	Temperature, K	Mole fraction of n-butane	uncertainty
0	303.15	0	.005
.104	303.15	.386	.005
.26	303.15	.536	.005
.39	303.15	.583	.005
.538	303.15	.617	.005
.581	303.15	.633	.005
.624	303.15	.639	.005
.677	303.15	.657	.005
.835	303.15	.734	.005
1	303.15	1	.005
0	323.15	0	.005
.101	323.15	.319	.005
.252	323.15	.485	.005
.385	323.15	.551	.005
.537	323.15	.602	.005
.579	323.15	.623	.005
.622	323.15	.635	.005
.675	323.15	.651	.005
.81	323.15	.723	.005
.835	323.15	.731	.005
1	323.15	1	.005
0	343.15	0	.005
.099	343.15	.266	.005
.241	343.15	.422	.005
.386	343.15	.503	.005
.427	343.15	.536	.005
.534	343.15	.586	.005
.552	343.15	.588	.005
.62	343.15	.621	.005
.711	343.15	.669	.005
.81	343.15	.723	.005
.85	343.15	.765	.005
1	343.15	1	.005
0	363.15	0	.005
.095	363.15	.211	.005
.24	363.15	.385	.005
.394	363.15	.479	.005
.532	363.15	.567	.005
.55	363.15	.571	.005
.622	363.15	.614	.005
.844	363.15	.762	.005
1	363.15	1	.005
0	373.15	0	.005
.092	373.15	.192	.005
.234	373.15	.36	.005
.385	373.15	.47	.005
.529	373.15	.549	.005
.576	373.15	.585	.005
.624	373.15	.612	.005
.847	373.15	.775	.005
1	373.15	1	.005
