Measured thermophysical data. Interactions of glutamine dipeptides with sodium dodecyl sulfate in aqueous solution measured by volume, conductivity, and fluorescence spectra
Source: J. Chem. Thermodyn., 2011, 10.1016/j.jct.2011.04.020
Compound 1: glycyl-l-glutamine, C7H13N3O4, purity 99.8%
Compound 2: L-alanyl-L-glutamine, C8H15N3O4, purity 99.2%
Compound 3: sodium lauryl sulfate, C12H25NaO4S, purity 99%
Compound 4: water, H2O, purity 99.9%

System: sodium lauryl sulfate + water + glycyl-l-glutamine; phases: Liquid
Fixed: Pressure, kPa = 101.3
Property: Mass density, kg/m3 (Liquid); method: Vibrating tube method
Solvent: Molality, mol/kg of sodium lauryl sulfate	Temperature, K	Molality, mol/kg of glycyl-l-glutamine	Mass density, kg/m3	uncertainty
0	298.15	0	997.045	.003
0	298.15	.02145	999.073	.003
0	298.15	.03879	1000.703	.003
0	298.15	.06116	1002.789	.003
0	298.15	.08141	1004.671	.003
0	298.15	.1008	1006.458	.003
0	298.15	.1497	1010.924	.003
0	298.15	.1987	1015.333	.003
0	298.15	.2522	1020.075	.003
0	303.15	0	995.55	.003
0	303.15	.02145	997.572	.003
0	303.15	.03879	999.196	.003
0	303.15	.06116	1001.273	.003
0	303.15	.08141	1003.142	.003
0	303.15	.1008	1004.919	.003
0	303.15	.1497	1009.365	.003
0	303.15	.1987	1013.752	.003
0	303.15	.2522	1018.474	.003
0	308.15	0	994.03	.003
0	308.15	.02145	996.047	.003
0	308.15	.03879	997.665	.003
0	308.15	.06116	999.733	.003
0	308.15	.08141	1001.595	.003
0	308.15	.1008	1003.367	.003
0	308.15	.1497	1007.801	.003
0	308.15	.1987	1012.221	.003
0	308.15	.2522	1016.921	.003
0	313.15	0	992.392	.003
0	313.15	.02145	994.398	.003
0	313.15	.03879	996.008	.003
0	313.15	.06116	998.073	.003
0	313.15	.08141	999.928	.003
0	313.15	.1008	1001.693	.003
0	313.15	.1497	1006.101	.003
0	313.15	.1987	1010.458	.003
0	313.15	.2522	1015.127	.003
.05	298.15	0	999.107	.003
.05	298.15	.01998	1000.63	.003
.05	298.15	.03969	1002.124	.003
.05	298.15	.06141	1003.76	.003
.05	298.15	.08185	1005.295	.003
.05	298.15	.102	1006.795	.003
.05	298.15	.1501	1010.339	.003
.05	298.15	.2063	1014.39	.003
.05	298.15	.2444	1017.094	.003
.05	303.15	0	997.664	.003
.05	303.15	.03969	1000.656	.003
.05	303.15	.06141	1002.279	.003
.05	303.15	.08185	1003.794	.003
.05	303.15	.102	1005.267	.003
.05	303.15	.1501	1008.74	.003
.05	303.15	.2063	1012.739	.003
.05	303.15	.2444	1015.408	.003
.05	308.15	0	995.933	.003
.05	308.15	.01998	997.437	.003
.05	308.15	.03969	998.911	.003
.05	308.15	.06141	1000.519	.003
.05	308.15	.08185	1002.021	.003
.05	308.15	.102	1003.498	.003
.05	308.15	.1501	1007.01	.003
.05	308.15	.2063	1011.001	.003
.05	308.15	.2444	1013.654	.003
.05	313.15	0	994.216	.003
.05	313.15	.03969	997.166	.003
.05	313.15	.06141	998.76	.003
.05	313.15	.08185	1000.245	.003
.05	313.15	.102	1001.702	.003
.05	313.15	.1501	1005.157	.003
.05	313.15	.2063	1009.115	.003
.05	313.15	.2444	1011.766	.003

System: sodium lauryl sulfate + water + glycyl-l-glutamine; phases: Liquid
Fixed: Pressure, kPa = 101.3
Property: Electrical conductivity, S/m (Liquid); method: Thermo Orion 145A Conductivity Meter
Solvent: Molality, mol/kg of glycyl-l-glutamine	Temperature, K	Amount concentration (molarity), mol/dm3 of sodium lauryl sulfate	Electrical conductivity, S/m	uncertainty
.02	288.15	.0011833	.006476	.00003238
.02	288.15	.0024737	.013479	.000067395
.02	288.15	.0038231	.020749	.000103745
.02	288.15	.0050999	.027472	.00013736
.02	288.15	.006372	.033916	.00016958
.02	288.15	.007688	.040251	.000201255
.02	288.15	.0090923	.044517	.000222585
.02	288.15	.010426	.047286	.00023643
.02	288.15	.01179	.049941	.000249705
.02	288.15	.013187	.052597	.000262985
.02	288.15	.014544	.055138	.00027569
.02	288.15	.015914	.057565	.000287825
.02	293.15	.0011833	.007358	.00003679
.02	293.15	.0024737	.015303	.000076515
.02	293.15	.0038231	.023345	.000116725
.02	293.15	.0050999	.030935	.000154675
.02	293.15	.006372	.038304	.00019152
.02	293.15	.007688	.045567	.000227835
.02	293.15	.0090923	.050068	.00025034
.02	293.15	.010426	.053302	.00026651
.02	293.15	.01179	.056422	.00028211
.02	293.15	.013187	.059543	.000297715
.02	293.15	.014544	.06255	.00031275
.02	293.15	.015914	.065443	.000327215
.02	298.15	.0011833	.008287	.000041435
.02	298.15	.0024737	.017218	.00008609
.02	298.15	.0038231	.026217	.000131085
.02	298.15	.0050999	.034732	.00017366
.02	298.15	.006372	.043144	.00021572
.02	298.15	.007688	.051106	.00025553
.02	298.15	.0090923	.056304	.00028152
.02	298.15	.010426	.060119	.000300595
.02	298.15	.01179	.063474	.00031737
.02	298.15	.013187	.067294	.00033647
.02	298.15	.014544	.070768	.00035384
.02	298.15	.015914	.074245	.000371225
.02	303.15	.0011833	.009166	.00004583
.02	303.15	.0024737	.018861	.000094305
.02	303.15	.0038231	.029195	.000145975
.02	303.15	.0050999	.038636	.00019318
.02	303.15	.006372	.047976	.00023988
.02	303.15	.007688	.056986	.00028493
.02	303.15	.0090923	.062999	.000314995
.02	303.15	.010426	.067513	.000337565
.02	303.15	.01179	.071452	.00035726
.02	303.15	.013187	.075741	.000378705
.02	303.15	.014544	.079684	.00039842
.02	303.15	.015914	.083863	.000419315
.02	308.15	.0011833	.01014	.0000507
.02	308.15	.0024737	.020849	.000104245
.02	308.15	.0038231	.032267	.000161335
.02	308.15	.0050999	.042636	.00021318
.02	308.15	.006372	.053138	.00026569
.02	308.15	.007688	.063197	.000315985
.02	308.15	.0090923	.070259	.000351295
.02	308.15	.010426	.075359	.000376795
.02	308.15	.01179	.080115	.000400575
.02	308.15	.013187	.084874	.00042437
.02	308.15	.014544	.089405	.000447025
.02	308.15	.015914	.09394	.0004697
.03	288.15	.0013332	.007274	.00003637
.03	288.15	.002613	.014117	.000070585
.03	288.15	.003862	.020836	.00010418
.03	288.15	.0051405	.027433	.000137165
.03	288.15	.0062951	.033302	.00016651
.03	288.15	.0076151	.039637	.000198185
.03	288.15	.0090397	.044018	.00022009
.03	288.15	.010408	.046786	.00023393
.03	288.15	.011775	.049556	.00024778
.03	288.15	.01305	.051981	.000259905
.03	288.15	.014336	.054522	.00027261
.03	288.15	.015706	.057296	.00028648
.03	288.15	.017099	.05984	.0002992
.03	293.15	.0013332	.008383	.000041915
.03	293.15	.002613	.016011	.000080055
.03	293.15	.003862	.02338	.0001169
.03	293.15	.0051405	.03097	.00015485
.03	293.15	.0062951	.037648	.00018824
.03	293.15	.0076151	.04468	.0002234
.03	293.15	.0090397	.049412	.00024706
.03	293.15	.010408	.05276	.0002638
.03	293.15	.011775	.05588	.0002794
.03	293.15	.01305	.058885	.000294425
.03	293.15	.014336	.061661	.000308305
.03	293.15	.015706	.065017	.000325085
.03	293.15	.017099	.067911	.000339555
.03	298.15	.0013332	.00926	.0000463
.03	298.15	.002613	.018004	.00009002
.03	298.15	.003862	.026207	.000131035
.03	298.15	.0051405	.034722	.00017361
.03	298.15	.0062951	.042212	.00021106
.03	298.15	.0076151	.050173	.000250865
.03	298.15	.0090397	.055487	.000277435
.03	298.15	.010408	.059417	.000297085
.03	298.15	.011775	.063118	.00031559
.03	298.15	.01305	.066359	.000331795
.03	298.15	.014336	.069718	.00034859
.03	298.15	.015706	.073426	.00036713
.03	298.15	.017099	.07722	.0003861
.03	303.15	.0013332	.010315	.000051575
.03	303.15	.002613	.020095	.000100475
.03	303.15	.003862	.029244	.00014622
.03	303.15	.0051405	.038685	.000193425
.03	303.15	.0062951	.046988	.00023494
.03	303.15	.0076151	.05588	.0002794
.03	303.15	.0090397	.062124	.00031062
.03	303.15	.010408	.066638	.00033319
.03	303.15	.011775	.070808	.00035404
.03	303.15	.01305	.074748	.00037374
.03	303.15	.014336	.078692	.00039346
.03	303.15	.015706	.082754	.00041377
.03	303.15	.017099	.086702	.00043351
.03	308.15	.0013332	.011438	.00005719
.03	308.15	.002613	.022664	.00011332
.03	308.15	.003862	.032368	.00016184
.03	308.15	.0051405	.042737	.000213685
.03	308.15	.0062951	.052085	.000260425
.03	308.15	.0076151	.062026	.00031013
.03	308.15	.0090397	.069551	.000347755
.03	308.15	.010408	.07465	.00037325
.03	308.15	.011775	.079406	.00039703
.03	308.15	.01305	.083816	.00041908
.03	308.15	.014336	.088463	.000442315
.03	308.15	.015706	.093113	.000465565
.03	308.15	.017099	.097767	.000488835
.04	288.15	.0013401	.007283	.000036415
.04	288.15	.0026315	.014188	.00007094
.04	288.15	.0039392	.021163	.000105815
.04	288.15	.0052467	.027889	.000139445
.04	288.15	.0064619	.033988	.00016994
.04	288.15	.0078663	.040324	.00020162
.04	288.15	.0092729	.044129	.000220645
.04	288.15	.010587	.046898	.00023449
.04	288.15	.012046	.049784	.00024892
.04	288.15	.01325	.052093	.000260465
.04	288.15	.014624	.05475	.00027375
.04	288.15	.015981	.057293	.000286465
.04	288.15	.017309	.059952	.00029976
.04	293.15	.0013401	.008264	.00004132
.04	293.15	.0026315	.016129	.000080645
.04	293.15	.0039392	.023799	.000118995
.04	293.15	.0052467	.031389	.000156945
.04	293.15	.0064619	.038414	.00019207
.04	293.15	.0078663	.045563	.000227815
.04	293.15	.0092729	.049602	.00024801
.04	293.15	.010587	.052951	.000264755
.04	293.15	.012046	.056186	.00028093
.04	293.15	.01325	.059076	.00029538
.04	293.15	.014624	.061968	.00030984
.04	293.15	.015981	.065092	.00032546
.04	293.15	.017309	.068103	.000340515
.04	298.15	.0013401	.009281	.000046405
.04	298.15	.0026315	.018113	.000090565
.04	298.15	.0039392	.026695	.000133475
.04	298.15	.0052467	.035327	.000176635
.04	298.15	.0064619	.043048	.00021524
.04	298.15	.0078663	.051126	.00025563
.04	298.15	.0092729	.055862	.00027931
.04	298.15	.010587	.059562	.00029781
.04	298.15	.012046	.063495	.000317475
.04	298.15	.01325	.06662	.0003331
.04	298.15	.014624	.070211	.000351055
.04	298.15	.015981	.073687	.000368435
.04	298.15	.017309	.077282	.00038641
.04	303.15	.0013401	.01033	.00005165
.04	303.15	.0026315	.020199	.000100995
.04	303.15	.0039392	.029795	.000148975
.04	303.15	.0052467	.039238	.00019619
.04	303.15	.0064619	.048003	.000240015
.04	303.15	.0078663	.057013	.000285065
.04	303.15	.0092729	.062448	.00031224
.04	303.15	.010587	.066731	.000333655
.04	303.15	.012046	.071248	.00035624
.04	303.15	.01325	.074957	.000374785
.04	303.15	.014624	.079134	.00039567
.04	303.15	.015981	.082963	.000414815
.04	303.15	.017309	.087028	.00043514
.04	308.15	.0013401	.011468	.00005734
.04	308.15	.0026315	.022282	.00011141
.04	308.15	.0039392	.032864	.00016432
.04	308.15	.0052467	.043465	.000217325
.04	308.15	.0064619	.053161	.000265805
.04	308.15	.0078663	.063452	.00031726
.04	308.15	.0092729	.069936	.00034968
.04	308.15	.010587	.074919	.000374595
.04	308.15	.012046	.080023	.000400115
.04	308.15	.01325	.084203	.000421015
.04	308.15	.014624	.088966	.00044483
.04	308.15	.015981	.0935	.0004675
.04	308.15	.017309	.098271	.000491355
.05	288.15	.0014173	.007685	.000038425
.05	288.15	.0028036	.015087	.000075435
.05	288.15	.0041713	.022179	.000110895
.05	288.15	.0054983	.029193	.000145965
.05	288.15	.0066932	.035179	.000175895
.05	288.15	.0080932	.040825	.000204125
.05	288.15	.0095597	.044284	.00022142
.05	288.15	.011075	.047514	.00023757
.05	288.15	.0125	.0504	.000252
.05	288.15	.013961	.053172	.00026586
.05	288.15	.015457	.056176	.00028088
.05	288.15	.016972	.058951	.000294755
.05	293.15	.0014173	.008713	.000043565
.05	293.15	.0028036	.017115	.000085575
.05	293.15	.0041713	.025054	.00012527
.05	293.15	.0054983	.032877	.000164385
.05	293.15	.0066932	.039673	.000198365
.05	293.15	.0080932	.0459	.0002295
.05	293.15	.0095597	.04994	.0002497
.05	293.15	.011075	.053635	.000268175
.05	293.15	.0125	.056871	.000284355
.05	293.15	.013961	.060339	.000301695
.05	293.15	.015457	.063695	.000318475
.05	293.15	.016972	.067168	.00033584
.05	298.15	.0014173	.00979	.00004895
.05	298.15	.0028036	.019251	.000096255
.05	298.15	.0041713	.028135	.000140675
.05	298.15	.0054983	.036999	.000184995
.05	298.15	.0066932	.044492	.00022246
.05	298.15	.0080932	.051533	.000257665
.05	298.15	.0095597	.056154	.00028077
.05	298.15	.011075	.060432	.00030216
.05	298.15	.0125	.064251	.000321255
.05	298.15	.013961	.068303	.000341515
.05	298.15	.015457	.072126	.00036063
.05	298.15	.016972	.076184	.00038092
.05	303.15	.0014173	.010907	.000054535
.05	303.15	.0028036	.021294	.00010647
.05	303.15	.0041713	.031299	.000156495
.05	303.15	.0054983	.04109	.00020545
.05	303.15	.0066932	.049512	.00024756
.05	303.15	.0080932	.057484	.00028742
.05	303.15	.0095597	.06292	.0003146
.05	303.15	.011075	.067782	.00033891
.05	303.15	.0125	.072301	.000361505
.05	303.15	.013961	.076822	.00038411
.05	303.15	.015457	.081464	.00040732
.05	303.15	.016972	.085993	.000429965
.05	308.15	.0014173	.012105	.000060525
.05	308.15	.0028036	.023608	.00011804
.05	308.15	.0041713	.034654	.00017327
.05	308.15	.0054983	.045374	.00022687
.05	308.15	.0066932	.054958	.00027479
.05	308.15	.0080932	.06421	.00032105
.05	308.15	.0095597	.070464	.00035232
.05	308.15	.011075	.076028	.00038014
.05	308.15	.0125	.081249	.000406245
.05	308.15	.013961	.086359	.000431795
.05	308.15	.015457	.091473	.000457365
.05	308.15	.016972	.096708	.00048354
.06	288.15	.0013199	.006872	.00003436
.06	288.15	.0025611	.013386	.00006693
.06	288.15	.0038118	.020232	.00010116
.06	288.15	.0051235	.02755	.00013775
.06	288.15	.0064376	.034545	.000172725
.06	288.15	.0077082	.04027	.00020135
.06	288.15	.0089466	.044073	.000220365
.06	288.15	.010395	.047279	.000236395
.06	288.15	.011776	.050377	.000251885
.06	288.15	.013186	.053488	.00026744
.06	288.15	.014506	.056364	.00028182
.06	288.15	.015878	.059251	.000296255
.06	288.15	.017146	.062024	.00031012
.06	293.15	.0013199	.008032	.00004016
.06	293.15	.0025611	.015497	.000077485
.06	293.15	.0038118	.022765	.000113825
.06	293.15	.0051235	.030469	.000152345
.06	293.15	.0064376	.037839	.000189195
.06	293.15	.0077082	.043949	.000219745
.06	293.15	.0089466	.047872	.00023936
.06	293.15	.010395	.051567	.000257835
.06	293.15	.011776	.054802	.00027401
.06	293.15	.013186	.058154	.00029077
.06	293.15	.014506	.061161	.000305805
.06	293.15	.015878	.0644	.000322
.06	293.15	.017146	.067295	.000336475
.06	298.15	.0013199	.009022	.00004511
.06	298.15	.0025611	.017444	.00008722
.06	298.15	.0038118	.025562	.00012781
.06	298.15	.0051235	.034192	.00017096
.06	298.15	.0064376	.042489	.000212445
.06	298.15	.0077082	.049412	.00024706
.06	298.15	.0089466	.053801	.000269005
.06	298.15	.010395	.058078	.00029039
.06	298.15	.011776	.061894	.00030947
.06	298.15	.013186	.065829	.000329145
.06	298.15	.014506	.069304	.00034652
.06	298.15	.015878	.073012	.00036506
.06	298.15	.017146	.07649	.00038245
.06	303.15	.0013199	.010082	.00005041
.06	303.15	.0025611	.019473	.000097365
.06	303.15	.0038118	.028438	.00014219
.06	303.15	.0051235	.037995	.000189975
.06	303.15	.0064376	.047336	.00023668
.06	303.15	.0077082	.055074	.00027537
.06	303.15	.0089466	.060277	.000301385
.06	303.15	.010395	.065253	.000326265
.06	303.15	.011776	.069653	.000348265
.06	303.15	.013186	.074057	.000370285
.06	303.15	.014506	.078233	.000391165
.06	303.15	.015878	.082411	.000412055
.06	303.15	.017146	.086359	.000431795
.06	308.15	.0013199	.011159	.000055795
.06	308.15	.0025611	.021357	.000106785
.06	308.15	.0038118	.031477	.000157385
.06	308.15	.0051235	.041962	.00020981
.06	308.15	.0064376	.052464	.00026232
.06	308.15	.0077082	.061251	.000306255
.06	308.15	.0089466	.067385	.000336925
.06	308.15	.010395	.073063	.000365315
.06	308.15	.011776	.078166	.00039083
.06	308.15	.013186	.083157	.000415785
.06	308.15	.014506	.08792	.0004396
.06	308.15	.015878	.092686	.00046343
.06	308.15	.017146	.097224	.00048612

System: sodium lauryl sulfate + water + L-alanyl-L-glutamine; phases: Liquid
Fixed: Pressure, kPa = 101.3
Property: Mass density, kg/m3 (Liquid); method: Vibrating tube method
Solvent: Molality, mol/kg of sodium lauryl sulfate	Temperature, K	Molality, mol/kg of L-alanyl-L-glutamine	Mass density, kg/m3	uncertainty
0	298.15	.0401	999.958	.003
0	298.15	.08086	1002.879	.003
0	298.15	.1012	1004.318	.003
0	298.15	.148	1007.597	.003
0	298.15	.2002	1011.18	.003
0	298.15	.2448	1014.226	.003
0	298.15	.2993	1017.773	.003
0	303.15	.0401	998.464	.003
0	303.15	.08086	1001.384	.003
0	303.15	.1012	1002.817	.003
0	303.15	.148	1006.099	.003
0	303.15	.2002	1009.698	.003
0	303.15	.2448	1012.716	.003
0	303.15	.2993	1016.29	.003
0	308.15	.0401	996.937	.003
0	308.15	.08086	999.85	.003
0	308.15	.1012	1001.291	.003
0	308.15	.148	1004.592	.003
0	308.15	.2002	1008.153	.003
0	308.15	.2448	1011.197	.003
0	313.15	.0401	995.298	.003
0	313.15	.08086	998.196	.003
0	313.15	.1012	999.626	.003
0	313.15	.148	1002.892	.003
0	313.15	.2002	1006.484	.003
0	313.15	.2448	1009.511	.003
0	313.15	.2993	1013.168	.003
.05	298.15	0	999.107	.003
.05	298.15	.04064	1002.039	.003
.05	298.15	.0621	1003.57	.003
.05	298.15	.08241	1005.008	.003
.05	298.15	.1037	1006.515	.003
.05	298.15	.154	1010.019	.003
.05	298.15	.2102	1013.859	.003
.05	298.15	.2472	1016.348	.003
.05	303.15	0	997.664	.003
.05	303.15	.02058	999.137	.003
.05	303.15	.04064	1000.562	.003
.05	303.15	.0621	1002.083	.003
.05	303.15	.08241	1003.516	.003
.05	303.15	.1037	1005.005	.003
.05	303.15	.154	1008.502	.003
.05	303.15	.2102	1012.305	.003
.05	303.15	.2472	1014.754	.003
.05	308.15	0	995.978	.003
.05	308.15	.02058	997.43	.003
.05	308.15	.04064	998.834	.003
.05	308.15	.0621	1000.334	.003
.05	308.15	.08241	1001.749	.003
.05	308.15	.1037	1003.207	.003
.05	308.15	.154	1006.625	.003
.05	308.15	.2102	1010.387	.003
.05	308.15	.2472	1012.842	.003
.05	313.15	0	994.216	.003
.05	313.15	.04064	997.008	.003
.05	313.15	.0621	998.481	.003
.05	313.15	.08241	999.89	.003
.05	313.15	.1037	1001.348	.003
.05	313.15	.154	1004.813	.003
.05	313.15	.2102	1008.644	.003
.05	313.15	.2472	1011.148	.003

System: sodium lauryl sulfate + water + L-alanyl-L-glutamine; phases: Liquid
Fixed: Pressure, kPa = 101.3
Property: Electrical conductivity, S/m (Liquid); method: Thermo Orion 145A Conductivity Meter
Solvent: Molality, mol/kg of L-alanyl-L-glutamine	Temperature, K	Amount concentration (molarity), mol/dm3 of sodium lauryl sulfate	Electrical conductivity, S/m	uncertainty
.02	288.15	.00013546	.0068	.000034
.02	288.15	.00026341	.01425	.00007125
.02	288.15	.00038741	.020929	.000104645
.02	288.15	.00051874	.027678	.00013839
.02	288.15	.00065248	.034352	.00017176
.02	288.15	.00077424	.039767	.000198835
.02	288.15	.00085546	.042418	.00021209
.02	288.15	.0010008	.046433	.000232165
.02	288.15	.001154	.050149	.000250745
.02	288.15	.0013025	.052805	.000264025
.02	288.15	.0014404	.055463	.000277315
.02	288.15	.0015823	.058121	.000290605
.02	293.15	.00013546	.008083	.000040415
.02	293.15	.00026341	.01616	.0000808
.02	293.15	.00038741	.02354	.0001177
.02	293.15	.00051874	.031249	.000156245
.02	293.15	.00065248	.038735	.000193675
.02	293.15	.00077424	.044731	.000223655
.02	293.15	.00085546	.047847	.000239235
.02	293.15	.0010008	.052042	.00026021
.02	293.15	.001154	.056509	.000282545
.02	293.15	.0013025	.059862	.00029931
.02	293.15	.0014404	.062869	.000314345
.02	293.15	.0015823	.065879	.000329395
.02	298.15	.00013546	.009415	.000047075
.02	298.15	.00026341	.018173	.000090865
.02	298.15	.00038741	.026293	.000131465
.02	298.15	.00051874	.035039	.000175195
.02	298.15	.00065248	.043568	.00021784
.02	298.15	.00077424	.050261	.000251305
.02	298.15	.00085546	.053344	.00026672
.02	298.15	.0010008	.058221	.000291105
.02	298.15	.001154	.063786	.00031893
.02	298.15	.0013025	.067491	.000337455
.02	298.15	.0014404	.070966	.00035483
.02	298.15	.0015823	.074559	.000372795
.02	303.15	.00013546	.009924	.00004962
.02	303.15	.00026341	.020286	.00010143
.02	303.15	.00038741	.029266	.00014633
.02	303.15	.00051874	.038938	.00019469
.02	303.15	.00065248	.048512	.00024256
.02	303.15	.00077424	.05602	.0002801
.02	303.15	.00085546	.060233	.000301165
.02	303.15	.0010008	.06591	.00032955
.02	303.15	.001154	.071044	.00035522
.02	303.15	.0013025	.075233	.000376165
.02	303.15	.0014404	.08011	.00040055
.02	303.15	.0015823	.084057	.000420285
.02	308.15	.00013546	.009856	.00004928
.02	308.15	.00026341	.02181	.00010905
.02	308.15	.00038741	.032431	.000162155
.02	308.15	.00051874	.043148	.00021574
.02	308.15	.00065248	.053768	.00026884
.02	308.15	.00077424	.062324	.00031162
.02	308.15	.00085546	.067502	.00033751
.02	308.15	.0010008	.074066	.00037033
.02	308.15	.001154	.080402	.00040201
.02	308.15	.0013025	.085395	.000426975
.02	308.15	.0014404	.090043	.000450215
.02	308.15	.0015823	.094695	.000473475
.03	288.15	.00012438	.00675	.00003375
.03	288.15	.00025036	.013478	.00006739
.03	288.15	.00038367	.020594	.00010297
.03	288.15	.00050927	.026905	.000134525
.03	288.15	.00063473	.033119	.000165595
.03	288.15	.00075812	.038417	.000192085
.03	288.15	.00088117	.042337	.000211685
.03	288.15	.00099612	.044874	.00022437
.03	288.15	.00112976	.047759	.000238795
.03	288.15	.0012749	.050761	.000253805
.03	288.15	.0014117	.053417	.000267085
.03	288.15	.00154	.055844	.00027922
.03	288.15	.0016856	.058734	.00029367
.03	293.15	.00012438	.007652	.00003826
.03	293.15	.00025036	.015289	.000076445
.03	293.15	.00038367	.023148	.00011574
.03	293.15	.00050927	.030509	.000152545
.03	293.15	.00063473	.037418	.00018709
.03	293.15	.00075812	.043297	.000216485
.03	293.15	.00088117	.047682	.00023841
.03	293.15	.00099612	.050683	.000253415
.03	293.15	.00112976	.053918	.00026959
.03	293.15	.0012749	.057501	.000287505
.03	293.15	.0014117	.060507	.000302535
.03	293.15	.00154	.063516	.00031758
.03	293.15	.0016856	.066873	.000334365
.03	298.15	.00012438	.008612	.00004306
.03	298.15	.00025036	.017229	.000086145
.03	298.15	.00038367	.026035	.000130175
.03	298.15	.00050927	.034206	.00017103
.03	298.15	.00063473	.041926	.00020963
.03	298.15	.00075812	.048618	.00024309
.03	298.15	.00088117	.053469	.000267345
.03	298.15	.00099612	.057051	.000285255
.03	298.15	.00112976	.060868	.00030434
.03	298.15	.0012749	.064918	.00032459
.03	298.15	.0014117	.068392	.00034196
.03	298.15	.00154	.071984	.00035992
.03	298.15	.0016856	.075694	.00037847
.03	303.15	.00012438	.009599	.000047995
.03	303.15	.00025036	.019228	.00009614
.03	303.15	.00038367	.028899	.000144495
.03	303.15	.00050927	.038112	.00019056
.03	303.15	.00063473	.046761	.000233805
.03	303.15	.00075812	.054268	.00027134
.03	303.15	.00088117	.059933	.000299665
.03	303.15	.00099612	.063982	.00031991
.03	303.15	.00112976	.068267	.000341335
.03	303.15	.0012749	.073018	.00036509
.03	303.15	.0014117	.077076	.00038538
.03	303.15	.00154	.080906	.00040453
.03	303.15	.0016856	.085318	.00042659
.03	308.15	.00012438	.010673	.000053365
.03	308.15	.00025036	.021689	.000108445
.03	308.15	.00038367	.032077	.000160385
.03	308.15	.00050927	.042102	.00021051
.03	308.15	.00063473	.051912	.00025956
.03	308.15	.00075812	.060351	.000301755
.03	308.15	.00088117	.066948	.00033474
.03	308.15	.00099612	.071583	.000357915
.03	308.15	.00112976	.076568	.00038284
.03	308.15	.0012749	.081907	.000409535
.03	308.15	.0014117	.086669	.000433345
.03	308.15	.00154	.091086	.00045543
.03	308.15	.0016856	.095972	.00047986
.04	288.15	.00013435	.007189	.000035945
.04	288.15	.00026743	.014192	.00007096
.04	288.15	.00039367	.020747	.000103735
.04	288.15	.0005206	.0273	.0001365
.04	288.15	.00064791	.033399	.000166995
.04	288.15	.0007663	.038237	.000191185
.04	288.15	.00088937	.041696	.00020848
.04	288.15	.0010115	.044464	.00022232
.04	288.15	.0011323	.047118	.00023559
.04	288.15	.0012672	.049888	.00024944
.04	288.15	.0013956	.052544	.00026272
.04	288.15	.0015326	.055202	.00027601
.04	288.15	.0016675	.057861	.000289305
.04	293.15	.00013435	.008138	.00004069
.04	293.15	.00026743	.016092	.00008046
.04	293.15	.00039367	.023437	.000117185
.04	293.15	.0005206	.030799	.000153995
.04	293.15	.00064791	.037594	.00018797
.04	293.15	.0007663	.043012	.00021506
.04	293.15	.00088937	.046819	.000234095
.04	293.15	.0010115	.050167	.000250835
.04	293.15	.0011323	.05317	.00026585
.04	293.15	.0012672	.056406	.00028203
.04	293.15	.0013956	.059297	.000296485
.04	293.15	.0015326	.062652	.00031326
.04	293.15	.0016675	.065661	.000328305
.04	298.15	.00013435	.009226	.00004613
.04	298.15	.00026743	.018112	.00009056
.04	298.15	.00039367	.026324	.00013162
.04	298.15	.0005206	.034611	.000173055
.04	298.15	.00064791	.042218	.00021109
.04	298.15	.0007663	.048333	.000241665
.04	298.15	.00088937	.052606	.00026303
.04	298.15	.0010115	.05642	.0002821
.04	298.15	.0011323	.059889	.000299445
.04	298.15	.0012672	.063707	.000318535
.04	298.15	.0013956	.067065	.000335325
.04	298.15	.0015326	.070888	.00035444
.04	298.15	.0016675	.074482	.00037241
.04	303.15	.00013435	.010647	.000053235
.04	303.15	.00026743	.020129	.000100645
.04	303.15	.00039367	.029328	.00014664
.04	303.15	.0005206	.038657	.000193285
.04	303.15	.00064791	.047077	.000235385
.04	303.15	.0007663	.053891	.000269455
.04	303.15	.00088937	.058862	.00029431
.04	303.15	.0010115	.063258	.00031629
.04	303.15	.0011323	.067311	.000336555
.04	303.15	.0012672	.071482	.00035741
.04	303.15	.0013956	.075539	.000377695
.04	303.15	.0015326	.079949	.000399745
.04	303.15	.0016675	.083896	.00041948
.04	308.15	.00013435	.011874	.00005937
.04	308.15	.00026743	.022245	.000111225
.04	308.15	.00039367	.032483	.000162415
.04	308.15	.0005206	.04274	.0002137
.04	308.15	.00064791	.052322	.00026161
.04	308.15	.0007663	.060068	.00030034
.04	308.15	.00088937	.065739	.000328695
.04	308.15	.0010115	.070836	.00035418
.04	308.15	.0011323	.075589	.000377945
.04	308.15	.0012672	.080463	.000402315
.04	308.15	.0013956	.084876	.00042438
.04	308.15	.0015326	.089757	.000448785
.04	308.15	.0016675	.094293	.000471465
.05	288.15	.00013702	.007289	.000036445
.05	288.15	.00027326	.014384	.00007192
.05	288.15	.00040054	.021001	.000105005
.05	288.15	.00052419	.027094	.00013547
.05	288.15	.00064306	.032618	.00016309
.05	288.15	.0007499	.036995	.000184975
.05	288.15	.00087119	.040683	.000203415
.05	288.15	.00099874	.043682	.00021841
.05	288.15	.0011297	.046566	.00023283
.05	288.15	.0012623	.049337	.000246685
.05	288.15	.0013974	.052109	.000260545
.05	288.15	.0015251	.05465	.00027325
.05	288.15	.0016692	.05754	.0002877
.05	293.15	.00013702	.00824	.0000412
.05	293.15	.00027326	.016336	.00008168
.05	293.15	.00040054	.023726	.00011863
.05	293.15	.00052419	.030628	.00015314
.05	293.15	.00064306	.036847	.000184235
.05	293.15	.0007499	.041688	.00020844
.05	293.15	.00087119	.045726	.00022863
.05	293.15	.00099874	.04942	.0002471
.05	293.15	.0011297	.052654	.00026327
.05	293.15	.0012623	.055889	.000279445
.05	293.15	.0013974	.059011	.000295055
.05	293.15	.0015251	.062135	.000310675
.05	293.15	.0016692	.065376	.00032688
.05	298.15	.00013702	.009136	.00004568
.05	298.15	.00027326	.018363	.000091815
.05	298.15	.00040054	.026499	.000132495
.05	298.15	.00052419	.034326	.00017163
.05	298.15	.00064306	.041356	.00020678
.05	298.15	.0007499	.046778	.00023389
.05	298.15	.00087119	.051397	.000256985
.05	298.15	.00099874	.055557	.000277785
.05	298.15	.0011297	.059373	.000296865
.05	298.15	.0012623	.063075	.000315375
.05	298.15	.0013974	.066664	.00033332
.05	298.15	.0015251	.070256	.00035128
.05	298.15	.0016692	.074197	.000370985
.05	303.15	.00013702	.010343	.000051715
.05	303.15	.00027326	.020407	.000102035
.05	303.15	.00040054	.029607	.000148035
.05	303.15	.00052419	.038245	.000191225
.05	303.15	.00064306	.046088	.00023044
.05	303.15	.0007499	.052208	.00026104
.05	303.15	.00087119	.057525	.000287625
.05	303.15	.00099874	.062384	.00031192
.05	303.15	.0011297	.066668	.00033334
.05	303.15	.0012623	.070954	.00035477
.05	303.15	.0013974	.075245	.000376225
.05	303.15	.0015251	.079189	.000395945
.05	303.15	.0016692	.083718	.00041859
.05	308.15	.00013702	.011498	.00005749
.05	308.15	.00027326	.022626	.00011313
.05	308.15	.00040054	.032751	.000163755
.05	308.15	.00052419	.042433	.000212165
.05	308.15	.00064306	.051206	.00025603
.05	308.15	.0007499	.058141	.000290705
.05	308.15	.00087119	.064274	.00032137
.05	308.15	.00099874	.069834	.00034917
.05	308.15	.0011297	.074936	.00037468
.05	308.15	.0012623	.079693	.000398465
.05	308.15	.0013974	.084454	.00042227
.05	308.15	.0015251	.088987	.000444935
.05	308.15	.0016692	.094337	.000471685
.06	288.15	.00012787	.006806	.00003403
.06	288.15	.0002572	.013577	.000067885
.06	288.15	.00038298	.020152	.00010076
.06	288.15	.00049941	.025899	.000129495
.06	288.15	.00067989	.034071	.000170355
.06	288.15	.00079003	.037873	.000189365
.06	288.15	.00091444	.041331	.000206655
.06	288.15	.001032	.044099	.000220495
.06	288.15	.001165	.046984	.00023492
.06	288.15	.0013087	.04987	.00024935
.06	288.15	.0014309	.052527	.000262635
.06	288.15	.0015549	.055069	.000275345
.06	288.15	.0016943	.058075	.000290375
.06	293.15	.00012787	.007711	.000038555
.06	293.15	.0002572	.015397	.000076985
.06	293.15	.00038298	.022773	.000113865
.06	293.15	.00049941	.029329	.000146645
.06	293.15	.00067989	.038313	.000191565
.06	293.15	.00079003	.04281	.00021405
.06	293.15	.00091444	.046502	.00023251
.06	293.15	.001032	.04985	.00024925
.06	293.15	.001165	.053084	.00026542
.06	293.15	.0013087	.056668	.00028334
.06	293.15	.0014309	.059674	.00029837
.06	293.15	.0015549	.062683	.000313415
.06	293.15	.0016943	.065924	.00032962
.06	298.15	.00012787	.0086777	.0000433885
.06	298.15	.0002572	.017325	.000086625
.06	298.15	.00038298	.025477	.000127385
.06	298.15	.00049941	.032958	.00016479
.06	298.15	.00067989	.0431	.0002155
.06	298.15	.00079003	.048063	.000240315
.06	298.15	.00091444	.052336	.00026168
.06	298.15	.001032	.05615	.00028075
.06	298.15	.001165	.059967	.000299835
.06	298.15	.0013087	.064133	.000320665
.06	298.15	.0014309	.067607	.000338035
.06	298.15	.0015549	.070968	.00035484
.06	298.15	.0016943	.074794	.00037397
.06	303.15	.00012787	.009697	.000048485
.06	303.15	.0002572	.019282	.00009641
.06	303.15	.00038298	.028366	.00014183
.06	303.15	.00049941	.036657	.000183285
.06	303.15	.00067989	.048077	.000240385
.06	303.15	.00079003	.053853	.000269265
.06	303.15	.00091444	.058709	.000293545
.06	303.15	.001032	.062991	.000314955
.06	303.15	.001165	.067391	.000336955
.06	303.15	.0013087	.072142	.00036071
.06	303.15	.0014309	.076202	.00038101
.06	303.15	.0015549	.080031	.000400155
.06	303.15	.0016943	.08456	.0004228
.06	308.15	.00012787	.010781	.000053905
.06	308.15	.0002572	.021398	.00010699
.06	308.15	.00038298	.031522	.00015761
.06	308.15	.00049941	.040626	.00020313
.06	308.15	.00067989	.053441	.000267205
.06	308.15	.00079003	.059916	.00029958
.06	308.15	.00091444	.065704	.00032852
.06	308.15	.001032	.070571	.000352855
.06	308.15	.001165	.075789	.000378945
.06	308.15	.0013087	.081128	.00040564
.06	308.15	.0014309	.085658	.00042829
.06	308.15	.0015549	.090192	.00045096
.06	308.15	.0016943	.095311	.000476555
