Measured thermophysical data. Experimental (vapour + liquid) equilibrium data of (methanol + water),  (water + glycerol) and (methanol + glycerol) systems at atmospheric  and sub-atmospheric pressures
Source: J. Chem. Thermodyn., 2010, 10.1016/j.jct.2009.11.020
Compound 1: glycerol, C3H8O3
Compound 2: methanol, CH4O
Compound 3: water, H2O

System: glycerol; phases: Liquid
Fixed: Pressure, kPa = 101.325
Property: Mass density, kg/m3 (Liquid); method: Vibrating tube method
Temperature, K	Mass density, kg/m3	uncertainty
293.15	1261.3	.1

System: glycerol; phases: Liquid
Fixed: Pressure, kPa = 101.325
Property: Refractive index (Na D-line) (Liquid); method: Standard Abbe refractometry
Temperature, K	Refractive index (Na D-line)	uncertainty
293.15	1.474	.00001

System: methanol; phases: Liquid
Fixed: Pressure, kPa = 101.325
Property: Mass density, kg/m3 (Liquid); method: Vibrating tube method
Temperature, K	Mass density, kg/m3	uncertainty
293.15	791.03	.1

System: methanol; phases: Liquid
Fixed: Pressure, kPa = 101.325
Property: Refractive index (Na D-line) (Liquid); method: Standard Abbe refractometry
Temperature, K	Refractive index (Na D-line)	uncertainty
293.15	1.328	.00001

System: water; phases: Liquid
Fixed: Pressure, kPa = 101.325
Property: Mass density, kg/m3 (Liquid); method: Vibrating tube method
Temperature, K	Mass density, kg/m3	uncertainty
293.15	998.2	.1

System: water; phases: Liquid
Fixed: Pressure, kPa = 101.325
Property: Refractive index (Na D-line) (Liquid); method: Standard Abbe refractometry
Temperature, K	Refractive index (Na D-line)	uncertainty
293.15	1.333	.00001

System: methanol + water; phases: Liquid, Gas
Property: Boiling temperature at pressure P, K (Liquid); method: Ebulliometric method (Recirculating still)
Mole fraction of methanol	Pressure, kPa	Boiling temperature at pressure P, K	uncertainty
0	15.19	327.4	.05
.1	15.19	318.05	.05
.2	15.19	312.4	.05
.3	15.19	308.55	.05
.4	15.19	305.7	.05
.5	15.19	303.5	.05
.6	15.19	301.7	.05
.7	15.19	300.1	.05
.8	15.19	298.7	.05
.9	15.19	297.4	.05
1	15.19	296.1	.05
0	29.38	341.75	.05
.1	29.38	329.5	.05
.2	29.38	324	.05
.3	29.38	320.75	.05
.4	29.38	318.4	.05
.5	29.38	316.5	.05
.6	29.38	314.85	.05
.7	29.38	313.3	.05
.8	29.38	311.9	.05
.9	29.38	310.5	.05
1	29.38	309.2	.05
0	42.66	350.6	.05
.1	42.66	340.4	.05
.2	42.66	334.3	.05
.3	42.66	330.15	.05
.4	42.66	327.1	.05
.5	42.66	324.8	.05
.6	42.66	322.9	.05
.7	42.66	321.3	.05
.8	42.66	319.85	.05
.9	42.66	318.5	.05
1	42.66	317.15	.05
0	56.03	357.35	.05
.1	56.03	347.25	.05
.2	56.03	341.05	.05
.3	56.03	336.8	.05
.4	56.03	333.7	.05
.5	56.03	331.3	.05
.6	56.03	329.3	.05
.7	56.03	327.6	.05
.8	56.03	326.1	.05
.9	56.03	324.7	.05
1	56.03	323.35	.05
0	67.38	362.1	.05
.1	67.38	351.35	.05
.2	67.38	344.9	.05
.3	67.38	340.65	.05
.4	67.38	337.55	.05
.5	67.38	335.2	.05
.6	67.38	333.3	.05
.7	67.38	331.7	.05
.8	67.38	330.25	.05
.9	67.38	328.9	.05
1	67.38	327.65	.05
0	95.3	371.45	.05
.1	95.3	361.2	.05
.2	95.3	354.85	.05
.3	95.3	350.4	.05
.4	95.3	347.1	.05
.5	95.3	344.55	.05
.6	95.3	342.45	.05
.7	95.3	340.65	.05
.8	95.3	339.05	.05
.9	95.3	337.55	.05
1	95.3	336.1	.05

System: glycerol + water; phases: Liquid, Gas
Property: Boiling temperature at pressure P, K (Liquid); method: Ebulliometric method (Recirculating still)
Mole fraction of water	Pressure, kPa	Boiling temperature at pressure P, K	uncertainty
1	14.19	326.1	.05
.95	14.19	327.1	.05
.9	14.19	328.35	.05
.8	14.19	331.35	.05
.7	14.19	335.15	.05
.6	14.19	339.9	.05
.5	14.19	346	.05
.4	14.19	353.75	.05
.3	14.19	364.3	.05
.2	14.19	379.65	.05
.1	14.19	406.7	.05
0	14.19	497.1	.05
1	29.38	341.8	.05
.95	29.38	343	.05
.8	29.38	347.4	.05
.7	29.38	351.2	.05
.6	29.38	356.15	.05
.5	29.38	361.85	.05
.4	29.38	369.4	.05
.3	29.38	379.5	.05
.2	29.38	394.4	.05
.1	29.38	421.1	.05
0	29.38	519.05	.05
1	41.54	349.95	.05
.95	41.54	351.2	.05
.9	41.54	352.7	.05
.8	41.54	356.25	.05
.7	41.54	360.7	.05
.6	41.54	366.35	.05
.5	41.54	373.55	.05
.4	41.54	382.85	.05
.3	41.54	395.4	.05
.2	41.54	414.1	.05
.1	41.54	446.5	.05
0	41.54	530.4	.05
1	54.72	356.7	.05
.95	54.72	358.15	.05
.9	54.72	359.6	.05
.8	54.72	363.25	.05
.7	54.72	367.8	.05
.6	54.72	373.5	.05
.5	54.72	380.7	.05
.4	54.72	390.1	.05
.3	54.72	402.8	.05
.2	54.72	421.45	.05
.1	54.72	454.15	.05
0	54.72	540	.05
1	63.84	360.65	.05
.9	63.84	363.8	.05
.8	63.84	368.05	.05
.7	63.84	373.6	.05
.6	63.84	380.75	.05
.5	63.84	390	.05
.4	63.84	402.25	.05
.3	63.84	419.1	.05
.2	63.84	443.85	.05
.1	63.84	484.4	.05
0	63.84	545.6	.05
1	95.3	371.45	.05
.95	95.3	373	.05
.9	95.3	374.6	.05
.8	95.3	378.7	.05
.7	95.3	383.9	.05
.6	95.3	390.55	.05
.5	95.3	399.1	.05
.4	95.3	410.35	.05
.3	95.3	425.8	.05
.2	95.3	448.7	.05
.1	95.3	487.5	.05
0	95.3	560.8	.05

System: glycerol + methanol; phases: Liquid, Gas
Property: Boiling temperature at pressure P, K (Liquid); method: Ebulliometric method (Recirculating still)
Mole fraction of methanol	Pressure, kPa	Boiling temperature at pressure P, K	uncertainty
0	32.02	521.8	.05
.1	32.02	356.95	.05
.2	32.02	340.25	.05
.3	32.02	331.9	.05
.4	32.02	326.6	.05
.5	32.02	322.8	.05
.6	32.02	319.8	.05
.7	32.02	317.35	.05
.8	32.02	315.15	.05
.9	32.02	313.05	.05
1	32.02	311	.05
0	45.3	533.4	.05
.1	45.3	370.35	.05
.2	45.3	351.85	.05
.3	45.3	342.45	.05
.4	45.3	336.4	.05
.5	45.3	332	.05
.6	45.3	328.5	.05
.7	45.3	325.65	.05
.8	45.3	323.1	.05
.9	45.3	320.75	.05
1	45.3	318.5	.05
