Measured thermophysical data. (Liquid + liquid) equilibria of perfluorocarbons with fluorinated ionic liquids
Source: J. Chem. Thermodyn., 2013, 10.1016/j.jct.2013.04.019
Compound 1: tetrabutylammonium heptadecafluorooctanesulfonate, C24H36F17NO3S, purity 97%
Compound 2: tetrabutylammonium perfluorobutanesulfonate, C20H36F9NO3S, purity 98%
Compound 3: 1-ethyl-3-methylpyridinium perfluorobutanesulfonate, C12H12F9NO3S, purity 99%
Compound 4: 1-methyl-3-hexylimidazolium perfluorobutanesulfonate, C14H19F9N2O3S, purity 99%
Compound 5: 1-methyl-3-octylimidazolium perfluorobutanesulfonate, C16H23F9N2O3S, purity 99%
Compound 6: naphthalene, octadecafluorodecahydro-, C10F18, purity 96%
Compound 7: octadecafluorooctane, C8F18, purity 99%

System: naphthalene, octadecafluorodecahydro- + tetrabutylammonium heptadecafluorooctanesulfonate; phases: Liquid mixture 1, Liquid mixture 2
Property: Mole fraction of tetrabutylammonium heptadecafluorooctanesulfonate (Liquid mixture 1); method: visual gravimetric
Temperature, K	Pressure, kPa	Mole fraction of tetrabutylammonium heptadecafluorooctanesulfonate	uncertainty
344.9	101.325	.0005	.0001

System: naphthalene, octadecafluorodecahydro- + tetrabutylammonium heptadecafluorooctanesulfonate; phases: Liquid mixture 2, Liquid mixture 1
Property: Mole fraction of tetrabutylammonium heptadecafluorooctanesulfonate (Liquid mixture 2); method: Index of refraction calibration data
Temperature, K	Pressure, kPa	Mole fraction of tetrabutylammonium heptadecafluorooctanesulfonate	uncertainty
308.15	101.325	.804	.001
313.15	101.325	.782	.001
318.15	101.325	.7531	.001
323.15	101.325	.7323	.001
328.15	101.325	.7138	.001
333.15	101.325	.6963	.001
338.15	101.325	.6861	.001
343.15	101.325	.6804	.001

System: naphthalene, octadecafluorodecahydro- + tetrabutylammonium perfluorobutanesulfonate; phases: Liquid mixture 1, Liquid mixture 2
Property: Mole fraction of tetrabutylammonium perfluorobutanesulfonate (Liquid mixture 1); method: visual gravimetric
Temperature, K	Pressure, kPa	Mole fraction of tetrabutylammonium perfluorobutanesulfonate	uncertainty
345.77	101.325	.0003	.0001

System: naphthalene, octadecafluorodecahydro- + tetrabutylammonium perfluorobutanesulfonate; phases: Liquid mixture 2, Liquid mixture 1
Property: Mole fraction of tetrabutylammonium perfluorobutanesulfonate (Liquid mixture 2); method: Index of refraction calibration data
Temperature, K	Pressure, kPa	Mole fraction of tetrabutylammonium perfluorobutanesulfonate	uncertainty
323.15	101.325	.9207	.001
325.65	101.325	.9142	.001
328.15	101.325	.912	.001
330.65	101.325	.9094	.001
333.15	101.325	.9015	.001
338.15	101.325	.8975	.001
343.15	101.325	.8902	.001

System: naphthalene, octadecafluorodecahydro- + 1-methyl-3-hexylimidazolium perfluorobutanesulfonate; phases: Liquid mixture 1, Liquid mixture 2
Property: Mole fraction of 1-methyl-3-hexylimidazolium perfluorobutanesulfonate (Liquid mixture 1); method: visual gravimetric
Temperature, K	Pressure, kPa	Mole fraction of 1-methyl-3-hexylimidazolium perfluorobutanesulfonate	uncertainty
341.87	101.325	.0008	.0001

System: naphthalene, octadecafluorodecahydro- + 1-methyl-3-hexylimidazolium perfluorobutanesulfonate; phases: Liquid mixture 2, Liquid mixture 1
Property: Mole fraction of 1-methyl-3-hexylimidazolium perfluorobutanesulfonate (Liquid mixture 2); method: Index of refraction calibration data
Temperature, K	Pressure, kPa	Mole fraction of 1-methyl-3-hexylimidazolium perfluorobutanesulfonate	uncertainty
298.15	101.325	.9539	.001
303.15	101.325	.9538	.001
308.15	101.325	.953	.001
313.15	101.325	.9485	.001
318.15	101.325	.9495	.001
323.15	101.325	.9473	.001
328.15	101.325	.9449	.001
333.15	101.325	.9421	.001
338.15	101.325	.9375	.001
343.15	101.325	.936	.001

System: naphthalene, octadecafluorodecahydro- + 1-methyl-3-octylimidazolium perfluorobutanesulfonate; phases: Liquid mixture 1, Liquid mixture 2
Property: Mole fraction of 1-methyl-3-octylimidazolium perfluorobutanesulfonate (Liquid mixture 1); method: visual gravimetric
Temperature, K	Pressure, kPa	Mole fraction of 1-methyl-3-octylimidazolium perfluorobutanesulfonate	uncertainty
329.02	101.325	.0012	.0001

System: naphthalene, octadecafluorodecahydro- + 1-methyl-3-octylimidazolium perfluorobutanesulfonate; phases: Liquid mixture 2, Liquid mixture 1
Property: Mole fraction of 1-methyl-3-octylimidazolium perfluorobutanesulfonate (Liquid mixture 2); method: Index of refraction calibration data
Temperature, K	Pressure, kPa	Mole fraction of 1-methyl-3-octylimidazolium perfluorobutanesulfonate	uncertainty
298.15	101.325	.9361	.001
303.15	101.325	.9359	.001
308.15	101.325	.9343	.001
313.15	101.325	.9339	.001
318.15	101.325	.9334	.001
323.15	101.325	.9315	.001
328.15	101.325	.9312	.001
333.15	101.325	.9304	.001
343.15	101.325	.9194	.001

System: naphthalene, octadecafluorodecahydro- + 1-ethyl-3-methylpyridinium perfluorobutanesulfonate; phases: Liquid mixture 1, Liquid mixture 2
Property: Mole fraction of 1-ethyl-3-methylpyridinium perfluorobutanesulfonate (Liquid mixture 1); method: visual gravimetric
Temperature, K	Pressure, kPa	Mole fraction of 1-ethyl-3-methylpyridinium perfluorobutanesulfonate	uncertainty
332.69	101.325	.0022	.0001

System: naphthalene, octadecafluorodecahydro- + 1-ethyl-3-methylpyridinium perfluorobutanesulfonate; phases: Liquid mixture 2, Liquid mixture 1
Property: Mole fraction of 1-ethyl-3-methylpyridinium perfluorobutanesulfonate (Liquid mixture 2); method: Index of refraction calibration data
Temperature, K	Pressure, kPa	Mole fraction of 1-ethyl-3-methylpyridinium perfluorobutanesulfonate	uncertainty
293.15	101.325	.9667	.001
298.15	101.325	.9638	.001
303.15	101.325	.9638	.001
308.15	101.325	.9622	.001
313.15	101.325	.9613	.001
318.15	101.325	.9609	.001
323.15	101.325	.9599	.001
328.15	101.325	.9591	.001
333.15	101.325	.9584	.001
338.15	101.325	.9592	.001
343.15	101.325	.9584	.001

System: octadecafluorooctane + tetrabutylammonium heptadecafluorooctanesulfonate; phases: Liquid mixture 1, Liquid mixture 2
Property: Mole fraction of tetrabutylammonium heptadecafluorooctanesulfonate (Liquid mixture 1); method: visual gravimetric
Temperature, K	Pressure, kPa	Mole fraction of tetrabutylammonium heptadecafluorooctanesulfonate	uncertainty
335.67	101.325	.0005	.0001

System: octadecafluorooctane + tetrabutylammonium heptadecafluorooctanesulfonate; phases: Liquid mixture 2, Liquid mixture 1
Property: Mole fraction of tetrabutylammonium heptadecafluorooctanesulfonate (Liquid mixture 2); method: Index of refraction calibration data
Temperature, K	Pressure, kPa	Mole fraction of tetrabutylammonium heptadecafluorooctanesulfonate	uncertainty
308.15	101.325	.7529	.001
313.15	101.325	.7462	.001
318.15	101.325	.7344	.001
323.15	101.325	.7301	.001
328.15	101.325	.7244	.001
333.15	101.325	.7181	.001
338.15	101.325	.7114	.001
343.15	101.325	.71	.001

System: octadecafluorooctane + tetrabutylammonium perfluorobutanesulfonate; phases: Liquid mixture 1, Liquid mixture 2
Property: Mole fraction of tetrabutylammonium perfluorobutanesulfonate (Liquid mixture 1); method: visual gravimetric
Temperature, K	Pressure, kPa	Mole fraction of tetrabutylammonium perfluorobutanesulfonate	uncertainty
336.75	101.325	.0058	.0001

System: octadecafluorooctane + tetrabutylammonium perfluorobutanesulfonate; phases: Liquid mixture 2, Liquid mixture 1
Property: Mole fraction of tetrabutylammonium perfluorobutanesulfonate (Liquid mixture 2); method: Index of refraction calibration data
Temperature, K	Pressure, kPa	Mole fraction of tetrabutylammonium perfluorobutanesulfonate	uncertainty
325.65	101.325	.9291	.001
328.15	101.325	.9244	.001
333.15	101.325	.9219	.001
338.15	101.325	.9138	.001
343.15	101.325	.9034	.001

System: octadecafluorooctane + 1-methyl-3-hexylimidazolium perfluorobutanesulfonate; phases: Liquid mixture 1, Liquid mixture 2
Property: Mole fraction of 1-methyl-3-hexylimidazolium perfluorobutanesulfonate (Liquid mixture 1); method: visual gravimetric
Temperature, K	Pressure, kPa	Mole fraction of 1-methyl-3-hexylimidazolium perfluorobutanesulfonate	uncertainty
344.9	101.325	.0008	.0001

System: octadecafluorooctane + 1-methyl-3-hexylimidazolium perfluorobutanesulfonate; phases: Liquid mixture 2, Liquid mixture 1
Property: Mole fraction of 1-methyl-3-hexylimidazolium perfluorobutanesulfonate (Liquid mixture 2); method: Index of refraction calibration data
Temperature, K	Pressure, kPa	Mole fraction of 1-methyl-3-hexylimidazolium perfluorobutanesulfonate	uncertainty
298.15	101.325	.951	.001
303.15	101.325	.9485	.001
308.15	101.325	.9465	.001
313.15	101.325	.946	.001
318.15	101.325	.9451	.001
323.15	101.325	.9416	.001
328.15	101.325	.9407	.001
333.15	101.325	.9408	.001
338.15	101.325	.9376	.001
343.15	101.325	.9361	.001

System: octadecafluorooctane + 1-methyl-3-octylimidazolium perfluorobutanesulfonate; phases: Liquid mixture 1, Liquid mixture 2
Property: Mole fraction of 1-methyl-3-octylimidazolium perfluorobutanesulfonate (Liquid mixture 1); method: visual gravimetric
Temperature, K	Pressure, kPa	Mole fraction of 1-methyl-3-octylimidazolium perfluorobutanesulfonate	uncertainty
344.9	101.325	.0008	.0001

System: octadecafluorooctane + 1-methyl-3-octylimidazolium perfluorobutanesulfonate; phases: Liquid mixture 2, Liquid mixture 1
Property: Mole fraction of 1-methyl-3-octylimidazolium perfluorobutanesulfonate (Liquid mixture 2); method: Index of refraction calibration data
Temperature, K	Pressure, kPa	Mole fraction of 1-methyl-3-octylimidazolium perfluorobutanesulfonate	uncertainty
298.15	101.325	.9085	.001
303.15	101.325	.9053	.001
308.15	101.325	.8985	.001
313.15	101.325	.8962	.001
318.15	101.325	.891	.001
323.15	101.325	.8886	.001
328.15	101.325	.8863	.001
333.15	101.325	.8858	.001
338.15	101.325	.8779	.001
