Measured thermophysical data. Solubility of methane in n-hexane and a petroleum benzine at ambient temperatures
Source: J. Chem. Thermodyn., 2016, 10.1016/j.jct.2016.03.038
Compound 1: methane, CH4
Compound 2: n-hexane, C6H14

System: methane + n-hexane; phases: Liquid, Gas
Property: Vapor or sublimation pressure, kPa (Liquid); method: Closed cell (Static) method
Molality, mol/kg of methane	Temperature, K	Vapor or sublimation pressure, kPa	uncertainty
2.157	273.1	2850	
2.812	273.1	3620	
3.805	273.1	4700	
4.686	273.1	5670	
6.031	273.1	6920	
7.195	273.1	7900	
8.724	273.1	9190	
1.717	283.15	2500	
2.568	283.15	3570	
3.533	283.15	4740	
4.499	283.15	5840	
5.615	283.15	7010	
7.345	283.15	8560	
1.513	293.15	2360	
2.229	293.15	3340	
3.042	293.15	4410	
4.008	293.15	5620	
5.098	293.15	6860	
6.638	293.15	8400	

System: methane + n-hexane; phases: Liquid
Property: Mass density, kg/m3 (Liquid); method: Isochoric PVT measurement
Temperature, K	Pressure, kPa	Molality, mol/kg of methane	Mass density, kg/m3	uncertainty
273.1	2850	2.157	655	
273.1	3620	2.812	648	
273.1	4700	3.805	638	
273.1	5670	4.686	628	
273.1	6920	6.031	616	
273.1	7900	7.195	604	
273.1	9190	8.724	596	
283.15	2500	1.717	650	
283.15	3570	2.568	640	
283.15	4740	3.533	632	
283.15	5840	4.499	620	
283.15	7010	5.615	610	
283.15	8560	7.345	594	
293.15	2360	1.513	643	
293.15	3340	2.229	635	
293.15	4410	3.042	627	
293.15	5620	4.008	615	
293.15	6860	5.098	604	
293.15	8400	6.638	590	
