Measured thermophysical data. Low pressure carbon dioxide solubility in lithium-ion batteries based electrolytes  as a function of temperature. Measurement and prediction
Source: J. Chem. Thermodyn., 2013, 10.1016/j.jct.2012.12.025
Compound 1: ethylene glycol carbonate, C3H4O3, purity 99.99%
Compound 2: dimethyl carbonate, C3H6O3, purity 99.99%
Compound 3: ethyl methyl carbonate, C4H8O3, purity 99.99%
Compound 4: diethyl carbonate, C5H10O3, purity 99.99%
Compound 5: lithium hexafluorophosphate, F6LiP, purity 99.99%
Compound 6: lithium bis((trifluoromethyl)sulfonyl)amide, C2F6LiNO4S2, purity 99.99%
Compound 7: lithium trifluorotris(1,1,2,2,2-pentafluoroethyl)phosphate, C6F18LiP, purity 99.99%
Compound 8: carbon dioxide, CO2, purity 99.995%

System: ethylene glycol carbonate; phases: Liquid
Fixed: Pressure, kPa = 101.325
Property: Mass density, kg/m3 (Liquid); method: Pycnometric method
Temperature, K	Mass density, kg/m3	uncertainty
298.15	1350	50

System: dimethyl carbonate; phases: Liquid
Fixed: Pressure, kPa = 101.325
Property: Mass density, kg/m3 (Liquid); method: Pycnometric method
Temperature, K	Mass density, kg/m3	uncertainty
298.15	1070	50

System: ethyl methyl carbonate; phases: Liquid
Fixed: Pressure, kPa = 101.325
Property: Mass density, kg/m3 (Liquid); method: Pycnometric method
Temperature, K	Mass density, kg/m3	uncertainty
298.15	1010	50

System: diethyl carbonate; phases: Liquid
Fixed: Pressure, kPa = 101.325
Property: Mass density, kg/m3 (Liquid); method: Pycnometric method
Temperature, K	Mass density, kg/m3	uncertainty
298.15	970	50

System: ethylene glycol carbonate + carbon dioxide + lithium hexafluorophosphate; phases: Liquid, Gas
Fixed: Solvent: Amount concentration (molarity), mol/dm3 of lithium hexafluorophosphate = 1
Fixed: Pressure, kPa = 101
Property: Mole fraction of carbon dioxide (Liquid); method: Titration method
Temperature, K	Mole fraction of carbon dioxide	uncertainty
298.15	.0054	.00081
313.15	.0045	.000675
333.15	.0034	.00051
353.15	.0025	.000375

System: ethylene glycol carbonate + carbon dioxide + lithium bis((trifluoromethyl)sulfonyl)amide; phases: Liquid, Gas
Fixed: Pressure, kPa = 101
Fixed: Solvent: Amount concentration (molarity), mol/dm3 of lithium bis((trifluoromethyl)sulfonyl)amide = 1
Property: Mole fraction of carbon dioxide (Liquid); method: Titration method
Temperature, K	Mole fraction of carbon dioxide	uncertainty
298.15	.0056	.00084
313.15	.0049	.000735
333.15	.0036	.00054
353.15	.0027	.000405

System: carbon dioxide + dimethyl carbonate + lithium hexafluorophosphate; phases: Liquid, Gas
Fixed: Pressure, kPa = 101
Fixed: Solvent: Amount concentration (molarity), mol/dm3 of lithium hexafluorophosphate = 1
Property: Mole fraction of carbon dioxide (Liquid); method: Titration method
Temperature, K	Mole fraction of carbon dioxide	uncertainty
283.15	.0128	.00192
298.15	.01	.0015
313.15	.0079	.001185
333.15	.0057	.000855
353.15	.004	.0006

System: carbon dioxide + dimethyl carbonate + lithium bis((trifluoromethyl)sulfonyl)amide; phases: Liquid, Gas
Fixed: Pressure, kPa = 101
Fixed: Solvent: Amount concentration (molarity), mol/dm3 of lithium bis((trifluoromethyl)sulfonyl)amide = 1
Property: Mole fraction of carbon dioxide (Liquid); method: Titration method
Temperature, K	Mole fraction of carbon dioxide	uncertainty
283.15	.0161	.002415
298.15	.0119	.001785
313.15	.0087	.001305
333.15	.0061	.000915
353.15	.0045	.000675

System: carbon dioxide + lithium hexafluorophosphate + ethyl methyl carbonate; phases: Liquid, Gas
Fixed: Pressure, kPa = 101
Fixed: Solvent: Amount concentration (molarity), mol/dm3 of lithium hexafluorophosphate = 1
Property: Mole fraction of carbon dioxide (Liquid); method: Titration method
Temperature, K	Mole fraction of carbon dioxide	uncertainty
283.15	.017	.00255
298.15	.013	.00195
313.15	.0096	.00144
333.15	.007	.00105
353.15	.0055	.000825

System: carbon dioxide + lithium bis((trifluoromethyl)sulfonyl)amide + ethyl methyl carbonate; phases: Liquid, Gas
Fixed: Pressure, kPa = 101
Fixed: Solvent: Amount concentration (molarity), mol/dm3 of lithium bis((trifluoromethyl)sulfonyl)amide = 1
Property: Mole fraction of carbon dioxide (Liquid); method: Titration method
Temperature, K	Mole fraction of carbon dioxide	uncertainty
283.15	.0187	.002805
298.15	.016	.0024
313.15	.012	.0018
333.15	.0096	.00144
353.15	.0077	.001155

System: diethyl carbonate + carbon dioxide + lithium hexafluorophosphate; phases: Liquid, Gas
Fixed: Pressure, kPa = 101
Fixed: Solvent: Amount concentration (molarity), mol/dm3 of lithium hexafluorophosphate = 1
Property: Mole fraction of carbon dioxide (Liquid); method: Titration method
Temperature, K	Mole fraction of carbon dioxide	uncertainty
283.15	.0189	.002835
298.15	.014	.0021
313.15	.0111	.001665
333.15	.0073	.001095
353.15	.0055	.000825

System: diethyl carbonate + carbon dioxide + lithium bis((trifluoromethyl)sulfonyl)amide; phases: Liquid, Gas
Fixed: Pressure, kPa = 101
Fixed: Solvent: Amount concentration (molarity), mol/dm3 of lithium bis((trifluoromethyl)sulfonyl)amide = 1
Property: Mole fraction of carbon dioxide (Liquid); method: Titration method
Temperature, K	Mole fraction of carbon dioxide	uncertainty
283.15	.0211	.003165
298.15	.0172	.00258
313.15	.0138	.00207
333.15	.0101	.001515
353.15	.0081	.001215

System: ethylene glycol carbonate + dimethyl carbonate; phases: Liquid
Fixed: Pressure, kPa = 101
Fixed: Temperature, K = 298.15
Property: Mass density, kg/m3 (Liquid); method: Pycnometric method
Mass fraction of ethylene glycol carbonate	Mass density, kg/m3	uncertainty
.5	1230	50

System: ethylene glycol carbonate + ethyl methyl carbonate; phases: Liquid
Fixed: Pressure, kPa = 101
Fixed: Temperature, K = 298.15
Property: Mass density, kg/m3 (Liquid); method: Pycnometric method
Mass fraction of ethylene glycol carbonate	Mass density, kg/m3	uncertainty
.5	1190	50

System: ethylene glycol carbonate + diethyl carbonate; phases: Liquid
Fixed: Pressure, kPa = 101
Fixed: Temperature, K = 298.15
Property: Mass density, kg/m3 (Liquid); method: Pycnometric method
Mass fraction of ethylene glycol carbonate	Mass density, kg/m3	uncertainty
.5	1090	50

System: ethylene glycol carbonate + lithium hexafluorophosphate; phases: Liquid
Fixed: Amount concentration (molarity), mol/dm3 of lithium hexafluorophosphate = 1
Fixed: Pressure, kPa = 101
Property: Mass density, kg/m3 (Liquid); method: Pycnometric method
Temperature, K	Mass density, kg/m3	uncertainty
298.15	1400	50

System: ethylene glycol carbonate + lithium bis((trifluoromethyl)sulfonyl)amide; phases: Liquid
Fixed: Amount concentration (molarity), mol/dm3 of lithium bis((trifluoromethyl)sulfonyl)amide = 1
Fixed: Pressure, kPa = 101
Property: Mass density, kg/m3 (Liquid); method: Pycnometric method
Temperature, K	Mass density, kg/m3	uncertainty
298.15	1420	50

System: dimethyl carbonate + lithium hexafluorophosphate; phases: Liquid
Fixed: Amount concentration (molarity), mol/dm3 of lithium hexafluorophosphate = 1
Fixed: Pressure, kPa = 101
Property: Mass density, kg/m3 (Liquid); method: Pycnometric method
Temperature, K	Mass density, kg/m3	uncertainty
298.15	1140	50

System: dimethyl carbonate + lithium bis((trifluoromethyl)sulfonyl)amide; phases: Liquid
Fixed: Amount concentration (molarity), mol/dm3 of lithium bis((trifluoromethyl)sulfonyl)amide = 1
Fixed: Pressure, kPa = 101
Property: Mass density, kg/m3 (Liquid); method: Pycnometric method
Temperature, K	Mass density, kg/m3	uncertainty
298.15	1160	50

System: lithium hexafluorophosphate + ethyl methyl carbonate; phases: Liquid
Fixed: Amount concentration (molarity), mol/dm3 of lithium hexafluorophosphate = 1
Fixed: Pressure, kPa = 101
Property: Mass density, kg/m3 (Liquid); method: Pycnometric method
Temperature, K	Mass density, kg/m3	uncertainty
298.15	1090	50

System: lithium bis((trifluoromethyl)sulfonyl)amide + ethyl methyl carbonate; phases: Liquid
Fixed: Amount concentration (molarity), mol/dm3 of lithium bis((trifluoromethyl)sulfonyl)amide = 1
Fixed: Pressure, kPa = 101
Property: Mass density, kg/m3 (Liquid); method: Pycnometric method
Temperature, K	Mass density, kg/m3	uncertainty
298.15	1130	50

System: diethyl carbonate + lithium hexafluorophosphate; phases: Liquid
Fixed: Amount concentration (molarity), mol/dm3 of lithium hexafluorophosphate = 1
Fixed: Pressure, kPa = 101
Property: Mass density, kg/m3 (Liquid); method: Pycnometric method
Temperature, K	Mass density, kg/m3	uncertainty
298.15	1050	50

System: diethyl carbonate + lithium bis((trifluoromethyl)sulfonyl)amide; phases: Liquid
Fixed: Amount concentration (molarity), mol/dm3 of lithium bis((trifluoromethyl)sulfonyl)amide = 1
Fixed: Pressure, kPa = 101
Property: Mass density, kg/m3 (Liquid); method: Pycnometric method
Temperature, K	Mass density, kg/m3	uncertainty
298.15	1100	50

System: ethylene glycol carbonate + dimethyl carbonate + lithium trifluorotris(1,1,2,2,2-pentafluoroethyl)phosphate; phases: Liquid
Fixed: Pressure, kPa = 101
Fixed: Amount concentration (molarity), mol/dm3 of lithium trifluorotris(1,1,2,2,2-pentafluoroethyl)phosphate = 1
Fixed: Solvent: Mass fraction of ethylene glycol carbonate = .5
Property: Mass density, kg/m3 (Liquid); method: Pycnometric method
Temperature, K	Mass density, kg/m3	uncertainty
298.15	1340	50

System: ethylene glycol carbonate + dimethyl carbonate + lithium hexafluorophosphate; phases: Liquid
Fixed: Pressure, kPa = 101
Fixed: Amount concentration (molarity), mol/dm3 of lithium hexafluorophosphate = 1
Fixed: Solvent: Mass fraction of ethylene glycol carbonate = .5
Property: Mass density, kg/m3 (Liquid); method: Pycnometric method
Temperature, K	Mass density, kg/m3	uncertainty
298.15	1290	50

System: ethylene glycol carbonate + dimethyl carbonate + lithium bis((trifluoromethyl)sulfonyl)amide; phases: Liquid
Fixed: Pressure, kPa = 101
Fixed: Amount concentration (molarity), mol/dm3 of lithium bis((trifluoromethyl)sulfonyl)amide = 1
Fixed: Solvent: Mass fraction of ethylene glycol carbonate = .5
Property: Mass density, kg/m3 (Liquid); method: Pycnometric method
Temperature, K	Mass density, kg/m3	uncertainty
298.15	1310	50

System: ethylene glycol carbonate + lithium trifluorotris(1,1,2,2,2-pentafluoroethyl)phosphate + ethyl methyl carbonate; phases: Liquid
Fixed: Pressure, kPa = 101
Fixed: Amount concentration (molarity), mol/dm3 of lithium trifluorotris(1,1,2,2,2-pentafluoroethyl)phosphate = 1
Fixed: Solvent: Mass fraction of ethylene glycol carbonate = .5
Property: Mass density, kg/m3 (Liquid); method: Pycnometric method
Temperature, K	Mass density, kg/m3	uncertainty
298.15	1320	50

System: ethylene glycol carbonate + lithium hexafluorophosphate + ethyl methyl carbonate; phases: Liquid
Fixed: Pressure, kPa = 101
Fixed: Amount concentration (molarity), mol/dm3 of lithium hexafluorophosphate = 1
Fixed: Solvent: Mass fraction of ethylene glycol carbonate = .5
Property: Mass density, kg/m3 (Liquid); method: Pycnometric method
Temperature, K	Mass density, kg/m3	uncertainty
298.15	1270	50

System: ethylene glycol carbonate + lithium bis((trifluoromethyl)sulfonyl)amide + ethyl methyl carbonate; phases: Liquid
Fixed: Pressure, kPa = 101
Fixed: Amount concentration (molarity), mol/dm3 of lithium bis((trifluoromethyl)sulfonyl)amide = 1
Fixed: Solvent: Mass fraction of ethylene glycol carbonate = .5
Property: Mass density, kg/m3 (Liquid); method: Pycnometric method
Temperature, K	Mass density, kg/m3	uncertainty
298.15	1290	50

System: ethylene glycol carbonate + diethyl carbonate + lithium trifluorotris(1,1,2,2,2-pentafluoroethyl)phosphate; phases: Liquid
Fixed: Pressure, kPa = 101
Fixed: Amount concentration (molarity), mol/dm3 of lithium trifluorotris(1,1,2,2,2-pentafluoroethyl)phosphate = 1
Fixed: Solvent: Mass fraction of ethylene glycol carbonate = .5
Property: Mass density, kg/m3 (Liquid); method: Pycnometric method
Temperature, K	Mass density, kg/m3	uncertainty
298.15	1300	50

System: ethylene glycol carbonate + diethyl carbonate + lithium hexafluorophosphate; phases: Liquid
Fixed: Pressure, kPa = 101
Fixed: Amount concentration (molarity), mol/dm3 of lithium hexafluorophosphate = 1
Fixed: Solvent: Mass fraction of ethylene glycol carbonate = .5
Property: Mass density, kg/m3 (Liquid); method: Pycnometric method
Temperature, K	Mass density, kg/m3	uncertainty
298.15	1250	50

System: ethylene glycol carbonate + diethyl carbonate + lithium bis((trifluoromethyl)sulfonyl)amide; phases: Liquid
Fixed: Pressure, kPa = 101
Fixed: Amount concentration (molarity), mol/dm3 of lithium bis((trifluoromethyl)sulfonyl)amide = 1
Fixed: Solvent: Mass fraction of ethylene glycol carbonate = .5
Property: Mass density, kg/m3 (Liquid); method: Pycnometric method
Temperature, K	Mass density, kg/m3	uncertainty
298.15	1280	50

System: ethylene glycol carbonate + carbon dioxide + dimethyl carbonate; phases: Liquid, Gas
Fixed: Solvent: Mass fraction of ethylene glycol carbonate = .5
Fixed: Pressure, kPa = 101
Property: Mole fraction of carbon dioxide (Liquid); method: Titration method
Temperature, K	Mole fraction of carbon dioxide	uncertainty
283.15	.0142	.00213
298.15	.0098	.00147
313.15	.0078	.00117
333.15	.0059	.000885
353.15	.0047	.000705

System: ethylene glycol carbonate + carbon dioxide + ethyl methyl carbonate; phases: Liquid, Gas
Fixed: Solvent: Mass fraction of ethylene glycol carbonate = .5
Fixed: Pressure, kPa = 101
Property: Mole fraction of carbon dioxide (Liquid); method: Titration method
Temperature, K	Mole fraction of carbon dioxide	uncertainty
283.15	.0145	.002175
298.15	.0104	.00156
313.15	.0083	.001245
333.15	.0065	.000975
353.15	.0051	.000765

System: ethylene glycol carbonate + diethyl carbonate + carbon dioxide; phases: Liquid, Gas
Fixed: Solvent: Mass fraction of ethylene glycol carbonate = .5
Fixed: Pressure, kPa = 101
Property: Mole fraction of carbon dioxide (Liquid); method: Titration method
Temperature, K	Mole fraction of carbon dioxide	uncertainty
283.15	.0153	.002295
298.15	.0118	.00177
313.15	.0089	.001335
333.15	.007	.00105
353.15	.0059	.000885
