Measured thermophysical data. Experimental high pressure speed of sound and density of (tetralin + n-decane) and (tetralin + n-hexadecane) systems and thermodynamic modeling
Source: J. Chem. Thermodyn., 2015, 10.1016/j.jct.2014.09.020
Compound 1: tetralin, C10H12, purity 98%
Compound 2: n-decane, C10H22, purity 99%
Compound 3: n-hexadecane, C16H34, purity 99%

System: tetralin; phases: Liquid
Property: Mass density, kg/m3 (Liquid); method: Vibrating tube method
Temperature, K	Pressure, kPa	Mass density, kg/m3	uncertainty
313.15	100	952.93	.5
323.15	100	944.99	.5
333.15	100	937.04	.5

System: tetralin; phases: Liquid
Fixed: Frequency, MHz = 4
Property: Speed of sound, m/s (Liquid); method: Single path-length method
Temperature, K	Pressure, kPa	Speed of sound, m/s	uncertainty
313.15	100	1413	1
313.15	5000	1434	1
313.15	10000	1455	1
313.15	15000	1475	1
313.15	20000	1495	1
313.15	25000	1513	1
323.15	100	1374	1
323.15	5000	1397	1
323.15	10000	1419	1
323.15	15000	1439	1
323.15	20000	1459	1
323.15	25000	1480	1
333.15	100	1335	1
333.15	5000	1359	1
333.15	10000	1383	1
333.15	15000	1402	1
333.15	20000	1425	1
333.15	25000	1445	1

System: n-decane; phases: Liquid
Property: Mass density, kg/m3 (Liquid); method: Vibrating tube method
Temperature, K	Pressure, kPa	Mass density, kg/m3	uncertainty
313.15	100	714.87	.5
323.15	100	707.2	.5
333.15	100	699.47	.5

System: n-decane; phases: Liquid
Fixed: Frequency, MHz = 4
Property: Speed of sound, m/s (Liquid); method: Single path-length method
Temperature, K	Pressure, kPa	Speed of sound, m/s	uncertainty
313.15	100	1177	1
313.15	5000	1209	1
313.15	10000	1243	1
313.15	15000	1274	1
313.15	20000	1303	1
313.15	25000	1327	1
323.15	100	1139	1
323.15	5000	1174	1
323.15	10000	1207	1
323.15	15000	1238	1
323.15	20000	1269	1
323.15	25000	1296	1
333.15	100	1099	1
333.15	5000	1134	1
333.15	10000	1171	1
333.15	15000	1204	1
333.15	20000	1234	1
333.15	25000	1264	1

System: n-hexadecane; phases: Liquid
Property: Mass density, kg/m3 (Liquid); method: Vibrating tube method
Temperature, K	Pressure, kPa	Mass density, kg/m3	uncertainty
313.15	100	759.55	.5
323.15	100	752.64	.5
333.15	100	745.73	.5

System: n-hexadecane; phases: Liquid
Fixed: Frequency, MHz = 4
Property: Speed of sound, m/s (Liquid); method: Single path-length method
Temperature, K	Pressure, kPa	Speed of sound, m/s	uncertainty
313.15	100	1283	1
313.15	5000	1311	1
313.15	10000	1340	1
313.15	15000	1366	1
313.15	20000	1391	1
313.15	25000	1416	1
323.15	100	1248	1
323.15	5000	1278	1
323.15	10000	1307	1
323.15	15000	1335	1
323.15	20000	1361	1
323.15	25000	1387	1
333.15	100	1212	1
333.15	5000	1242	1
333.15	10000	1273	1
333.15	15000	1301	1
333.15	20000	1328	1
333.15	25000	1354	1

System: tetralin + n-decane; phases: Liquid
Property: Mass density, kg/m3 (Liquid); method: Vibrating tube method
Temperature, K	Pressure, kPa	Mole fraction of n-decane	Mass density, kg/m3	uncertainty
313.15	100	.7502	760.5	.5
323.15	100	.7502	752.77	.5
333.15	100	.7502	744.98	.5
313.15	100	.5005	813.93	.5
323.15	100	.5005	806.15	.5
333.15	100	.5005	798.33	.5
313.15	100	.2501	877.12	.5
323.15	100	.2501	869.27	.5
333.15	100	.2501	861.39	.5
313.15	100	0	952.93	.5
323.15	100	0	944.99	.5
333.15	100	0	937.04	.5
313.15	100	1	714.87	.5
323.15	100	1	707.2	.5
333.15	100	1	699.47	.5

System: tetralin + n-decane; phases: Liquid
Fixed: Frequency, MHz = 4
Property: Speed of sound, m/s (Liquid); method: Single path-length method
Temperature, K	Pressure, kPa	Mole fraction of n-decane	Speed of sound, m/s	uncertainty
313.15	100	.7502	1214	1
313.15	5000	.7502	1244	1
313.15	10000	.7502	1273	1
313.15	15000	.7502	1302	1
313.15	20000	.7502	1329	1
313.15	25000	.7502	1354	1
323.15	100	.7502	1175	1
323.15	5000	.7502	1207	1
323.15	10000	.7502	1238	1
323.15	15000	.7502	1268	1
323.15	20000	.7502	1296	1
323.15	25000	.7502	1321	1
333.15	100	.7502	1137	1
333.15	5000	.7502	1174	1
333.15	10000	.7502	1204	1
333.15	15000	.7502	1234	1
333.15	20000	.7502	1263	1
333.15	25000	.7502	1292	1
313.15	100	.5005	1265	1
313.15	5000	.5005	1293	1
313.15	10000	.5005	1319	1
313.15	15000	.5005	1346	1
313.15	20000	.5005	1370	1
313.15	25000	.5005	1394	1
323.15	100	.5005	1228	1
323.15	5000	.5005	1255	1
323.15	10000	.5005	1283	1
323.15	15000	.5005	1310	1
323.15	20000	.5005	1336	1
323.15	25000	.5005	1361	1
333.15	100	.5005	1189	1
333.15	5000	.5005	1220	1
333.15	10000	.5005	1249	1
333.15	15000	.5005	1276	1
333.15	20000	.5005	1302	1
333.15	25000	.5005	1327	1
313.15	100	.2501	1331	1
313.15	5000	.2501	1356	1
313.15	10000	.2501	1380	1
313.15	15000	.2501	1402	1
313.15	20000	.2501	1424	1
313.15	25000	.2501	1445	1
323.15	100	.2501	1291	1
323.15	5000	.2501	1317	1
323.15	10000	.2501	1342	1
323.15	15000	.2501	1365	1
323.15	20000	.2501	1389	1
323.15	25000	.2501	1411	1
333.15	100	.2501	1254	1
333.15	5000	.2501	1281	1
333.15	10000	.2501	1306	1
333.15	15000	.2501	1331	1
333.15	20000	.2501	1356	1
333.15	25000	.2501	1379	1
313.15	100	0	1413	1
313.15	5000	0	1434	1
313.15	10000	0	1455	1
313.15	15000	0	1475	1
313.15	20000	0	1495	1
313.15	25000	0	1513	1
323.15	100	0	1374	1
323.15	5000	0	1397	1
323.15	10000	0	1419	1
323.15	15000	0	1439	1
323.15	20000	0	1459	1
323.15	25000	0	1480	1
333.15	100	0	1335	1
333.15	5000	0	1359	1
333.15	10000	0	1383	1
333.15	15000	0	1402	1
333.15	20000	0	1425	1
333.15	25000	0	1445	1
313.15	100	1	1177	1
313.15	5000	1	1209	1
313.15	10000	1	1243	1
313.15	15000	1	1274	1
313.15	20000	1	1303	1
313.15	25000	1	1327	1
323.15	100	1	1139	1
323.15	5000	1	1174	1
323.15	10000	1	1207	1
323.15	15000	1	1238	1
323.15	20000	1	1269	1
323.15	25000	1	1296	1
333.15	100	1	1099	1
333.15	5000	1	1134	1
333.15	10000	1	1171	1
333.15	15000	1	1204	1
333.15	20000	1	1234	1
333.15	25000	1	1264	1

System: tetralin + n-hexadecane; phases: Liquid
Property: Mass density, kg/m3 (Liquid); method: Vibrating tube method
Temperature, K	Pressure, kPa	Mole fraction of n-hexadecane	Mass density, kg/m3	uncertainty
313.15	100	.75	785.3	.5
323.15	100	.75	778.26	.5
333.15	100	.75	771.21	.5
313.15	100	.4995	820.52	.5
323.15	100	.4995	813.31	.5
333.15	100	.4995	806.07	.5
313.15	100	.2491	871.85	.5
323.15	100	.2491	864.36	.5
333.15	100	.2491	856.85	.5
313.15	100	0	952.93	.5
323.15	100	0	944.99	.5
333.15	100	0	937.04	.5
313.15	100	1	759.55	.5
323.15	100	1	752.64	.5
333.15	100	1	745.73	.5

System: tetralin + n-hexadecane; phases: Liquid
Fixed: Frequency, MHz = 4
Property: Speed of sound, m/s (Liquid); method: Single path-length method
Temperature, K	Pressure, kPa	Mole fraction of n-hexadecane	Speed of sound, m/s	uncertainty
313.15	100	.75	1298	1
313.15	5000	.75	1326	1
313.15	10000	.75	1352	1
313.15	15000	.75	1378	1
313.15	20000	.75	1403	1
313.15	25000	.75	1427	1
323.15	100	.75	1262	1
323.15	5000	.75	1291	1
323.15	10000	.75	1319	1
323.15	15000	.75	1345	1
323.15	20000	.75	1369	1
323.15	25000	.75	1393	1
333.15	100	.75	1224	1
333.15	5000	.75	1253	1
333.15	10000	.75	1282	1
333.15	15000	.75	1309	1
333.15	20000	.75	1335	1
333.15	25000	.75	1361	1
313.15	100	.4995	1315	1
313.15	5000	.4995	1342	1
313.15	10000	.4995	1367	1
313.15	15000	.4995	1391	1
313.15	20000	.4995	1414	1
313.15	25000	.4995	1438	1
323.15	100	.4995	1278	1
323.15	5000	.4995	1306	1
323.15	10000	.4995	1333	1
323.15	15000	.4995	1358	1
323.15	20000	.4995	1383	1
323.15	25000	.4995	1406	1
333.15	100	.4995	1242	1
333.15	5000	.4995	1271	1
333.15	10000	.4995	1298	1
333.15	15000	.4995	1325	1
333.15	20000	.4995	1350	1
333.15	25000	.4995	1374	1
313.15	100	.2491	1346	1
313.15	5000	.2491	1371	1
313.15	10000	.2491	1395	1
313.15	15000	.2491	1418	1
313.15	20000	.2491	1441	1
313.15	25000	.2491	1461	1
323.15	100	.2491	1311	1
323.15	5000	.2491	1337	1
323.15	10000	.2491	1361	1
323.15	15000	.2491	1385	1
323.15	20000	.2491	1408	1
323.15	25000	.2491	1429	1
333.15	100	.2491	1274	1
333.15	5000	.2491	1300	1
333.15	10000	.2491	1326	1
333.15	15000	.2491	1350	1
333.15	20000	.2491	1374	1
333.15	25000	.2491	1396	1
313.15	100	0	1413	1
313.15	5000	0	1434	1
313.15	10000	0	1455	1
313.15	15000	0	1475	1
313.15	20000	0	1495	1
313.15	25000	0	1513	1
323.15	100	0	1374	1
323.15	5000	0	1397	1
323.15	10000	0	1419	1
323.15	15000	0	1439	1
323.15	20000	0	1459	1
323.15	25000	0	1480	1
333.15	100	0	1335	1
333.15	5000	0	1359	1
333.15	10000	0	1383	1
333.15	15000	0	1402	1
333.15	20000	0	1425	1
333.15	25000	0	1445	1
313.15	100	1	1283	1
313.15	5000	1	1311	1
313.15	10000	1	1340	1
313.15	15000	1	1366	1
313.15	20000	1	1391	1
313.15	25000	1	1416	1
323.15	100	1	1248	1
323.15	5000	1	1278	1
323.15	10000	1	1307	1
323.15	15000	1	1335	1
323.15	20000	1	1361	1
323.15	25000	1	1387	1
333.15	100	1	1212	1
333.15	5000	1	1242	1
333.15	10000	1	1273	1
333.15	15000	1	1301	1
333.15	20000	1	1328	1
333.15	25000	1	1354	1
