Measured thermophysical data. Supplementary vapor pressure data of the glycol ethers, 1-methoxy-2-propanol, and 2-methoxyethanol at a pressure range of (15 to 177) kPa
Source: J. Chem. Thermodyn., 2012, 10.1016/j.jct.2012.04.029
Compound 1: nitrogen, diatomic, N2, purity 99.999%
Compound 2: ethylene glycol, monomethyl ether, C3H8O2, purity 99.5%
Compound 3: propylene glycol monomethyl ether, C4H10O2, purity 99.5%

System: ethylene glycol, monomethyl ether; phases: Liquid, Gas
Property: Vapor or sublimation pressure, kPa (Liquid); method: Ebulliometric method (Recirculating still)
Temperature, K	Vapor or sublimation pressure, kPa	uncertainty
346.4	15	.15
356.9	23.5	.15
364.7	32	.15
376	49	.15
380.6	57.5	.15
384.5	66	.15
388.1	74.5	.15
391.3	83	.15
394.4	91.5	.15
397.2	100	.15
400.1	108.5	.15
402.6	117	.15
404.9	125.5	.15
407	134	.15
409.1	142.5	.15
411.1	151	.15
412.9	159.5	.15
414.7	168	.15
416.6	176.5	.15

System: propylene glycol monomethyl ether; phases: Liquid, Gas
Property: Vapor or sublimation pressure, kPa (Liquid); method: Ebulliometric method (Recirculating still)
Temperature, K	Vapor or sublimation pressure, kPa	uncertainty
342.3	15	.15
352.5	23.5	.15
360.1	32	.15
367.4	42.1	.15
371.6	49.1	.15
376	57.6	.15
380	66.1	.15
383.5	74.6	.15
386.9	83.3	.15
390.1	92.6	.15
392.8	99.9	.15
397.9	116.9	.15
400	125.5	.15
402.2	134	.15
404.3	142.5	.15
406.3	151	.15
408.2	159.5	.15
410	168	.15
411.8	176.5	.15
