Measured thermophysical data. Acoustic and volumetric studies on (triethylene glycol + water) mixtures in a wide temperature range
Source: J. Chem. Thermodyn., 2015, 10.1016/j.jct.2015.05.024
Compound 1: water, H2O
Compound 2: triethylene glycol, C6H14O4, purity 99%

System: water; phases: Liquid
Property: Mass density, kg/m3 (Liquid); method: Vibrating tube method
Temperature, K	Pressure, kPa	Mass density, kg/m3	uncertainty
278.15	100	999.965	.05
283.15	100	999.698	.05
288.15	100	999.099	.05
293.15	100	998.204	.05
298.15	100	997.043	.05
303.15	100	995.643	.05
308.15	100	994.026	.05
313.15	100	992.208	.05
318.15	100	990.201	.05
323.15	100	988.027	.05
328.15	100	985.682	.05
333.15	100	983.186	.05

System: water; phases: Liquid
Fixed: Frequency, MHz = 5
Property: Speed of sound, m/s (Liquid); method: Pulse-echo method
Temperature, K	Pressure, kPa	Speed of sound, m/s	uncertainty
288.15	100	1466.57	
293.15	100	1482.33	
298.15	100	1496.75	
303.15	100	1509.39	
308.15	100	1520.13	
313.15	100	1528.82	
318.15	100	1536.65	

System: triethylene glycol; phases: Liquid
Property: Mass density, kg/m3 (Liquid); method: Vibrating tube method
Temperature, K	Pressure, kPa	Mass density, kg/m3	uncertainty
278.15	100	1135.136	.05
283.15	100	1131.291	.05
288.15	100	1127.429	.05
293.15	100	1123.562	.05
298.15	100	1119.69	.05
303.15	100	1115.809	.05
308.15	100	1111.924	.05
313.15	100	1108.031	.05
318.15	100	1104.132	.05
323.15	100	1100.224	.05
328.15	100	1096.304	.05
333.15	100	1092.378	.05

System: triethylene glycol; phases: Liquid
Fixed: Frequency, MHz = 5
Property: Speed of sound, m/s (Liquid); method: Pulse-echo method
Temperature, K	Pressure, kPa	Speed of sound, m/s	uncertainty
288.15	100	1643.87	
293.15	100	1629.02	
298.15	100	1613.52	
303.15	100	1599.09	
308.15	100	1584.59	
313.15	100	1569.06	
318.15	100	1554.68	

System: triethylene glycol + water; phases: Liquid
Fixed: Pressure, kPa = 100
Property: Mass density, kg/m3 (Liquid); method: Vibrating tube method
Temperature, K	Mole fraction of triethylene glycol	Mass density, kg/m3	uncertainty
278.15	0	999.965	.05
278.15	.010705	1013.307	.05
278.15	.02047	1024.392	.05
278.15	.039721	1043.405	.05
278.15	.049787	1051.97	.05
278.15	.06996	1066.643	.05
278.15	.094237	1080.565	.05
278.15	.148147	1100.994	.05
278.15	.20056	1112.251	.05
278.15	.250173	1118.669	.05
278.15	.298763	1122.733	.05
278.15	.349194	1125.607	.05
278.15	.392459	1127.4	.05
278.15	.450211	1129.181	.05
278.15	.487685	1130.078	.05
278.15	.500351	1130.346	.05
278.15	.573896	1131.636	.05
278.15	.580023	1131.726	.05
278.15	.650993	1132.63	.05
278.15	.646549	1132.58	.05
278.15	.700763	1133.138	.05
278.15	.747051	1133.542	.05
278.15	.767685	1133.705	.05
278.15	.819998	1134.079	.05
278.15	.879217	1134.452	.05
278.15	.86235	1134.35	.05
278.15	.897547	1134.559	.05
278.15	.920286	1134.69	.05
278.15	.951386	1134.864	.05
278.15	.969206	1134.964	.05
278.15	1	1135.136	.05
283.15	0	999.698	.05
283.15	.010705	1012.653	.05
283.15	.02047	1023.405	.05
283.15	.039721	1041.831	.05
283.15	.049787	1050.129	.05
283.15	.06996	1064.346	.05
283.15	.094237	1077.848	.05
283.15	.148147	1097.71	.05
283.15	.20056	1108.705	.05
283.15	.250173	1115.004	.05
283.15	.298763	1119.011	.05
283.15	.349194	1121.856	.05
283.15	.392459	1123.636	.05
283.15	.450211	1125.409	.05
283.15	.487685	1126.302	.05
283.15	.500351	1126.569	.05
283.15	.573896	1127.851	.05
283.15	.580023	1127.941	.05
283.15	.650993	1128.835	.05
283.15	.646549	1128.786	.05
283.15	.700763	1129.336	.05
283.15	.747051	1129.733	.05
283.15	.767685	1129.892	.05
283.15	.819998	1130.259	.05
283.15	.879217	1130.624	.05
283.15	.86235	1130.524	.05
283.15	.897547	1130.729	.05
283.15	.920286	1130.857	.05
283.15	.951386	1131.027	.05
283.15	.969206	1131.124	.05
283.15	1	1131.291	.05
288.15	0	999.099	.05
288.15	.010705	1011.719	.05
288.15	.02047	1022.175	.05
288.15	.039721	1040.073	.05
288.15	.049787	1048.128	.05
288.15	.06996	1061.931	.05
288.15	.094237	1075.048	.05
288.15	.148147	1094.389	.05
288.15	.20056	1105.141	.05
288.15	.250173	1111.325	.05
288.15	.298763	1115.274	.05
288.15	.349194	1118.089	.05
288.15	.392459	1119.856	.05
288.15	.450211	1121.618	.05
288.15	.487685	1122.508	.05
288.15	.500351	1122.773	.05
288.15	.573896	1124.046	.05
288.15	.580023	1124.135	.05
288.15	.650993	1125.018	.05
288.15	.646549	1124.97	.05
288.15	.700763	1125.511	.05
288.15	.747051	1125.901	.05
288.15	.767685	1126.057	.05
288.15	.819998	1126.418	.05
288.15	.879217	1126.777	.05
288.15	.86235	1126.679	.05
288.15	.897547	1126.881	.05
288.15	.920286	1127.007	.05
288.15	.951386	1127.174	.05
288.15	.969206	1127.268	.05
288.15	1	1127.429	.05
293.15	0	998.204	.05
293.15	.010705	1010.533	.05
293.15	.02047	1020.726	.05
293.15	.039721	1038.141	.05
293.15	.049787	1045.972	.05
293.15	.06996	1059.386	.05
293.15	.094237	1072.144	.05
293.15	.148147	1090.998	.05
293.15	.20056	1101.526	.05
293.15	.250173	1107.607	.05
293.15	.298763	1111.507	.05
293.15	.349194	1114.298	.05
293.15	.392459	1116.057	.05
293.15	.450211	1117.814	.05
293.15	.487685	1118.701	.05
293.15	.500351	1118.966	.05
293.15	.573896	1120.23	.05
293.15	.580023	1120.318	.05
293.15	.650993	1121.19	.05
293.15	.646549	1121.143	.05
293.15	.700763	1121.675	.05
293.15	.747051	1122.058	.05
293.15	.767685	1122.213	.05
293.15	.819998	1122.569	.05
293.15	.879217	1122.927	.05
293.15	.86235	1122.829	.05
293.15	.897547	1123.03	.05
293.15	.920286	1123.154	.05
293.15	.951386	1123.318	.05
293.15	.969206	1123.409	.05
293.15	1	1123.562	.05
298.15	0	997.043	.05
298.15	.010705	1009.152	.05
298.15	.02047	1019.125	.05
298.15	.039721	1036.101	.05
298.15	.049787	1043.715	.05
298.15	.06996	1056.746	.05
298.15	.094237	1069.14	.05
298.15	.148147	1087.524	.05
298.15	.20056	1097.869	.05
298.15	.250173	1103.885	.05
298.15	.298763	1107.755	.05
298.15	.349194	1110.521	.05
298.15	.392459	1112.259	.05
298.15	.450211	1113.992	.05
298.15	.487685	1114.868	.05
298.15	.500351	1115.129	.05
298.15	.573896	1116.385	.05
298.15	.580023	1116.473	.05
298.15	.650993	1117.347	.05
298.15	.646549	1117.299	.05
298.15	.700763	1117.833	.05
298.15	.747051	1118.216	.05
298.15	.767685	1118.369	.05
298.15	.819998	1118.718	.05
298.15	.879217	1119.063	.05
298.15	.86235	1118.969	.05
298.15	.897547	1119.162	.05
298.15	.920286	1119.282	.05
298.15	.951386	1119.442	.05
298.15	.969206	1119.533	.05
298.15	1	1119.69	.05
303.15	0	995.643	.05
303.15	.010705	1007.527	.05
303.15	.02047	1017.291	.05
303.15	.039721	1033.872	.05
303.15	.049787	1041.298	.05
303.15	.06996	1053.998	.05
303.15	.094237	1066.077	.05
303.15	.148147	1084.031	.05
303.15	.20056	1094.183	.05
303.15	.250173	1100.117	.05
303.15	.298763	1103.95	.05
303.15	.349194	1106.698	.05
303.15	.392459	1108.428	.05
303.15	.450211	1110.156	.05
303.15	.487685	1111.029	.05
303.15	.500351	1111.29	.05
303.15	.573896	1112.541	.05
303.15	.580023	1112.629	.05
303.15	.650993	1113.498	.05
303.15	.646549	1113.45	.05
303.15	.700763	1113.981	.05
303.15	.747051	1114.361	.05
303.15	.767685	1114.512	.05
303.15	.819998	1114.858	.05
303.15	.879217	1115.198	.05
303.15	.86235	1115.105	.05
303.15	.897547	1115.295	.05
303.15	.920286	1115.413	.05
303.15	.951386	1115.569	.05
303.15	.969206	1115.657	.05
303.15	1	1115.809	.05
308.15	0	994.026	.05
308.15	.010705	1005.7	.05
308.15	.02047	1015.27	.05
308.15	.039721	1031.49	.05
308.15	.049787	1038.745	.05
308.15	.06996	1051.146	.05
308.15	.094237	1062.94	.05
308.15	.148147	1080.499	.05
308.15	.20056	1090.467	.05
308.15	.250173	1096.32	.05
308.15	.298763	1100.116	.05
308.15	.349194	1102.849	.05
308.15	.392459	1104.574	.05
308.15	.450211	1106.299	.05
308.15	.487685	1107.171	.05
308.15	.500351	1107.432	.05
308.15	.573896	1108.682	.05
308.15	.580023	1108.769	.05
308.15	.650993	1109.635	.05
308.15	.646549	1109.588	.05
308.15	.700763	1110.116	.05
308.15	.747051	1110.493	.05
308.15	.767685	1110.644	.05
308.15	.819998	1110.987	.05
308.15	.879217	1111.324	.05
308.15	.86235	1111.233	.05
308.15	.897547	1111.421	.05
308.15	.920286	1111.537	.05
308.15	.951386	1111.69	.05
308.15	.969206	1111.776	.05
308.15	1	1111.924	.05
313.15	0	992.208	.05
313.15	.010705	1003.694	.05
313.15	.02047	1013.088	.05
313.15	.039721	1028.974	.05
313.15	.049787	1036.069	.05
313.15	.06996	1048.188	.05
313.15	.094237	1059.716	.05
313.15	.148147	1076.91	.05
313.15	.20056	1086.714	.05
313.15	.250173	1092.497	.05
313.15	.298763	1096.262	.05
313.15	.349194	1098.979	.05
313.15	.392459	1100.698	.05
313.15	.450211	1102.421	.05
313.15	.487685	1103.293	.05
313.15	.500351	1103.553	.05
313.15	.573896	1104.804	.05
313.15	.580023	1104.891	.05
313.15	.650993	1105.757	.05
313.15	.646549	1105.71	.05
313.15	.700763	1106.237	.05
313.15	.747051	1106.613	.05
313.15	.767685	1106.763	.05
313.15	.819998	1107.105	.05
313.15	.879217	1107.44	.05
313.15	.86235	1107.349	.05
313.15	.897547	1107.535	.05
313.15	.920286	1107.65	.05
313.15	.951386	1107.801	.05
313.15	.969206	1107.886	.05
313.15	1	1108.031	.05
318.15	0	990.201	.05
318.15	.010705	1001.514	.05
318.15	.02047	1010.746	.05
318.15	.039721	1026.324	.05
318.15	.049787	1033.271	.05
318.15	.06996	1045.13	.05
318.15	.094237	1056.411	.05
318.15	.148147	1073.267	.05
318.15	.20056	1082.92	.05
318.15	.250173	1088.64	.05
318.15	.298763	1092.378	.05
318.15	.349194	1095.085	.05
318.15	.392459	1096.802	.05
318.15	.450211	1098.526	.05
318.15	.487685	1099.4	.05
318.15	.500351	1099.661	.05
318.15	.573896	1100.916	.05
318.15	.580023	1101.003	.05
318.15	.650993	1101.871	.05
318.15	.646549	1101.824	.05
318.15	.700763	1102.351	.05
318.15	.747051	1102.727	.05
318.15	.767685	1102.876	.05
318.15	.819998	1103.216	.05
318.15	.879217	1103.548	.05
318.15	.86235	1103.458	.05
318.15	.897547	1103.642	.05
318.15	.920286	1103.756	.05
318.15	.951386	1103.905	.05
318.15	.969206	1103.989	.05
318.15	1	1104.132	.05
323.15	0	988.027	.05
323.15	.010705	999.177	.05
323.15	.02047	1008.259	.05
323.15	.039721	1023.558	.05
323.15	.049787	1030.371	.05
323.15	.06996	1041.993	.05
323.15	.094237	1053.042	.05
323.15	.148147	1069.567	.05
323.15	.20056	1079.068	.05
323.15	.250173	1084.728	.05
323.15	.298763	1088.448	.05
323.15	.349194	1091.154	.05
323.15	.392459	1092.875	.05
323.15	.450211	1094.607	.05
323.15	.487685	1095.484	.05
323.15	.500351	1095.747	.05
323.15	.573896	1097.006	.05
323.15	.580023	1097.094	.05
323.15	.650993	1097.964	.05
323.15	.646549	1097.916	.05
323.15	.700763	1098.445	.05
323.15	.747051	1098.821	.05
323.15	.767685	1098.971	.05
323.15	.819998	1099.312	.05
323.15	.879217	1099.645	.05
323.15	.86235	1099.555	.05
323.15	.897547	1099.74	.05
323.15	.920286	1099.853	.05
323.15	.951386	1100.001	.05
323.15	.969206	1100.084	.05
323.15	1	1100.224	.05
328.15	0	985.682	.05
328.15	.010705	996.693	.05
328.15	.02047	1005.638	.05
328.15	.039721	1020.667	.05
328.15	.049787	1027.35	.05
328.15	.06996	1038.742	.05
328.15	.094237	1049.576	.05
328.15	.148147	1065.819	.05
328.15	.20056	1075.203	.05
328.15	.250173	1080.818	.05
328.15	.298763	1084.517	.05
328.15	.349194	1087.214	.05
328.15	.392459	1088.933	.05
328.15	.450211	1090.665	.05
328.15	.487685	1091.545	.05
328.15	.500351	1091.809	.05
328.15	.573896	1093.076	.05
328.15	.580023	1093.165	.05
328.15	.650993	1094.043	.05
328.15	.646549	1093.995	.05
328.15	.700763	1094.529	.05
328.15	.747051	1094.908	.05
328.15	.767685	1095.059	.05
328.15	.819998	1095.401	.05
328.15	.879217	1095.733	.05
328.15	.86235	1095.643	.05
328.15	.897547	1095.826	.05
328.15	.920286	1095.938	.05
328.15	.951386	1096.085	.05
328.15	.969206	1096.166	.05
328.15	1	1096.304	.05
333.15	0	983.186	.05
333.15	.010705	994.065	.05
333.15	.02047	1002.886	.05
333.15	.039721	1017.675	.05
333.15	.049787	1024.24	.05
333.15	.06996	1035.424	.05
333.15	.094237	1046.055	.05
333.15	.148147	1062.017	.05
333.15	.20056	1071.276	.05
333.15	.250173	1076.844	.05
333.15	.298763	1080.531	.05
333.15	.349194	1083.23	.05
333.15	.392459	1084.955	.05
333.15	.450211	1086.697	.05
333.15	.487685	1087.583	.05
333.15	.500351	1087.849	.05
333.15	.573896	1089.126	.05
333.15	.580023	1089.215	.05
333.15	.650993	1090.101	.05
333.15	.646549	1090.053	.05
333.15	.700763	1090.592	.05
333.15	.747051	1090.974	.05
333.15	.767685	1091.127	.05
333.15	.819998	1091.471	.05
333.15	.879217	1091.805	.05
333.15	.86235	1091.715	.05
333.15	.897547	1091.9	.05
333.15	.920286	1092.012	.05
333.15	.951386	1092.159	.05
333.15	.969206	1092.241	.05
333.15	1	1092.378	.05

System: triethylene glycol + water; phases: Liquid
Fixed: Pressure, kPa = 100
Fixed: Frequency, MHz = 5
Property: Speed of sound, m/s (Liquid); method: Pulse-echo method
Temperature, K	Mole fraction of triethylene glycol	Speed of sound, m/s	uncertainty
288.15	0	1466.57	
288.15	.000601	1469.72	
288.15	.001928	1476.6	
288.15	.00461	1490.1	
288.15	.008532	1508.91	
288.15	.013663	1531.96	
288.15	.019891	1557.66	
288.15	.025475	1578.73	
288.15	.034491	1609.12	
288.15	.045173	1639.86	
288.15	.051306	1655.19	
288.15	.057133	1668.33	
288.15	.062612	1679.51	
288.15	.069199	1691.55	
288.15	.074236	1699.8	
288.15	.080161	1708.53	
288.15	.084332	1714.09	
288.15	.088323	1718.97	
288.15	.092982	1724.16	
288.15	.096572	1727.82	
288.15	.100682	1731.65	
288.15	.102148	1732.93	
288.15	.104545	1734.93	
288.15	.109096	1738.42	
288.15	.120785	1745.68	
288.15	.12375	1747.17	
288.15	.128072	1749.1	
288.15	.130211	1749.97	
288.15	.133006	1751	
288.15	.139398	1753	
288.15	.144149	1754.18	
288.15	.147409	1754.85	
288.15	.157753	1756.29	
288.15	.167803	1756.83	
288.15	.17739	1756.69	
288.15	.190376	1755.66	
288.15	.205495	1753.54	
288.15	.232861	1748.03	
288.15	.255905	1742.46	
288.15	.296739	1731.94	
288.15	.323457	1725.13	
288.15	.369906	1713.95	
288.15	.408942	1705.23	
288.15	.502867	1686.53	
288.15	.633654	1666.99	
288.15	.74498	1657.94	
288.15	.879479	1649.62	
288.15	.96122	1645.87	
288.15	1	1643.87	
293.15	0	1482.33	
293.15	.000681	1485.61	
293.15	.002463	1494.05	
293.15	.005001	1505.7	
293.15	.007787	1518	
293.15	.014627	1546.14	
293.15	.02045	1567.92	
293.15	.027601	1592.12	
293.15	.032764	1607.98	
293.15	.041798	1632.72	
293.15	.048979	1649.89	
293.15	.055609	1663.96	
293.15	.063148	1678.05	
293.15	.067798	1685.81	
293.15	.073597	1694.57	
293.15	.081607	1705.12	
293.15	.088857	1713.25	
293.15	.097014	1720.97	
293.15	.104317	1726.72	
293.15	.109095	1729.95	
293.15	.114187	1732.95	
293.15	.11995	1735.86	
293.15	.132537	1740.59	
293.15	.137354	1741.89	
293.15	.144475	1743.33	
293.15	.175187	1744.61	
293.15	.186911	1743.52	
293.15	.20516	1740.69	
293.15	.223947	1736.78	
293.15	.251277	1730.09	
293.15	.275536	1723.74	
293.15	.302345	1716.72	
293.15	.37536	1699	
293.15	.433831	1686.56	
293.15	.515089	1671.3	
293.15	.623292	1654.89	
293.15	.781521	1641.21	
293.15	.892427	1634.67	
293.15	.963382	1630.17	
293.15	1	1629.02	
298.15	0	1496.75	
298.15	.000655	1499.65	
298.15	.003093	1510.18	
298.15	.008719	1533.11	
298.15	.015127	1557	
298.15	.020533	1575.41	
298.15	.029704	1603.31	
298.15	.038171	1625.65	
298.15	.04526	1642.08	
298.15	.051055	1654.09	
298.15	.05839	1667.62	
298.15	.067401	1681.9	
298.15	.076597	1694.09	
298.15	.082677	1700.97	
298.15	.088788	1707.02	
298.15	.095684	1712.89	
298.15	.102369	1717.71	
298.15	.104107	1718.83	
298.15	.109874	1722.19	
298.15	.115235	1724.84	
298.15	.120483	1727.04	
298.15	.127045	1729.27	
298.15	.129145	1729.87	
298.15	.138254	1731.91	
298.15	.147362	1733.12	
298.15	.158696	1733.65	
298.15	.167471	1733.43	
298.15	.175662	1732.82	
298.15	.183418	1731.93	
298.15	.202604	1728.7	
298.15	.220986	1724.65	
298.15	.239303	1720.07	
298.15	.256608	1715.47	
298.15	.290572	1706.3	
298.15	.353297	1690.45	
298.15	.427044	1674.41	
298.15	.512607	1658.34	
298.15	.590703	1645.69	
298.15	.766314	1627.21	
298.15	.891743	1620.05	
298.15	.962823	1615.59	
298.15	1	1613.52	
303.15	0	1509.39	
303.15	.001004	1513.45	
303.15	.002763	1520.42	
303.15	.007937	1539.9	
303.15	.011231	1551.54	
303.15	.019077	1577.02	
303.15	.0244	1592.62	
303.15	.032635	1614.28	
303.15	.042804	1637.25	
303.15	.050684	1652.47	
303.15	.057927	1664.66	
303.15	.066248	1676.76	
303.15	.074256	1686.64	
303.15	.08178	1694.52	
303.15	.088855	1700.8	
303.15	.093598	1704.45	
303.15	.098516	1707.81	
303.15	.102022	1709.94	
303.15	.105888	1712.06	
303.15	.110117	1714.12	
303.15	.110202	1714.16	
303.15	.114654	1716.04	
303.15	.119308	1717.72	
303.15	.124775	1719.35	
303.15	.129548	1720.48	
303.15	.130769	1720.74	
303.15	.133716	1721.28	
303.15	.139273	1722.07	
303.15	.142296	1722.38	
303.15	.145738	1722.64	
303.15	.16949	1722.1	
303.15	.185737	1719.93	
303.15	.20419	1716.31	
303.15	.225186	1711.22	
303.15	.249867	1704.57	
303.15	.302656	1690.03	
303.15	.339439	1680.59	
303.15	.40517	1665.69	
303.15	.491554	1648.96	
303.15	.607371	1630.04	
303.15	.755246	1614.03	
303.15	.868295	1607.4	
303.15	.961647	1601.73	
303.15	1	1599.09	
308.15	0	1520.13	
308.15	.000704	1522.75	
308.15	.002176	1528.13	
308.15	.005721	1540.62	
308.15	.010355	1555.97	
308.15	.015132	1570.69	
308.15	.023891	1595	
308.15	.031772	1614.13	
308.15	.042798	1636.97	
308.15	.050565	1650.6	
308.15	.057933	1661.85	
308.15	.064468	1670.56	
308.15	.073428	1680.77	
308.15	.083421	1690.02	
308.15	.090764	1695.55	
308.15	.102774	1702.57	
308.15	.113749	1707.08	
308.15	.118939	1708.66	
308.15	.122892	1709.65	
308.15	.123086	1709.69	
308.15	.126858	1710.47	
308.15	.130835	1711.13	
308.15	.140261	1712.1	
308.15	.142676	1712.23	
308.15	.14807	1712.34	
308.15	.159418	1711.92	
308.15	.165892	1711.33	
308.15	.173758	1710.33	
308.15	.185832	1708.29	
308.15	.19692	1705.97	
308.15	.217221	1700.99	
308.15	.246711	1692.82	
308.15	.282458	1682.6	
308.15	.325926	1670.84	
308.15	.369064	1660.32	
308.15	.435175	1646.18	
308.15	.506744	1632.73	
308.15	.611082	1615.94	
308.15	.778275	1598.52	
308.15	.891216	1591.89	
308.15	.960802	1587.47	
308.15	1	1584.59	
313.15	0	1528.82	
313.15	.00059	1530.83	
313.15	.002696	1537.87	
313.15	.006871	1551.19	
313.15	.010057	1560.8	
313.15	.014944	1574.65	
313.15	.022737	1594.64	
313.15	.029792	1610.68	
313.15	.03584	1623	
313.15	.042191	1634.61	
313.15	.050448	1647.85	
313.15	.056894	1656.84	
313.15	.066868	1668.66	
313.15	.076925	1678.28	
313.15	.082879	1683	
313.15	.091347	1688.6	
313.15	.092622	1689.34	
313.15	.100421	1693.29	
313.15	.107879	1696.25	
313.15	.11598	1698.65	
313.15	.120083	1699.58	
313.15	.123203	1700.16	
313.15	.130312	1701.12	
313.15	.134257	1701.45	
313.15	.137654	1701.63	
313.15	.142337	1701.73	
313.15	.157258	1701.02	
313.15	.172346	1699.02	
313.15	.186646	1696.25	
313.15	.203687	1692.18	
313.15	.242551	1681.2	
313.15	.279408	1670.28	
313.15	.320884	1658.64	
313.15	.402956	1638.82	
313.15	.465817	1625.95	
313.15	.567634	1607.97	
313.15	.696883	1590.84	
313.15	.869416	1577.89	
313.15	.945517	1572.88	
313.15	1	1569.06	
318.15	0	1536.65	
318.15	.000584	1538.49	
318.15	.002006	1542.89	
318.15	.004375	1550.01	
318.15	.01026	1566.63	
318.15	.014826	1578.51	
318.15	.020698	1592.58	
318.15	.028174	1608.63	
318.15	.034397	1620.53	
318.15	.043611	1635.91	
318.15	.051455	1647.09	
318.15	.059035	1656.38	
318.15	.065713	1663.43	
318.15	.072989	1670.03	
318.15	.08294	1677.38	
318.15	.09126	1682.21	
318.15	.096607	1684.75	
318.15	.101792	1686.82	
318.15	.105583	1688.11	
318.15	.113499	1690.24	
318.15	.125527	1692.17	
318.15	.139387	1692.76	
318.15	.139555	1692.76	
318.15	.143155	1692.67	
318.15	.152087	1692.08	
318.15	.173076	1689.02	
318.15	.193135	1684.53	
318.15	.207619	1680.67	
318.15	.251119	1667.71	
318.15	.304409	1651.81	
318.15	.357221	1637.68	
318.15	.414235	1624.42	
318.15	.498901	1607.59	
318.15	.642748	1585.52	
318.15	.797062	1571.28	
318.15	.886494	1565.06	
318.15	.964105	1559.61	
318.15	1	1554.68	
