Measured thermophysical data. Temperature dependence on mutual solubility of binary (methanol + limonene)  mixture and (liquid + liquid) equilibria of ternary (methanol + ethanol + limonene)  mixture
Source: J. Chem. Thermodyn., 2009, 10.1016/j.jct.2008.10.013
Compound 1: (R)-(+)-limonene, C10H16, purity 99%
Compound 2: methanol, CH4O, purity 99.7%
Compound 3: ethanol, C2H6O, purity 99.5%

System: (R)-(+)-limonene; phases: Liquid
Fixed: Pressure, kPa = 101.325
Property: Mass density, kg/m3 (Liquid); method: Vibrating tube method
Temperature, K	Mass density, kg/m3	uncertainty
298.15	837.31	

System: methanol; phases: Liquid
Fixed: Pressure, kPa = 101.325
Property: Mass density, kg/m3 (Liquid); method: Vibrating tube method
Temperature, K	Mass density, kg/m3	uncertainty
298.15	786.62	

System: ethanol; phases: Liquid
Fixed: Pressure, kPa = 101.325
Property: Mass density, kg/m3 (Liquid); method: Vibrating tube method
Temperature, K	Mass density, kg/m3	uncertainty
298.15	785.24	

System: methanol + (R)-(+)-limonene; phases: Liquid mixture 1, Liquid mixture 2
Fixed: Pressure, kPa = 101
Property: Mole fraction of methanol (Liquid mixture 1); method: Chromatography
Temperature, K	Mole fraction of methanol	uncertainty
288.15	.9062	
293.3	.8957	
298.15	.8819	
302.94	.8626	
308.15	.8381	
312.14	.8115	
313.37	.7889	

System: methanol + (R)-(+)-limonene; phases: Liquid mixture 2, Liquid mixture 1
Fixed: Pressure, kPa = 101
Property: Mole fraction of methanol (Liquid mixture 2); method: Chromatography
Temperature, K	Mole fraction of methanol	uncertainty
288.15	.2076	
293.3	.2317	
298.15	.2769	
302.94	.3128	
308.15	.3839	
312.14	.4712	
313.37	.5473	

System: ethanol + methanol + (R)-(+)-limonene; phases: Liquid mixture 2, Liquid mixture 1
Fixed: Pressure, kPa = 101
Property: Mole fraction of ethanol (Liquid mixture 2); method: Chromatography
Property: Mole fraction of methanol (Liquid mixture 1); method: Chromatography
Property: Mole fraction of ethanol (Liquid mixture 1); method: Chromatography
Temperature, K	Mole fraction of methanol	Mole fraction of ethanol	uncertainty	Mole fraction of methanol	uncertainty	Mole fraction of ethanol	uncertainty
288.15	.2256	.0152		.8452		.0422	
288.15	.2484	.0318		.7784		.0882	
288.15	.2705	.0557		.7176		.1239	
288.15	.372	.0841		.6271		.1333	
288.15	.4002	.101		.5923		.1403	
298.15	.2715	.0082		.8534		.0271	
298.15	.2844	.0168		.8261		.0429	
298.15	.3422	.0362		.748		.0728	
298.15	.4508	.0758		.6301		.1097	
308.15	.4105	.0053		.8182		.0099	
308.15	.433	.0132		.784		.0217	
308.15	.4524	.0157		.7741		.0234	
308.15	.4719	.0235		.756		.0247	
