Measured thermophysical data. Volumetric and viscosity properties of dicationic ionic liquids in (glucose + water) solutions at T = 298.15 K
Source: J. Chem. Thermodyn., 2015, 10.1016/j.jct.2015.02.017
Compound 1: water, H2O
Compound 2: glucose, C6H12O6, purity 99.5%
Compound 3: 1,1'-(butane-1,4-diyl)bis(3-methyl-1H-imidazol-3-ium) dibromide, C12H20Br2N4
Compound 4: 1,1'-(hexane-1,6-diyl)bis(3-methyl-1H-imidazol-3-ium) bromide, C14H24Br2N4
Compound 5: 1,1'-(pentane-1,5-diyl)bis(3-methyl-1H-imidazol-3-ium) dibromide, C13H22Br2N4

System: water; phases: Liquid
Property: Mass density, kg/m3 (Liquid); method: Vibrating tube method
Temperature, K	Pressure, kPa	Mass density, kg/m3	uncertainty
298.15	101	997.047	

System: glucose + water + 1,1'-(butane-1,4-diyl)bis(3-methyl-1H-imidazol-3-ium) dibromide; phases: Liquid
Fixed: Temperature, K = 298.15
Fixed: Pressure, kPa = 101
Property: Mass density, kg/m3 (Liquid); method: Vibrating tube method
Molality, mol/kg of glucose	Molality, mol/kg of 1,1'-(butane-1,4-diyl)bis(3-methyl-1H-imidazol-3-ium) dibromide	Mass density, kg/m3	uncertainty
0	.0993	1009.539	
0	.1398	1014.422	
0	.1597	1016.783	
0	.194	1020.806	
0	.2187	1023.647	
0	.2485	1027.04	
.2	.0805	1020.157	
.2	.1021	1022.699	
.2	.1225	1025.081	
.2	.156	1028.935	
.2	.1816	1031.834	
.2	.25	1039.398	
.4	.0504	1028.982	
.4	.0761	1031.893	
.4	.1003	1034.605	
.4	.12	1036.788	
.4	.1881	1044.11	
.8	.0805	1055.335	
.8	.1001	1057.327	
.8	.12	1059.347	
.8	.1592	1063.244	
.8	.1864	1065.889	
.8	.2353	1070.557	
1.2	.0514	1073.55	
1.2	.0771	1075.977	
1.2	.0971	1077.831	
1.2	.1205	1080.006	
1.2	.1742	1084.935	
1.2	.1946	1086.731	
1.2	.2269	1089.534	
1.6	.05	1092.914	
1.6	.0806	1095.561	
1.6	.1259	1099.412	
1.6	.1442	1100.899	
1.6	.1589	1102.116	
1.6	.1776	1103.674	
0	0	997.047	
.2	0	1010.407	
.4	0	1023.119	
.8	0	1046.877	
1.2	0	1068.583	
1.6	0	1088.477	

System: glucose + water + 1,1'-(butane-1,4-diyl)bis(3-methyl-1H-imidazol-3-ium) dibromide; phases: Liquid
Fixed: Temperature, K = 298.15
Fixed: Pressure, kPa = 101
Property: Viscosity, Pa*s (Liquid); method: Capillary tube (Ostwald; Ubbelohde) method
Molality, mol/kg of glucose	Molality, mol/kg of 1,1'-(butane-1,4-diyl)bis(3-methyl-1H-imidazol-3-ium) dibromide	Viscosity, Pa*s	uncertainty
0	.0993	.00094	.0000094
0	.1398	.000958	.00000958
0	.1597	.000967	.00000967
0	.1794	.000977	.00000977
0	.194	.000984	.00000984
0	.2187	.000996	.00000996
0	.2485	.001008	.00001008
.2	.0504	.000999	.00000999
.2	.0805	.001014	.00001014
.2	.1021	.001025	.00001025
.2	.1225	.001035	.00001035
.2	.156	.001051	.00001051
.2	.1816	.001064	.00001064
.2	.25	.001101	.00001101
.4	.0504	.001094	.00001094
.4	.0761	.001107	.00001107
.4	.1003	.00112	.0000112
.4	.12	.00113	.0000113
.4	.1881	.001166	.00001166
.4	.2353	.001193	.00001193
.8	.0805	.001326	.00001326
.8	.1001	.001338	.00001338
.8	.12	.00135	.0000135
.8	.1592	.001374	.00001374
.8	.1864	.00139	.0000139
.8	.2353	.001422	.00001422
1.2	.0514	.001566	.00001566
1.2	.0771	.001584	.00001584
1.2	.0971	.001597	.00001597
1.2	.1205	.001613	.00001613
1.2	.1495	.001633	.00001633
1.2	.1946	.001664	.00001664
1.6	.05	.001869	.00001869
1.6	.0806	.001893	.00001893
1.6	.0962	.001904	.00001904
1.6	.1259	.001926	.00001926
1.6	.1442	.00194	.0000194
1.6	.1589	.001949	.00001949
.2	0	.000975	.00000975
.4	0	.001068	.00001068
.8	0	.00128	.0000128
1.2	0	.001532	.00001532
1.6	0	.00183	.0000183

System: glucose + water + 1,1'-(pentane-1,5-diyl)bis(3-methyl-1H-imidazol-3-ium) dibromide; phases: Liquid
Fixed: Temperature, K = 298.15
Fixed: Pressure, kPa = 101
Property: Mass density, kg/m3 (Liquid); method: Vibrating tube method
Molality, mol/kg of glucose	Molality, mol/kg of 1,1'-(pentane-1,5-diyl)bis(3-methyl-1H-imidazol-3-ium) dibromide	Mass density, kg/m3	uncertainty
0	.05	1003.253	
0	.0825	1007.17	
0	.1108	1010.529	
0	.1522	1015.316	
0	.2152	1022.442	
.2	.0537	1016.716	
.2	.0814	1019.889	
.2	.102	1022.204	
.2	.124	1024.662	
.2	.1993	1032.873	
.4	.0561	1029.399	
.4	.0903	1033.114	
.4	.142	1038.604	
.4	.1517	1039.619	
.4	.1857	1043.089	
.8	.0515	1052.133	
.8	.0704	1054.01	
.8	.0943	1056.365	
.8	.1175	1058.619	
.8	.1457	1061.32	
.8	.19	1065.425	
1.2	.0811	1076.024	
1.2	.1042	1078.069	
1.2	.1344	1080.717	
1.2	.1613	1083.033	
1.2	.177	1084.351	
1.2	.1924	1085.643	
1.6	.05184	1092.86	
1.6	.07222	1094.528	
1.6	.10448	1097.14	
1.6	.12143	1098.464	
1.6	.13432	1099.475	
1.6	.16178	1101.547	
0	0	997.047	
.2	0	1010.407	
.4	0	1023.119	
.8	0	1046.877	
1.2	0	1068.583	
1.6	0	1088.477	

System: glucose + water + 1,1'-(pentane-1,5-diyl)bis(3-methyl-1H-imidazol-3-ium) dibromide; phases: Liquid
Fixed: Temperature, K = 298.15
Fixed: Pressure, kPa = 101
Property: Viscosity, Pa*s (Liquid); method: Capillary tube (Ostwald; Ubbelohde) method
Molality, mol/kg of glucose	Molality, mol/kg of 1,1'-(pentane-1,5-diyl)bis(3-methyl-1H-imidazol-3-ium) dibromide	Viscosity, Pa*s	uncertainty
0	.05	.000917	.00000917
0	.0967	.000943	.00000943
0	.1108	.000949	.00000949
0	.1389	.000966	.00000966
0	.1621	.000979	.00000979
0	.1929	.000996	.00000996
.2	.0537	.001005	.00001005
.2	.0814	.001021	.00001021
.2	.102	.001034	.00001034
.2	.124	.001046	.00001046
.2	.1579	.001066	.00001066
.2	.1935	.001089	.00001089
.4	.0561	.001102	.00001102
.4	.0903	.001123	.00001123
.4	.1079	.001136	.00001136
.4	.142	.001155	.00001155
.4	.1591	.001166	.00001166
.4	.1857	.001184	.00001184
.8	.0515	.001314	.00001314
.8	.0704	.001328	.00001328
.8	.0943	.001345	.00001345
.8	.1175	.001361	.00001361
.8	.1457	.001382	.00001382
.8	.19	.001413	.00001413
1.2	.0811	.001595	.00001595
1.2	.1042	.001614	.00001614
1.2	.1344	.001638	.00001638
1.2	.1613	.00166	.0000166
1.2	.177	.001672	.00001672
1.2	.1924	.001685	.00001685
1.6	.0518	.001878	.00001878
1.6	.0722	.001897	.00001897
1.6	.1214	.001942	.00001942
1.6	.1343	.001954	.00001954
1.6	.1618	.001979	.00001979
1.6	.2046	.002014	.00002014
.2	0	.000975	.00000975
.4	0	.001068	.00001068
.8	0	.00128	.0000128
1.2	0	.001532	.00001532
1.6	0	.00183	.0000183

System: glucose + water + 1,1'-(hexane-1,6-diyl)bis(3-methyl-1H-imidazol-3-ium) bromide; phases: Liquid
Fixed: Temperature, K = 298.15
Fixed: Pressure, kPa = 101
Property: Mass density, kg/m3 (Liquid); method: Vibrating tube method
Molality, mol/kg of glucose	Molality, mol/kg of 1,1'-(hexane-1,6-diyl)bis(3-methyl-1H-imidazol-3-ium) bromide	Mass density, kg/m3	uncertainty
0	.0814	1006.919	
0	.1	1009.101	
0	.1206	1011.497	
0	.1403	1013.755	
0	.1772	1017.937	
.2	.0507	1016.262	
.2	.0825	1019.845	
.2	.099	1021.665	
.2	.165	1028.834	
.2	.1798	1030.434	
.4	.08	1031.796	
.4	.1216	1036.135	
.4	.1404	1038.064	
.4	.1638	1040.44	
.4	.1927	1043.345	
.8	.1004	1056.622	
.8	.1063	1057.173	
.8	.122	1058.653	
.8	.141	1060.425	
.8	.1671	1062.833	
1.2	.08	1075.627	
1.2	.1001	1077.363	
1.2	.12	1079.076	
1.2	.1397	1080.774	
1.2	.1598	1082.48	
1.6	.0703	1094.231	
1.6	.0938	1096.112	
1.6	.1318	1099.083	
1.6	.1795	1102.678	
1.6	.2282	1106.256	
0	0	997.047	
.2	0	1010.407	
.4	0	1023.119	
.8	0	1046.877	
1.2	0	1068.583	
1.6	0	1088.477	

System: glucose + water + 1,1'-(hexane-1,6-diyl)bis(3-methyl-1H-imidazol-3-ium) bromide; phases: Liquid
Fixed: Temperature, K = 298.15
Fixed: Pressure, kPa = 101
Property: Viscosity, Pa*s (Liquid); method: Capillary tube (Ostwald; Ubbelohde) method
Molality, mol/kg of glucose	Molality, mol/kg of 1,1'-(hexane-1,6-diyl)bis(3-methyl-1H-imidazol-3-ium) bromide	Viscosity, Pa*s	uncertainty
0	.0407	.000917	.00000917
0	.0989	.000953	.00000953
0	.1196	.000966	.00000966
0	.1403	.00098	.0000098
0	.1604	.000993	.00000993
0	.2001	.00102	.0000102
.2	.0507	.00101	.0000101
.2	.0825	.001031	.00001031
.2	.099	.001043	.00001043
.2	.119	.001056	.00001056
.2	.165	.001089	.00001089
.2	.1798	.001099	.00001099
.4	.0505	.001107	.00001107
.4	.08	.001127	.00001127
.4	.1216	.001157	.00001157
.4	.1404	.001172	.00001172
.4	.1638	.001187	.00001187
.4	.1927	.001208	.00001208
.8	.051	.001322	.00001322
.8	.0812	.001347	.00001347
.8	.1004	.001362	.00001362
.8	.122	.001379	.00001379
.8	.141	.001395	.00001395
.8	.1671	.001416	.00001416
1.2	.0503	.001578	.00001578
1.2	.08	.001605	.00001605
1.2	.1001	.001625	.00001625
1.2	.12	.001643	.00001643
1.2	.1397	.001662	.00001662
1.2	.1803	.001699	.00001699
1.6	.0804	.001913	.00001913
1.6	.0998	.001935	.00001935
1.6	.1194	.001957	.00001957
1.6	.1408	.001982	.00001982
1.6	.1616	.002006	.00002006
1.6	.1795	.002027	.00002027
.2	0	.000975	.00000975
.4	0	.001068	.00001068
.8	0	.00128	.0000128
1.2	0	.001532	.00001532
1.6	0	.00183	.0000183

System: water + 1,1'-(butane-1,4-diyl)bis(3-methyl-1H-imidazol-3-ium) dibromide; phases: Liquid
Property: Mass density, kg/m3 (Liquid); method: Vibrating tube method
Molality, mol/kg of 1,1'-(butane-1,4-diyl)bis(3-methyl-1H-imidazol-3-ium) dibromide	Temperature, K	Pressure, kPa	Mass density, kg/m3	uncertainty
.0993	298.15	101	1009.539	
.1398	298.15	101	1014.422	
.1597	298.15	101	1016.783	
.194	298.15	101	1020.806	
.2187	298.15	101	1023.647	
.2485	298.15	101	1027.04	

System: water + 1,1'-(butane-1,4-diyl)bis(3-methyl-1H-imidazol-3-ium) dibromide; phases: Liquid
Property: Viscosity, Pa*s (Liquid); method: Capillary tube (Ostwald; Ubbelohde) method
Molality, mol/kg of 1,1'-(butane-1,4-diyl)bis(3-methyl-1H-imidazol-3-ium) dibromide	Temperature, K	Pressure, kPa	Viscosity, Pa*s	uncertainty
.0993	298.15	101	.00094	.0000094
.1398	298.15	101	.000958	.00000958
.1597	298.15	101	.000967	.00000967
.1794	298.15	101	.000977	.00000977
.194	298.15	101	.000984	.00000984
.2187	298.15	101	.000996	.00000996
.2485	298.15	101	.001008	.00001008

System: glucose + water; phases: Liquid
Property: Mass density, kg/m3 (Liquid); method: Vibrating tube method
Molality, mol/kg of glucose	Temperature, K	Pressure, kPa	Mass density, kg/m3	uncertainty
.2	298.15	101	1010.407	
.4	298.15	101	1023.119	
.8	298.15	101	1046.877	
1.2	298.15	101	1068.583	
1.6	298.15	101	1088.477	

System: glucose + water; phases: Liquid
Property: Viscosity, Pa*s (Liquid); method: Capillary tube (Ostwald; Ubbelohde) method
Molality, mol/kg of glucose	Temperature, K	Pressure, kPa	Viscosity, Pa*s	uncertainty
.2	298.15	101	.000975	.00000975
.4	298.15	101	.001068	.00001068
.8	298.15	101	.00128	.0000128
1.2	298.15	101	.001532	.00001532
1.6	298.15	101	.00183	.0000183

System: water + 1,1'-(pentane-1,5-diyl)bis(3-methyl-1H-imidazol-3-ium) dibromide; phases: Liquid
Property: Mass density, kg/m3 (Liquid); method: Vibrating tube method
Molality, mol/kg of 1,1'-(pentane-1,5-diyl)bis(3-methyl-1H-imidazol-3-ium) dibromide	Temperature, K	Pressure, kPa	Mass density, kg/m3	uncertainty
.05	298.15	101	1003.253	
.0825	298.15	101	1007.17	
.1108	298.15	101	1010.529	
.1522	298.15	101	1015.316	
.2152	298.15	101	1022.442	

System: water + 1,1'-(pentane-1,5-diyl)bis(3-methyl-1H-imidazol-3-ium) dibromide; phases: Liquid
Property: Viscosity, Pa*s (Liquid); method: Capillary tube (Ostwald; Ubbelohde) method
Molality, mol/kg of 1,1'-(pentane-1,5-diyl)bis(3-methyl-1H-imidazol-3-ium) dibromide	Temperature, K	Pressure, kPa	Viscosity, Pa*s	uncertainty
.05	298.15	101	.000917	.00000917
.0967	298.15	101	.000943	.00000943
.1108	298.15	101	.000949	.00000949
.1389	298.15	101	.000966	.00000966
.1621	298.15	101	.000979	.00000979
.1929	298.15	101	.000996	.00000996

System: water + 1,1'-(hexane-1,6-diyl)bis(3-methyl-1H-imidazol-3-ium) bromide; phases: Liquid
Property: Mass density, kg/m3 (Liquid); method: Vibrating tube method
Molality, mol/kg of 1,1'-(hexane-1,6-diyl)bis(3-methyl-1H-imidazol-3-ium) bromide	Temperature, K	Pressure, kPa	Mass density, kg/m3	uncertainty
.0814	298.15	101	1006.919	
.1	298.15	101	1009.101	
.1206	298.15	101	1011.497	
.1403	298.15	101	1013.755	
.1772	298.15	101	1017.937	

System: water + 1,1'-(hexane-1,6-diyl)bis(3-methyl-1H-imidazol-3-ium) bromide; phases: Liquid
Property: Viscosity, Pa*s (Liquid); method: Capillary tube (Ostwald; Ubbelohde) method
Molality, mol/kg of 1,1'-(hexane-1,6-diyl)bis(3-methyl-1H-imidazol-3-ium) bromide	Temperature, K	Pressure, kPa	Viscosity, Pa*s	uncertainty
.0407	298.15	101	.000917	.00000917
.0989	298.15	101	.000953	.00000953
.1196	298.15	101	.000966	.00000966
.1403	298.15	101	.00098	.0000098
.1604	298.15	101	.000993	.00000993
.2001	298.15	101	.00102	.0000102
