Measured thermophysical data. Thermodynamic and transport properties of (1,2-ethanediol + 1-nonanol)  at temperatures from (298.15 to 313.15) K
Source: J. Chem. Thermodyn., 2009, 10.1016/j.jct.2008.09.018
Compound 1: 1,2-ethanediol, C2H6O2
Compound 2: 1-nonanol, C9H20O

System: 1,2-ethanediol; phases: Liquid
Fixed: Pressure, kPa = 101.325
Property: Refractive index (Na D-line) (Liquid); method: Standard Abbe refractometry
Temperature, K	Refractive index (Na D-line)	uncertainty
298.15	1.4307	.0002

System: 1,2-ethanediol; phases: Liquid
Fixed: Pressure, kPa = 101.325
Property: Mass density, kg/m3 (Liquid); method: Vibrating tube method
Temperature, K	Mass density, kg/m3	uncertainty
298.15	1109.88	.05

System: 1,2-ethanediol; phases: Liquid
Fixed: Pressure, kPa = 101.325
Property: Speed of sound, m/s (Liquid); method: Pulse-echo method
Temperature, K	Speed of sound, m/s	uncertainty
298.15	1654.89	.5

System: 1,2-ethanediol; phases: Liquid
Fixed: Pressure, kPa = 101.325
Property: Viscosity, Pa*s (Liquid); method: Capillary tube (Ostwald; Ubbelohde) method
Temperature, K	Viscosity, Pa*s	uncertainty
298.15	.016952	

System: 1,2-ethanediol; phases: Liquid
Fixed: Pressure, kPa = 101.325
Property: Mass density, kg/m3 (Liquid); method: Vibrating tube method
Temperature, K	Mass density, kg/m3	uncertainty
283.153	1120.323	.05
285.644	1118.599	.05
288.145	1116.86	.05
290.645	1115.118	.05
293.143	1113.372	.05
295.644	1111.624	.05
298.143	1109.875	.05
300.649	1108.124	.05
303.146	1106.365	.05
305.645	1104.605	.05
308.145	1102.84	.05
310.646	1101.073	.05
313.145	1099.298	.05
315.646	1097.518	.05
318.145	1095.736	.05
320.644	1093.95	.05
323.147	1092.155	.05

System: 1,2-ethanediol; phases: Liquid
Property: Mass density, kg/m3 (Liquid); method: Vibrating tube method
Temperature, K	Pressure, kPa	Mass density, kg/m3	uncertainty
303.15	101	1106.46	.05
308.15	101	1102.9	.05
313.15	101	1099.23	.05

System: 1,2-ethanediol; phases: Liquid
Property: Viscosity, Pa*s (Liquid); method: Capillary tube (Ostwald; Ubbelohde) method
Temperature, K	Pressure, kPa	Viscosity, Pa*s	uncertainty
303.15	101	.013834	
308.15	101	.011444	
313.15	101	.009565	

System: 1,2-ethanediol; phases: Liquid
Property: Speed of sound, m/s (Liquid); method: Pulse-echo method
Temperature, K	Pressure, kPa	Speed of sound, m/s	uncertainty
293.15	101	1666.65	.5
303.15	101	1643.08	.5
308.15	101	1631.21	.5
313.15	101	1619.31	.5

System: 1-nonanol; phases: Liquid
Fixed: Pressure, kPa = 101.325
Property: Refractive index (Na D-line) (Liquid); method: Standard Abbe refractometry
Temperature, K	Refractive index (Na D-line)	uncertainty
298.15	1.4323	.0002

System: 1-nonanol; phases: Liquid
Fixed: Pressure, kPa = 101.325
Property: Mass density, kg/m3 (Liquid); method: Vibrating tube method
Temperature, K	Mass density, kg/m3	uncertainty
298.15	824.48	.05

System: 1-nonanol; phases: Liquid
Fixed: Pressure, kPa = 101.325
Property: Speed of sound, m/s (Liquid); method: Pulse-echo method
Temperature, K	Speed of sound, m/s	uncertainty
298.15	1364.41	.5

System: 1-nonanol; phases: Liquid
Fixed: Pressure, kPa = 101.325
Property: Viscosity, Pa*s (Liquid); method: Capillary tube (Ostwald; Ubbelohde) method
Temperature, K	Viscosity, Pa*s	uncertainty
298.15	.009494	

System: 1-nonanol; phases: Liquid
Fixed: Pressure, kPa = 101.325
Property: Mass density, kg/m3 (Liquid); method: Vibrating tube method
Temperature, K	Mass density, kg/m3	uncertainty
283.15	834.614	.05
285.644	832.923	.05
288.146	831.224	.05
290.646	829.521	.05
293.144	827.816	.05
295.645	826.106	.05
298.144	824.391	.05
300.646	822.671	.05
303.145	820.949	.05
305.645	819.22	.05
308.144	817.486	.05
310.645	815.748	.05
313.147	814.001	.05
315.646	812.251	.05
318.146	810.496	.05
320.646	808.73	.05
323.146	806.96	.05

System: 1-nonanol; phases: Liquid
Property: Mass density, kg/m3 (Liquid); method: Vibrating tube method
Temperature, K	Pressure, kPa	Mass density, kg/m3	uncertainty
303.15	101	821.05	.05
308.15	101	817.57	.05
313.15	101	814.19	.05

System: 1-nonanol; phases: Liquid
Property: Viscosity, Pa*s (Liquid); method: Capillary tube (Ostwald; Ubbelohde) method
Temperature, K	Pressure, kPa	Viscosity, Pa*s	uncertainty
303.15	101	.007994	
308.15	101	.006713	
313.15	101	.005657	

System: 1-nonanol; phases: Liquid
Property: Speed of sound, m/s (Liquid); method: Pulse-echo method
Temperature, K	Pressure, kPa	Speed of sound, m/s	uncertainty
293.15	101	1381.62	.5
303.15	101	1347.42	.5
308.15	101	1330.45	.5
313.15	101	1313.64	.5

System: 1,2-ethanediol + 1-nonanol; phases: Liquid
Fixed: Pressure, kPa = 101
Property: Mass density, kg/m3 (Liquid); method: Vibrating tube method
Mole fraction of 1,2-ethanediol	Temperature, K	Mass density, kg/m3	uncertainty
0	298.15	824.48	.05
.10019	298.15	833.41	.05
.19791	298.15	843.96	.05
.29637	298.15	856.32	.05
.36408	298.15	866.44	.05
.45332	298.15	881.71	.05
.54316	298.15	900.44	.05
.64413	298.15	926.38	.05
.701	298.15	944.22	.05
.75168	298.15	963.14	.05
.93084	298.15	1055.33	.05
1	298.15	1109.88	.05
0	303.15	821.05	.05
.10019	303.15	830.02	.05
.19791	303.15	840.61	.05
.29637	303.15	852.92	.05
.36408	303.15	863	.05
.45332	303.15	878.3	.05
.54316	303.15	896.94	.05
.64413	303.15	922.82	.05
.701	303.15	940.61	.05
.75168	303.15	959.57	.05
.93084	303.15	1051.63	.05
1	303.15	1106.46	.05
0	308.15	817.57	.05
.10019	308.15	826.58	.05
.19791	308.15	837.18	.05
.29637	308.15	849.41	.05
.36408	308.15	859.49	.05
.45332	308.15	874.74	.05
.54316	308.15	893.37	.05
.64413	308.15	919.23	.05
.701	308.15	937.01	.05
.75168	308.15	956	.05
.93084	308.15	1048.12	.05
1	308.15	1102.9	.05
0	313.15	814.19	.05
.10019	313.15	823.15	.05
.19791	313.15	833.73	.05
.29637	313.15	845.93	.05
.36408	313.15	855.98	.05
.45332	313.15	871.22	.05
.54316	313.15	889.84	.05
.64413	313.15	915.68	.05
.701	313.15	933.39	.05
.75168	313.15	952.37	.05
.93084	313.15	1044.52	.05
1	313.15	1099.23	.05

System: 1,2-ethanediol + 1-nonanol; phases: Liquid
Fixed: Pressure, kPa = 101
Property: Viscosity, Pa*s (Liquid); method: Capillary tube (Ostwald; Ubbelohde) method
Mole fraction of 1,2-ethanediol	Temperature, K	Viscosity, Pa*s	uncertainty
0	298.15	.009494	
.10019	298.15	.009581	
.19791	298.15	.010006	
.29637	298.15	.010668	
.36408	298.15	.011256	
.45332	298.15	.012222	
.54316	298.15	.01341	
.64413	298.15	.015091	
.75168	298.15	.017316	
.93084	298.15	.019276	
1	298.15	.016952	
0	303.15	.007994	
.10019	303.15	.008014	
.19791	303.15	.008359	
.29637	303.15	.008897	
.36408	303.15	.00937	
.45332	303.15	.010138	
.54316	303.15	.011086	
.64413	303.15	.012402	
.75168	303.15	.014125	
.93084	303.15	.015472	
1	303.15	.013834	
0	308.15	.006713	
.10019	308.15	.006801	
.19791	308.15	.007044	
.29637	308.15	.007487	
.36408	308.15	.007872	
.45332	308.15	.008493	
.54316	308.15	.009257	
.64413	308.15	.010308	
.75168	308.15	.011655	
.93084	308.15	.012667	
1	308.15	.011444	
0	313.15	.005657	
.10019	313.15	.005782	
.19791	313.15	.005984	
.29637	313.15	.006352	
.36408	313.15	.006667	
.45332	313.15	.007176	
.54316	313.15	.007796	
.64413	313.15	.00865	
.75168	313.15	.009722	
.93084	313.15	.010467	
1	313.15	.009565	

System: 1,2-ethanediol + 1-nonanol; phases: Liquid
Fixed: Pressure, kPa = 101
Property: Speed of sound, m/s (Liquid); method: Pulse-echo method
Mole fraction of 1,2-ethanediol	Temperature, K	Speed of sound, m/s	uncertainty
0	293.15	1381.62	.5
.10019	293.15	1383.89	.5
.19791	293.15	1387.19	.5
.29637	293.15	1391.87	.5
.36408	293.15	1396.23	.5
.45332	293.15	1403.72	.5
.54316	293.15	1414.22	.5
.64413	293.15	1431.52	.5
.75168	293.15	1460.22	.5
.93084	293.15	1571.1	.5
1	293.15	1666.65	.5
0	298.15	1364.41	.5
.10019	298.15	1366.81	.5
.19791	298.15	1370.28	.5
.29637	298.15	1375.22	.5
.36408	298.15	1379.84	.5
.45332	298.15	1387.6	.5
.54316	298.15	1398.42	.5
.64413	298.15	1416.15	.5
.75168	298.15	1445.44	.5
.93084	298.15	1558.45	.5
1	298.15	1654.89	.5
0	303.15	1347.42	.5
.10019	303.15	1349.96	.5
.19791	303.15	1353.64	.5
.29637	303.15	1358.79	.5
.36408	303.15	1363.55	.5
.45332	303.15	1371.52	.5
.54316	303.15	1382.68	.5
.64413	303.15	1400.85	.5
.75168	303.15	1430.69	.5
.93084	303.15	1545.69	.5
1	303.15	1643.08	.5
0	308.15	1330.45	.5
.10019	308.15	1333.17	.5
.19791	308.15	1337.06	.5
.29637	308.15	1342.41	.5
.36408	308.15	1347.35	.5
.45332	308.15	1355.6	.5
.54316	308.15	1367.07	.5
.64413	308.15	1385.61	.5
.75168	308.15	1416.1	.5
.93084	308.15	1532.94	.5
1	308.15	1631.21	.5
0	313.15	1313.64	.5
.10019	313.15	1316.5	.5
.19791	313.15	1320.61	.5
.29637	313.15	1326.27	.5
.36408	313.15	1331.26	.5
.45332	313.15	1339.81	.5
.54316	313.15	1351.57	.5
.64413	313.15	1370.44	.5
.75168	313.15	1401.61	.5
.93084	313.15	1520.28	.5
1	313.15	1619.31	.5
