Measured thermophysical data. Phosphoric-based ionic liquids as solvents to separate the azeotropic mixture of ethanol and hexane
Source: J. Chem. Thermodyn., 2015, 10.1016/j.jct.2014.09.019
Compound 1: ethanol, C2H6O, purity 99.7%
Compound 2: hexane, C6H14, purity 99%
Compound 3: 1,3-dimethylimidazolium dimethylphosphate, C7H15N2O4P, purity 98%
Compound 4: 1-ethyl-3-methylimidazolium diethylphosphate, C10H21N2O4P, purity 98%
Compound 5: 1-butyl-3-methylimidazolium dibutylphosphate, C16H33N2O4P, purity 98%

System: ethanol + hexane + 1,3-dimethylimidazolium dimethylphosphate; phases: Liquid mixture 2, Liquid mixture 1
Fixed: Pressure, kPa = 101.3
Fixed: Temperature, K = 303.2
Property: Mole fraction of hexane (Liquid mixture 2); method: Chromatography
Property: Mole fraction of ethanol (Liquid mixture 1); method: Chromatography
Property: Mole fraction of hexane (Liquid mixture 1); method: Chromatography
Mole fraction of ethanol	Mole fraction of hexane	uncertainty	Mole fraction of ethanol	uncertainty	Mole fraction of hexane	uncertainty
0	.042	.001	0	.001	1	.001
.164	.047	.001	.005	.001	.995	.001
.253	.055	.001	.012	.001	.988	.001
.395	.058	.001	.024	.001	.976	.001
.475	.062	.001	.052	.001	.948	.001
.552	.067	.001	.075	.001	.925	.001
.634	.075	.001	.098	.001	.902	.001
.688	.079	.001	.114	.001	.886	.001
.712	.087	.001	.121	.001	.879	.001

System: ethanol + hexane + 1-ethyl-3-methylimidazolium diethylphosphate; phases: Liquid mixture 2, Liquid mixture 1
Fixed: Temperature, K = 303.2
Fixed: Pressure, kPa = 101.3
Property: Mole fraction of hexane (Liquid mixture 2); method: Chromatography
Property: Mole fraction of ethanol (Liquid mixture 1); method: Chromatography
Property: Mole fraction of hexane (Liquid mixture 1); method: Chromatography
Mole fraction of ethanol	Mole fraction of hexane	uncertainty	Mole fraction of ethanol	uncertainty	Mole fraction of hexane	uncertainty
0	.064	.001	0	.001	1	.001
.142	.067	.001	.009	.001	.991	.001
.238	.076	.001	.02	.001	.98	.001
.355	.08	.001	.042	.001	.958	.001
.439	.087	.001	.061	.001	.939	.001
.495	.095	.001	.074	.001	.926	.001
.554	.102	.001	.097	.001	.903	.001
.626	.11	.001	.123	.001	.877	.001
.683	.119	.001	.154	.001	.846	.001

System: ethanol + hexane + 1-butyl-3-methylimidazolium dibutylphosphate; phases: Liquid mixture 2, Liquid mixture 1
Fixed: Temperature, K = 303.2
Fixed: Pressure, kPa = 101.3
Property: Mole fraction of hexane (Liquid mixture 2); method: Chromatography
Property: Mole fraction of ethanol (Liquid mixture 1); method: Chromatography
Property: Mole fraction of hexane (Liquid mixture 1); method: Chromatography
Mole fraction of ethanol	Mole fraction of hexane	uncertainty	Mole fraction of ethanol	uncertainty	Mole fraction of hexane	uncertainty
0	.085	.001	0	.001	1	.001
.137	.087	.001	.012	.001	.988	.001
.223	.096	.001	.025	.001	.975	.001
.275	.101	.001	.037	.001	.963	.001
.32	.109	.001	.051	.001	.949	.001
.358	.113	.001	.078	.001	.922	.001
.414	.127	.001	.102	.001	.898	.001
.486	.138	.001	.134	.001	.866	.001
.51	.149	.001	.167	.001	.833	.001

System: hexane + 1,3-dimethylimidazolium dimethylphosphate; phases: Liquid mixture 2, Liquid mixture 1
Property: Mole fraction of hexane (Liquid mixture 2); method: Chromatography
Pressure, kPa	Temperature, K	Mole fraction of hexane	uncertainty
101.3	303.2	.042	.001

System: hexane + 1-ethyl-3-methylimidazolium diethylphosphate; phases: Liquid mixture 2, Liquid mixture 1
Property: Mole fraction of hexane (Liquid mixture 2); method: Chromatography
Pressure, kPa	Temperature, K	Mole fraction of hexane	uncertainty
101.3	303.2	.064	.001

System: hexane + 1-butyl-3-methylimidazolium dibutylphosphate; phases: Liquid mixture 2, Liquid mixture 1
Property: Mole fraction of hexane (Liquid mixture 2); method: Chromatography
Pressure, kPa	Temperature, K	Mole fraction of hexane	uncertainty
101.3	303.2	.085	.001
