Measured thermophysical data. Solubility modelling and thermodynamic dissolution functions of phthalimide in ten organic solvents
Source: J. Chem. Thermodyn., 2016, 10.1016/j.jct.2015.10.024
Compound 1: phthalimide, C8H5NO2, purity 98%
Compound 2: acetonitrile, C2H3N, purity 99.0%
Compound 3: methanol, CH4O, purity 99.5%
Compound 4: ethanol, C2H6O, purity 99.7%
Compound 5: n-propanol, C3H8O, purity 99.0%
Compound 6: isopropanol, C3H8O, purity 99.7%
Compound 7: acetone, C3H6O, purity 99.5%
Compound 8: toluene, C7H8, purity 99.5%
Compound 9: ethyl acetate, C4H8O2, purity 99.5%
Compound 10: isobutanol, C4H10O, purity 99.5%
Compound 11: n-butanol, C4H10O, purity 99.5%

System: methanol + phthalimide; phases: Liquid, Crystal
Fixed: Pressure, kPa = 100
Property: Mole fraction of phthalimide (Liquid); method: Chromatography
Temperature, K	Mole fraction of phthalimide	uncertainty
283.15	.00129	.0000258
285.65	.001424	.00002848
288.15	.001624	.00003248
290.65	.001834	.00003668
293.15	.0021	.000042
295.65	.002356	.00004712
298.15	.002604	.00005208
300.15	.002879	.00005758
303.15	.003172	.00006344
305.65	.003455	.0000691
308.15	.003727	.00007454
310.65	.004055	.0000811
313.15	.004453	.00008906
315.65	.004834	.00009668
318.15	.005249	.00010498

System: isopropanol + phthalimide; phases: Liquid, Crystal
Fixed: Pressure, kPa = 100
Property: Mole fraction of phthalimide (Liquid); method: Chromatography
Temperature, K	Mole fraction of phthalimide	uncertainty
283.15	.001592	.00003184
285.65	.001753	.00003506
288.15	.001979	.00003958
290.65	.002202	.00004404
293.15	.002468	.00004936
295.65	.002702	.00005404
298.15	.002983	.00005966
300.15	.003301	.00006602
303.15	.003648	.00007296
305.65	.004024	.00008048
308.15	.004382	.00008764
310.65	.004795	.0000959
313.15	.005233	.00010466
315.65	.005748	.00011496
318.15	.006325	.0001265

System: n-propanol + phthalimide; phases: Liquid, Crystal
Fixed: Pressure, kPa = 100
Property: Mole fraction of phthalimide (Liquid); method: Chromatography
Temperature, K	Mole fraction of phthalimide	uncertainty
283.15	.001559	.00003118
285.65	.001731	.00003462
288.15	.001877	.00003754
290.65	.002032	.00004064
293.15	.002222	.00004444
295.65	.002418	.00004836
298.15	.002631	.00005262
300.15	.002817	.00005634
303.15	.003084	.00006168
305.65	.003392	.00006784
308.15	.003691	.00007382
310.65	.003988	.00007976
313.15	.004298	.00008596
315.65	.004656	.00009312
318.15	.005004	.00010008

System: phthalimide + ethyl acetate; phases: Liquid, Crystal
Fixed: Pressure, kPa = 100
Property: Mole fraction of phthalimide (Liquid); method: Chromatography
Temperature, K	Mole fraction of phthalimide	uncertainty
283.15	.003884	.00007768
285.65	.00441	.0000882
288.15	.004978	.00009956
290.65	.005573	.00011146
293.15	.006152	.00012304
295.65	.006775	.0001355
298.15	.007494	.00014988
300.15	.008129	.00016258
303.15	.008792	.00017584
305.65	.009702	.00019404
308.15	.01048	.0002096
310.65	.01144	.0002288
313.15	.01252	.0002504
315.65	.01378	.0002756
318.15	.01518	.0003036

System: acetonitrile + phthalimide; phases: Liquid, Crystal
Fixed: Pressure, kPa = 100
Property: Mole fraction of phthalimide (Liquid); method: Chromatography
Temperature, K	Mole fraction of phthalimide	uncertainty
283.15	.001448	.00002896
285.65	.001605	.0000321
288.15	.001798	.00003596
290.65	.002087	.00004174
293.15	.002382	.00004764
295.65	.002708	.00005416
298.15	.003048	.00006096
300.15	.003355	.0000671
303.15	.003854	.00007708
305.65	.004305	.0000861
308.15	.004718	.00009436
310.65	.005182	.00010364
313.15	.005772	.00011544
315.65	.00631	.0001262
318.15	.006859	.00013718

System: isobutanol + phthalimide; phases: Liquid, Crystal
Fixed: Pressure, kPa = 100
Property: Mole fraction of phthalimide (Liquid); method: Chromatography
Temperature, K	Mole fraction of phthalimide	uncertainty
283.15	.001401	.00002802
285.65	.001546	.00003092
288.15	.001713	.00003426
290.65	.001898	.00003796
293.15	.002063	.00004126
295.65	.002221	.00004442
298.15	.002417	.00004834
300.15	.002598	.00005196
303.15	.002917	.00005834
305.65	.003151	.00006302
308.15	.003402	.00006804
310.65	.003679	.00007358
313.15	.003976	.00007952
315.65	.004277	.00008554
318.15	.004688	.00009376

System: n-butanol + phthalimide; phases: Liquid, Crystal
Fixed: Pressure, kPa = 100
Property: Mole fraction of phthalimide (Liquid); method: Chromatography
Temperature, K	Mole fraction of phthalimide	uncertainty
283.15	.001661	.00003322
285.65	.001846	.00003692
288.15	.002035	.0000407
290.65	.002212	.00004424
293.15	.002433	.00004866
295.65	.002657	.00005314
298.15	.002851	.00005702
300.15	.003078	.00006156
303.15	.003365	.0000673
305.65	.003622	.00007244
308.15	.003934	.00007868
310.65	.004241	.00008482
313.15	.004561	.00009122
315.65	.004897	.00009794
318.15	.005397	.00010794

System: phthalimide + toluene; phases: Liquid, Crystal
Fixed: Pressure, kPa = 100
Property: Mole fraction of phthalimide (Liquid); method: Chromatography
Temperature, K	Mole fraction of phthalimide	uncertainty
283.15	.0002531	.000005062
285.65	.0002945	.00000589
288.15	.0003484	.000006968
290.65	.0004013	.000008026
293.15	.0004556	.000009112
295.65	.0005136	.000010272
298.15	.000577	.00001154
300.15	.0006238	.000012476
303.15	.0006936	.000013872
305.65	.0007556	.000015112
308.15	.0008284	.000016568
310.65	.0008999	.000017998
313.15	.0009693	.000019386
315.65	.001048	.00002096
318.15	.001144	.00002288

System: acetone + phthalimide; phases: Liquid, Crystal
Fixed: Pressure, kPa = 100
Property: Mole fraction of phthalimide (Liquid); method: Chromatography
Temperature, K	Mole fraction of phthalimide	uncertainty
283.15	.007827	.00015654
285.65	.008538	.00017076
288.15	.009346	.00018692
290.65	.01011	.0002022
293.15	.01098	.0002196
295.65	.01187	.0002374
298.15	.01278	.0002556
300.15	.01371	.0002742
303.15	.01492	.0002984
305.65	.01591	.0003182
308.15	.01699	.0003398
310.65	.01812	.0003624
313.15	.01943	.0003886
315.65	.02087	.0004174
318.15	.02211	.0004422

System: ethanol + phthalimide; phases: Liquid, Crystal
Fixed: Pressure, kPa = 100
Property: Mole fraction of phthalimide (Liquid); method: Chromatography
Temperature, K	Mole fraction of phthalimide	uncertainty
283.15	.001163	.00002326
285.65	.001329	.00002658
288.15	.001512	.00003024
290.65	.001705	.0000341
293.15	.001928	.00003856
295.65	.002145	.0000429
298.15	.002397	.00004794
300.15	.002603	.00005206
303.15	.003016	.00006032
305.65	.00335	.000067
308.15	.003693	.00007386
310.65	.004088	.00008176
313.15	.004619	.00009238
315.65	.005227	.00010454
318.15	.005824	.00011648
