Measured thermophysical data. Studies on volumetric properties of some saccharides in aqueous potassium  chloride solutions over temperature range (288.15 to 318.15) K
Source: J. Chem. Thermodyn., 2009, 10.1016/j.jct.2008.11.009
Compound 1: D-ribose, C5H10O5, purity 99.9%
Compound 2: D-galactose, C6H12O6, purity 99.7%
Compound 3: D(+)-glucose, C6H12O6, purity 99.4%
Compound 4: D-mannose, C6H12O6, purity 99.9%
Compound 5: D-fructose, C6H12O6, purity 99.4%
Compound 6: D-xylose, C5H10O5, purity 99.9%
Compound 7: D-(-)-arabinose, C5H10O5, purity 99.9%
Compound 8: D-(+)-lactose monohydrate, C12H24O11, purity 99.9%
Compound 9: trehalose, dihydrate, C12H26O13, purity 99.8%
Compound 10: melibiose, C12H22O11, purity 99.4%
Compound 11: cellose, C12H22O11, purity 99.4%
Compound 12: D-(+)-maltose monohydrate, C12H24O12, purity 99.4%
Compound 13: D-raffinose pentahydrate, C18H32O16, purity 99.9%
Compound 14: saccharose, C12H22O11, purity 99%
Compound 15: .alpha.-methylglucoside, C7H14O6, purity 98.9%
Compound 16: methyl-.alpha.-D-xylopyranoside, C6H12O5, purity 98%
Compound 17: .beta.-D-xylopyranoside, methyl, C6H12O5, purity 98%
Compound 18: potassium chloride, ClK
Compound 19: water, H2O

System: D-xylose + potassium chloride + water; phases: Liquid
Fixed: Pressure, kPa = 101
Property: Mass density, kg/m3 (Liquid); method: Vibrating tube method
Temperature, K	Solvent: Molality, mol/kg of potassium chloride	Molality, mol/kg of D-xylose	Mass density, kg/m3	uncertainty
288.15	0	.05846	1002.32	
288.15	0	.10761	1004.964	
288.15	0	.12417	1005.845	
288.15	0	.20213	1009.933	
298.15	0	.0517	999.853	
298.15	0	.07407	1001.058	
298.15	0	.09363	1002.105	
298.15	0	.12559	1003.809	
298.15	0	.20213	1007.841	
298.15	0	.31872	1013.858	
308.15	0	.05111	996.782	
308.15	0	.06715	997.637	
308.15	0	.10298	999.532	
308.15	0	.12702	1000.795	
318.15	0	.05111	992.974	
318.15	0	.06715	993.823	
318.15	0	.10298	995.706	
318.15	0	.12702	996.962	
288.15	.5	.06745	1023.988	
288.15	.5	.10649	1025.996	
288.15	.5	.1243	1026.906	
288.15	.5	.20693	1030.971	
298.15	.5	.06049	1022.593	
298.15	.5	.0801	1023.616	
298.15	.5	.0914	1024.203	
298.15	.5	.10738	1025.025	
298.15	.5	.20693	1030.022	
298.15	.5	.30993	1034.983	
308.15	.5	.05111	1021.061	
308.15	.5	.06715	1021.883	
308.15	.5	.10874	1023.982	
308.15	.5	.11235	1024.161	
318.15	.5	.05111	1020.042	
318.15	.5	.06715	1020.857	
318.15	.5	.10874	1022.952	
318.15	.5	.11235	1023.133	
288.15	1	.06076	1045.467	
288.15	1	.09399	1047.146	
288.15	1	.11852	1048.376	
288.15	1	.18916	1051.822	
298.15	1	.05366	1042.713	
298.15	1	.06833	1043.456	
298.15	1	.08857	1044.464	
298.15	1	.10698	1045.38	
298.15	1	.18916	1049.365	
298.15	1	.31031	1054.945	
308.15	1	.05107	1040.133	
308.15	1	.07106	1041.111	
308.15	1	.09124	1042.084	
308.15	1	.10285	1042.637	
318.15	1	.05107	1037.786	
318.15	1	.07106	1038.753	
318.15	1	.09124	1039.722	
318.15	1	.10285	1040.276	
288.15	2	.06399	1076.875	
288.15	2	.106	1078.843	
288.15	2	.13237	1080.05	
288.15	2	.19551	1082.849	
298.15	2	.04859	1075.073	
298.15	2	.06895	1076.033	
298.15	2	.09138	1077.096	
298.15	2	.09531	1077.28	
298.15	2	.19551	1081.897	
298.15	2	.28242	1085.733	
308.15	2	.0489	1074.02	
308.15	2	.06955	1074.976	
308.15	2	.08861	1075.864	
308.15	2	.09913	1076.347	
318.15	2	.0489	1072.91	
318.15	2	.06955	1073.848	
318.15	2	.08861	1074.71	
318.15	2	.09913	1075.186	
288.15	3	.05125	1113.068	
288.15	3	.12872	1116.419	
288.15	3	.14002	1116.895	
288.15	3	.26904	1122.117	
298.15	3	.04845	1111.646	
298.15	3	.06979	1112.563	
298.15	3	.0865	1113.275	
298.15	3	.09903	1113.804	
298.15	3	.18566	1117.327	
298.15	3	.26909	1120.586	
308.15	3	.04888	1110.461	
308.15	3	.07086	1111.397	
308.15	3	.09152	1112.273	
308.15	3	.10141	1112.69	
318.15	3	.04888	1109.179	
318.15	3	.07086	1110.089	
318.15	3	.09152	1110.939	
318.15	3	.10141	1111.344	

System: potassium chloride + water + D-(-)-arabinose; phases: Liquid
Fixed: Pressure, kPa = 101
Property: Mass density, kg/m3 (Liquid); method: Vibrating tube method
Temperature, K	Solvent: Molality, mol/kg of potassium chloride	Molality, mol/kg of D-(-)-arabinose	Mass density, kg/m3	uncertainty
288.15	0	.06214	1002.652	
288.15	0	.08255	1003.785	
288.15	0	.10129	1004.822	
288.15	0	.12558	1006.147	
298.15	0	.06143	1000.51	
298.15	0	.08255	1001.688	
298.15	0	.10143	1002.736	
298.15	0	.1197	1003.745	
308.15	0	.05652	997.182	
308.15	0	.07597	998.258	
308.15	0	.09059	999.063	
308.15	0	.10984	1000.121	
318.15	0	.05652	993.353	
318.15	0	.07597	994.413	
318.15	0	.09059	995.207	
318.15	0	.10984	996.248	
288.15	.05	.06216	1023.853	
288.15	.05	.0772	1024.661	
288.15	.05	.10117	1025.937	
288.15	.05	.12945	1027.409	
298.15	.05	.05267	1022.298	
298.15	.05	.0772	1023.618	
298.15	.05	.09355	1024.488	
298.15	.05	.11045	1025.372	
308.15	.05	.06137	1021.719	
308.15	.05	.08542	1022.998	
308.15	.05	.10358	1023.96	
308.15	.05	.10376	1023.97	
318.15	.05	.06137	1020.641	
318.15	.05	.08542	1021.886	
318.15	.05	.10358	1022.819	
318.15	.05	.10376	1022.828	
288.15	1	.05992	1045.526	
288.15	1	.0686	1045.983	
288.15	1	.11012	1048.147	
288.15	1	.13114	1049.229	
298.15	1	.05356	1042.776	
298.15	1	.0686	1043.553	
298.15	1	.09638	1044.971	
298.15	1	.11261	1045.785	
308.15	1	.04889	1040.075	
308.15	1	.07215	1041.24	
308.15	1	.08961	1042.098	
308.15	1	.09916	1042.563	
318.15	1	.04889	1037.646	
318.15	1	.07215	1038.729	
318.15	1	.08961	1039.517	
318.15	1	.09916	1039.94	
288.15	2	.06154	1076.788	
288.15	2	.08136	1077.733	
288.15	2	.10965	1079.047	
288.15	2	.12163	1079.599	
298.15	2	.04865	1075.067	
298.15	2	.07114	1076.117	
298.15	2	.09472	1077.197	
298.15	2	.10514	1077.668	
308.15	2	.04999	1074.072	
308.15	2	.08168	1075.542	
308.15	2	.09004	1075.924	
308.15	2	.1005	1076.398	
318.15	2	.04999	1072.9	
318.15	2	.08168	1074.353	
318.15	2	.09004	1074.604	
318.15	2	.1005	1075.032	
288.15	3	.05075	1113.084	
288.15	3	.06329	1113.634	
288.15	3	.10534	1115.444	
288.15	3	.12508	1116.273	
298.15	3	.05075	1111.763	
298.15	3	.06584	1112.405	
298.15	3	.08796	1113.324	
298.15	3	.09705	1113.697	
308.15	3	.04845	1110.461	
308.15	3	.06627	1111.222	
308.15	3	.08995	1112.225	
308.15	3	.10027	1112.655	
318.15	3	.04845	1109.138	
318.15	3	.06627	1109.835	
318.15	3	.08995	1110.74	
318.15	3	.10027	1111.124	

System: D-ribose + potassium chloride + water; phases: Liquid
Fixed: Pressure, kPa = 101
Property: Mass density, kg/m3 (Liquid); method: Vibrating tube method
Temperature, K	Solvent: Molality, mol/kg of potassium chloride	Molality, mol/kg of D-ribose	Mass density, kg/m3	uncertainty
288.15	0	.0675	1002.838	
288.15	0	.11602	1005.454	
288.15	0	.12689	1006.034	
288.15	0	.1469	1007.098	
298.15	0	.06717	1000.679	
298.15	0	.08631	1001.68	
298.15	0	.10325	1002.56	
298.15	0	.1469	1004.792	
308.15	0	.07188	997.871	
308.15	0	.078	998.192	
308.15	0	.091	998.87	
308.15	0	.12204	1000.473	
318.15	0	.07188	994.054	
318.15	0	.078	994.376	
318.15	0	.091	995.056	
318.15	0	.12204	996.673	
288.15	.5	.0668	1023.951	
288.15	.5	.07235	1024.242	
288.15	.5	.10916	1026.159	
288.15	.5	.12414	1026.933	
298.15	.5	.0665	1022.838	
298.15	.5	.07235	1023.126	
298.15	.5	.09153	1024.08	
298.15	.5	.12568	1025.753	
308.15	.5	.05129	1021.022	
308.15	.5	.06986	1021.962	
308.15	.5	.09332	1023.141	
308.15	.5	.09885	1023.417	
318.15	.5	.05129	1019.959	
318.15	.5	.06986	1020.865	
318.15	.5	.09332	1021.806	
318.15	.5	.09885	1022.263	
288.15	1	.06262	1045.476	
288.15	1	.09176	1046.931	
288.15	1	.10029	1047.35	
288.15	1	.12996	1048.804	
298.15	1	.06074	1042.956	
298.15	1	.08224	1043.987	
298.15	1	.09176	1044.449	
298.15	1	.11231	1045.407	
308.15	1	.04987	1039.978	
308.15	1	.06935	1040.901	
308.15	1	.08937	1041.842	
308.15	1	.09983	1042.328	
318.15	1	.04987	1037.619	
318.15	1	.06935	1038.533	
318.15	1	.08937	1039.469	
318.15	1	.09983	1039.955	
288.15	2	.04972	1076.062	
288.15	2	.06893	1076.932	
288.15	2	.109	1078.718	
288.15	2	.12866	1079.557	
298.15	2	.05065	1075.013	
298.15	2	.07256	1075.97	
298.15	2	.09411	1076.903	
298.15	2	.09982	1077.146	
308.15	2	.04972	1073.864	
308.15	2	.06958	1074.689	
308.15	2	.09003	1075.52	
308.15	2	.10016	1075.925	
318.15	2	.04972	1072.783	
318.15	2	.06958	1073.625	
318.15	2	.09003	1074.488	
318.15	2	.10016	1074.912	
288.15	3	.06569	1113.564	
288.15	3	.09003	1114.57	
288.15	3	.1094	1115.357	
288.15	3	.12519	1116.001	
298.15	3	.05402	1111.76	
298.15	3	.07283	1112.516	
298.15	3	.09614	1113.423	
298.15	3	.10843	1113.915	
308.15	3	.04972	1110.346	
308.15	3	.06958	1111.122	
308.15	3	.09003	1111.909	
308.15	3	.10016	1112.294	
318.15	3	.04972	1109.048	
318.15	3	.06958	1109.787	
318.15	3	.09003	1110.535	
318.15	3	.10016	1110.9	

System: D(+)-glucose + potassium chloride + water; phases: Liquid
Fixed: Pressure, kPa = 101
Property: Mass density, kg/m3 (Liquid); method: Vibrating tube method
Temperature, K	Solvent: Molality, mol/kg of potassium chloride	Molality, mol/kg of D(+)-glucose	Mass density, kg/m3	uncertainty
288.15	0	.06752	1003.756	
288.15	0	.0999	1005.947	
288.15	0	.11751	1007.13	
288.15	0	.12628	1007.718	
298.15	0	.05216	1000.594	
298.15	0	.06971	1001.78	
298.15	0	.09465	1003.454	
298.15	0	.2025	1012.761	
298.15	0	.52064	1030.688	
298.15	0	1.03236	1060.287	
308.15	0	.04222	996.873	
308.15	0	.05541	997.754	
308.15	0	.07127	998.81	
308.15	0	.08285	999.579	
318.15	0	.04222	992.935	
318.15	0	.05541	993.931	
318.15	0	.07127	994.977	
318.15	0	.08285	995.737	
288.15	.5	.06742	1024.763	
288.15	.5	.09904	1026.729	
288.15	.5	.11411	1027.65	
288.15	.5	.12792	1028.482	
298.15	.5	.04538	1022.341	
298.15	.5	.06286	1023.465	
298.15	.5	.08481	1024.867	
298.15	.5	.13937	1028.329	
298.15	.5	.49055	1049.577	
298.15	.5	1.08487	1081.941	
298.15	.5	1.17385	1086.442	
298.15	.5	2.35579	1138.915	
308.15	.5	.04993	1021.558	
308.15	.5	.06974	1022.793	
308.15	.5	.09029	1024.062	
308.15	.5	.09975	1024.642	
318.15	.5	.04993	1020.533	
318.15	.5	.06974	1021.758	
318.15	.5	.09029	1023.022	
318.15	.5	.09975	1023.601	
288.15	1	.06991	1046.622	
288.15	1	.0749	1046.924	
288.15	1	.12117	1049.684	
288.15	1	.13796	1050.681	
298.15	1	.07446	1044.656	
298.15	1	.08169	1044.911	
298.15	1	.1754	1050.449	
298.15	1	.47989	1067.637	
298.15	1	.99313	1093.76	
298.15	1	1.45307	1114.702	
298.15	1	2.04264	1138.496	
308.15	1	.04979	1040.51	
308.15	1	.06962	1041.66	
308.15	1	.0892	1042.783	
308.15	1	.09888	1043.334	
318.15	1	.04979	1038.146	
318.15	1	.06962	1039.281	
318.15	1	.0892	1040.395	
318.15	1	.09888	1040.942	
288.15	2	.04968	1076.613	
288.15	2	.06824	1077.661	
288.15	2	.11356	1080.174	
288.15	2	.12517	1080.814	
298.15	2	.05288	1075.691	
298.15	2	.06808	1076.532	
298.15	2	.08885	1077.676	
298.15	2	.14694	1080.849	
298.15	2	.49302	1098.681	
298.15	2	.96344	1120.269	
298.15	2	1.38593	1137.395	
308.15	2	.05	1074.383	
308.15	2	.06958	1075.395	
308.15	2	.0873	1076.295	
308.15	2	.09845	1076.853	
318.15	2	.05	1073.294	
318.15	2	.06958	1074.311	
318.15	2	.0873	1075.221	
318.15	2	.09845	1075.79	
288.15	3	.06977	1114.393	
288.15	3	.0894	1115.347	
288.15	3	.13174	1117.366	
288.15	3	.14257	1117.869	
298.15	3	.05245	1112.239	
298.15	3	.09112	1114.203	
298.15	3	.14064	1116.679	
298.15	3	.27497	1123.199	
298.15	3	.46816	1131.909	
298.15	3	.87617	1148.326	
298.15	3	1.324	1163.533	
298.15	3	1.87897	1178.924	
308.15	3	.04967	1110.805	
308.15	3	.06952	1111.751	
308.15	3	.0879	1112.611	
308.15	3	.1032	1113.316	
318.15	3	.04967	1109.547	
318.15	3	.06952	1110.494	
318.15	3	.0879	1111.362	
318.15	3	.1032	1112.076	

System: D-mannose + potassium chloride + water; phases: Liquid
Fixed: Pressure, kPa = 101
Property: Mass density, kg/m3 (Liquid); method: Vibrating tube method
Temperature, K	Solvent: Molality, mol/kg of potassium chloride	Molality, mol/kg of D-mannose	Mass density, kg/m3	uncertainty
288.15	0	.05041	1002.581	
288.15	0	.06931	1003.861	
288.15	0	.11633	1006.999	
288.15	0	.1395	1008.525	
298.15	0	.05052	1000.489	
298.15	0	.07464	1002.116	
298.15	0	.0912	1003.226	
298.15	0	.16804	1008.311	
308.15	0	.05039	997.436	
308.15	0	.06974	998.729	
308.15	0	.08981	1000.059	
308.15	0	.10254	1000.899	
318.15	0	.05039	993.629	
318.15	0	.06974	994.916	
318.15	0	.08981	996.244	
318.15	0	.10254	997.083	
288.15	.5	.05007	1023.751	
288.15	.5	.07012	1025.077	
288.15	.5	.11852	1028.236	
288.15	.5	.13939	1029.58	
298.15	.5	.05197	1022.842	
298.15	.5	.07195	1024.148	
298.15	.5	.10469	1026.267	
298.15	.5	.15327	1029.378	
308.15	.5	.05007	1021.655	
308.15	.5	.06979	1022.912	
308.15	.5	.0881	1024.064	
308.15	.5	.10035	1024.829	
318.15	.5	.05007	1020.65	
318.15	.5	.06979	1021.909	
318.15	.5	.0881	1023.07	
318.15	.5	.10035	1023.841	
288.15	1	.0681	1046.716	
288.15	1	.08981	1048.091	
288.15	1	.105	1048.771	
288.15	1	.13889	1051.157	
298.15	1	.05167	1043.276	
298.15	1	.06795	1044.308	
298.15	1	.08743	1045.533	
298.15	1	.16017	1050.031	
308.15	1	.05039	1040.754	
308.15	1	.06974	1041.956	
308.15	1	.08981	1043.189	
308.15	1	.10254	1043.966	
318.15	1	.05039	1038.445	
318.15	1	.06974	1039.61	
318.15	1	.08981	1040.852	
318.15	1	.10254	1041.635	
288.15	2	.05007	1076.817	
288.15	2	.07212	1078.144	
288.15	2	.10117	1079.873	
288.15	2	.14389	1082.382	
298.15	2	.05004	1075.722	
298.15	2	.07287	1077.059	
298.15	2	.08708	1077.882	
298.15	2	.11023	1079.22	
308.15	2	.05007	1074.654	
308.15	2	.0699	1075.8	
308.15	2	.09038	1076.973	
308.15	2	.09904	1077.464	
318.15	2	.05007	1073.563	
318.15	2	.0699	1074.702	
318.15	2	.09038	1075.871	
318.15	2	.09904	1076.363	
288.15	3	.06516	1114.346	
288.15	3	.08957	1115.649	
288.15	3	.10338	1116.379	
288.15	3	.14209	1118.392	
298.15	3	.04961	1112.229	
298.15	3	.06768	1113.195	
298.15	3	.08957	1114.172	
298.15	3	.11232	1115.57	
308.15	3	.05004	1111.026	
308.15	3	.06967	1112.06	
308.15	3	.08957	1112.321	
308.15	3	.10003	1113.66	
318.15	3	.05004	1109.753	
318.15	3	.06967	1110.764	
318.15	3	.08957	1111.782	
318.15	3	.10003	1112.33	

System: D-fructose + potassium chloride + water; phases: Liquid
Fixed: Pressure, kPa = 101
Property: Mass density, kg/m3 (Liquid); method: Vibrating tube method
Temperature, K	Solvent: Molality, mol/kg of potassium chloride	Molality, mol/kg of D-fructose	Mass density, kg/m3	uncertainty
288.15	0	.05028	1002.618	
288.15	0	.0704	1003.998	
288.15	0	.12256	1007.529	
288.15	0	.14059	1008.733	
298.15	0	.06666	1001.622	
298.15	0	.07739	1002.349	
298.15	0	.10125	1003.959	
298.15	0	.15269	1007.405	
298.15	0	.21591	1011.576	
298.15	0	.30319	1017.225	
298.15	0	.41617	1024.363	
308.15	0	.05928	998.043	
308.15	0	.07049	998.793	
308.15	0	.0897	1000.071	
308.15	0	.0999	1000.747	
318.15	0	.05928	994.222	
318.15	0	.07049	994.967	
318.15	0	.0897	996.239	
318.15	0	.0999	996.911	
288.15	.5	.0502	1023.77	
288.15	.5	.07044	1025.109	
288.15	.5	.12258	1028.513	
288.15	.5	.14058	1029.673	
298.15	.5	.04849	1022.597	
298.15	.5	.065	1023.67	
298.15	.5	.1384	1028.369	
298.15	.5	.14944	1029.057	
308.15	.5	.0502	1021.658	
308.15	.5	.06956	1022.904	
308.15	.5	.08959	1024.187	
308.15	.5	.09904	1024.788	
318.15	.5	.0502	1020.617	
318.15	.5	.06956	1021.841	
318.15	.5	.08959	1023.101	
318.15	.5	.09904	1023.693	
288.15	1	.05042	1045.549	
288.15	1	.07615	1047.173	
288.15	1	.10853	1049.179	
288.15	1	.14021	1051.14	
298.15	1	.05936	1043.687	
298.15	1	.07251	1044.501	
298.15	1	.09743	1046.029	
298.15	1	.15631	1049.594	
308.15	1	.05042	1040.684	
308.15	1	.06991	1041.874	
308.15	1	.08955	1043.066	
308.15	1	.09997	1043.695	
318.15	1	.05042	1038.32	
318.15	1	.06991	1039.494	
318.15	1	.08955	1040.67	
318.15	1	.09997	1041.292	
288.15	2	.05899	1077.254	
288.15	2	.08937	1079.021	
288.15	2	.10804	1080.093	
288.15	2	.13963	1081.888	
298.15	2	.06124	1076.259	
298.15	2	.0697	1076.738	
298.15	2	.09725	1078.296	
298.15	2	.11856	1079.489	
308.15	2	.04968	1074.523	
308.15	2	.06973	1075.649	
308.15	2	.08937	1076.745	
308.15	2	.09942	1077.303	
318.15	2	.04968	1073.399	
318.15	2	.06973	1074.492	
318.15	2	.08937	1075.551	
318.15	2	.09942	1076.09	
288.15	3	.05719	1113.871	
288.15	3	.0894	1115.547	
288.15	3	.10938	1116.563	
288.15	3	.13984	1118.085	
298.15	3	.0524	1112.331	
298.15	3	.07045	1113.282	
298.15	3	.09086	1114.356	
298.15	3	.10006	1114.838	
298.15	3	.14287	1117.065	
308.15	3	.05051	1110.985	
308.15	3	.06956	1111.965	
308.15	3	.0894	1112.98	
308.15	3	.10114	1113.577	
318.15	3	.05051	1109.701	
318.15	3	.06956	1110.654	
318.15	3	.0894	1111.641	
318.15	3	.10114	1112.222	

System: D-galactose + potassium chloride + water; phases: Liquid
Fixed: Pressure, kPa = 101
Property: Mass density, kg/m3 (Liquid); method: Vibrating tube method
Temperature, K	Solvent: Molality, mol/kg of potassium chloride	Molality, mol/kg of D-galactose	Mass density, kg/m3	uncertainty
288.15	0	.04966	1002.591	
288.15	0	.06527	1003.656	
288.15	0	.10489	1006.326	
288.15	0	.12745	1007.814	
298.15	0	.04635	1000.262	
298.15	0	.07252	1002.053	
298.15	0	.09623	1003.651	
298.15	0	.10932	1004.539	
298.15	0	.12741	1005.753	
308.15	0	.04966	997.462	
308.15	0	.07038	998.879	
308.15	0	.08742	1000.036	
308.15	0	.09949	1000.853	
318.15	0	.04966	993.607	
318.15	0	.07038	994.979	
318.15	0	.08742	996.094	
318.15	0	.09949	996.878	
288.15	.5	.0657	1024.755	
288.15	.5	.0892	1026.289	
288.15	.5	.10612	1027.387	
288.15	.5	.13049	1028.958	
298.15	.5	.04946	1022.63	
298.15	.5	.07303	1024.146	
298.15	.5	.0871	1025.046	
298.15	.5	.10127	1025.944	
298.15	.5	.12149	1027.213	
308.15	.5	.04979	1021.579	
308.15	.5	.06975	1022.822	
308.15	.5	.0892	1024.016	
308.15	.5	.10065	1024.709	
318.15	.5	.04979	1020.503	
318.15	.5	.06975	1021.817	
318.15	.5	.0892	1023.028	
318.15	.5	.10065	1023.738	
288.15	1	.04979	1045.419	
288.15	1	.06562	1046.394	
288.15	1	.10581	1048.822	
288.15	1	.13369	1050.476	
298.15	1	.04946	1022.63	
298.15	1	.07303	1024.146	
298.15	1	.0871	1025.046	
298.15	1	.10127	1025.944	
298.15	1	.12149	1027.213	
308.15	1	.04979	1040.555	
308.15	1	.06975	1041.718	
308.15	1	.0892	1042.83	
308.15	1	.10065	1043.476	
318.15	1	.04979	1038.172	
318.15	1	.06975	1039.311	
318.15	1	.0892	1040.403	
318.15	1	.10065	1041.039	
288.15	2	.04973	1076.643	
288.15	2	.06512	1077.522	
288.15	2	.10499	1079.774	
288.15	2	.13084	1081.212	
298.15	2	.04989	1075.52	
298.15	2	.06854	1076.539	
298.15	2	.08764	1077.566	
298.15	2	.09942	1078.191	
298.15	2	.12937	1079.756	
308.15	2	.04973	1074.465	
308.15	2	.06947	1075.541	
308.15	2	.08972	1076.634	
308.15	2	.101	1077.238	
318.15	2	.04973	1073.348	
318.15	2	.06947	1074.405	
318.15	2	.08972	1075.481	
318.15	2	.101	1076.077	
288.15	3	.05669	1113.817	
288.15	3	.09004	1115.578	
288.15	3	.10413	1116.308	
288.15	3	.1263	1117.437	
298.15	3	.05099	1112.189	
298.15	3	.06288	1112.781	
298.15	3	.0823	1113.76	
298.15	3	.10103	1114.682	
298.15	3	.15249	1117.136	
308.15	3	.04968	1110.917	
308.15	3	.06996	1111.947	
308.15	3	.09004	1112.96	
308.15	3	.09944	1113.437	
318.15	3	.04968	1109.705	
318.15	3	.06996	1110.635	
318.15	3	.09004	1111.622	
318.15	3	.09944	1112.082	

System: melibiose + potassium chloride + water; phases: Liquid
Fixed: Pressure, kPa = 101
Property: Mass density, kg/m3 (Liquid); method: Vibrating tube method
Temperature, K	Solvent: Molality, mol/kg of potassium chloride	Molality, mol/kg of melibiose	Mass density, kg/m3	uncertainty
288.15	0	.05535	1006.181	
288.15	0	.06978	1007.988	
288.15	0	.08621	1010.021	
288.15	0	.10496	1012.321	
298.15	0	.05291	1003.752	
298.15	0	.07516	1006.52	
298.15	0	.09854	1009.396	
298.15	0	.10798	1010.548	
308.15	0	.05083	1000.427	
308.15	0	.06978	1002.772	
308.15	0	.09012	1005.266	
308.15	0	.10034	1006.51	
318.15	0	.05083	996.594	
318.15	0	.06978	998.923	
318.15	0	.09012	1001.4	
318.15	0	.10034	1002.636	
288.15	.5	.0576	1026.817	
288.15	.5	.06972	1029.027	
288.15	.5	.08186	1030.493	
288.15	.5	.10333	1033.078	
298.15	.5	.05249	1025.855	
298.15	.5	.08373	1029.609	
298.15	.5	.10982	1032.698	
298.15	.5	.11989	1033.878	
308.15	.5	.04952	1024.424	
308.15	.5	.06972	1026.834	
308.15	.5	.08867	1029.071	
308.15	.5	.0979	1030.152	
318.15	.5	.04952	1023.383	
318.15	.5	.06972	1025.774	
318.15	.5	.08867	1027.995	
318.15	.5	.0979	1029.069	
288.15	1	.0499	1048.306	
288.15	1	.05236	1048.596	
288.15	1	.09039	1053.047	
288.15	1	.10171	1054.35	
298.15	1	.05548	1046.564	
298.15	1	.09212	1050.835	
298.15	1	.10229	1052.007	
298.15	1	.12166	1054.225	
308.15	1	.0499	1043.436	
308.15	1	.06946	1045.69	
308.15	1	.08923	1047.943	
308.15	1	.09917	1049.067	
318.15	1	.0499	1041.077	
318.15	1	.06946	1043.321	
318.15	1	.08923	1045.568	
318.15	1	.09917	1046.689	
288.15	2	.04971	1079.356	
288.15	2	.05168	1079.574	
288.15	2	.08271	1082.98	
288.15	2	.10175	1085.044	
298.15	2	.05564	1078.905	
298.15	2	.07351	1080.856	
298.15	2	.09475	1083.155	
298.15	2	.10857	1084.637	
308.15	2	.04971	1077.159	
308.15	2	.06787	1079.117	
308.15	2	.09064	1081.548	
308.15	2	.10113	1082.664	
318.15	2	.04971	1076.02	
318.15	2	.06787	1077.944	
318.15	2	.09064	1080.328	
318.15	2	.10113	1081.416	
288.15	3	.05322	1116.272	
288.15	3	.06947	1117.917	
288.15	3	.08318	1119.295	
288.15	3	.10602	1121.556	
298.15	3	.05097	1114.715	
298.15	3	.0714	1116.755	
298.15	3	.08699	1118.293	
298.15	3	.11173	1120.701	
308.15	3	.04978	1113.341	
308.15	3	.06947	1115.269	
308.15	3	.0892	1117.177	
308.15	3	.10037	1118.248	
318.15	3	.04978	1112.065	
318.15	3	.06947	1113.952	
318.15	3	.0892	1115.841	
318.15	3	.10037	1116.901	

System: cellose + potassium chloride + water; phases: Liquid
Fixed: Pressure, kPa = 101
Property: Mass density, kg/m3 (Liquid); method: Vibrating tube method
Temperature, K	Solvent: Molality, mol/kg of potassium chloride	Molality, mol/kg of cellose	Mass density, kg/m3	uncertainty
288.15	0	.05044	1005.71	
288.15	0	.08235	1009.777	
288.15	0	.10392	1012.491	
288.15	0	.2052	1024.827	
298.15	0	.04992	1003.512	
298.15	0	.06915	1005.962	
298.15	0	.12805	1013.311	
298.15	0	.20062	1022.053	
308.15	0	.04996	1000.475	
308.15	0	.06745	1002.697	
308.15	0	.08825	1005.318	
308.15	0	.09991	1006.777	
318.15	0	.04996	996.647	
318.15	0	.06745	998.856	
318.15	0	.08825	1001.46	
318.15	0	.0999	1002.91	
288.15	.5	.05122	1026.195	
288.15	.5	.08509	1031.068	
288.15	.5	.10396	1033.359	
288.15	.5	.21387	1046.217	
298.15	.5	.04917	1025.558	
298.15	.5	.07176	1028.337	
298.15	.5	.0888	1030.415	
298.15	.5	.09853	1031.593	
308.15	.5	.04962	1024.542	
308.15	.5	.07002	1027.03	
308.15	.5	.09041	1029.493	
308.15	.5	.09693	1030.276	
318.15	.5	.04962	1023.48	
318.15	.5	.07002	1025.934	
318.15	.5	.09041	1028.366	
318.15	.5	.09693	1029.137	
288.15	1	.0499	1048.446	
288.15	1	.0833	1052.461	
288.15	1	.10371	1054.879	
288.15	1	.2127	1067.367	
298.15	1	.05146	1046.178	
298.15	1	.0706	1048.445	
298.15	1	.08197	1049.78	
298.15	1	.0999	1051.871	
308.15	1	.04991	1043.531	
308.15	1	.0694	1045.818	
308.15	1	.09024	1048.24	
308.15	1	.09946	1049.302	
318.15	1	.04991	1041.127	
318.15	1	.0694	1043.373	
318.15	1	.09024	1045.745	
318.15	1	.09946	1046.785	
288.15	2	.0506	1079.587	
288.15	2	.08536	1083.501	
288.15	2	.10322	1085.485	
288.15	2	.28958	1105.154	
298.15	2	.04972	1078.124	
298.15	2	.06834	1080.381	
298.15	2	.08699	1082.419	
298.15	2	.11532	1085.469	
308.15	2	.05026	1077.279	
308.15	2	.07184	1079.62	
308.15	2	.09016	1081.586	
308.15	2	.09785	1082.404	
318.15	2	.05026	1076.143	
318.15	2	.07184	1078.457	
318.15	2	.09016	1080.402	
318.15	2	.09785	1081.212	
288.15	3	.04921	1116.019	
288.15	3	.07761	1118.988	
288.15	3	.08151	1119.387	
288.15	3	.19009	1130.301	
298.15	3	.0478	1114.507	
298.15	3	.06305	1116.069	
298.15	3	.09601	1119.4	
298.15	3	.12446	1122.227	
308.15	3	.05025	1113.488	
308.15	3	.06882	1115.342	
308.15	3	.08949	1117.38	
308.15	3	.09979	1118.384	
318.15	3	.05025	1112.17	
318.15	3	.06882	1113.986	
318.15	3	.08949	1115.878	
318.15	3	.09979	1116.958	

System: potassium chloride + water + D-(+)-maltose monohydrate; phases: Liquid
Fixed: Pressure, kPa = 101
Property: Mass density, kg/m3 (Liquid); method: Vibrating tube method
Temperature, K	Solvent: Molality, mol/kg of potassium chloride	Molality, mol/kg of D-(+)-maltose monohydrate	Mass density, kg/m3	uncertainty
288.15	0	.05763	1006.737	
288.15	0	.08077	1009.733	
288.15	0	.09616	1011.709	
288.15	0	.10314	1012.598	
298.15	0	.0528	1003.955	
298.15	0	.08077	1007.546	
298.15	0	.11672	1012.092	
298.15	0	.2052	1022.968	
298.15	0	.50914	1057.205	
298.15	0	.63571	1070.166	
298.15	0	1.02496	1106.001	
308.15	0	.05061	1000.591	
308.15	0	.0703	1003.1	
308.15	0	.08856	1005.406	
308.15	0	.09992	1006.831	
318.15	0	.05061	996.743	
318.15	0	.0703	999.229	
318.15	0	.08856	1001.514	
318.15	0	.09992	1002.925	
288.15	.5	.05296	1027.073	
288.15	.5	.07394	1029.661	
288.15	.5	.09588	1032.337	
288.15	.5	.1216	1035.433	
298.15	.5	.05378	1026.084	
298.15	.5	.07394	1028.543	
298.15	.5	.10669	1032.483	
298.15	.5	.21387	1044.966	
298.15	.5	.31558	1056.239	
298.15	.5	.46022	1071.374	
298.15	.5	.70842	1095.163	
308.15	.5	.05007	1024.518	
308.15	.5	.06948	1026.845	
308.15	.5	.08922	1029.188	
308.15	.5	.09978	1030.43	
318.15	.5	.05007	1023.434	
318.15	.5	.06948	1025.723	
318.15	.5	.08922	1028.026	
318.15	.5	.09978	1029.247	
288.15	1	.04859	1048.036	
288.15	1	.08053	1051.698	
288.15	1	.0936	1053.178	
288.15	1	.10807	1054.805	
298.15	1	.0509	1045.862	
298.15	1	.08104	1049.294	
298.15	1	.10807	1052.307	
298.15	1	.2127	1063.615	
298.15	1	.30908	1073.515	
298.15	1	.46243	1088.305	
298.15	1	.70263	1109.343	
308.15	1	.05002	1043.295	
308.15	1	.07081	1045.631	
308.15	1	.08786	1047.53	
308.15	1	.09912	1048.773	
318.15	1	.05002	1040.874	
318.15	1	.07081	1043.165	
318.15	1	.08786	1045.025	
318.15	1	.09912	1046.244	
288.15	2	.04517	1078.658	
288.15	2	.05156	1079.332	
288.15	2	.08259	1082.579	
288.15	2	.10254	1084.623	
298.15	2	.04517	1077.536	
298.15	2	.05391	1078.461	
298.15	2	.0722	1080.369	
298.15	2	.10643	1083.896	
298.15	2	.28958	1101.703	
298.15	2	.39721	1111.403	
298.15	2	.56904	1125.823	
308.15	2	.04971	1076.907	
308.15	2	.06997	1078.987	
308.15	2	.08936	1080.958	
308.15	2	.09952	1081.981	
318.15	2	.04971	1075.738	
318.15	2	.06997	1077.772	
318.15	2	.08936	1079.7	
318.15	2	.09952	1080.702	
288.15	3	.05177	1116.016	
288.15	3	.07922	1118.711	
288.15	3	.08645	1119.409	
288.15	3	.10029	1120.736	
298.15	3	.04411	1113.932	
298.15	3	.058	1115.296	
298.15	3	.07922	1117.362	
298.15	3	.09434	1118.815	
298.15	3	.19009	1127.697	
298.15	3	.2804	1135.648	
298.15	3	.36407	1142.59	
308.15	3	.04964	1113.192	
308.15	3	.06969	1115.106	
308.15	3	.08977	1117.001	
308.15	3	.09404	1117.401	
318.15	3	.04964	1111.856	
318.15	3	.06969	1113.719	
318.15	3	.08977	1115.558	
318.15	3	.09404	1116.408	

System: saccharose + potassium chloride + water; phases: Liquid
Fixed: Pressure, kPa = 101
Property: Mass density, kg/m3 (Liquid); method: Vibrating tube method
Temperature, K	Solvent: Molality, mol/kg of potassium chloride	Molality, mol/kg of saccharose	Mass density, kg/m3	uncertainty
288.15	0	.05376	1006.095	
288.15	0	.06894	1008.022	
288.15	0	.08615	1010.19	
288.15	0	.10792	1012.904	
298.15	0	.05215	1003.775	
298.15	0	.06894	1005.908	
298.15	0	.09607	1009.319	
298.15	0	.10246	1010.113	
298.15	0	.20345	1022.405	
298.15	0	.33635	1037.715	
308.15	0	.04911	1000.595	
308.15	0	.06922	1003.242	
308.15	0	.08715	1005.583	
308.15	0	.09835	1007.036	
318.15	0	.04911	996.764	
318.15	0	.06922	999.391	
318.15	0	.08715	1001.714	
318.15	0	.09835	1003.155	
288.15	.5	.04963	1026.573	
288.15	.5	.06507	1028.461	
288.15	.5	.09576	1032.175	
288.15	.5	.10672	1033.485	
298.15	.5	.05018	1025.584	
298.15	.5	.06507	1027.39	
298.15	.5	.09886	1031.44	
298.15	.5	.10397	1032.041	
298.15	.5	.20902	1044.234	
298.15	.5	.30259	1054.612	
308.15	.5	.0499	1024.5	
308.15	.5	.06869	1026.762	
308.15	.5	.08881	1029.164	
308.15	.5	.098	1030.253	
318.15	.5	.0499	1023.451	
318.15	.5	.06869	1025.69	
318.15	.5	.08881	1028.067	
318.15	.5	.098	1029.145	
288.15	1	.05529	1048.842	
288.15	1	.08974	1052.815	
288.15	1	.09319	1053.209	
288.15	1	.1054	1054.656	
298.15	1	.05461	1046.353	
298.15	1	.06847	1047.95	
298.15	1	.08974	1050.374	
298.15	1	.09891	1051.414	
298.15	1	.2052	1063.158	
298.15	1	.32581	1075.792	
308.15	1	.04941	1043.311	
308.15	1	.06886	1045.533	
308.15	1	.08882	1048.242	
308.15	1	.09711	1049.214	
318.15	1	.04941	1040.941	
318.15	1	.06886	1043.143	
318.15	1	.08882	1045.384	
318.15	1	.09711	1046.307	
288.15	2	.0475	1078.992	
288.15	2	.08677	1083.201	
288.15	2	.09844	1084.434	
288.15	2	.10538	1085.161	
298.15	2	.04723	1007.786	
298.15	2	.0676	1080.038	
298.15	2	.08677	1082.065	
298.15	2	.09707	1083.14	
298.15	2	.19757	1093.393	
298.15	2	.28739	1102.102	
308.15	2	.0493	1077.255	
308.15	2	.06847	1079.372	
308.15	2	.08927	1081.643	
308.15	2	.09786	1082.573	
318.15	2	.0493	1075.855	
318.15	2	.06847	1078.201	
318.15	2	.08927	1080.44	
318.15	2	.09786	1081.357	
288.15	3	.05343	1116.207	
288.15	3	.08524	1119.37	
288.15	3	.09427	1120.257	
288.15	3	.10394	1121.199	
298.15	3	.04926	1114.469	
298.15	3	.08196	1117.686	
298.15	3	.08524	1118.002	
298.15	3	.09237	1118.694	
298.15	3	.18097	1127.103	
298.15	3	.28853	1136.812	
308.15	3	.04891	1113.175	
308.15	3	.06912	1115.119	
308.15	3	.08788	1116.902	
308.15	3	.09789	1117.843	
318.15	3	.04891	1111.953	
318.15	3	.06912	1113.905	
318.15	3	.08788	1115.699	
318.15	3	.09789	1116.65	

System: potassium chloride + water + D-(+)-lactose monohydrate; phases: Liquid
Fixed: Pressure, kPa = 101
Property: Mass density, kg/m3 (Liquid); method: Vibrating tube method
Temperature, K	Solvent: Molality, mol/kg of potassium chloride	Molality, mol/kg of D-(+)-lactose monohydrate	Mass density, kg/m3	uncertainty
288.15	0	.05184	1006.019	
288.15	0	.07104	1008.53	
288.15	0	.08126	1009.858	
288.15	0	.10217	1012.555	
298.15	0	.05544	1004.353	
298.15	0	.06346	1005.394	
298.15	0	.09255	1009.134	
298.15	0	.10965	1011.305	
298.15	0	.18491	1020.666	
298.15	0	.3231	1037.009	
308.15	0	.04991	1000.567	
308.15	0	.06984	1003.132	
308.15	0	.08806	1005.456	
308.15	0	.09818	1006.738	
318.15	0	.04991	996.739	
318.15	0	.06984	999.29	
318.15	0	.08806	1001.602	
318.15	0	.09818	1002.877	
288.15	.5	.05336	1027.036	
288.15	.5	.07275	1029.399	
288.15	.5	.08916	1031.382	
288.15	.5	.10903	1033.763	
298.15	.5	.05527	1026.208	
298.15	.5	.07518	1028.615	
298.15	.5	.09092	1030.502	
298.15	.5	.10439	1032.105	
298.15	.5	.20922	1044.256	
298.15	.5	.29854	1054.16	
308.15	.5	.04961	1024.435	
308.15	.5	.06956	1026.821	
308.15	.5	.08949	1029.181	
308.15	.5	.09956	1030.286	
318.15	.5	.04961	1023.369	
318.15	.5	.06956	1025.718	
318.15	.5	.08949	1028.042	
318.15	.5	.09956	1029.208	
288.15	1	.05328	1048.524	
288.15	1	.07532	1051.042	
288.15	1	.08107	1051.694	
288.15	1	.09878	1053.691	
298.15	1	.04792	1045.479	
298.15	1	.07181	1048.179	
298.15	1	.09017	1050.227	
298.15	1	.10245	1051.578	
298.15	1	.20442	1062.468	
298.15	1	.31764	1073.85	
308.15	1	.0499	1043.251	
308.15	1	.06956	1045.447	
308.15	1	.08937	1047.635	
308.15	1	.09946	1048.74	
318.15	1	.0499	1040.867	
318.15	1	.06956	1043.04	
318.15	1	.08937	1045.207	
318.15	1	.09946	1046.303	
288.15	2	.05193	1079.348	
288.15	2	.06904	1081.139	
288.15	2	.08136	1082.413	
288.15	2	.10431	1084.755	
298.15	2	.04985	1078.021	
298.15	2	.07552	1080.683	
298.15	2	.09013	1082.178	
298.15	2	.10465	1083.656	
298.15	2	.19263	1092.269	
298.15	2	.30179	1102.35	
308.15	2	.05024	1076.964	
308.15	2	.07604	1079.608	
308.15	2	.09047	1081.068	
308.15	2	.09921	1081.947	
318.15	2	.05024	1075.828	
318.15	2	.07604	1078.431	
318.15	2	.09047	1079.871	
318.15	2	.09921	1080.738	
288.15	3	.05191	1115.933	
288.15	3	.06805	1117.506	
288.15	3	.0818	1118.817	
288.15	3	.10013	1120.559	
298.15	3	.04797	1114.24	
298.15	3	.06226	1115.617	
298.15	3	.08892	1118.147	
298.15	3	.0979	1118.989	
298.15	3	.18402	1126.856	
298.15	3	.2961	1136.425	
308.15	3	.04975	1113.149	
308.15	3	.06903	1114.965	
308.15	3	.08862	1116.786	
308.15	3	.09768	1117.62	
318.15	3	.04975	1111.84	
318.15	3	.06903	1113.624	
318.15	3	.08862	1115.467	
318.15	3	.09768	1116.239	

System: trehalose, dihydrate + potassium chloride + water; phases: Liquid
Fixed: Pressure, kPa = 101
Property: Mass density, kg/m3 (Liquid); method: Vibrating tube method
Temperature, K	Solvent: Molality, mol/kg of potassium chloride	Molality, mol/kg of trehalose, dihydrate	Mass density, kg/m3	uncertainty
288.15	0	.05462	1006.457	
288.15	0	.0888	1010.927	
288.15	0	.09465	1011.684	
288.15	0	.10111	1012.516	
298.15	0	.04625	1003.214	
298.15	0	.0746	1006.921	
298.15	0	.10394	1010.7	
298.15	0	.12787	1013.736	
308.15	0	.05063	1000.717	
308.15	0	.06941	1003.149	
308.15	0	.08942	1005.72	
308.15	0	.0986	1006.889	
318.15	0	.05063	996.875	
318.15	0	.06941	999.292	
318.15	0	.08942	1001.843	
318.15	0	.0986	1003.005	
288.15	.5	.04538	1025.989	
288.15	.5	.05097	1026.663	
288.15	.5	.08619	1030.872	
288.15	.5	.10111	1032.617	
298.15	.5	.04808	1025.218	
298.15	.5	.06371	1027.063	
298.15	.5	.08714	1029.788	
298.15	.5	.09669	1030.885	
308.15	.5	.04954	1024.283	
308.15	.5	.06967	1026.615	
308.15	.5	.09317	1029.292	
308.15	.5	.09843	1029.884	
318.15	.5	.04954	1023.218	
318.15	.5	.06967	1025.532	
318.15	.5	.09377	1028.269	
318.15	.5	.09843	1028.793	
288.15	1	.04553	1047.629	
288.15	1	.07446	1050.931	
288.15	1	.07946	1051.496	
288.15	1	.10151	1053.952	
298.15	1	.05371	1046.06	
298.15	1	.08289	1049.249	
298.15	1	.10328	1051.427	
298.15	1	.11847	1053.023	
308.15	1	.04974	1043.13	
308.15	1	.06964	1045.301	
308.15	1	.08961	1047.448	
308.15	1	.09928	1048.478	
318.15	1	.04974	1040.688	
318.15	1	.06964	1042.813	
318.15	1	.08961	1044.928	
318.15	1	.09928	1045.943	
288.15	2	.04818	1078.935	
288.15	2	.06508	1080.698	
288.15	2	.08084	1082.323	
288.15	2	.09976	1084.256	
298.15	2	.05256	1078.202	
298.15	2	.07385	1080.341	
298.15	2	.09677	1082.605	
298.15	2	.1064	1083.543	
308.15	2	.04978	1076.784	
308.15	2	.06986	1078.768	
308.15	2	.08914	1080.684	
308.15	2	.09948	1081.693	
318.15	2	.04978	1075.565	
318.15	2	.06986	1077.508	
318.15	2	.08914	1079.349	
318.15	2	.09948	1080.328	
288.15	3	.04716	1115.414	
288.15	3	.05245	1115.925	
288.15	3	.08207	1118.73	
288.15	3	.09977	1120.366	
298.15	3	.04993	1114.25	
298.15	3	.07905	1116.881	
298.15	3	.09986	1118.708	
298.15	3	.11804	1120.286	
308.15	3	.04964	1112.907	
308.15	3	.05349	1113.247	
308.15	3	.08931	1116.383	
308.15	3	.09919	1117.229	
318.15	3	.04964	1111.543	
318.15	3	.05349	1111.879	
318.15	3	.08931	1114.97	
318.15	3	.09919	1115.809	

System: D-raffinose pentahydrate + potassium chloride + water; phases: Liquid
Fixed: Pressure, kPa = 101
Property: Mass density, kg/m3 (Liquid); method: Vibrating tube method
Temperature, K	Solvent: Molality, mol/kg of potassium chloride	Molality, mol/kg of D-raffinose pentahydrate	Mass density, kg/m3	uncertainty
288.15	0	.05827	1010.471	
288.15	0	.08728	1015.924	
288.15	0	.10798	1019.747	
288.15	0	.19256	1034.717	
298.15	0	.05207	1007.741	
298.15	0	.07104	1010.713	
298.15	0	.09143	1014.492	
298.15	0	.10504	1016.977	
298.15	0	.12531	1020.633	
298.15	0	.15417	1025.742	
308.15	0	.04974	1003.627	
308.15	0	.06983	1007.396	
308.15	0	.09557	1012.138	
308.15	0	.10235	1013.371	
318.15	0	.04974	999.805	
318.15	0	.06983	1003.555	
318.15	0	.09557	1008.268	
318.15	0	.10235	1009.493	
288.15	.5	.05143	1029.774	
288.15	.5	.05895	1031.099	
288.15	.5	.0888	1036.299	
288.15	.5	.09836	1037.933	
298.15	.5	.0495	1028.293	
298.15	.5	.07275	1032.335	
298.15	.5	.09084	1035.424	
298.15	.5	.10312	1037.493	
298.15	.5	.12476	1041.005	
298.15	.5	.15237	1045.571	
308.15	.5	.04983	1027.255	
308.15	.5	.07011	1030.753	
308.15	.5	.08983	1034.098	
308.15	.5	.09886	1035.612	
318.15	.5	.04983	1026.188	
318.15	.5	.07011	1029.657	
318.15	.5	.08983	1032.974	
318.15	.5	.09886	1034.476	
288.15	1	.05208	1051.424	
288.15	1	.07598	1055.471	
288.15	1	.08197	1056.471	
288.15	1	.09994	1059.432	
298.15	1	.04972	1048.495	
298.15	1	.07532	1052.734	
298.15	1	.08961	1055.056	
298.15	1	.09975	1056.684	
298.15	1	.12432	1060.592	
298.15	1	.15601	1065.444	
308.15	1	.04966	1045.969	
308.15	1	.06975	1049.257	
308.15	1	.08998	1052.506	
308.15	1	.09922	1053.969	
318.15	1	.04966	1043.525	
318.15	1	.06975	1046.769	
318.15	1	.08998	1049.979	
318.15	1	.09922	1051.426	
288.15	2	.04819	1081.579	
288.15	2	.07749	1086.147	
288.15	2	.08699	1087.598	
288.15	2	.09982	1089.537	
298.15	2	.05211	1080.984	
298.15	2	.06904	1083.585	
298.15	2	.08724	1086.338	
298.15	2	.10297	1088.681	
298.15	2	.12388	1091.747	
298.15	2	.14401	1094.644	
308.15	2	.05005	1079.433	
308.15	2	.06948	1082.331	
308.15	2	.0921	1085.637	
308.15	2	.09933	1086.678	
318.15	2	.05005	1078.225	
318.15	2	.06948	1081.072	
318.15	2	.0921	1084.323	
318.15	2	.09933	1085.35	
288.15	3	.06305	1120.059	
288.15	3	.08886	1123.697	
288.15	3	.14314	1131.039	
288.15	3	.17781	1135.525	
298.15	3	.04529	1116.026	
298.15	3	.06805	1119.19	
298.15	3	.08695	1121.76	
298.15	3	.09018	1122.194	
298.15	3	.11778	1125.851	
298.15	3	.1477	1129.708	
308.15	3	.04981	1115.266	
308.15	3	.06989	1117.99	
308.15	3	.08998	1120.615	
308.15	3	.09921	1121.802	
318.15	3	.04981	1113.867	
318.15	3	.06989	1116.489	
318.15	3	.08998	1119.067	
318.15	3	.09921	1120.235	

System: .alpha.-methylglucoside + potassium chloride + water; phases: Liquid
Fixed: Pressure, kPa = 101
Property: Mass density, kg/m3 (Liquid); method: Vibrating tube method
Temperature, K	Solvent: Molality, mol/kg of potassium chloride	Molality, mol/kg of .alpha.-methylglucoside	Mass density, kg/m3	uncertainty
288.15	0	.05996	1002.813	
288.15	0	.08334	1004.222	
288.15	0	.10948	1005.779	
298.15	0	.05477	1000.355	
298.15	0	.0801	1001.868	
298.15	0	.09206	1002.573	
298.15	0	.11566	1003.612	
308.15	0	.05661	997.371	
308.15	0	.07342	998.333	
308.15	0	.09379	999.484	
308.15	0	.10974	1000.374	
318.15	0	.05661	993.553	
318.15	0	.07342	994.518	
318.15	0	.09379	995.677	
318.15	0	.10974	996.577	
288.15	.5	.0536	1023.54	
288.15	.5	.08541	1025.364	
288.15	.5	.10539	1026.497	
298.15	.5	.05373	1022.469	
298.15	.5	.07716	1023.779	
298.15	.5	.09449	1024.732	
298.15	.5	.11452	1025.827	
308.15	.5	.05136	1021.232	
308.15	.5	.07854	1022.681	
308.15	.5	.09121	1023.345	
308.15	.5	.10597	1024.107	
318.15	.5	.05136	1020.192	
318.15	.5	.07854	1021.637	
318.15	.5	.09121	1022.305	
318.15	.5	.10597	1023.078	
288.15	1	.04939	1045.038	
288.15	1	.08439	1046.932	
288.15	1	.10716	1048.149	
298.15	1	.05205	1042.763	
298.15	1	.07593	1044.025	
298.15	1	.09146	1044.841	
298.15	1	.09986	1045.279	
308.15	1	.05011	1040.179	
308.15	1	.07996	1041.693	
308.15	1	.09005	1042.2	
308.15	1	.11288	1043.332	
318.15	1	.05011	1037.806	
318.15	1	.07996	1039.307	
318.15	1	.09005	1039.811	
318.15	1	.11288	1040.945	
288.15	2	.05242	1076.41	
288.15	2	.08948	1078.233	
288.15	2	.10409	1078.942	
298.15	2	.05201	1075.259	
298.15	2	.07384	1076.299	
298.15	2	.08888	1077.044	
298.15	2	.0992	1077.502	
308.15	2	.05306	1074.187	
308.15	2	.07813	1075.331	
308.15	2	.10074	1076.348	
308.15	2	.11287	1076.889	
308.15	2	.05306	1073.051	
308.15	2	.07813	1074.171	
308.15	2	.10074	1075.174	
308.15	2	.11287	1075.708	
288.15	3	.05703	1113.138	
288.15	3	.08244	1114.57	
288.15	3	.10538	1115.602	
298.15	3	.04512	1111.51	
298.15	3	.0727	1112.685	
298.15	3	.08521	1113.204	
298.15	3	.11315	1114.371	
308.15	3	.05341	1110.565	
308.15	3	.07211	1111.291	
308.15	3	.08911	1111.94	
308.15	3	.09885	1112.35	
318.15	3	.05341	1109.283	
318.15	3	.07211	1110.019	
318.15	3	.08911	1110.683	
318.15	3	.09885	1111.105	

System: methyl-.alpha.-D-xylopyranoside + potassium chloride + water; phases: Liquid
Fixed: Pressure, kPa = 101
Property: Mass density, kg/m3 (Liquid); method: Vibrating tube method
Temperature, K	Solvent: Molality, mol/kg of potassium chloride	Molality, mol/kg of methyl-.alpha.-D-xylopyranoside	Mass density, kg/m3	uncertainty
288.15	0	.0598	1001.93	
288.15	0	.0834	1002.996	
288.15	0	.1034	1003.883	
298.15	0	.05333	999.563	
298.15	0	.08743	1001.152	
298.15	0	.11131	1002.56	
308.15	0	.05463	996.567	
308.15	0	.08134	997.793	
308.15	0	.13492	1000.226	
318.15	0	.05463	992.729	
318.15	0	.08134	993.928	
318.15	0	.13492	996.304	
288.15	.5	.0527	1022.863	
288.15	.5	.09237	1024.686	
288.15	.5	.12628	1026.228	
298.15	.5	.05302	1021.816	
298.15	.5	.08522	1023.249	
298.15	.5	.12749	1025.085	
308.15	.5	.05599	1020.885	
308.15	.5	.07587	1021.754	
308.15	.5	.10459	1022.996	
318.15	.5	.05599	1019.825	
318.15	.5	.07587	1020.67	
318.15	.5	.10459	1021.882	
288.15	1	.05517	1044.756	
288.15	1	.07201	1045.49	
288.15	1	.10346	1046.844	
298.15	1	.05287	1042.246	
298.15	1	.08213	1043.483	
298.15	1	.10017	1044.236	
308.15	1	.05425	1039.852	
308.15	1	.07419	1040.677	
308.15	1	.1151	1042.349	
318.15	1	.05425	1037.472	
318.15	1	.07419	1038.279	
318.15	1	.1151	1039.919	
288.15	2	.05287	1075.873	
288.15	2	.08119	1076.974	
288.15	2	.09922	1077.665	
298.15	2	.05395	1074.787	
298.15	2	.09391	1076.252	
298.15	2	.12163	1077.223	
308.15	2	.06329	1074.063	
308.15	2	.08172	1074.736	
308.15	2	.11618	1075.992	
318.15	2	.06329	1072.912	
318.15	2	.08172	1073.563	
318.15	2	.11618	1074.767	
288.15	3	.05345	1112.651	
288.15	3	.08241	1113.63	
288.15	3	.10535	1114.379	
298.15	3	.05207	1111.315	
298.15	3	.06469	1111.743	
298.15	3	.1376	1114.189	
308.15	3	.06338	1110.387	
308.15	3	.0703	1110.606	
308.15	3	.10152	1111.59	
318.15	3	.06338	1109.021	
318.15	3	.0703	1109.223	
318.15	3	.10152	1110.136	

System: .beta.-D-xylopyranoside, methyl + potassium chloride + water; phases: Liquid
Fixed: Pressure, kPa = 101
Property: Mass density, kg/m3 (Liquid); method: Vibrating tube method
Temperature, K	Solvent: Molality, mol/kg of potassium chloride	Molality, mol/kg of .beta.-D-xylopyranoside, methyl	Mass density, kg/m3	uncertainty
288.15	0	.05034	1001.524	
288.15	0	.08145	1002.978	
288.15	0	.1035	1004.094	
298.15	0	.05629	999.656	
298.15	0	.08183	1000.818	
298.15	0	.10319	1001.779	
308.15	0	.06009	996.72	
308.15	0	.08664	997.876	
308.15	0	.10608	998.711	
318.15	0	.06009	992.858	
318.15	0	.08664	993.985	
318.15	0	.10608	994.801	
288.15	.5	.04907	1022.697	
288.15	.5	.08118	1024.167	
288.15	.5	.0925	1024.674	
298.15	.5	.05302	1021.808	
298.15	.5	.08522	1023.233	
298.15	.5	.12749	1025.068	
308.15	.5	.06292	1021.122	
308.15	.5	.07467	1021.62	
308.15	.5	.11173	1023.171	
318.15	.5	.06292	1020.032	
318.15	.5	.07467	1020.515	
318.15	.5	.11173	1022.028	
288.15	1	.04898	1044.476	
288.15	1	.08208	1045.889	
288.15	1	.09144	1046.278	
298.15	1	.05323	1042.246	
298.15	1	.07565	1043.182	
298.15	1	.10874	1044.554	
308.15	1	.05134	1039.657	
308.15	1	.07736	1040.68	
308.15	1	.10924	1041.898	
318.15	1	.05134	1037.261	
318.15	1	.07736	1038.264	
318.15	1	.10924	1039.478	
288.15	2	.0511	1075.841	
288.15	2	.08314	1077.118	
288.15	2	.0915	1077.446	
298.15	2	.04951	1074.625	
298.15	2	.07625	1075.922	
298.15	2	.10231	1076.586	
308.15	2	.06572	1074.08	
308.15	2	.07898	1074.546	
308.15	2	.11638	1075.838	
318.15	2	.06572	1072.885	
318.15	2	.07898	1073.33	
318.15	2	.11638	1074.578	
288.15	3	.0526	1112.696	
288.15	3	.08208	1113.759	
288.15	3	.09429	1114.196	
298.15	3	.05067	1111.264	
298.15	3	.07629	1112.131	
298.15	3	.10853	1113.208	
308.15	3	.05607	1110.153	
308.15	3	.07792	1110.836	
308.15	3	.09973	1111.563	
318.15	3	.05607	1108.799	
318.15	3	.07792	1109.437	
318.15	3	.09973	1110.072	

System: D-xylose + water; phases: Liquid
Property: Mass density, kg/m3 (Liquid); method: Vibrating tube method
Temperature, K	Molality, mol/kg of D-xylose	Pressure, kPa	Mass density, kg/m3	uncertainty
288.15	.05846	101	1002.32	
288.15	.10761	101	1004.964	
288.15	.12417	101	1005.845	
288.15	.20213	101	1009.933	
298.15	.0517	101	999.853	
298.15	.07407	101	1001.058	
298.15	.09363	101	1002.105	
298.15	.12559	101	1003.809	
298.15	.20213	101	1007.841	
298.15	.31872	101	1013.858	
308.15	.05111	101	996.782	
308.15	.06715	101	997.637	
308.15	.10298	101	999.532	
308.15	.12702	101	1000.795	
318.15	.05111	101	992.974	
318.15	.06715	101	993.823	
318.15	.10298	101	995.706	
318.15	.12702	101	996.962	

System: water + D-(-)-arabinose; phases: Liquid
Property: Mass density, kg/m3 (Liquid); method: Vibrating tube method
Temperature, K	Molality, mol/kg of D-(-)-arabinose	Pressure, kPa	Mass density, kg/m3	uncertainty
288.15	.06214	101	1002.652	
288.15	.08255	101	1003.785	
288.15	.10129	101	1004.822	
288.15	.12558	101	1006.147	
298.15	.06143	101	1000.51	
298.15	.08255	101	1001.688	
298.15	.10143	101	1002.736	
298.15	.1197	101	1003.745	
308.15	.05652	101	997.182	
308.15	.07597	101	998.258	
308.15	.09059	101	999.063	
308.15	.10984	101	1000.121	
318.15	.05652	101	993.353	
318.15	.07597	101	994.413	
318.15	.09059	101	995.207	
318.15	.10984	101	996.248	

System: D-ribose + water; phases: Liquid
Property: Mass density, kg/m3 (Liquid); method: Vibrating tube method
Temperature, K	Molality, mol/kg of D-ribose	Pressure, kPa	Mass density, kg/m3	uncertainty
288.15	.0675	101	1002.838	
288.15	.11602	101	1005.454	
288.15	.12689	101	1006.034	
288.15	.1469	101	1007.098	
298.15	.06717	101	1000.679	
298.15	.08631	101	1001.68	
298.15	.10325	101	1002.56	
298.15	.1469	101	1004.792	
308.15	.07188	101	997.871	
308.15	.078	101	998.192	
308.15	.091	101	998.87	
308.15	.12204	101	1000.473	
318.15	.07188	101	994.054	
318.15	.078	101	994.376	
318.15	.091	101	995.056	
318.15	.12204	101	996.673	

System: D(+)-glucose + water; phases: Liquid
Property: Mass density, kg/m3 (Liquid); method: Vibrating tube method
Temperature, K	Molality, mol/kg of D(+)-glucose	Pressure, kPa	Mass density, kg/m3	uncertainty
288.15	.06752	101	1003.756	
288.15	.0999	101	1005.947	
288.15	.11751	101	1007.13	
288.15	.12628	101	1007.718	
298.15	.05216	101	1000.594	
298.15	.06971	101	1001.78	
298.15	.09465	101	1003.454	
298.15	.2025	101	1012.761	
298.15	.52064	101	1030.688	
298.15	1.03236	101	1060.287	
308.15	.04222	101	996.873	
308.15	.05541	101	997.754	
308.15	.07127	101	998.81	
308.15	.08285	101	999.579	
318.15	.04222	101	992.935	
318.15	.05541	101	993.931	
318.15	.07127	101	994.977	
318.15	.08285	101	995.737	

System: D-mannose + water; phases: Liquid
Property: Mass density, kg/m3 (Liquid); method: Vibrating tube method
Temperature, K	Molality, mol/kg of D-mannose	Pressure, kPa	Mass density, kg/m3	uncertainty
288.15	.05041	101	1002.581	
288.15	.06931	101	1003.861	
288.15	.11633	101	1006.999	
288.15	.1395	101	1008.525	
298.15	.05052	101	1000.489	
298.15	.07464	101	1002.116	
298.15	.0912	101	1003.226	
298.15	.16804	101	1008.311	
308.15	.05039	101	997.436	
308.15	.06974	101	998.729	
308.15	.08981	101	1000.059	
308.15	.10254	101	1000.899	
318.15	.05039	101	993.629	
318.15	.06974	101	994.916	
318.15	.08981	101	996.244	
318.15	.10254	101	997.083	

System: D-fructose + water; phases: Liquid
Property: Mass density, kg/m3 (Liquid); method: Vibrating tube method
Temperature, K	Molality, mol/kg of D-fructose	Pressure, kPa	Mass density, kg/m3	uncertainty
288.15	.05028	101	1002.618	
288.15	.0704	101	1003.998	
288.15	.12256	101	1007.529	
288.15	.14059	101	1008.733	
298.15	.06666	101	1001.622	
298.15	.07739	101	1002.349	
298.15	.10125	101	1003.959	
298.15	.15269	101	1007.405	
298.15	.21591	101	1011.576	
298.15	.30319	101	1017.225	
298.15	.41617	101	1024.363	
308.15	.05928	101	998.043	
308.15	.07049	101	998.793	
308.15	.0897	101	1000.071	
308.15	.0999	101	1000.747	
318.15	.05928	101	994.222	
318.15	.07049	101	994.967	
318.15	.0897	101	996.239	
318.15	.0999	101	996.911	

System: D-galactose + water; phases: Liquid
Property: Mass density, kg/m3 (Liquid); method: Vibrating tube method
Temperature, K	Molality, mol/kg of D-galactose	Pressure, kPa	Mass density, kg/m3	uncertainty
288.15	.04966	101	1002.591	
288.15	.06527	101	1003.656	
288.15	.10489	101	1006.326	
288.15	.12745	101	1007.814	
298.15	.04635	101	1000.262	
298.15	.07252	101	1002.053	
298.15	.09623	101	1003.651	
298.15	.10932	101	1004.539	
298.15	.12741	101	1005.753	
308.15	.04966	101	997.462	
308.15	.07038	101	998.879	
308.15	.08742	101	1000.036	
308.15	.09949	101	1000.853	
318.15	.04966	101	993.607	
318.15	.07038	101	994.979	
318.15	.08742	101	996.094	
318.15	.09949	101	996.878	

System: melibiose + water; phases: Liquid
Property: Mass density, kg/m3 (Liquid); method: Vibrating tube method
Temperature, K	Molality, mol/kg of melibiose	Pressure, kPa	Mass density, kg/m3	uncertainty
288.15	.05535	101	1006.181	
288.15	.06978	101	1007.988	
288.15	.08621	101	1010.021	
288.15	.10496	101	1012.321	
298.15	.05291	101	1003.752	
298.15	.07516	101	1006.52	
298.15	.09854	101	1009.396	
298.15	.10798	101	1010.548	
308.15	.05083	101	1000.427	
308.15	.06978	101	1002.772	
308.15	.09012	101	1005.266	
308.15	.10034	101	1006.51	
318.15	.05083	101	996.594	
318.15	.06978	101	998.923	
318.15	.09012	101	1001.4	
318.15	.10034	101	1002.636	

System: cellose + water; phases: Liquid
Property: Mass density, kg/m3 (Liquid); method: Vibrating tube method
Temperature, K	Molality, mol/kg of cellose	Pressure, kPa	Mass density, kg/m3	uncertainty
288.15	.05044	101	1005.71	
288.15	.08235	101	1009.777	
288.15	.10392	101	1012.491	
288.15	.2052	101	1024.827	
298.15	.04992	101	1003.512	
298.15	.06915	101	1005.962	
298.15	.12805	101	1013.311	
298.15	.20062	101	1022.053	
308.15	.04996	101	1000.475	
308.15	.06745	101	1002.697	
308.15	.08825	101	1005.318	
308.15	.09991	101	1006.777	
318.15	.04996	101	996.647	
318.15	.06745	101	998.856	
318.15	.08825	101	1001.46	
318.15	.0999	101	1002.91	

System: water + D-(+)-maltose monohydrate; phases: Liquid
Property: Mass density, kg/m3 (Liquid); method: Vibrating tube method
Temperature, K	Molality, mol/kg of D-(+)-maltose monohydrate	Pressure, kPa	Mass density, kg/m3	uncertainty
288.15	.05763	101	1006.737	
288.15	.08077	101	1009.733	
288.15	.09616	101	1011.709	
288.15	.10314	101	1012.598	
298.15	.0528	101	1003.955	
298.15	.08077	101	1007.546	
298.15	.11672	101	1012.092	
298.15	.2052	101	1022.968	
298.15	.50914	101	1057.205	
298.15	.63571	101	1070.166	
298.15	1.02496	101	1106.001	
308.15	.05061	101	1000.591	
308.15	.0703	101	1003.1	
308.15	.08856	101	1005.406	
308.15	.09992	101	1006.831	
318.15	.05061	101	996.743	
318.15	.0703	101	999.229	
318.15	.08856	101	1001.514	
318.15	.09992	101	1002.925	

System: saccharose + water; phases: Liquid
Property: Mass density, kg/m3 (Liquid); method: Vibrating tube method
Temperature, K	Molality, mol/kg of saccharose	Pressure, kPa	Mass density, kg/m3	uncertainty
288.15	.05376	101	1006.095	
288.15	.06894	101	1008.022	
288.15	.08615	101	1010.19	
288.15	.10792	101	1012.904	
298.15	.05215	101	1003.775	
298.15	.06894	101	1005.908	
298.15	.09607	101	1009.319	
298.15	.10246	101	1010.113	
298.15	.20345	101	1022.405	
298.15	.33635	101	1037.715	
308.15	.04911	101	1000.595	
308.15	.06922	101	1003.242	
308.15	.08715	101	1005.583	
308.15	.09835	101	1007.036	
318.15	.04911	101	996.764	
318.15	.06922	101	999.391	
318.15	.08715	101	1001.714	
318.15	.09835	101	1003.155	

System: water + D-(+)-lactose monohydrate; phases: Liquid
Property: Mass density, kg/m3 (Liquid); method: Vibrating tube method
Temperature, K	Molality, mol/kg of D-(+)-lactose monohydrate	Pressure, kPa	Mass density, kg/m3	uncertainty
288.15	.05184	101	1006.019	
288.15	.07104	101	1008.53	
288.15	.08126	101	1009.858	
288.15	.10217	101	1012.555	
298.15	.05544	101	1004.353	
298.15	.06346	101	1005.394	
298.15	.09255	101	1009.134	
298.15	.10965	101	1011.305	
298.15	.18491	101	1020.666	
298.15	.3231	101	1037.009	
308.15	.04991	101	1000.567	
308.15	.06984	101	1003.132	
308.15	.08806	101	1005.456	
308.15	.09818	101	1006.738	
318.15	.04991	101	996.739	
318.15	.06984	101	999.29	
318.15	.08806	101	1001.602	
318.15	.09818	101	1002.877	

System: trehalose, dihydrate + water; phases: Liquid
Property: Mass density, kg/m3 (Liquid); method: Vibrating tube method
Temperature, K	Molality, mol/kg of trehalose, dihydrate	Pressure, kPa	Mass density, kg/m3	uncertainty
288.15	.05462	101	1006.457	
288.15	.0888	101	1010.927	
288.15	.09465	101	1011.684	
288.15	.10111	101	1012.516	
298.15	.04625	101	1003.214	
298.15	.0746	101	1006.921	
298.15	.10394	101	1010.7	
298.15	.12787	101	1013.736	
308.15	.05063	101	1000.717	
308.15	.06941	101	1003.149	
308.15	.08942	101	1005.72	
308.15	.0986	101	1006.889	
318.15	.05063	101	996.875	
318.15	.06941	101	999.292	
318.15	.08942	101	1001.843	
318.15	.0986	101	1003.005	

System: D-raffinose pentahydrate + water; phases: Liquid
Property: Mass density, kg/m3 (Liquid); method: Vibrating tube method
Temperature, K	Molality, mol/kg of D-raffinose pentahydrate	Pressure, kPa	Mass density, kg/m3	uncertainty
288.15	.05827	101	1010.471	
288.15	.08728	101	1015.924	
288.15	.10798	101	1019.747	
288.15	.19256	101	1034.717	
298.15	.05207	101	1007.741	
298.15	.07104	101	1010.713	
298.15	.09143	101	1014.492	
298.15	.10504	101	1016.977	
298.15	.12531	101	1020.633	
298.15	.15417	101	1025.742	
308.15	.04974	101	1003.627	
308.15	.06983	101	1007.396	
308.15	.09557	101	1012.138	
308.15	.10235	101	1013.371	
318.15	.04974	101	999.805	
318.15	.06983	101	1003.555	
318.15	.09557	101	1008.268	
318.15	.10235	101	1009.493	

System: .alpha.-methylglucoside + water; phases: Liquid
Property: Mass density, kg/m3 (Liquid); method: Vibrating tube method
Temperature, K	Molality, mol/kg of .alpha.-methylglucoside	Pressure, kPa	Mass density, kg/m3	uncertainty
288.15	.05996	101	1002.813	
288.15	.08334	101	1004.222	
288.15	.10948	101	1005.779	
298.15	.05477	101	1000.355	
298.15	.0801	101	1001.868	
298.15	.09206	101	1002.573	
298.15	.11566	101	1003.612	
308.15	.05661	101	997.371	
308.15	.07342	101	998.333	
308.15	.09379	101	999.484	
308.15	.10974	101	1000.374	
318.15	.05661	101	993.553	
318.15	.07342	101	994.518	
318.15	.09379	101	995.677	
318.15	.10974	101	996.577	

System: methyl-.alpha.-D-xylopyranoside + water; phases: Liquid
Property: Mass density, kg/m3 (Liquid); method: Vibrating tube method
Temperature, K	Molality, mol/kg of methyl-.alpha.-D-xylopyranoside	Pressure, kPa	Mass density, kg/m3	uncertainty
288.15	.0598	101	1001.93	
288.15	.0834	101	1002.996	
288.15	.1034	101	1003.883	
298.15	.05333	101	999.563	
298.15	.08743	101	1001.152	
298.15	.11131	101	1002.56	
308.15	.05463	101	996.567	
308.15	.08134	101	997.793	
308.15	.13492	101	1000.226	
318.15	.05463	101	992.729	
318.15	.08134	101	993.928	
318.15	.13492	101	996.304	

System: .beta.-D-xylopyranoside, methyl + water; phases: Liquid
Property: Mass density, kg/m3 (Liquid); method: Vibrating tube method
Temperature, K	Molality, mol/kg of .beta.-D-xylopyranoside, methyl	Pressure, kPa	Mass density, kg/m3	uncertainty
288.15	.05034	101	1001.524	
288.15	.08145	101	1002.978	
288.15	.1035	101	1004.094	
298.15	.05629	101	999.656	
298.15	.08183	101	1000.818	
298.15	.10319	101	1001.779	
308.15	.06009	101	996.72	
308.15	.08664	101	997.876	
308.15	.10608	101	998.711	
318.15	.06009	101	992.858	
318.15	.08664	101	993.985	
318.15	.10608	101	994.801	
