Measured thermophysical data. Excess molar volumes and ultrasonic studies of N-methyl-2-pyrrolidone  with ketones at T = 303.15 K
Source: J. Chem. Thermodyn., 2009, 10.1016/j.jct.2009.01.006
Compound 1: N-methyl-2-pyrrolidone, C5H9NO, purity 99%
Compound 2: butanone, C4H8O, purity 99%
Compound 3: 3-pentanone, C5H10O, purity 99%
Compound 4: 2-pentanone, C5H10O, purity 99%
Compound 5: 4-methyl-2-pentanone, C6H12O, purity 99%
Compound 6: cyclohexanone, C6H10O, purity 99%

System: N-methyl-2-pyrrolidone; phases: Crystal
Fixed: Pressure, kPa = 101.325
Property: Mass density, kg/m3 (Crystal); method: Other
Temperature, K	Mass density, kg/m3	uncertainty
303.15	1023.4	

System: N-methyl-2-pyrrolidone; phases: Liquid
Fixed: Pressure, kPa = 101.325
Property: Refractive index (Na D-line) (Liquid); method: Standard Abbe refractometry
Temperature, K	Refractive index (Na D-line)	uncertainty
298.15	1.4674	.0002

System: N-methyl-2-pyrrolidone; phases: Liquid
Fixed: Pressure, kPa = 101.325
Property: Speed of sound, m/s (Liquid); method: Linear variable-path acoustic interferometer
Temperature, K	Speed of sound, m/s	uncertainty
303.15	1552	.3104

System: N-methyl-2-pyrrolidone; phases: Liquid
Property: Mass density, kg/m3 (Liquid); method: Other
Pressure, kPa	Temperature, K	Mass density, kg/m3	uncertainty
101	303.15	1023.4	

System: butanone; phases: Liquid
Fixed: Pressure, kPa = 101.325
Property: Mass density, kg/m3 (Liquid); method: Other
Temperature, K	Mass density, kg/m3	uncertainty
303.15	794.5	

System: butanone; phases: Liquid
Fixed: Pressure, kPa = 101.325
Property: Refractive index (Na D-line) (Liquid); method: Standard Abbe refractometry
Temperature, K	Refractive index (Na D-line)	uncertainty
298.15	1.377	.0002

System: butanone; phases: Liquid
Fixed: Pressure, kPa = 101.325
Property: Speed of sound, m/s (Liquid); method: Linear variable-path acoustic interferometer
Temperature, K	Speed of sound, m/s	uncertainty
303.15	1168	.2336

System: butanone; phases: Liquid
Property: Mass density, kg/m3 (Liquid); method: Other
Pressure, kPa	Temperature, K	Mass density, kg/m3	uncertainty
101	303.15	794.51	

System: butanone; phases: Liquid
Property: Speed of sound, m/s (Liquid); method: Linear variable-path acoustic interferometer
Temperature, K	Pressure, kPa	Speed of sound, m/s	uncertainty
303.15	101	1167	.2334

System: 3-pentanone; phases: Liquid
Fixed: Pressure, kPa = 101.325
Property: Mass density, kg/m3 (Liquid); method: Other
Temperature, K	Mass density, kg/m3	uncertainty
303.15	804.62	

System: 3-pentanone; phases: Liquid
Fixed: Pressure, kPa = 101.325
Property: Refractive index (Na D-line) (Liquid); method: Standard Abbe refractometry
Temperature, K	Refractive index (Na D-line)	uncertainty
298.15	1.3902	.0002

System: 3-pentanone; phases: Liquid
Fixed: Pressure, kPa = 101.325
Property: Speed of sound, m/s (Liquid); method: Linear variable-path acoustic interferometer
Temperature, K	Speed of sound, m/s	uncertainty
303.15	1201	.2402

System: 3-pentanone; phases: Liquid
Property: Mass density, kg/m3 (Liquid); method: Other
Pressure, kPa	Temperature, K	Mass density, kg/m3	uncertainty
101	303.15	804.57	

System: 3-pentanone; phases: Liquid
Property: Speed of sound, m/s (Liquid); method: Linear variable-path acoustic interferometer
Temperature, K	Pressure, kPa	Speed of sound, m/s	uncertainty
303.15	101	1198	.2396

System: 2-pentanone; phases: Liquid
Fixed: Pressure, kPa = 101.325
Property: Mass density, kg/m3 (Liquid); method: Other
Temperature, K	Mass density, kg/m3	uncertainty
303.15	796.58	

System: 2-pentanone; phases: Liquid
Fixed: Pressure, kPa = 101.325
Property: Refractive index (Na D-line) (Liquid); method: Standard Abbe refractometry
Temperature, K	Refractive index (Na D-line)	uncertainty
298.15	1.3883	.0002

System: 2-pentanone; phases: Liquid
Fixed: Pressure, kPa = 101.325
Property: Speed of sound, m/s (Liquid); method: Linear variable-path acoustic interferometer
Temperature, K	Speed of sound, m/s	uncertainty
303.15	1197	.2394

System: 2-pentanone; phases: Liquid
Property: Mass density, kg/m3 (Liquid); method: Other
Pressure, kPa	Temperature, K	Mass density, kg/m3	uncertainty
101	303.15	796.54	

System: 2-pentanone; phases: Liquid
Property: Speed of sound, m/s (Liquid); method: Linear variable-path acoustic interferometer
Temperature, K	Pressure, kPa	Speed of sound, m/s	uncertainty
303.15	101	1202	.2404

System: 4-methyl-2-pentanone; phases: Liquid
Fixed: Pressure, kPa = 101.325
Property: Mass density, kg/m3 (Liquid); method: Other
Temperature, K	Mass density, kg/m3	uncertainty
303.15	791.25	

System: 4-methyl-2-pentanone; phases: Liquid
Fixed: Pressure, kPa = 101.325
Property: Refractive index (Na D-line) (Liquid); method: Standard Abbe refractometry
Temperature, K	Refractive index (Na D-line)	uncertainty
298.15	1.3935	.0002

System: 4-methyl-2-pentanone; phases: Liquid
Fixed: Pressure, kPa = 101.325
Property: Speed of sound, m/s (Liquid); method: Linear variable-path acoustic interferometer
Temperature, K	Speed of sound, m/s	uncertainty
303.15	1172	.2344

System: 4-methyl-2-pentanone; phases: Liquid
Property: Mass density, kg/m3 (Liquid); method: Other
Pressure, kPa	Temperature, K	Mass density, kg/m3	uncertainty
101	303.15	791.24	

System: 4-methyl-2-pentanone; phases: Liquid
Property: Speed of sound, m/s (Liquid); method: Linear variable-path acoustic interferometer
Temperature, K	Pressure, kPa	Speed of sound, m/s	uncertainty
303.15	101	1168	.2336

System: cyclohexanone; phases: Liquid
Fixed: Pressure, kPa = 101.325
Property: Mass density, kg/m3 (Liquid); method: Other
Temperature, K	Mass density, kg/m3	uncertainty
303.15	937.55	

System: cyclohexanone; phases: Liquid
Fixed: Pressure, kPa = 101.325
Property: Refractive index (Na D-line) (Liquid); method: Standard Abbe refractometry
Temperature, K	Refractive index (Na D-line)	uncertainty
298.15	1.4501	.0000029002

System: cyclohexanone; phases: Liquid
Fixed: Pressure, kPa = 101.325
Property: Speed of sound, m/s (Liquid); method: Linear variable-path acoustic interferometer
Temperature, K	Speed of sound, m/s	uncertainty
303.15	1385	.277

System: cyclohexanone; phases: Liquid
Property: Mass density, kg/m3 (Liquid); method: Other
Pressure, kPa	Temperature, K	Mass density, kg/m3	uncertainty
101	303.15	937.58	

System: cyclohexanone; phases: Liquid
Property: Speed of sound, m/s (Liquid); method: Linear variable-path acoustic interferometer
Temperature, K	Pressure, kPa	Speed of sound, m/s	uncertainty
303.15	101	1386	.2772

System: butanone + N-methyl-2-pyrrolidone; phases: Liquid
Fixed: Temperature, K = 303.15
Fixed: Pressure, kPa = 101
Property: Excess molar volume, m3/mol (Liquid); method: Direct dilatometry
Mole fraction of N-methyl-2-pyrrolidone	Excess molar volume, m3/mol	uncertainty
.0705	-.000000071	.000000003
.1436	-.000000142	.000000003
.2097	-.000000189	.000000003
.2854	-.000000244	.000000003
.4102	-.000000293	.000000003
.5043	-.000000302	.000000003
.5795	-.000000296	.000000003
.6942	-.000000256	.000000003
.8068	-.000000189	.000000003
.9134	-.000000098	.000000003
.9545	-.000000051	.000000003

System: butanone + N-methyl-2-pyrrolidone; phases: Liquid
Fixed: Pressure, kPa = 101
Fixed: Temperature, K = 303.15
Property: Mass density, kg/m3 (Liquid); method: Other
Mole fraction of N-methyl-2-pyrrolidone	Mass density, kg/m3	uncertainty
0	794.51	
.1517	830.54	
.2207	846.76	
.2988	865.2	
.426	894.83	
.5205	916.61	
.5952	933.69	
.7078	959.14	
.8167	983.39	
.9184	1005.74	
1	1023.4	

System: butanone + N-methyl-2-pyrrolidone; phases: Liquid
Fixed: Temperature, K = 303.15
Fixed: Pressure, kPa = 101
Property: Speed of sound, m/s (Liquid); method: Linear variable-path acoustic interferometer
Volume fraction of N-methyl-2-pyrrolidone	Speed of sound, m/s	uncertainty
0	1167	.2334
.1517	1214	.2428
.2207	1245	.249
.2988	1282	.2564
.426	1345	.269
.5205	1391	.2782
.5952	1421	.2842
.7078	1456	.2912
.8167	1483	.2966
.9184	1519	.3038
1	1552	.3104

System: 3-pentanone + N-methyl-2-pyrrolidone; phases: Liquid
Fixed: Temperature, K = 303.15
Fixed: Pressure, kPa = 101
Property: Excess molar volume, m3/mol (Liquid); method: Direct dilatometry
Mole fraction of N-methyl-2-pyrrolidone	Excess molar volume, m3/mol	uncertainty
.0634	-.000000155	.000000003
.1526	-.000000289	.000000003
.2446	-.000000357	.000000003
.3948	-.000000398	.000000003
.4476	-.000000412	.000000003
.5371	-.00000042	.000000003
.591	-.000000422	.000000003
.7146	-.000000413	.000000003
.7962	-.000000345	.000000003
.9124	-.000000231	.000000003
.9626	-.000000106	.000000003

System: 3-pentanone + N-methyl-2-pyrrolidone; phases: Liquid
Fixed: Pressure, kPa = 101
Fixed: Temperature, K = 303.15
Property: Mass density, kg/m3 (Liquid); method: Other
Volume fraction of N-methyl-2-pyrrolidone	Mass density, kg/m3	uncertainty
0	804.57	
.1401	837.52	
.2265	857.08	
.3711	889.22	
.423	900.7	
.5121	920.45	
.5666	932.49	
.6937	960.46	
.79	981.3	
.904	1004.83	
1	1023.4	

System: 3-pentanone + N-methyl-2-pyrrolidone; phases: Liquid
Fixed: Temperature, K = 303.15
Fixed: Pressure, kPa = 101
Property: Speed of sound, m/s (Liquid); method: Linear variable-path acoustic interferometer
Volume fraction of N-methyl-2-pyrrolidone	Speed of sound, m/s	uncertainty
0	1198	.2396
.1401	1230	.246
.2265	1252	.2504
.3711	1297	.2594
.423	1316	.2632
.5121	1347	.2694
.5666	1365	.273
.6937	1415	.283
.79	1452	.2904
.904	1502	.3004
1	1552	.3104

System: 2-pentanone + N-methyl-2-pyrrolidone; phases: Liquid
Fixed: Temperature, K = 303.15
Fixed: Pressure, kPa = 101
Property: Excess molar volume, m3/mol (Liquid); method: Direct dilatometry
Mole fraction of N-methyl-2-pyrrolidone	Excess molar volume, m3/mol	uncertainty
.0776	-.000000111	.000000003
.1284	-.000000174	.000000003
.2108	-.000000281	.000000003
.2852	-.000000359	.000000003
.3669	-.000000439	.000000003
.4655	-.000000498	.000000003
.5205	-.000000521	.000000003
.5851	-.000000528	.000000003
.6353	-.000000529	.000000003
.7406	-.000000468	.000000003
.8612	-.000000315	.000000003
.9366	-.000000167	.000000003
.9769	-.000000076	.000000003

System: 2-pentanone + N-methyl-2-pyrrolidone; phases: Liquid
Fixed: Pressure, kPa = 101
Fixed: Temperature, K = 303.15
Property: Mass density, kg/m3 (Liquid); method: Other
Volume fraction of N-methyl-2-pyrrolidone	Mass density, kg/m3	uncertainty
0	796.54	
.1165	824.33	
.193	842.58	
.3417	877.77	
.4382	900.32	
.493	913.03	
.6094	939.74	
.7189	964.15	
.8475	991.98	
.9297	1009.18	
1	1023.4	

System: 2-pentanone + N-methyl-2-pyrrolidone; phases: Liquid
Fixed: Temperature, K = 303.15
Fixed: Pressure, kPa = 101
Property: Speed of sound, m/s (Liquid); method: Linear variable-path acoustic interferometer
Volume fraction of N-methyl-2-pyrrolidone	Speed of sound, m/s	uncertainty
0	1202	.2404
.1165	1231	.2462
.193	1254	.2508
.3417	1308	.2616
.4382	1345	.269
.493	1367	.2734
.6094	1403	.2806
.7189	1429	.2858
.8475	1467	.2934
.9297	1498	.2996
1	1552	.3104

System: 4-methyl-2-pentanone + N-methyl-2-pyrrolidone; phases: Liquid
Fixed: Temperature, K = 303.15
Fixed: Pressure, kPa = 101
Property: Excess molar volume, m3/mol (Liquid); method: Direct dilatometry
Mole fraction of N-methyl-2-pyrrolidone	Excess molar volume, m3/mol	uncertainty
.0682	-.000000109	.000000003
.1202	-.000000182	.000000003
.2327	-.000000288	.000000003
.3164	-.000000349	.000000003
.3727	-.000000378	.000000003
.4616	-.000000411	.000000003
.5111	-.000000422	.000000003
.5711	-.000000424	.000000003
.6703	-.000000415	.000000003
.7739	-.000000358	.000000003
.8589	-.000000273	.000000003
.9208	-.000000179	.000000003
.9675	-.000000093	.000000003

System: 4-methyl-2-pentanone + N-methyl-2-pyrrolidone; phases: Liquid
Fixed: Pressure, kPa = 101
Fixed: Temperature, K = 303.15
Property: Mass density, kg/m3 (Liquid); method: Other
Volume fraction of N-methyl-2-pyrrolidone	Mass density, kg/m3	uncertainty
0	791.24	
.0946	814.41	
.1879	836.88	
.2615	854.5	
.3961	886.44	
.4444	897.82	
.6087	936.2	
.7236	962.58	
.8232	985.02	
.8989	1001.74	
1	1023.4	

System: 4-methyl-2-pentanone + N-methyl-2-pyrrolidone; phases: Liquid
Fixed: Temperature, K = 303.15
Fixed: Pressure, kPa = 101
Property: Speed of sound, m/s (Liquid); method: Linear variable-path acoustic interferometer
Volume fraction of N-methyl-2-pyrrolidone	Speed of sound, m/s	uncertainty
0	1168	.2336
.0946	1198	.2396
.1879	1232	.2464
.2615	1259	.2518
.3961	1310	.262
.4444	1332	.2664
.6087	1385	.277
.7236	1422	.2844
.8232	1456	.2912
.8989	1491	.2982
1	1552	.3104

System: cyclohexanone + N-methyl-2-pyrrolidone; phases: Liquid
Fixed: Temperature, K = 303.15
Fixed: Pressure, kPa = 101
Property: Excess molar volume, m3/mol (Liquid); method: Direct dilatometry
Mole fraction of N-methyl-2-pyrrolidone	Excess molar volume, m3/mol	uncertainty
.0657	.000000027	.000000003
.1238	.000000046	.000000003
.2207	.000000071	.000000003
.3217	.00000009	.000000003
.4262	.000000113	.000000003
.5178	.000000121	.000000003
.5918	.000000118	.000000003
.7236	.000000109	.000000003
.7984	.000000094	.000000003
.9166	.000000052	.000000003
.9604	.000000032	.000000003

System: cyclohexanone + N-methyl-2-pyrrolidone; phases: Liquid
Fixed: Pressure, kPa = 101
Fixed: Temperature, K = 303.15
Property: Mass density, kg/m3 (Liquid); method: Other
Volume fraction of N-methyl-2-pyrrolidone	Mass density, kg/m3	uncertainty
0	937.58	
.1156	947.92	
.2076	954.74	
.3053	962.9	
.4073	971.45	
.4984	979.17	
.5729	985.58	
.7078	997.22	
.7856	1004.04	
.9104	1015.17	
1	1023.4	

System: cyclohexanone + N-methyl-2-pyrrolidone; phases: Liquid
Fixed: Temperature, K = 303.15
Fixed: Pressure, kPa = 101
Property: Speed of sound, m/s (Liquid); method: Linear variable-path acoustic interferometer
Volume fraction of N-methyl-2-pyrrolidone	Speed of sound, m/s	uncertainty
0	1386	.2772
.1156	1392	.2784
.2076	1402	.2804
.3053	1415	.283
.4073	1426	.2852
.4984	1438	.2876
.5729	1454	.2908
.7078	1480	.296
.7856	1496	.2992
.9104	1522	.3044
1	1552	.3104
