Measured thermophysical data. Structural and energetic characterization of anhydrous and hemihydrated 2-mercaptoimidazole: Calorimetric, X-ray diffraction, and computational studies
Source: J. Chem. Thermodyn., 2016, 10.1016/j.jct.2015.11.010
Compound 1: 2-mercaptoimidazole, C3H4N2S, purity 98.9%
Compound 2: sulfuric acid, H2O4S
Compound 3: carbon dioxide, CO2
Compound 4: nitrogen, N2
Compound 5: water, H2O
Compound 6: oxygen, O2
Compound 7: 2-mercaptoimidazole hemihydrate, C6H10N4OS2, purity 98.9%

System: 2-mercaptoimidazole; phases: Crystal
Fixed: Pressure, kPa = 101.325
Property: Mass density, kg/m3 (Crystal); method: X-ray diffraction
Temperature, K	Mass density, kg/m3	uncertainty
296	1424.1	.3

System: 2-mercaptoimidazole; phases: Crystal, Liquid, Air at 1 atmosphere
Property: Triple point temperature, K (Crystal); method: DSC
Triple point temperature, K	uncertainty
503.5	.1

System: 2-mercaptoimidazole; phases: Crystal, Liquid, Air at 1 atmosphere
Property: Molar enthalpy of transition or fusion, kJ/mol (Crystal); method: DSC
Molar enthalpy of transition or fusion, kJ/mol	uncertainty
17.4770156968	.2894142526

System: 2-mercaptoimidazole; phases: Crystal, Gas
Property: Molar enthalpy of vaporization or sublimation, kJ/mol (Crystal); method: Static calorimetry
Temperature, K	Molar enthalpy of vaporization or sublimation, kJ/mol	uncertainty
298.15	114.4	1.3

System: 2-mercaptoimidazole; phases: Crystal
Fixed: Pressure, kPa = 101.325
Property: Molar heat capacity at constant pressure, J/K/mol (Crystal); method: Small sample (50 mg) scanning calorimetry
Temperature, K	Molar heat capacity at constant pressure, J/K/mol	uncertainty
298.15	112	
303.15	112.4	
308.15	112.9	
313.15	112.6	
318.15	113.4	
323.15	114.3	
328.15	115.3	
333.15	116.5	

System: 2-mercaptoimidazole; phases: Gas
Fixed: Pressure, kPa = 101.325
Property: Molar enthalpy, kJ/mol (Gas); method: Drop calorimetry
Temperature, K	Molar enthalpy, kJ/mol	uncertainty
478.07	134.6	.45

System: 2-mercaptoimidazole hemihydrate; phases: Crystal
Fixed: Pressure, kPa = 101.325
Property: Mass density, kg/m3 (Crystal); method: X-ray diffraction
Temperature, K	Mass density, kg/m3	uncertainty
150	1489.4	.1

Reaction: -1 2-mercaptoimidazole + 1 sulfuric acid + 3 carbon dioxide + 1 nitrogen + 1 water + -5.5 oxygen
Property: Specific internal energy of reaction at constant volume, J/g
-23974.92

Reaction: 2 2-mercaptoimidazole + -1 2-mercaptoimidazole hemihydrate + 1 water
Property: Molar enthalpy of reaction, kJ/mol
75.2

Reaction: 2 2-mercaptoimidazole + -1 2-mercaptoimidazole hemihydrate + 1 water
Property: Molar enthalpy of reaction, kJ/mol
77.4
