Measured thermophysical data. Physicochemical properties of {1-methyl piperazine (1) + water (2)} system at T = (298.15 to 343.15) K and atmospheric pressure
Source: J. Chem. Thermodyn., 2011, 10.1016/j.jct.2011.06.020
Compound 1: piperazine, N-methyl-, C5H12N2, purity 99%
Compound 2: water, H2O, purity 99.8%

System: piperazine, N-methyl- + water; phases: Liquid
Fixed: Pressure, kPa = 101
Property: Mass density, kg/m3 (Liquid); method: Vibrating tube method
Temperature, K	Mole fraction of piperazine, N-methyl-	Mass density, kg/m3	uncertainty
298.15	0	997.06	.01
298.15	.0521	1001.67	.01
298.15	.0725	1005.26	.01
298.15	.1039	1009.54	.01
298.15	.2091	1001.33	.01
298.15	.3101	981.31	.01
298.15	.4096	962.21	.01
298.15	.5109	946.41	.01
298.15	.608	933.25	.01
298.15	.7065	922.31	.01
298.15	.8069	913.72	.01
298.15	.8819	906.76	.01
298.15	1	898.81	.01
303.15	0	995.65	.01
303.15	.0521	999.31	.01
303.15	.0725	1002.36	.01
303.15	.1039	1005.87	.01
303.15	.2091	996.94	.01
303.15	.3101	976.94	.01
303.15	.4096	957.88	.01
303.15	.5109	942.03	.01
303.15	.608	928.88	.01
303.15	.7065	917.92	.01
303.15	.8069	909.33	.01
303.15	.8819	902.37	.01
303.15	1	894.43	.01
313.15	0	992.21	.01
313.15	.0521	994.17	.01
313.15	.0725	996.21	.01
313.15	.1039	998.34	.01
313.15	.2091	988.01	.01
313.15	.3101	968.03	.01
313.15	.4096	949.09	.01
313.15	.5109	933.18	.01
313.15	.608	920.04	.01
313.15	.7065	909.07	.01
313.15	.8069	900.47	.01
313.15	.8819	893.54	.01
313.15	1	885.62	.01
325.15	0	988.03	.01
325.15	.0521	988.47	.01
325.15	.0725	989.64	.01
325.15	.1039	990.55	.01
325.15	.2091	978.98	.01
325.15	.3101	958.91	.01
325.15	.4096	940.1	.01
325.15	.5109	924.16	.01
325.15	.608	911.05	.01
325.15	.7065	900.09	.01
325.15	.8069	891.49	.01
325.15	.8819	884.6	.01
325.15	1	876.71	.01
333.15	0	983.2	.01
333.15	.0521	982.25	.01
333.15	.0725	982.66	.01
333.15	.1039	982.5	.01
333.15	.2091	969.64	.01
333.15	.3101	949.58	.01
333.15	.4096	930.91	.01
333.15	.5109	914.98	.01
333.15	.608	901.91	.01
333.15	.7065	891	.01
333.15	.8069	882.42	.01
333.15	.8819	875.57	.01
333.15	1	867.73	.01
343.15	0	977.78	.01
343.15	.0521	975.55	.01
343.15	.0725	975.29	.01
343.15	.1039	974.18	.01
343.15	.2091	960.1	.01
343.15	.3101	940.04	.01
343.15	.4096	921.51	.01
343.15	.5109	905.65	.01
343.15	.608	892.65	.01
343.15	.7065	881.79	.01
343.15	.8069	873.22	.01
343.15	.8819	866.45	.01
343.15	1	858.66	.01

System: piperazine, N-methyl- + water; phases: Liquid
Fixed: Pressure, kPa = 101
Property: Viscosity, Pa*s (Liquid); method: Capillary tube (Ostwald; Ubbelohde) method
Temperature, K	Mole fraction of piperazine, N-methyl-	Viscosity, Pa*s	uncertainty
298.15	0	.000894	.00000894
298.15	.0521	.003324	.00003324
298.15	.0725	.005564	.00005564
298.15	.1039	.010755	.00010755
298.15	.2091	.035237	.00035237
298.15	.3101	.036415	.00036415
298.15	.4096	.023483	.00023483
298.15	.5109	.013362	.00013362
298.15	.608	.007957	.00007957
298.15	.7065	.004893	.00004893
298.15	.8069	.003383	.00003383
298.15	.8819	.002552	.00002552
298.15	1	.00187	.0000187
303.15	0	.0008	.000008
303.15	.0521	.002752	.00002752
303.15	.0725	.00448	.0000448
303.15	.1039	.008223	.00008223
303.15	.2091	.025014	.00025014
303.15	.3101	.025744	.00025744
303.15	.4096	.017123	.00017123
303.15	.5109	.010168	.00010168
303.15	.608	.006246	.00006246
303.15	.7065	.004048	.00004048
303.15	.8069	.002835	.00002835
303.15	.8819	.002188	.00002188
303.15	1	.001618	.00001618
313.15	0	.000656	.00000656
313.15	.0521	.001987	.00001987
313.15	.0725	.003048	.00003048
313.15	.1039	.005183	.00005183
313.15	.2091	.013659	.00013659
313.15	.3101	.01397	.0001397
313.15	.4096	.009817	.00009817
313.15	.5109	.00625	.0000625
313.15	.608	.004118	.00004118
313.15	.7065	.002846	.00002846
313.15	.8069	.002091	.00002091
313.15	.8819	.001673	.00001673
313.15	1	.001302	.00001302
325.15	0	.00055	.0000055
325.15	.0521	.0015	.000015
325.15	.0725	.002188	.00002188
325.15	.1039	.003509	.00003509
325.15	.2091	.008128	.00008128
325.15	.3101	.008263	.00008263
325.15	.4096	.006058	.00006058
325.15	.5109	.004171	.00004171
325.15	.608	.002876	.00002876
325.15	.7065	.002076	.00002076
325.15	.8069	.001607	.00001607
325.15	.8819	.001324	.00001324
325.15	1	.001065	.00001065
333.15	0	.00047	.0000047
333.15	.0521	.00118	.0000118
333.15	.0725	.001651	.00001651
333.15	.1039	.002474	.00002474
333.15	.2091	.005188	.00005188
333.15	.3101	.005244	.00005244
333.15	.4096	.004021	.00004021
333.15	.5109	.002894	.00002894
333.15	.608	.002109	.00002109
333.15	.7065	.001592	.00001592
333.15	.8069	.001277	.00001277
333.15	.8819	.00109	.0000109
333.15	1	.0009	.000009
343.15	0	.000409	.00000409
343.15	.0521	.000942	.00000942
343.15	.0725	.001281	.00001281
343.15	.1039	.001827	.00001827
343.15	.2091	.003514	.00003514
343.15	.3101	.00354	.0000354
343.15	.4096	.00281	.0000281
343.15	.5109	.00212	.0000212
343.15	.608	.001607	.00001607
343.15	.7065	.001264	.00001264
343.15	.8069	.001074	.00001074
343.15	.8819	.000906	.00000906
343.15	1	.000768	.00000768

System: piperazine, N-methyl- + water; phases: Liquid
Fixed: Pressure, kPa = 101
Property: Refractive index (Na D-line) (Liquid); method: Standard Abbe refractometry
Temperature, K	Mole fraction of piperazine, N-methyl-	Refractive index (Na D-line)	uncertainty
293.15	0	1.333	.0001
293.15	.0521	1.374	.0001
293.15	.0725	1.389	.0001
293.15	.1039	1.406	.0001
293.15	.2091	1.44	.0001
293.15	.3101	1.453	.0001
293.15	.4096	1.459	.0001
293.15	.5109	1.462	.0001
293.15	.608	1.464	.0001
293.15	.7065	1.465	.0001
293.15	.8069	1.466	.0001
293.15	.8819	1.466	.0001
293.15	1	1.466	.0001
298.15	0	1.333	.0001
298.15	.0521	1.373	.0001
298.15	.0725	1.388	.0001
298.15	.1039	1.405	.0001
298.15	.2091	1.438	.0001
298.15	.3101	1.451	.0001
298.15	.4096	1.457	.0001
298.15	.5109	1.46	.0001
298.15	.608	1.462	.0001
298.15	.7065	1.463	.0001
298.15	.8069	1.463	.0001
298.15	.8819	1.464	.0001
298.15	1	1.464	.0001
303.15	0	1.332	.0001
303.15	.0521	1.373	.0001
303.15	.0725	1.387	.0001
303.15	.1039	1.403	.0001
303.15	.2091	1.436	.0001
303.15	.3101	1.449	.0001
303.15	.4096	1.455	.0001
303.15	.5109	1.458	.0001
303.15	.608	1.46	.0001
303.15	.7065	1.461	.0001
303.15	.8069	1.461	.0001
303.15	.8819	1.461	.0001
303.15	1	1.461	.0001
308.15	0	1.331	.0001
308.15	.0521	1.372	.0001
308.15	.0725	1.386	.0001
308.15	.1039	1.402	.0001
308.15	.2091	1.434	.0001
308.15	.3101	1.447	.0001
308.15	.4096	1.453	.0001
308.15	.5109	1.456	.0001
308.15	.608	1.457	.0001
308.15	.7065	1.458	.0001
308.15	.8069	1.459	.0001
308.15	.8819	1.459	.0001
308.15	1	1.459	.0001
313.15	0	1.331	.0001
313.15	.0521	1.371	.0001
313.15	.0725	1.384	.0001
313.15	.1039	1.401	.0001
313.15	.2091	1.432	.0001
313.15	.3101	1.445	.0001
313.15	.4096	1.451	.0001
313.15	.5109	1.454	.0001
313.15	.608	1.455	.0001
313.15	.7065	1.456	.0001
313.15	.8069	1.456	.0001
313.15	.8819	1.457	.0001
313.15	1	1.457	.0001
318.15	0	1.331	.0001
318.15	.0521	1.371	.0001
318.15	.0725	1.384	.0001
318.15	.1039	1.401	.0001
318.15	.2091	1.432	.0001
318.15	.3101	1.445	.0001
318.15	.4096	1.451	.0001
318.15	.5109	1.454	.0001
318.15	.608	1.455	.0001
318.15	.7065	1.456	.0001
318.15	.8069	1.456	.0001
318.15	.8819	1.457	.0001
318.15	1	1.457	.0001
323.15	0	1.329	.0001
323.15	.0521	1.369	.0001
323.15	.0725	1.382	.0001
323.15	.1039	1.397	.0001
323.15	.2091	1.428	.0001
323.15	.3101	1.441	.0001
323.15	.4096	1.446	.0001
323.15	.5109	1.449	.0001
323.15	.608	1.451	.0001
323.15	.7065	1.451	.0001
323.15	.8069	1.452	.0001
323.15	.8819	1.452	.0001
323.15	1	1.452	.0001
328.15	0	1.328	.0001
328.15	.0521	1.368	.0001
328.15	.0725	1.381	.0001
328.15	.1039	1.396	.0001
328.15	.2091	1.427	.0001
328.15	.3101	1.439	.0001
328.15	.4096	1.444	.0001
328.15	.5109	1.447	.0001
328.15	.608	1.448	.0001
328.15	.7065	1.449	.0001
328.15	.8069	1.449	.0001
328.15	.8819	1.449	.0001
328.15	1	1.449	.0001
333.15	0	1.327	.0001
333.15	.0521	1.366	.0001
333.15	.0725	1.379	.0001
333.15	.1039	1.396	.0001
333.15	.2091	1.425	.0001
333.15	.3101	1.437	.0001
333.15	.4096	1.442	.0001
333.15	.5109	1.445	.0001
333.15	.608	1.446	.0001
333.15	.7065	1.447	.0001
333.15	.8069	1.447	.0001
333.15	.8819	1.447	.0001
333.15	1	1.447	.0001

System: piperazine, N-methyl- + water; phases: Liquid, Gas
Property: Surface tension liquid-gas, N/m (Liquid); method: Tensiometer with plate
Temperature, K	Mole fraction of piperazine, N-methyl-	Surface tension liquid-gas, N/m	uncertainty
293.15	0	.07209	.00005
293.15	.1	.04764	.00005
293.15	.1998	.0434	.00005
293.15	.2994	.03868	.00005
293.15	.4073	.03589	.00005
293.15	.4983	.03437	.00005
293.15	.5934	.03318	.00005
293.15	.6979	.03235	.00005
293.15	.7994	.03168	.00005
293.15	.8978	.03115	.00005
293.15	1	.03065	.00005
303.15	0	.07127	.00005
303.15	.1	.04673	.00005
303.15	.1998	.0421	.00005
303.15	.2994	.03807	.00005
303.15	.4073	.03525	.00005
303.15	.4983	.03382	.00005
303.15	.5934	.03273	.00005
303.15	.6979	.03178	.00005
303.15	.7994	.03116	.00005
303.15	.8978	.0307	.00005
303.15	1	.03034	.00005
308.15	0	.07044	.00005
308.15	.1	.04572	.00005
308.15	.1998	.04074	.00005
308.15	.2994	.03757	.00005
308.15	.4073	.03471	.00005
308.15	.4983	.03332	.00005
308.15	.5934	.03206	.00005
308.15	.6979	.03125	.00005
308.15	.7994	.0308	.00005
308.15	.8978	.0302	.00005
308.15	1	.02986	.00005
313.15	0	.06966	.00005
313.15	.1	.0444	.00005
313.15	.1998	.03961	.00005
313.15	.2994	.03637	.00005
313.15	.4073	.03403	.00005
313.15	.4983	.03266	.00005
313.15	.5934	.03158	.00005
313.15	.6979	.03076	.00005
313.15	.7994	.0304	.00005
313.15	.8978	.02971	.00005
313.15	1	.02923	.00005
318.15	0	.06883	.00005
318.15	.1	.04302	.00005
318.15	.1998	.03831	.00005
318.15	.2994	.03573	.00005
318.15	.4073	.03343	.00005
318.15	.4983	.03208	.00005
318.15	.5934	.03099	.00005
318.15	.6979	.03023	.00005
318.15	.7994	.02983	.00005
318.15	.8978	.02914	.00005
318.15	1	.02878	.00005
323.15	0	.06795	.00005
323.15	.1	.04172	.00005
323.15	.1998	.03783	.00005
323.15	.2994	.03487	.00005
323.15	.4073	.03292	.00005
323.15	.4983	.03167	.00005
323.15	.5934	.03057	.00005
323.15	.6979	.02967	.00005
323.15	.7994	.02924	.00005
323.15	.8978	.02853	.00005
323.15	1	.02811	.00005
333.15	0	.06623	.00005
333.15	.1	.03998	.00005
333.15	.1998	.03647	.00005
333.15	.2994	.03361	.00005
333.15	.4073	.03168	.00005
333.15	.4983	.03032	.00005
333.15	.5934	.02976	.00005
333.15	.6979	.02876	.00005
333.15	.7994	.02793	.00005
333.15	.8978	.0277	.00005
333.15	1	.02717	.00005
