Measured thermophysical data. Determination and modeling for the solubility of Na2WO4*2H2O and Na2MoO4*2H2O in the (Na(+) + MoO4(-2) +WO4(-2)  + SO4(-2)  + H2O) system
Source: J. Chem. Thermodyn., 2016, 10.1016/j.jct.2016.01.015
Compound 1: disodium tungstate, Na2O4W, purity 99%
Compound 2: sodium sulfate, Na2O4S, purity 99.5%
Compound 3: water, H2O, purity 99.9%

System: water + sodium sulfate + disodium tungstate; phases: Liquid, Crystal of intercomponent compound 1
Fixed: Pressure, kPa = 100
Property: Molality, mol/kg of disodium tungstate (Liquid); method: Inductively coupled plasma-optical emission spectrometer
Temperature, K	Molality, mol/kg of sodium sulfate	Molality, mol/kg of disodium tungstate	uncertainty
293.15	.0913	2.4045	
293.15	.1831	2.3492	
293.15	.275	2.319	
293.15	.3675	2.2581	
293.15	.4603	2.2056	
293.15	.5532	2.1677	
293.15	.6458	2.1514	
293.15	.7393	2.1044	
293.15	.8333	2.0552	
293.15	.9275	2.0124	
303.15	.0911	2.458	
303.15	.1826	2.409	
303.15	.2744	2.3665	
303.15	.3669	2.3005	
303.15	.4593	2.2614	
303.15	.5521	2.2161	
303.15	.6445	2.2026	
303.15	.7378	2.1568	
303.15	.8314	2.1149	
303.15	.9257	2.0609	
313.15	.0909	2.5254	
313.15	.1822	2.473	
313.15	.2738	2.4311	
313.15	.366	2.359	
313.15	.4582	2.3261	
313.15	.5506	2.284	
313.15	.6433	2.2485	
313.15	.7361	2.2165	
313.15	.8295	2.1748	
313.15	.9234	2.1249	
323.15	.0907	2.5943	
323.15	.1817	2.5393	
323.15	.273	2.5026	
323.15	.3649	2.4335	
323.15	.457	2.3917	
323.15	.5492	2.35	
323.15	.6415	2.3196	
323.15	.7341	2.2853	
323.15	.827	2.2511	
323.15	.9207	2.2004	
333.15	.0904	2.6696	
333.15	.1811	2.6184	
333.15	.2721	2.5813	
333.15	.3637	2.5179	
333.15	.4557	2.4636	
333.15	.5474	2.4338	
333.15	.6396	2.3956	
333.15	.7316	2.374	
333.15	.8242	2.3367	
333.15	.9175	2.291	
343.15	.0902	2.7155	
343.15	.1806	2.6973	
343.15	.2713	2.6561	
343.15	.3624	2.608	
343.15	.4542	2.5486	
343.15	.5454	2.5234	
343.15	.6373	2.485	
343.15	.7289	2.4668	
343.15	.821	2.4349	
343.15	.9139	2.39	
293.15	0	2.4812	
303.15	0	2.5344	
313.15	0	2.5891	
323.15	0	2.6612	
333.15	0	2.7531	
343.15	0	2.8296	

System: water + disodium tungstate; phases: Liquid, Crystal of intercomponent compound 1
Fixed: Pressure, kPa = 100
Property: Molality, mol/kg of disodium tungstate (Liquid); method: Inductively coupled plasma-optical emission spectrometer
Temperature, K	Molality, mol/kg of disodium tungstate	uncertainty
293.15	2.4812	
303.15	2.5344	
313.15	2.5891	
323.15	2.6612	
333.15	2.7531	
343.15	2.8296	
