Measured thermophysical data. Mutual diffusion coefficients of aqueous solutions of some glycols
Source: Fluid Phase Equilib., 2009, 10.1016/j.jct.2009.07.002
Compound 1: 1,2-ethanediol, C2H6O2
Compound 2: 3-oxa-1,5-pentanediol, C4H10O3
Compound 3: 3,6-dioxa-1,8-octanediol, C6H14O4
Compound 4: 3,6,9-trioxa-1,11-undecanediol, C8H18O5
Compound 5: water, H2O

System: 1,2-ethanediol + water; phases: Liquid
Fixed: Pressure, kPa = 101
Fixed: Temperature, K = 298.2
Property: Binary diffusion coefficient, m2/s (Liquid); method: Taylor dispersion method
Mole fraction of 1,2-ethanediol	Binary diffusion coefficient, m2/s	uncertainty
0	0.000000001102	
.2	0.000000000695	
.4	0.000000000482	
.6	0.000000000381	
.8	0.000000000318	

System: 1,2-ethanediol + water; phases: Liquid
Fixed: Pressure, kPa = 101
Fixed: Mole fraction of 1,2-ethanediol = 0
Property: Binary diffusion coefficient, m2/s (Liquid); method: Taylor dispersion method
Temperature, K	Binary diffusion coefficient, m2/s	uncertainty
303.2	0.000000001241	.000000000005
308.2	0.000000001381	.000000000001
313.2	0.000000001506	.000000000005
318.2	0.000000001681	.000000000006
323.2	0.000000001862	.000000000005

System: 1,2-ethanediol + water; phases: Liquid
Fixed: Pressure, kPa = 101
Property: Binary diffusion coefficient, m2/s (Liquid); method: Taylor dispersion method
Mole fraction of 1,2-ethanediol	Temperature, K	Binary diffusion coefficient, m2/s	uncertainty
.2	303.2	0.000000000814	.000000000002
.2	308.2	0.000000000889	.000000000002
.2	313.2	0.00000000098	.000000000005
.2	318.2	0.000000001092	.000000000001
.2	323.2	0.000000001191	.000000000003
.4	303.2	0.000000000528	.000000000001
.4	308.2	0.00000000058	.000000000002
.4	313.2	0.000000000631	.000000000002
.4	318.2	0.000000000757	.000000000004
.4	323.2	0.000000000848	.000000000002
.6	303.2	0.000000000402	.000000000006
.6	308.2	0.000000000451	.000000000002
.6	313.2	0.000000000518	.000000000001
.6	318.2	0.0000000006	.000000000005
.6	323.2	0.000000000688	.000000000001
.8	303.2	0.000000000334	.000000000002
.8	308.2	0.000000000405	.000000000001
.8	313.2	0.000000000468	.000000000005
.8	318.2	0.000000000524	.000000000004
.8	323.2	0.000000000603	.000000000004

System: 3-oxa-1,5-pentanediol + water; phases: Liquid
Fixed: Pressure, kPa = 101
Fixed: Mole fraction of 3-oxa-1,5-pentanediol = 0
Property: Binary diffusion coefficient, m2/s (Liquid); method: Taylor dispersion method
Temperature, K	Binary diffusion coefficient, m2/s	uncertainty
303.2	0.000000001039	.000000000003
308.2	0.00000000113	.000000000001
313.2	0.000000001254	.000000000001
318.2	0.000000001415	.000000000002
323.2	0.000000001531	.000000000001

System: 3-oxa-1,5-pentanediol + water; phases: Liquid
Fixed: Pressure, kPa = 101
Property: Binary diffusion coefficient, m2/s (Liquid); method: Taylor dispersion method
Mole fraction of 3-oxa-1,5-pentanediol	Temperature, K	Binary diffusion coefficient, m2/s	uncertainty
.2	303.2	0.000000000469	.000000000006
.2	308.2	0.000000000524	.000000000001
.2	313.2	0.000000000602	.000000000003
.2	318.2	0.000000000701	.000000000001
.2	323.2	0.000000000783	.000000000002
.4	303.2	0.000000000318	.000000000003
.4	308.2	0.000000000375	.000000000006
.4	313.2	0.000000000445	.000000000003
.4	318.2	0.000000000516	.000000000005
.4	323.2	0.000000000571	.000000000004
.6	303.2	0.000000000282	.000000000004
.6	308.2	0.000000000329	.000000000002
.6	313.2	0.000000000393	.000000000003
.6	318.2	0.00000000046	.000000000002
.6	323.2	0.000000000537	.000000000004
.8	303.2	0.000000000256	.000000000001
.8	308.2	0.000000000306	.000000000002
.8	313.2	0.000000000372	.000000000004
.8	318.2	0.00000000043	.000000000005
.8	323.2	0.000000000503	.000000000005

System: 3,6-dioxa-1,8-octanediol + water; phases: Liquid
Fixed: Pressure, kPa = 101
Fixed: Mole fraction of 3,6-dioxa-1,8-octanediol = 0
Property: Binary diffusion coefficient, m2/s (Liquid); method: Taylor dispersion method
Temperature, K	Binary diffusion coefficient, m2/s	uncertainty
303.2	0.000000000815	.000000000001
308.2	0.000000000899	.000000000005
313.2	0.000000000994	.000000000001
318.2	0.000000001073	.000000000004
323.2	0.000000001185	.000000000004

System: 3,6-dioxa-1,8-octanediol + water; phases: Liquid
Fixed: Pressure, kPa = 101
Property: Binary diffusion coefficient, m2/s (Liquid); method: Taylor dispersion method
Mole fraction of 3,6-dioxa-1,8-octanediol	Temperature, K	Binary diffusion coefficient, m2/s	uncertainty
.2	303.2	0.000000000371	.000000000005
.2	308.2	0.00000000043	.000000000005
.2	313.2	0.00000000051	.000000000003
.2	318.2	0.000000000548	.000000000002
.2	323.2	0.00000000063	.000000000004
.4	303.2	0.000000000278	.000000000004
.4	308.2	0.000000000312	.000000000002
.4	313.2	0.00000000037	.000000000004
.4	318.2	0.000000000427	.000000000003
.4	323.2	0.00000000048	.000000000004
.6	303.2	0.000000000233	.000000000005
.6	308.2	0.00000000027	.000000000004
.6	313.2	0.000000000325	.000000000003
.6	318.2	0.000000000379	.000000000005
.6	323.2	0.000000000444	.000000000004
.8	303.2	0.000000000201	.000000000004
.8	308.2	0.000000000241	.000000000005
.8	313.2	0.000000000298	.000000000004
.8	318.2	0.000000000351	.000000000003
.8	323.2	0.000000000415	.000000000004

System: 3,6,9-trioxa-1,11-undecanediol + water; phases: Liquid
Fixed: Pressure, kPa = 101
Fixed: Mole fraction of 3,6,9-trioxa-1,11-undecanediol = 0
Property: Binary diffusion coefficient, m2/s (Liquid); method: Taylor dispersion method
Temperature, K	Binary diffusion coefficient, m2/s	uncertainty
303.2	0.000000000706	.000000000002
308.2	0.000000000785	.000000000002
313.2	0.000000000882	.000000000003
318.2	0.000000000955	.000000000001
323.2	0.000000001075	.000000000001

System: 3,6,9-trioxa-1,11-undecanediol + water; phases: Liquid
Fixed: Pressure, kPa = 101
Property: Binary diffusion coefficient, m2/s (Liquid); method: Taylor dispersion method
Mole fraction of 3,6,9-trioxa-1,11-undecanediol	Temperature, K	Binary diffusion coefficient, m2/s	uncertainty
.2	303.2	0.000000000239	.000000000002
.2	308.2	0.000000000284	.000000000003
.2	313.2	0.000000000333	.000000000004
.2	318.2	0.000000000395	.000000000002
.2	323.2	0.000000000468	.000000000001
.4	303.2	0.000000000196	.000000000001
.4	308.2	0.000000000224	.000000000001
.4	313.2	0.000000000263	.000000000005
.4	318.2	0.000000000316	.000000000003
.4	323.2	0.000000000367	.000000000003
.6	303.2	0.000000000163	.000000000002
.6	308.2	0.000000000195	.000000000001
.6	313.2	0.000000000238	.000000000002
.6	318.2	0.000000000281	.000000000001
.6	323.2	0.000000000334	.000000000003
.8	303.2	0.000000000151	.000000000003
.8	308.2	0.000000000187	.000000000004
.8	313.2	0.000000000219	.000000000002
.8	318.2	0.00000000026	.000000000004
.8	323.2	0.000000000318	.000000000003
