Measured thermophysical data. Effect of tri-potassium phosphate on volumetric, acoustic, and transport behaviour of aqueous solutions of 1-ethyl-3-methylimidazolium bromide at T = (298.15 to 318.15) K
Source: J. Chem. Thermodyn., 2010, 10.1016/j.jct.2010.04.025
Compound 1: 1-ethyl-3-methylimidazolium bromide, C6H11BrN2, purity 98%
Compound 2: water, H2O
Compound 3: phosphoric acid, potassium salt, K3O4P, purity 98%

System: water + phosphoric acid, potassium salt + 1-ethyl-3-methylimidazolium bromide; phases: Liquid
Fixed: Pressure, kPa = 101
Property: Mass density, kg/m3 (Liquid); method: Vibrating tube method
Solvent: Mass fraction of phosphoric acid, potassium salt	Temperature, K	Molality, mol/kg of 1-ethyl-3-methylimidazolium bromide	Mass density, kg/m3	uncertainty
0	298.15	.0513	999.779	.0036
0	298.15	.061	1000.293	.0036
0	298.15	.0686	1000.697	.0036
0	298.15	.0854	1001.582	.0036
0	298.15	.0919	1001.925	.0036
0	298.15	.0992	1002.309	.0036
0	298.15	.1112	1002.939	.0036
0	298.15	.148	1004.853	.0036
0	298.15	.1822	1006.619	.0036
0	298.15	.2252	1008.819	.0036
0	298.15	.3003	1012.597	.0036
0	298.15	.3341	1014.271	.0036
0	298.15	.4578	1020.288	.0036
0	298.15	.6345	1028.597	.0036
0	298.15	.8313	1037.467	.0036
0	298.15	1.1617	1051.617	.0036
0	298.15	1.5168	1065.715	.0036
0	298.15	1.8281	1077.408	.0036
0	298.15	2.1548	1088.873	.0036
0	298.15	2.3657	1095.83	.0036
0	298.15	2.8576	1111.274	.0036
0	298.15	3.0821	1118.005	.0036
0	298.15	4.2247	1148.043	.0036
0	298.15	5.1158	1168.127	.0036
0	303.15	.0513	998.353	.0036
0	303.15	.061	998.864	.0036
0	303.15	.0686	999.265	.0036
0	303.15	.0854	1000.145	.0036
0	303.15	.0919	1000.486	.0036
0	303.15	.0992	1000.867	.0036
0	303.15	.1112	1001.493	.0036
0	303.15	.148	1003.394	.0036
0	303.15	.1822	1005.146	.0036
0	303.15	.2252	1007.33	.0036
0	303.15	.3003	1011.08	.0036
0	303.15	.3341	1012.747	.0036
0	303.15	.4578	1018.719	.0036
0	303.15	.6345	1026.943	.0036
0	303.15	.8313	1035.723	.0036
0	303.15	1.1617	1049.751	.0036
0	303.15	1.5168	1063.731	.0036
0	303.15	1.8281	1075.319	.0036
0	303.15	2.1548	1086.685	.0036
0	303.15	2.3657	1093.587	.0036
0	303.15	2.8576	1108.891	.0036
0	303.15	3.0821	1115.554	.0036
0	303.15	4.2247	1145.362	.0036
0	303.15	5.1158	1165.293	.0036
0	308.15	.0513	996.715	.0036
0	308.15	.061	997.221	.0036
0	308.15	.0686	997.616	.0036
0	308.15	.0854	998.486	.0036
0	308.15	.0919	998.822	.0036
0	308.15	.0992	999.2	.0036
0	308.15	.1112	999.818	.0036
0	308.15	.148	1001.698	.0036
0	308.15	.1822	1003.437	.0036
0	308.15	.2252	1005.596	.0036
0	308.15	.3003	1009.325	.0036
0	308.15	.3341	1010.985	.0036
0	308.15	.4578	1016.908	.0036
0	308.15	.6345	1025.074	.0036
0	308.15	.8313	1033.795	.0036
0	308.15	1.1617	1047.643	.0036
0	308.15	1.5168	1061.579	.0036
0	308.15	1.8281	1073.074	.0036
0	308.15	2.1548	1084.349	.0036
0	308.15	2.3657	1091.199	.0036
0	308.15	2.8576	1106.384	.0036
0	308.15	3.0821	1112.992	.0036
0	308.15	4.2247	1142.577	.0036
0	308.15	5.1158	1162.369	.0036
0	313.15	.0513	994.853	.0036
0	313.15	.061	995.35	.0036
0	313.15	.0686	995.74	.0036
0	313.15	.0854	996.597	.0036
0	313.15	.0919	996.928	.0036
0	313.15	.0992	997.3	.0036
0	313.15	.1112	997.908	.0036
0	313.15	.148	999.791	.0036
0	313.15	.1822	1001.534	.0036
0	313.15	.2252	1003.682	.0036
0	313.15	.3003	1007.377	.0036
0	313.15	.3341	1009.028	.0036
0	313.15	.4578	1014.917	.0036
0	313.15	.6345	1023.019	.0036
0	313.15	.8313	1031.724	.0036
0	313.15	1.1617	1045.481	.0036
0	313.15	1.5168	1059.274	.0036
0	313.15	1.8281	1070.69	.0036
0	313.15	2.1548	1081.883	.0036
0	313.15	2.3657	1088.682	.0036
0	313.15	2.8576	1103.76	.0036
0	313.15	3.0821	1110.321	.0036
0	313.15	4.2247	1139.707	.0036
0	313.15	5.1158	1159.369	.0036
0	318.15	.0513	992.784	.0036
0	318.15	.061	993.273	.0036
0	318.15	.0686	993.655	.0036
0	318.15	.0854	994.495	.0036
0	318.15	.0919	994.819	.0036
0	318.15	.0992	995.183	.0036
0	318.15	.1112	995.778	.0036
0	318.15	.148	997.627	.0036
0	318.15	.1822	999.323	.0036
0	318.15	.2252	1001.443	.0036
0	318.15	.3003	1005.067	.0036
0	318.15	.3341	1006.675	.0036
0	318.15	.4578	1012.512	.0036
0	318.15	.6345	1020.702	.0036
0	318.15	.8313	1029.329	.0036
0	318.15	1.1617	1043.115	.0036
0	318.15	1.5168	1056.832	.0036
0	318.15	1.8281	1068.174	.0036
0	318.15	2.1548	1079.292	.0036
0	318.15	2.3657	1086.05	.0036
0	318.15	2.8576	1101.017	.0036
0	318.15	3.0821	1107.546	.0036
0	318.15	4.2247	1136.749	.0036
0	318.15	5.1158	1156.304	.0036
.1	298.15	.0376	1095.008	.0036
.1	298.15	.0476	1095.365	.0036
.1	298.15	.0583	1095.756	.0036
.1	298.15	.089	1096.858	.0036
.1	298.15	.1201	1097.963	.0036
.1	298.15	.3062	1104.526	.0036
.1	298.15	.5702	1113.442	.0036
.1	298.15	.866	1122.924	.0036
.1	298.15	1.0464	1128.402	.0036
.1	298.15	1.1891	1132.609	.0036
.1	298.15	1.3554	1137.349	.0036
.1	303.15	.0376	1092.963	.0036
.1	303.15	.0476	1093.316	.0036
.1	303.15	.0583	1093.701	.0036
.1	303.15	.089	1094.806	.0036
.1	303.15	.1201	1095.913	.0036
.1	303.15	.3062	1102.429	.0036
.1	303.15	.5702	1111.28	.0036
.1	303.15	.866	1120.686	.0036
.1	303.15	1.0464	1126.127	.0036
.1	303.15	1.1891	1130.281	.0036
.1	303.15	1.3554	1135.029	.0036
.1	308.15	.0376	1090.781	.0036
.1	308.15	.0476	1091.132	.0036
.1	308.15	.0583	1091.512	.0036
.1	308.15	.089	1092.607	.0036
.1	308.15	.1201	1093.715	.0036
.1	308.15	.3062	1100.196	.0036
.1	308.15	.5702	1108.986	.0036
.1	308.15	.866	1118.32	.0036
.1	308.15	1.0464	1123.71	.0036
.1	308.15	1.1891	1127.839	.0036
.1	308.15	1.3554	1132.5	.0036
.1	313.15	.0376	1088.486	.0036
.1	313.15	.0476	1088.839	.0036
.1	313.15	.0583	1089.218	.0036
.1	313.15	.089	1090.298	.0036
.1	313.15	.1201	1091.393	.0036
.1	313.15	.3062	1097.838	.0036
.1	313.15	.5702	1106.57	.0036
.1	313.15	.866	1115.836	.0036
.1	313.15	1.0464	1121.184	.0036
.1	313.15	1.1891	1125.285	.0036
.1	313.15	1.3554	1129.899	.0036
.1	318.15	.0376	1086.075	.0036
.1	318.15	.0476	1086.424	.0036
.1	318.15	.0583	1086.798	.0036
.1	318.15	.089	1087.883	.0036
.1	318.15	.1201	1088.97	.0036
.1	318.15	.3062	1095.36	.0036
.1	318.15	.5702	1104.059	.0036
.1	318.15	.866	1113.243	.0036
.1	318.15	1.0464	1118.553	.0036
.1	318.15	1.1891	1122.631	.0036
.1	318.15	1.3554	1127.229	.0036
.15	298.15	.0383	1147.067	.0036
.15	298.15	.0437	1147.214	.0036
.15	298.15	.0519	1147.434	.0036
.15	298.15	.0597	1147.648	.0036
.15	298.15	.1366	1149.72	.0036
.15	298.15	.1915	1151.213	.0036
.15	298.15	.3303	1154.937	.0036
.15	298.15	.4639	1158.465	.0036
.15	298.15	.6073	1162.104	.0036
.15	298.15	.7595	1166.016	.0036
.15	298.15	.9167	1169.884	.0036
.15	298.15	1.0326	1172.735	.0036
.15	298.15	1.3053	1178.854	.0036
.15	298.15	1.4394	1181.88	.0036
.15	303.15	.0383	1144.777	.0036
.15	303.15	.0437	1144.924	.0036
.15	303.15	.0519	1145.146	.0036
.15	303.15	.0597	1145.356	.0036
.15	303.15	.1366	1147.422	.0036
.15	303.15	.1915	1148.897	.0036
.15	303.15	.3303	1152.567	.0036
.15	303.15	.4639	1156.105	.0036
.15	303.15	.6073	1159.718	.0036
.15	303.15	.7595	1163.589	.0036
.15	303.15	.9167	1167.438	.0036
.15	303.15	1.0326	1170.265	.0036
.15	303.15	1.3053	1176.347	.0036
.15	303.15	1.4394	1179.326	.0036
.15	308.15	.0383	1142.371	.0036
.15	308.15	.0437	1142.514	.0036
.15	308.15	.0519	1142.734	.0036
.15	308.15	.0597	1142.94	.0036
.15	308.15	.1366	1144.974	.0036
.15	308.15	.1915	1146.432	.0036
.15	308.15	.3303	1150.152	.0036
.15	308.15	.4639	1153.638	.0036
.15	308.15	.6073	1157.23	.0036
.15	308.15	.7595	1161.066	.0036
.15	308.15	.9167	1164.888	.0036
.15	308.15	1.0326	1167.632	.0036
.15	308.15	1.3053	1173.699	.0036
.15	308.15	1.4394	1176.67	.0036
.15	313.15	.0383	1139.876	.0036
.15	313.15	.0437	1140.02	.0036
.15	313.15	.0519	1140.235	.0036
.15	313.15	.0597	1140.442	.0036
.15	313.15	.1366	1142.445	.0036
.15	313.15	.1915	1143.887	.0036
.15	313.15	.3303	1147.529	.0036
.15	313.15	.4639	1151.072	.0036
.15	313.15	.6073	1154.641	.0036
.15	313.15	.7595	1158.447	.0036
.15	313.15	.9167	1162.241	.0036
.15	313.15	1.0326	1164.986	.0036
.15	313.15	1.3053	1170.99	.0036
.15	313.15	1.4394	1173.928	.0036
.15	318.15	.0383	1137.273	.0036
.15	318.15	.0437	1137.413	.0036
.15	318.15	.0519	1137.627	.0036
.15	318.15	.0597	1137.83	.0036
.15	318.15	.1366	1139.808	.0036
.15	318.15	.1915	1141.237	.0036
.15	318.15	.3303	1144.9	.0036
.15	318.15	.4639	1148.305	.0036
.15	318.15	.6073	1151.958	.0036
.15	318.15	.7595	1155.738	.0036
.15	318.15	.9167	1159.504	.0036
.15	318.15	1.0326	1162.234	.0036
.15	318.15	1.3053	1168.199	.0036
.15	318.15	1.4394	1171.104	.0036
.2	298.15	.0421	1200.651	.0036
.2	298.15	.0651	1201.041	.0036
.2	298.15	.0816	1201.323	.0036
.2	298.15	.0921	1201.502	.0036
.2	298.15	.1099	1201.809	.0036
.2	298.15	.1351	1202.236	.0036
.2	298.15	.3415	1205.727	.0036
.2	298.15	.5031	1208.4	.0036
.2	298.15	.5657	1209.385	.0036
.2	298.15	.7266	1211.825	.0036
.2	298.15	.8035	1213.011	.0036
.2	298.15	1.063	1216.785	.0036
.2	298.15	1.1515	1218.05	.0036
.2	303.15	.0421	1198.146	.0036
.2	303.15	.0651	1198.533	.0036
.2	303.15	.0816	1198.816	.0036
.2	303.15	.0921	1198.993	.0036
.2	303.15	.1099	1199.299	.0036
.2	303.15	.1351	1199.73	.0036
.2	303.15	.3415	1203.197	.0036
.2	303.15	.5031	1205.93	.0036
.2	303.15	.5657	1206.95	.0036
.2	303.15	.7266	1209.407	.0036
.2	303.15	.8035	1210.537	.0036
.2	303.15	1.063	1214.309	.0036
.2	303.15	1.1515	1215.519	.0036
.2	308.15	.0421	1195.552	.0036
.2	308.15	.0651	1195.934	.0036
.2	308.15	.0816	1196.212	.0036
.2	308.15	.0921	1196.392	.0036
.2	308.15	.1099	1196.69	.0036
.2	308.15	.1351	1197.116	.0036
.2	308.15	.3415	1200.566	.0036
.2	308.15	.5031	1203.289	.0036
.2	308.15	.5657	1204.306	.0036
.2	308.15	.7266	1206.76	.0036
.2	308.15	.8035	1207.912	.0036
.2	308.15	1.063	1211.585	.0036
.2	308.15	1.1515	1212.805	.0036
.2	313.15	.0421	1192.88	.0036
.2	313.15	.0651	1193.256	.0036
.2	313.15	.0816	1193.53	.0036
.2	313.15	.0921	1193.703	.0036
.2	313.15	.1099	1193.995	.0036
.2	313.15	.1351	1194.412	.0036
.2	313.15	.3415	1197.816	.0036
.2	313.15	.5031	1200.516	.0036
.2	313.15	.5657	1201.541	.0036
.2	313.15	.7266	1204.004	.0036
.2	313.15	.8035	1205.125	.0036
.2	313.15	1.063	1208.734	.0036
.2	313.15	1.1515	1209.945	.0036
.2	318.15	.0421	1190.132	.0036
.2	318.15	.0651	1190.505	.0036
.2	318.15	.0816	1190.77	.0036
.2	318.15	.0921	1190.943	.0036
.2	318.15	.1099	1191.232	.0036
.2	318.15	.1351	1191.637	.0036
.2	318.15	.3415	1195.003	.0036
.2	318.15	.5031	1197.654	.0036
.2	318.15	.5657	1198.651	.0036
.2	318.15	.7266	1201.093	.0036
.2	318.15	.8035	1202.216	.0036
.2	318.15	1.063	1205.798	.0036
.2	318.15	1.1515	1206.983	.0036

System: water + phosphoric acid, potassium salt + 1-ethyl-3-methylimidazolium bromide; phases: Liquid
Fixed: Pressure, kPa = 101
Property: Speed of sound, m/s (Liquid); method: Sing-around technique in a fixed-path interferometer
Solvent: Mass fraction of phosphoric acid, potassium salt	Temperature, K	Molality, mol/kg of 1-ethyl-3-methylimidazolium bromide	Speed of sound, m/s	uncertainty
0	298.15	.0513	1500.64	.1
0	298.15	.061	1501.32	.1
0	298.15	.0686	1501.82	.1
0	298.15	.0854	1502.95	.1
0	298.15	.0919	1503.38	.1
0	298.15	.0992	1503.88	.1
0	298.15	.1112	1504.65	.1
0	298.15	.148	1507.07	.1
0	298.15	.1822	1509.29	.1
0	298.15	.2252	1512.08	.1
0	298.15	.3003	1517	.1
0	298.15	.3341	1519.2	.1
0	298.15	.4578	1527.05	.1
0	298.15	.6345	1537.74	.1
0	298.15	.8313	1549.01	.1
0	298.15	1.1617	1567.4	.1
0	298.15	1.5168	1585.54	.1
0	298.15	1.8281	1600.46	.1
0	298.15	2.1548	1615.17	.1
0	298.15	2.3657	1624.17	.1
0	298.15	2.8576	1643.79	.1
0	298.15	3.0821	1652.26	.1
0	298.15	4.2247	1689.39	.1
0	298.15	5.1158	1712.84	.1
0	303.15	.0513	1512.68	.1
0	303.15	.061	1513.29	.1
0	303.15	.0686	1513.74	.1
0	303.15	.0854	1514.77	.1
0	303.15	.0919	1515.15	.1
0	303.15	.0992	1515.58	.1
0	303.15	.1112	1516.27	.1
0	303.15	.148	1518.56	.1
0	303.15	.1822	1520.62	.1
0	303.15	.2252	1523.23	.1
0	303.15	.3003	1527.73	.1
0	303.15	.3341	1529.6	.1
0	303.15	.4578	1536.62	.1
0	303.15	.6345	1546.42	.1
0	303.15	.8313	1556.88	.1
0	303.15	1.1617	1573.57	.1
0	303.15	1.5168	1590.13	.1
0	303.15	1.8281	1603.83	.1
0	303.15	2.1548	1617.37	.1
0	303.15	2.3657	1625.67	.1
0	303.15	2.8576	1643.79	.1
0	303.15	3.0821	1651.65	.1
0	303.15	4.2247	1686.14	.1
0	303.15	5.1158	1708	.1
0	308.15	.0513	1523.13	.1
0	308.15	.061	1523.71	.1
0	308.15	.0686	1524.17	.1
0	308.15	.0854	1525.15	.1
0	308.15	.0919	1525.51	.1
0	308.15	.0992	1525.9	.1
0	308.15	.1112	1526.57	.1
0	308.15	.148	1528.59	.1
0	308.15	.1822	1530.46	.1
0	308.15	.2252	1532.73	.1
0	308.15	.3003	1536.73	.1
0	308.15	.3341	1538.41	.1
0	308.15	.4578	1544.88	.1
0	308.15	.6345	1553.71	.1
0	308.15	.8313	1563.44	.1
0	308.15	1.1617	1578.66	.1
0	308.15	1.5168	1593.65	.1
0	308.15	1.8281	1606.24	.1
0	308.15	2.1548	1618.7	.1
0	308.15	2.3657	1626.35	.1
0	308.15	2.8576	1643.08	.1
0	308.15	3.0821	1650.35	.1
0	308.15	4.2247	1682.36	.1
0	308.15	5.1158	1702.74	.1
0	313.15	.0513	1531.96	.1
0	313.15	.061	1532.5	.1
0	313.15	.0686	1532.9	.1
0	313.15	.0854	1533.8	.1
0	313.15	.0919	1534.12	.1
0	313.15	.0992	1534.49	.1
0	313.15	.1112	1535.1	.1
0	313.15	.148	1537.01	.1
0	313.15	.1822	1538.71	.1
0	313.15	.2252	1540.8	.1
0	313.15	.3003	1544.5	.1
0	313.15	.3341	1545.95	.1
0	313.15	.4578	1551.83	.1
0	313.15	.6345	1559.87	.1
0	313.15	.8313	1568.56	.1
0	313.15	1.1617	1582.58	.1
0	313.15	1.5168	1596.22	.1
0	313.15	1.8281	1607.73	.1
0	313.15	2.1548	1619.18	.1
0	313.15	2.3657	1626.23	.1
0	313.15	2.8576	1641.67	.1
0	313.15	3.0821	1648.39	.1
0	313.15	4.2247	1678.11	.1
0	313.15	5.1158	1697.07	.1
0	318.15	.0513	1539.42	.1
0	318.15	.061	1539.96	.1
0	318.15	.0686	1540.34	.1
0	318.15	.0854	1541.23	.1
0	318.15	.0919	1541.54	.1
0	318.15	.0992	1541.89	.1
0	318.15	.1112	1542.45	.1
0	318.15	.148	1544.12	.1
0	318.15	.1822	1545.62	.1
0	318.15	.2252	1547.48	.1
0	318.15	.3003	1550.91	.1
0	318.15	.3341	1552.32	.1
0	318.15	.4578	1557.68	.1
0	318.15	.6345	1564.84	.1
0	318.15	.8313	1572.83	.1
0	318.15	1.1617	1585.43	.1
0	318.15	1.5168	1597.9	.1
0	318.15	1.8281	1608.33	.1
0	318.15	2.1548	1618.88	.1
0	318.15	2.3657	1625.34	.1
0	318.15	2.8576	1639.65	.1
0	318.15	3.0821	1645.83	.1
0	318.15	4.2247	1673.38	.1
0	318.15	5.1158	1691.06	.1
.1	298.15	.0376	1600.35	.1
.1	298.15	.0476	1600.86	.1
.1	298.15	.0583	1601.4	.1
.1	298.15	.089	1602.97	.1
.1	298.15	.1201	1604.53	.1
.1	298.15	.3062	1613.67	.1
.1	298.15	.5702	1626.05	.1
.1	298.15	.866	1639.46	.1
.1	298.15	1.0464	1647.53	.1
.1	298.15	1.1891	1653.66	.1
.1	298.15	1.3554	1660.99	.1
.1	303.15	.0376	1609.31	.1
.1	303.15	.0476	1609.76	.1
.1	303.15	.0583	1610.25	.1
.1	303.15	.089	1611.62	.1
.1	303.15	.1201	1613	.1
.1	303.15	.3062	1621.11	.1
.1	303.15	.5702	1632.4	.1
.1	303.15	.866	1644.06	.1
.1	303.15	1.0464	1651.39	.1
.1	303.15	1.1891	1656.96	.1
.1	303.15	1.3554	1662.87	.1
.1	308.15	.0376	1616.89	.1
.1	308.15	.0476	1617.29	.1
.1	308.15	.0583	1617.72	.1
.1	308.15	.089	1618.97	.1
.1	308.15	.1201	1620.18	.1
.1	308.15	.3062	1627.31	.1
.1	308.15	.5702	1637.4	.1
.1	308.15	.866	1648.02	.1
.1	308.15	1.0464	1654.38	.1
.1	308.15	1.1891	1658.91	.1
.1	308.15	1.3554	1663.81	.1
.1	313.15	.0376	1623.22	.1
.1	313.15	.0476	1623.56	.1
.1	313.15	.0583	1623.93	.1
.1	313.15	.089	1625.01	.1
.1	313.15	.1201	1626.07	.1
.1	313.15	.3062	1632.33	.1
.1	313.15	.5702	1641.29	.1
.1	313.15	.866	1650.55	.1
.1	313.15	1.0464	1656.12	.1
.1	313.15	1.1891	1660.32	.1
.1	313.15	1.3554	1664.87	.1
.1	318.15	.0376	1628.3	.1
.1	318.15	.0476	1628.59	.1
.1	318.15	.0583	1628.92	.1
.1	318.15	.089	1629.83	.1
.1	318.15	.1201	1630.76	.1
.1	318.15	.3062	1636.21	.1
.1	318.15	.5702	1644.15	.1
.1	318.15	.866	1652.32	.1
.1	318.15	1.0464	1657.53	.1
.1	318.15	1.1891	1661.04	.1
.1	318.15	1.3554	1665.08	.1
.15	298.15	.0383	1660.59	.1
.15	298.15	.0437	1660.84	.1
.15	298.15	.0519	1661.14	.1
.15	298.15	.0597	1661.39	.1
.15	298.15	.1366	1664.03	.1
.15	298.15	.1915	1665.84	.1
.15	298.15	.3303	1670.52	.1
.15	298.15	.4639	1674.81	.1
.15	298.15	.6073	1679.48	.1
.15	298.15	.7595	1683.76	.1
.15	298.15	.9167	1688.33	.1
.15	298.15	1.0326	1691.57	.1
.15	298.15	1.3053	1698.4	.1
.15	298.15	1.4394	1701.91	.1
.15	303.15	.0383	1667.57	.1
.15	303.15	.0437	1667.77	.1
.15	303.15	.0519	1667.99	.1
.15	303.15	.0597	1668.23	.1
.15	303.15	.1366	1670.53	.1
.15	303.15	.1915	1672.09	.1
.15	303.15	.3303	1676.07	.1
.15	303.15	.4639	1679.78	.1
.15	303.15	.6073	1683.91	.1
.15	303.15	.7595	1687.51	.1
.15	303.15	.9167	1691.44	.1
.15	303.15	1.0326	1694.3	.1
.15	303.15	1.3053	1700.14	.1
.15	303.15	1.4394	1703.23	.1
.15	308.15	.0383	1673.39	.1
.15	308.15	.0437	1673.53	.1
.15	308.15	.0519	1673.7	.1
.15	308.15	.0597	1673.9	.1
.15	308.15	.1366	1675.86	.1
.15	308.15	.1915	1677.19	.1
.15	308.15	.3303	1680.52	.1
.15	308.15	.4639	1683.65	.1
.15	308.15	.6073	1687.15	.1
.15	308.15	.7595	1690.26	.1
.15	308.15	.9167	1693.61	.1
.15	308.15	1.0326	1696.07	.1
.15	308.15	1.3053	1701.04	.1
.15	308.15	1.4394	1703.73	.1
.15	313.15	.0383	1678.04	.1
.15	313.15	.0437	1678.16	.1
.15	313.15	.0519	1678.3	.1
.15	313.15	.0597	1678.45	.1
.15	313.15	.1366	1680.08	.1
.15	313.15	.1915	1681.17	.1
.15	313.15	.3303	1683.92	.1
.15	313.15	.4639	1686.53	.1
.15	313.15	.6073	1689.21	.1
.15	313.15	.7595	1692.07	.1
.15	313.15	.9167	1694.89	.1
.15	313.15	1.0326	1696.98	.1
.15	313.15	1.3053	1701.13	.1
.15	313.15	1.4394	1703.44	.1
.15	318.15	.0383	1681.6	.1
.15	318.15	.0437	1681.7	.1
.15	318.15	.0519	1681.82	.1
.15	318.15	.0597	1681.92	.1
.15	318.15	.1366	1683.26	.1
.15	318.15	.1915	1684.15	.1
.15	318.15	.3303	1686.32	.1
.15	318.15	.4639	1688.45	.1
.15	318.15	.6073	1690.87	.1
.15	318.15	.7595	1692.99	.1
.15	318.15	.9167	1695.3	.1
.15	318.15	1.0326	1697.05	.1
.15	318.15	1.3053	1700.45	.1
.15	318.15	1.4394	1702.4	.1
.2	298.15	.0421	1727.12	.1
.2	298.15	.0651	1727.84	.1
.2	298.15	.0816	1728.37	.1
.2	298.15	.0921	1728.76	.1
.2	298.15	.1099	1729.34	.1
.2	298.15	.1351	1730.23	.1
.2	298.15	.3415	1737.5	.1
.2	298.15	.5031	1743.24	.1
.2	298.15	.5657	1745.42	.1
.2	298.15	.7266	1751.13	.1
.2	298.15	.8035	1753.9	.1
.2	298.15	1.063	1763.22	.1
.2	298.15	1.1515	1766.2	.1
.2	303.15	.0421	1733.32	.1
.2	303.15	.0651	1733.93	.1
.2	303.15	.0816	1734.37	.1
.2	303.15	.0921	1734.69	.1
.2	303.15	.1099	1735.25	.1
.2	303.15	.1351	1736.02	.1
.2	303.15	.3415	1742.9	.1
.2	303.15	.5031	1748.41	.1
.2	303.15	.5657	1750.6	.1
.2	303.15	.7266	1755.66	.1
.2	303.15	.8035	1758.05	.1
.2	303.15	1.063	1766.05	.1
.2	303.15	1.1515	1768.69	.1
.2	308.15	.0421	1739.14	.1
.2	308.15	.0651	1739.68	.1
.2	308.15	.0816	1740.07	.1
.2	308.15	.0921	1740.32	.1
.2	308.15	.1099	1740.77	.1
.2	308.15	.1351	1741.43	.1
.2	308.15	.3415	1747.42	.1
.2	308.15	.5031	1751.86	.1
.2	308.15	.5657	1753.6	.1
.2	308.15	.7266	1758.09	.1
.2	308.15	.8035	1760.22	.1
.2	308.15	1.063	1767.2	.1
.2	308.15	1.1515	1769.49	.1
.2	313.15	.0421	1744.59	.1
.2	313.15	.0651	1745	.1
.2	313.15	.0816	1745.32	.1
.2	313.15	.0921	1745.51	.1
.2	313.15	.1099	1745.86	.1
.2	313.15	.1351	1746.34	.1
.2	313.15	.3415	1750.81	.1
.2	313.15	.5031	1754.5	.1
.2	313.15	.5657	1755.94	.1
.2	313.15	.7266	1759.6	.1
.2	313.15	.8035	1761.33	.1
.2	313.15	1.063	1767.14	.1
.2	313.15	1.1515	1769.16	.1
.2	318.15	.0421	1747.39	.1
.2	318.15	.0651	1747.74	.1
.2	318.15	.0816	1748.02	.1
.2	318.15	.0921	1748.2	.1
.2	318.15	.1099	1748.52	.1
.2	318.15	.1351	1748.99	.1
.2	318.15	.3415	1752.8	.1
.2	318.15	.5031	1755.85	.1
.2	318.15	.5657	1757.04	.1
.2	318.15	.7266	1760.12	.1
.2	318.15	.8035	1761.59	.1
.2	318.15	1.063	1766.57	.1
.2	318.15	1.1515	1768.27	.1

System: water + phosphoric acid, potassium salt + 1-ethyl-3-methylimidazolium bromide; phases: Liquid
Fixed: Pressure, kPa = 101
Property: Viscosity, Pa*s (Liquid); method: Capillary tube (Ostwald; Ubbelohde) method
Solvent: Mass fraction of phosphoric acid, potassium salt	Temperature, K	Amount concentration (molarity), mol/dm3 of 1-ethyl-3-methylimidazolium bromide	Viscosity, Pa*s	uncertainty
0	298.15	.0508	.000915	.000004575
0	298.15	.0603	.000916	.00000458
0	298.15	.0678	.00092	.0000046
0	298.15	.0842	.000921	.000004605
0	298.15	.0905	.000921	.000004605
0	298.15	.0976	.000923	.000004615
0	298.15	.1092	.000929	.000004645
0	298.15	.1446	.000934	.00000467
0	298.15	.1772	.000939	.000004695
0	298.15	.2178	.000946	.00000473
0	298.15	.2876	.000958	.00000479
0	298.15	.3185	.000968	.00000484
0	298.15	.4295	.000989	.000004945
0	303.15	.0507	.000818	.00000409
0	303.15	.0602	.00082	.0000041
0	303.15	.0677	.000821	.000004105
0	303.15	.084	.000823	.000004115
0	303.15	.0904	.000823	.000004115
0	303.15	.0974	.000824	.00000412
0	303.15	.109	.000826	.00000413
0	303.15	.1444	.000835	.000004175
0	303.15	.177	.00084	.0000042
0	303.15	.2175	.000854	.00000427
0	303.15	.2872	.000869	.000004345
0	303.15	.3181	.000874	.00000437
0	303.15	.4289	.000898	.00000449
0	308.15	.0506	.000739	.000003695
0	308.15	.0601	.00074	.0000037
0	308.15	.0676	.000741	.000003705
0	308.15	.0839	.000742	.00000371
0	308.15	.0902	.000743	.000003715
0	308.15	.0973	.000746	.00000373
0	308.15	.1089	.000748	.00000374
0	308.15	.1442	.00075	.00000375
0	308.15	.1767	.00076	.0000038
0	308.15	.2171	.000764	.00000382
0	308.15	.2867	.000768	.00000384
0	308.15	.3175	.00078	.0000039
0	308.15	.4281	.000802	.00000401
0	313.15	.0505	.00066	.0000033
0	313.15	.06	.000666	.00000333
0	313.15	.0674	.000669	.000003345
0	313.15	.0837	.00067	.00000335
0	313.15	.09	.000671	.000003355
0	313.15	.0971	.000672	.00000336
0	313.15	.1087	.000675	.000003375
0	313.15	.1439	.000679	.000003395
0	313.15	.1763	.000681	.000003405
0	313.15	.2167	.00069	.00000345
0	313.15	.2861	.000699	.000003495
0	313.15	.3169	.000704	.00000352
0	313.15	.4273	.00071	.00000355
0	318.15	.0504	.000609	.000003045
0	318.15	.0599	.000611	.000003055
0	318.15	.0673	.000613	.000003065
0	318.15	.0836	.000613	.000003065
0	318.15	.0898	.000615	.000003075
0	318.15	.0969	.000619	.000003095
0	318.15	.1084	.00062	.0000031
0	318.15	.1436	.000621	.000003105
0	318.15	.176	.000624	.00000312
0	318.15	.2162	.000633	.000003165
0	318.15	.2854	.00064	.0000032
0	318.15	.3161	.000648	.00000324
0	318.15	.4262	.00066	.0000033
.1	298.15	.0409	.001202	.00000601
.1	298.15	.0517	.001204	.00000602
.1	298.15	.0632	.001206	.00000603
.1	298.15	.096	.001213	.000006065
.1	298.15	.1289	.001221	.000006105
.1	298.15	.3195	.001276	.00000638
.1	298.15	.5725	.001353	.000006765
.1	298.15	.8344	.001445	.000007225
.1	298.15	.984	.001506	.00000753
.1	298.15	1.0974	.00155	.00000775
.1	298.15	1.2244	.001608	.00000804
.1	303.15	.0408	.001083	.000005415
.1	303.15	.0516	.001083	.000005415
.1	303.15	.0631	.001084	.00000542
.1	303.15	.0958	.001094	.00000547
.1	303.15	.1287	.001099	.000005495
.1	303.15	.3189	.001143	.000005715
.1	303.15	.5714	.001211	.000006055
.1	303.15	.8327	.001297	.000006485
.1	303.15	.982	.001347	.000006735
.1	303.15	1.0952	.001383	.000006915
.1	303.15	1.222	.001431	.000007155
.1	308.15	.0407	.000977	.000004885
.1	308.15	.0515	.000978	.00000489
.1	308.15	.0629	.000982	.00000491
.1	308.15	.0956	.00099	.00000495
.1	308.15	.1284	.000995	.000004975
.1	308.15	.3183	.001031	.000005155
.1	308.15	.5702	.001094	.00000547
.1	308.15	.831	.001163	.000005815
.1	308.15	.9799	.001214	.00000607
.1	308.15	1.0928	.00124	.0000062
.1	308.15	1.2192	.001285	.000006425
.1	313.15	.0406	.000891	.000004455
.1	313.15	.0514	.000891	.000004455
.1	313.15	.0628	.000894	.00000447
.1	313.15	.0954	.000899	.000004495
.1	313.15	.1281	.000904	.00000452
.1	313.15	.3176	.000938	.00000469
.1	313.15	.569	.000992	.00000496
.1	313.15	.8291	.001057	.000005285
.1	313.15	.9777	.001097	.000005485
.1	313.15	1.0903	.001124	.00000562
.1	313.15	1.2164	.001164	.00000582
.1	318.15	.0405	.000814	.00000407
.1	318.15	.0512	.000818	.00000409
.1	318.15	.0627	.000818	.00000409
.1	318.15	.0952	.000821	.000004105
.1	318.15	.1279	.00083	.00000415
.1	318.15	.3169	.00086	.0000043
.1	318.15	.5677	.000907	.000004535
.1	318.15	.8272	.000963	.000004815
.1	318.15	.9754	.001004	.00000502
.1	318.15	1.0878	.001026	.00000513
.1	318.15	1.2136	.001056	.00000528
.15	298.15	.0436	.00143	.00000715
.15	298.15	.0497	.001433	.000007165
.15	298.15	.059	.001437	.000007185
.15	298.15	.0677	.00144	.0000072
.15	298.15	.1531	.001469	.000007345
.15	298.15	.2127	.001491	.000007455
.15	298.15	.3588	.001539	.000007695
.15	298.15	.4937	.001598	.00000799
.15	298.15	.6324	.001655	.000008275
.15	298.15	.7734	.00171	.00000855
.15	298.15	.9126	.001772	.00000886
.15	298.15	1.0114	.001818	.00000909
.15	298.15	1.2316	.001931	.000009655
.15	298.15	1.3342	.001983	.000009915
.15	303.15	.0435	.001296	.00000648
.15	303.15	.0496	.001299	.000006495
.15	303.15	.0588	.001302	.00000651
.15	303.15	.0676	.001305	.000006525
.15	303.15	.1527	.001331	.000006655
.15	303.15	.2123	.001352	.00000676
.15	303.15	.3581	.00139	.00000695
.15	303.15	.4926	.001429	.000007145
.15	303.15	.6311	.00147	.00000735
.15	303.15	.7718	.001528	.00000764
.15	303.15	.9107	.001574	.00000787
.15	303.15	1.0093	.001618	.00000809
.15	303.15	1.229	.001714	.00000857
.15	303.15	1.3314	.00176	.0000088
.15	308.15	.0434	.001175	.000005875
.15	308.15	.0495	.001178	.00000589
.15	308.15	.0587	.00118	.0000059
.15	308.15	.0675	.001184	.00000592
.15	308.15	.1524	.00121	.00000605
.15	308.15	.2118	.001225	.000006125
.15	308.15	.3574	.001258	.00000629
.15	308.15	.4916	.001293	.000006465
.15	308.15	.6297	.00134	.0000067
.15	308.15	.7701	.001378	.00000689
.15	308.15	.9087	.001417	.000007085
.15	308.15	1.007	.001454	.00000727
.15	308.15	1.2262	.001531	.000007655
.15	308.15	1.3284	.001562	.00000781
.15	313.15	.0433	.001067	.000005335
.15	313.15	.0494	.001069	.000005345
.15	313.15	.0586	.001072	.00000536
.15	313.15	.0673	.001075	.000005375
.15	313.15	.1521	.001091	.000005455
.15	313.15	.2113	.001104	.00000552
.15	313.15	.3565	.001134	.00000567
.15	313.15	.4905	.001163	.000005815
.15	313.15	.6283	.001199	.000005995
.15	313.15	.7683	.001244	.00000622
.15	313.15	.9066	.001287	.000006435
.15	313.15	1.0047	.001318	.00000659
.15	313.15	1.2234	.001387	.000006935
.15	313.15	1.3253	.001429	.000007145
.15	318.15	.0432	.000977	.000004885
.15	318.15	.0493	.000979	.000004895
.15	318.15	.0585	.000981	.000004905
.15	318.15	.0672	.000983	.000004915
.15	318.15	.1517	.001003	.000005015
.15	318.15	.2109	.001015	.000005075
.15	318.15	.3557	.001039	.000005195
.15	318.15	.4894	.001076	.00000538
.15	318.15	.6268	.001106	.00000553
.15	318.15	.7665	.001143	.000005715
.15	318.15	.9045	.00118	.0000059
.15	318.15	1.0024	.001208	.00000604
.15	318.15	1.2205	.00127	.00000635
.15	318.15	1.3221	.0013	.0000065
.2	298.15	.0501	.001757	.000008785
.2	298.15	.0772	.001771	.000008855
.2	298.15	.0965	.001781	.000008905
.2	298.15	.1087	.001784	.00000892
.2	298.15	.1294	.00179	.00000895
.2	298.15	.1583	.001803	.000009015
.2	298.15	.3865	.00189	.00000945
.2	298.15	.5546	.001962	.00000981
.2	298.15	.6174	.002001	.000010005
.2	298.15	.7732	.002084	.00001042
.2	298.15	.8449	.002127	.000010635
.2	298.15	1.0751	.002237	.000011185
.2	298.15	1.1496	.002283	.000011415
.2	303.15	.05	.001566	.00000783
.2	303.15	.0771	.001574	.00000787
.2	303.15	.0963	.001584	.00000792
.2	303.15	.1085	.001594	.00000797
.2	303.15	.1291	.001603	.000008015
.2	303.15	.158	.001612	.00000806
.2	303.15	.3857	.001693	.000008465
.2	303.15	.5535	.001761	.000008805
.2	303.15	.6162	.001782	.00000891
.2	303.15	.7716	.001847	.000009235
.2	303.15	.8432	.001893	.000009465
.2	303.15	1.0729	.002003	.000010015
.2	303.15	1.1473	.002023	.000010115
.2	308.15	.0499	.001425	.000007125
.2	308.15	.0769	.001427	.000007135
.2	308.15	.0961	.001434	.00000717
.2	308.15	.1083	.001444	.00000722
.2	308.15	.1288	.001451	.000007255
.2	308.15	.1577	.001454	.00000727
.2	308.15	.3849	.00152	.0000076
.2	308.15	.5523	.001583	.000007915
.2	308.15	.6148	.001602	.00000801
.2	308.15	.7699	.001656	.00000828
.2	308.15	.8414	.001698	.00000849
.2	308.15	1.0705	.001792	.00000896
.2	308.15	1.1447	.001818	.00000909
.2	313.15	.0498	.001293	.000006465
.2	313.15	.0767	.0013	.0000065
.2	313.15	.0959	.001304	.00000652
.2	313.15	.108	.001308	.00000654
.2	313.15	.1285	.001312	.00000656
.2	313.15	.1573	.00132	.0000066
.2	313.15	.384	.001393	.000006965
.2	313.15	.551	.001436	.00000718
.2	313.15	.6134	.001455	.000007275
.2	313.15	.7682	.001508	.00000754
.2	313.15	.8394	.001529	.000007645
.2	313.15	1.068	.001615	.000008075
.2	313.15	1.142	.001645	.000008225
.2	318.15	.0497	.00117	.00000585
.2	318.15	.0765	.001178	.00000589
.2	318.15	.0957	.001183	.000005915
.2	318.15	.1078	.001189	.000005945
.2	318.15	.1282	.001199	.000005995
.2	318.15	.1569	.001205	.000006025
.2	318.15	.3831	.001276	.00000638
.2	318.15	.5497	.001319	.000006595
.2	318.15	.6119	.001344	.00000672
.2	318.15	.7663	.001384	.00000692
.2	318.15	.8374	.001398	.00000699
.2	318.15	1.0654	.001473	.000007365
.2	318.15	1.1392	.001493	.000007465
