Measured thermophysical data. Heat capacity (Cp) and entropy of olivine-type LiFePO4 in the temperature range (2 to 773) K
Source: J. Chem. Thermodyn., 2015, 10.1016/j.jct.2015.01.007
Compound 1: iron(II) lithium phosphate, FeLiO4P

System: iron(II) lithium phosphate; phases: Crystal 2, Crystal 1, Gas
Property: Triple point temperature, K (Crystal 2); method: Relaxation calorimeter
Triple point temperature, K	uncertainty
49.24	.02

System: iron(II) lithium phosphate; phases: Crystal 2
Fixed: Pressure, kPa = 101.325
Property: Molar heat capacity at constant pressure, J/K/mol (Crystal 2); method: relaxation calorimetry
Temperature, K	Molar heat capacity at constant pressure, J/K/mol	uncertainty
2.03	.0162	7
2.2	.0187	7
2.38	.0224	7
2.58	.0243	7
2.8	.0271	7
3.04	.0309	7
3.29	.0325	7
3.56	.0401	7
3.86	.048	7
4.19	.0562	7
4.54	.059	7
4.92	.0709	7
5.33	.0742	7
5.78	.0903	7
6.26	.101	7
6.78	.12	7
7.35	.138	7
7.97	.173	7
8.64	.22	7
9.36	.276	7
10.14	.364	7
10.23	.46	7
10.75	.535	7
11.26	.615	7
11.77	.706	7
12.28	.808	7
12.8	.917	7
13.31	1.038	7
13.83	1.171	7
14.34	1.314	7
14.85	1.467	7
15.36	1.631	7
15.88	1.797	7
16.39	1.977	7
16.9	2.169	7
17.41	2.363	7
17.93	2.571	7
18.44	2.79	7
18.95	3.015	7
19.47	3.249	7
19.9752	3.484	7
20.49	3.75	2
21.0062	3.99	2
21.51	4.26	2
22.03	4.55	2
22.54	4.83	2
23.05	5.13	2
23.56	5.43	2
24.08	5.74	2
24.59	6.06	2
25.1	6.4	2
25.61	6.75	2
26.13	7.09	2
26.64	7.45	2
27.15	7.84	2
27.67	8.22	2
28.18	8.63	2
28.69	9.04	2
29.2	9.47	2
29.71	9.92	2
30.22	10.36	2
30.73	10.82	2
31.24	11.31	2
31.76	11.78	2
32.27	12.28	2
32.78	12.78	2
33.29	13.28	2
33.8	13.81	2
34.31	14.35	2
34.82	14.9	2
35.34	15.46	2
35.85	16.03	2
37.02	17.18	2
38.89	19.19	2
40.75	21.8	2
42.62	24.74	2
44.48	28.1	2
45.5	30.18	2
45.72	30.67	2
45.92	31.15	2
46.14	31.65	2
46.34	32.17	2
46.55	32.68	2
46.75	33.24	2
46.97	33.77	2
47.16	34.33	2
47.38	34.9	2
47.58	35.53	2
47.8	36.14	2
47.99	36.79	2
48.2	37.43	2
48.4	38.11	2
48.62	38.7	2
48.82	39.3	2
49.03	39.72	2
49.22	40.03	2

System: iron(II) lithium phosphate; phases: Crystal 1
Fixed: Pressure, kPa = 101.325
Property: Molar heat capacity at constant pressure, J/K/mol (Crystal 1); method: relaxation calorimetry
Temperature, K	Molar heat capacity at constant pressure, J/K/mol	uncertainty
49.44	39.73	.7946
49.64	38.83	.7766
49.85	36.64	.7328
50.05	33.84	.6768
50.27	30.69	.6138
50.47	28.52	.5704
50.69	26.66	.5332
50.89	25.59	.5118
51.08	24.86	.4972
51.29	24.3	.486
51.5	23.89	.4778
51.7	23.58	.4716
51.9	23.36	.4672
52.12	23.13	.4626
52.32	22.99	.4598
52.53	22.88	.4576
52.72	22.83	.4566
52.94	22.74	.4548
53.14	22.69	.4538
53.35	22.66	.4532
53.55	22.66	.4532
53.77	22.66	.4532
53.96	22.66	.4532
54.18	22.69	.4538
54.38	22.68	.4536
54.59	22.73	.4546
54.79	22.77	.4554
55	22.82	.4564
55.2	22.85	.457
55.41	22.91	.4582
55.62	22.95	.459
56.61	23.28	.4656
57.71	23.69	.4738
58.79	24.17	.4834
59.89	24.67	.4934
60.97	25.19	.5038
62.06	25.78	.5156
63.15	26.36	.5272
64.24	26.97	.5394
65.33	27.59	.5518
66.42	28.2	.564
67.51	28.84	.5768
68.59	29.48	.5896
69.68	30.12	.6024
70.77	30.78	.6156
71.15	31.26	.6252
73.24	32.53	.6506
75.34	33.86	.6772
77.43	35.17	.7034
79.53	36.46	.7292
81.62	37.8	.756
83.72	39.15	.783
85.81	40.41	.8082
87.9	41.69	.8338
90	42.91	.8582
92.09	44.24	.8848
94.19	45.59	.9118
96.28	46.89	.9378
98.38	48.18	.9636
100.47	49.44	.9888
102.56	50.67	1.0134
104.65	52.08	1.0416
106.73	53.17	1.0634
108.85	54.37	1.0874
110.94	55.54	1.1108
113.02	56.62	1.1324
115.13	58.05	1.161
117.22	59.3	1.186
119.27	60.39	1.2078
119.96	60.87	1.2174
120.69	61.12	1.2224
121.4	61.55	1.231
122.12	61.93	1.2386
122.83	62.24	1.2448
123.54	62.63	1.2526
124.25	63.1	1.262
124.96	63.45	1.269
125.68	63.84	1.2768
126.36	64.12	1.2824
127.07	64.49	1.2898
127.81	64.96	1.2992
131.36	66.82	1.3364
141.32	71.82	1.4364
151.46	76.8	1.536
161.54	81.23	1.6246
171.6	85.36	1.7072
181.68	89.21	1.7842
191.78	93.16	1.8632
201.84	97.49	1.9498
211.78	100.3	2.006
222.01	103.27	2.0654
232.1	105.66	2.1132
242.04	108.22	2.1644
252.15	110.6	2.212
262.34	112.67	2.2534
272.43	114.97	2.2994
282.56	117.79	2.3558
292.55	120.06	2.4012
302.7	120.5	2.41

System: iron(II) lithium phosphate; phases: Crystal 1
Fixed: Pressure, kPa = 101.325
Property: Molar heat capacity at constant pressure, J/K/mol (Crystal 1); method: Large sample (1 g) scanning calorimetry
Temperature, K	Molar heat capacity at constant pressure, J/K/mol	uncertainty
293.2	120.85	2.417
313.2	125.4	2.508
333.2	128	2.56
353.2	130.1	2.602

System: iron(II) lithium phosphate; phases: Crystal 1
Fixed: Pressure, kPa = 101.325
Property: Molar heat capacity at constant pressure, J/K/mol (Crystal 1); method: Small sample (50 mg) scanning calorimetry
Temperature, K	Molar heat capacity at constant pressure, J/K/mol	uncertainty
284.9	120.8	2.416
294.8	122.5	2.45
304.6	126.1	2.522
314.5	128.2	2.564
324.4	129.7	2.594
334.4	132.2	2.644
344.3	134.8	2.696
354.2	136.3	2.726
364.1	137.9	2.758
374	140.2	2.804
383.9	142.9	2.858
393.8	145.5	2.91
403.8	147	2.94
413.7	148.9	2.978
423.6	150.3	3.006
433.5	151.6	3.032
443.4	152.8	3.056
453.3	154	3.08
463.3	155	3.1
473.2	156.3	3.126
483.1	157.5	3.15
493	159	3.18
502.9	160	3.2
512.8	161	3.22
522.7	162.2	3.244
532.6	163.4	3.268
542.5	165	3.3
552.4	166.2	3.324
562.3	167.1	3.342
572.3	168.3	3.366
582.2	169.6	3.392
592.1	170.4	3.408
602	171.1	3.422
611.9	173	3.46
621.8	173.6	3.472
631.7	174.2	3.484
641.6	174.9	3.498
651.6	175.7	3.514
661.5	176.8	3.536
671.8	177.4	3.548
681.3	178	3.56
691.3	178.7	3.574
701.2	179.4	3.588
711.1	180.6	3.612
721	181.6	3.632
730.9	182.4	3.648
740.8	183.5	3.67
750.8	184.5	3.69
760.7	185.7	3.714
770.6	186.9	3.738

System: iron(II) lithium phosphate; phases: Crystal 2
Fixed: Pressure, kPa = 101.325
Property: Molar heat capacity at constant pressure, J/K/mol (Crystal 2); method: relaxation calorimetry
Temperature, K	Molar heat capacity at constant pressure, J/K/mol	uncertainty
5	.0481	7
10	.3419	7
15	1.514	7
20	3.498	7
25	6.334	2
30	10.17	2
35	15.09	2
40	20.69	2
42	23.73	2
45	29.13	2
46	31.31	2
47	33.89	2
48	36.77	2
49	39.73	2
49.24	39.99	2

System: iron(II) lithium phosphate; phases: Crystal 2
Fixed: Pressure, kPa = 101.325
Property: Molar entropy, J/K/mol (Crystal 2); method: relaxation calorimetry
Temperature, K	Molar entropy, J/K/mol	uncertainty
5	.0577	7
10	.1645	7
15	.5534	7
20	1.241	7
25	2.309	2
30	3.785	2
35	5.708	2
40	8.078	2
42	9.158	2
45	10.96	2
46	11.63	2
47	12.33	2
48	13.07	2
49	13.86	2
49.24	14.06	2

System: iron(II) lithium phosphate; phases: Crystal 2
Fixed: Pressure, kPa = 101.325
Property: Molar enthalpy function {Hm(T)-Hm(0)}/T, J/K/mol (Crystal 2); method: relaxation calorimetry
Temperature, K	Molar enthalpy function {Hm(T)-Hm(0)}/T, J/K/mol	uncertainty
5	.0281	7
10	.0977	7
15	.382	7
20	.8945	7
25	1.684	2
30	2.76	2
35	4.149	2
40	5.842	2
42	6.605	2
45	7.879	2
46	8.35	2
47	8.852	2
48	9.386	2
49	9.955	2
49.24	10.1	2

System: iron(II) lithium phosphate; phases: Crystal 1
Fixed: Pressure, kPa = 101.325
Property: Molar heat capacity at constant pressure, J/K/mol (Crystal 1); method: combination of DSC and relaxation calorimetry
Temperature, K	Molar heat capacity at constant pressure, J/K/mol	uncertainty
49.24	39.99	.7998
50	34.52	.6904
51	25.15	.503
52	23.25	.465
53	22.72	.4544
54	22.66	.4532
55	22.82	.4564
60	24.71	.4942
65	27.41	.5482
70	30.31	.6062
80	36.84	.7368
90	43.39	.8678
100	49.48	.9896
110	55.21	1.1042
120	60.65	1.213
130	65.85	1.317
140	70.83	1.4166
150	75.59	1.5118
160	80.13	1.6026
170	84.45	1.689
180	88.56	1.7712
190	92.44	1.8488
200	96.11	1.9222
210	99.57	1.9914
220	102.8	2.056
230	105.9	2.118
240	108.7	2.174
250	111.4	2.228
260	113.9	2.278
270	116.3	2.326
280	118.4	2.368
290	120.5	2.41
298.15	122.1	2.442
300	122.4	2.448
320	129	2.58
340	133.4	2.668
360	137.6	2.752
380	141.6	2.832
400	145.3	2.906
420	148.7	2.974
440	151.9	3.038
460	154.9	3.098
480	157.7	3.154
500	160.3	3.206
520	162.7	3.254
540	164.9	3.298
560	167	3.34
580	169	3.38
600	170.9	3.418
620	172.8	3.456
640	174.5	3.49
660	176.3	3.526
680	178.1	3.562
700	179.8	3.596
720	181.6	3.632
740	183.5	3.67
760	185.5	3.71

System: iron(II) lithium phosphate; phases: Crystal 1
Fixed: Pressure, kPa = 101.325
Property: Molar entropy, J/K/mol (Crystal 1); method: combination of DSC and relaxation calorimetry
Temperature, K	Molar entropy, J/K/mol	uncertainty
49.24	14.06	.2812
50	14.7	.294
51	15.21	.3042
52	15.67	.3134
53	16.11	.3222
54	16.53	.3306
55	16.95	.339
60	19.01	.3802
65	21.09	.4218
70	23.23	.4646
80	27.71	.5542
90	32.41	.6482
100	37.27	.7454
110	42.25	.845
120	47.28	.9456
130	52.34	1.0468
140	57.41	1.1482
150	62.46	1.2492
160	67.48	1.3496
170	72.46	1.4492
180	77.39	1.5478
190	82.26	1.6452
200	87.07	1.7414
210	91.83	1.8366
220	96.51	1.9302
230	101.1	2.022
240	105.7	2.114
250	110.2	2.204
260	114.6	2.292
270	119	2.38
280	123.3	2.466
290	127.5	2.55
298.15	130.9	2.618
300	131.7	2.634
320	139.9	2.798
340	147.9	2.958
360	155.6	3.112
380	163.1	3.262
400	170.5	3.41
420	177.6	3.552
440	184.6	3.692
460	191.4	3.828
480	198	3.96
500	204.4	4.088
520	210.8	4.216
540	216.9	4.338
560	223	4.46
580	228.9	4.578
600	234.6	4.692
620	240.3	4.806
640	245.8	4.916
660	251.2	5.024
680	256.5	5.13
700	261.8	5.236
720	266.9	5.338
740	271.9	5.438
760	276.8	5.536

System: iron(II) lithium phosphate; phases: Crystal 1
Fixed: Pressure, kPa = 101.325
Property: Molar enthalpy function {Hm(T)-Hm(0)}/T, J/K/mol (Crystal 1); method: combination of DSC and relaxation calorimetry
Temperature, K	Molar enthalpy function {Hm(T)-Hm(0)}/T, J/K/mol	uncertainty
49.24	10.1	.202
50	10.51	.2102
51	10.81	.2162
52	11.06	.2212
53	11.28	.2256
54	11.49	.2298
55	11.69	.2338
60	12.7	.254
65	13.73	.2746
70	14.8	.296
80	17.16	.3432
90	19.68	.3936
100	22.32	.4464
110	25.03	.5006
120	27.77	.5554
130	30.51	.6102
140	33.25	.665
150	35.95	.719
160	38.61	.7722
170	41.21	.8242
180	43.75	.875
190	46.22	.9244
200	48.62	.9724
210	50.95	1.019
220	53.21	1.0642
230	55.4	1.108
240	57.53	1.1506
250	59.59	1.1918
260	61.6	1.232
270	63.56	1.2712
280	65.48	1.3096
290	67.34	1.3468
298.15	68.84	1.3768
300	69.17	1.3834
320	72.72	1.4544
340	76.13	1.5226
360	79.43	1.5886
380	82.61	1.6522
400	85.68	1.7136
420	88.62	1.7724
440	91.45	1.829
460	94.15	1.883
480	96.74	1.9348
500	99.21	1.9842
520	101.6	2.032
540	103.9	2.078
560	106.1	2.122
580	108.2	2.164
600	110.3	2.206
620	112.3	2.246
640	114.2	2.284
660	116.1	2.322
680	117.9	2.358
700	119.6	2.392
720	121.3	2.426
740	122.7	2.454
760	124.6	2.492
