Measured thermophysical data. Volumetric and transport properties of binary liquid mixtures of sulfolane with aniline, N,N-dimethylaniline and N,N-diethylaniline at different temperatures and atmospheric pressure
Source: J. Chem. Thermodyn., 2016, 10.1016/j.jct.2015.12.030
Compound 1: sulfolane, C4H8O2S, purity 99%
Compound 2: aniline, C6H7N, purity 99%
Compound 3: N,N-dimethylaniline, C8H11N, purity 99%
Compound 4: N,N-diethylaniline, C10H15N, purity 99%

System: sulfolane; phases: Liquid
Property: Mass density, kg/m3 (Liquid); method: Vibrating tube method
Temperature, K	Pressure, kPa	Mass density, kg/m3	uncertainty
303.15	101	1260.1	
308.15	101	1255.7	
313.15	101	1251.3	

System: sulfolane; phases: Liquid
Property: Viscosity, Pa*s (Liquid); method: Capillary tube (Ostwald; Ubbelohde) method
Temperature, K	Pressure, kPa	Viscosity, Pa*s	uncertainty
303.15	101	.0102	
308.15	101	.00895	
313.15	101	.00788	

System: aniline; phases: Liquid
Property: Mass density, kg/m3 (Liquid); method: Vibrating tube method
Temperature, K	Pressure, kPa	Mass density, kg/m3	uncertainty
303.15	101	1013	
308.15	101	1008.7	
313.15	101	1004.4	

System: aniline; phases: Liquid
Property: Viscosity, Pa*s (Liquid); method: Capillary tube (Ostwald; Ubbelohde) method
Temperature, K	Pressure, kPa	Viscosity, Pa*s	uncertainty
303.15	101	.00325	
308.15	101	.0028	
313.15	101	.00242	

System: N,N-dimethylaniline; phases: Liquid
Property: Mass density, kg/m3 (Liquid); method: Vibrating tube method
Temperature, K	Pressure, kPa	Mass density, kg/m3	uncertainty
303.15	101	947.7	
308.15	101	943.5	
313.15	101	939.4	

System: N,N-dimethylaniline; phases: Liquid
Property: Viscosity, Pa*s (Liquid); method: Capillary tube (Ostwald; Ubbelohde) method
Temperature, K	Pressure, kPa	Viscosity, Pa*s	uncertainty
303.15	101	.00118	
308.15	101	.00109	
313.15	101	.00101	

System: N,N-diethylaniline; phases: Liquid
Property: Mass density, kg/m3 (Liquid); method: Vibrating tube method
Temperature, K	Pressure, kPa	Mass density, kg/m3	uncertainty
303.15	101	925.9	
308.15	101	921.9	
313.15	101	917.9	

System: N,N-diethylaniline; phases: Liquid
Property: Viscosity, Pa*s (Liquid); method: Capillary tube (Ostwald; Ubbelohde) method
Temperature, K	Pressure, kPa	Viscosity, Pa*s	uncertainty
303.15	101	.00172	
308.15	101	.00155	
313.15	101	.0014	

System: aniline + sulfolane; phases: Liquid
Fixed: Pressure, kPa = 101
Property: Mass density, kg/m3 (Liquid); method: Vibrating tube method
Temperature, K	Mole fraction of aniline	Mass density, kg/m3	uncertainty
303.15	0	1260.1	
303.15	.1	1238.3	
303.15	.1955	1217	
303.15	.3007	1192.6	
303.15	.3902	1171.4	
303.15	.4997	1144.7	
303.15	.6003	1119.6	
303.15	.7027	1093.4	
303.15	.7982	1068.3	
303.15	.8995	1040.8	
303.15	1	1013	
308.15	0	1255.7	
308.15	.1	1233.9	
308.15	.1955	1212.6	
308.15	.3007	1188.3	
308.15	.3902	1167	
308.15	.4997	1140.3	
308.15	.6003	1115.3	
308.15	.7027	1089.1	
308.15	.7982	1064	
308.15	.8995	1036.5	
308.15	1	1008.7	
313.15	0	1251.3	
313.15	.1	1229.5	
313.15	.1955	1208.2	
313.15	.3007	1183.9	
313.15	.3902	1162.7	
313.15	.4997	1136	
313.15	.6003	1111	
313.15	.7027	1084.8	
313.15	.7982	1059.7	
313.15	.8995	1032.2	
313.15	1	1004.4	

System: aniline + sulfolane; phases: Liquid
Fixed: Pressure, kPa = 101
Property: Viscosity, Pa*s (Liquid); method: Capillary tube (Ostwald; Ubbelohde) method
Temperature, K	Mole fraction of aniline	Viscosity, Pa*s	uncertainty
303.15	0	.0102	
303.15	.1	.00914	
303.15	.1955	.00822	
303.15	.3007	.00731	
303.15	.3902	.00662	
303.15	.4997	.00586	
303.15	.6003	.00524	
303.15	.7027	.00466	
303.15	.7982	.00417	
303.15	.8995	.00369	
303.15	1	.00325	
308.15	0	.00895	
308.15	.1	.00801	
308.15	.1955	.0072	
308.15	.3007	.00639	
308.15	.3902	.00578	
308.15	.4997	.0051	
308.15	.6003	.00455	
308.15	.7027	.00403	
308.15	.7982	.00359	
308.15	.8995	.00317	
308.15	1	.0028	
313.15	0	.00788	
313.15	.1	.00705	
313.15	.1955	.00633	
313.15	.3007	.00561	
313.15	.3902	.00506	
313.15	.4997	.00446	
313.15	.6003	.00397	
313.15	.7027	.00351	
313.15	.7982	.00312	
313.15	.8995	.00275	
313.15	1	.00242	

System: N,N-dimethylaniline + sulfolane; phases: Liquid
Fixed: Pressure, kPa = 101
Property: Mass density, kg/m3 (Liquid); method: Vibrating tube method
Temperature, K	Mole fraction of N,N-dimethylaniline	Mass density, kg/m3	uncertainty
303.15	0	1260.1	
303.15	.1056	1221.1	
303.15	.2173	1181	
303.15	.2989	1152.7	
303.15	.4055	1117.3	
303.15	.5001	1087.4	
303.15	.6087	1054.8	
303.15	.6965	1029.6	
303.15	.798	1001.6	
303.15	.9131	970.8	
303.15	1	947.7	
308.15	0	1255.7	
308.15	.1056	1217.4	
308.15	.2173	1177.7	
308.15	.2989	1149.5	
308.15	.4055	1114.2	
308.15	.5001	1084.3	
308.15	.6087	1051.5	
308.15	.6965	1026.2	
308.15	.798	997.9	
308.15	.9131	967	
308.15	1	943.5	
313.15	0	1251.3	
313.15	.1056	1213.9	
313.15	.2173	1174.4	
313.15	.2989	1146.4	
313.15	.4055	1111.1	
313.15	.5001	1081.2	
313.15	.6087	1048.4	
313.15	.6965	1022.8	
313.15	.798	994.4	
313.15	.9131	963.2	
313.15	1	939.4	

System: N,N-dimethylaniline + sulfolane; phases: Liquid
Fixed: Pressure, kPa = 101
Property: Viscosity, Pa*s (Liquid); method: Capillary tube (Ostwald; Ubbelohde) method
Temperature, K	Mole fraction of N,N-dimethylaniline	Viscosity, Pa*s	uncertainty
303.15	0	.0102	
303.15	.1056	.0078	
303.15	.2173	.00597	
303.15	.2989	.00493	
303.15	.4055	.00386	
303.15	.5001	.00312	
303.15	.6087	.00247	
303.15	.6965	.00206	
303.15	.798	.00168	
303.15	.9131	.00136	
303.15	1	.00118	
308.15	0	.00895	
308.15	.1056	.00692	
308.15	.2173	.00533	
308.15	.2989	.00444	
308.15	.4055	.00351	
308.15	.5001	.00285	
308.15	.6087	.00226	
308.15	.6965	.00189	
308.15	.798	.00155	
308.15	.9131	.00126	
308.15	1	.00109	
313.15	0	.00788	
313.15	.1056	.00618	
313.15	.2173	.00479	
313.15	.2989	.00401	
313.15	.4055	.00319	
313.15	.5001	.00261	
313.15	.6087	.00208	
313.15	.6965	.00174	
313.15	.798	.00143	
313.15	.9131	.00117	
313.15	1	.00101	

System: N,N-diethylaniline + sulfolane; phases: Liquid
Fixed: Pressure, kPa = 101
Property: Mass density, kg/m3 (Liquid); method: Vibrating tube method
Temperature, K	Mole fraction of N,N-diethylaniline	Mass density, kg/m3	uncertainty
303.15	0	1260.1	
303.15	.0999	1209.5	
303.15	.2008	1164.1	
303.15	.2993	1124	
303.15	.4001	1086.9	
303.15	.5001	1053.7	
303.15	.6027	1022.7	
303.15	.7023	995.4	
303.15	.7999	970.8	
303.15	.8991	947.7	
303.15	1	925.9	
308.15	0	1255.7	
308.15	.0999	1205.2	
308.15	.2008	1160	
308.15	.2993	1120	
308.15	.4001	1082.9	
308.15	.5001	1049.7	
308.15	.6027	1018.8	
308.15	.7023	991.4	
308.15	.7999	966.8	
308.15	.8991	943.7	
308.15	1	921.9	
313.15	0	1251.3	
313.15	.0999	1200.9	
313.15	.2008	1155.8	
313.15	.2993	1115.9	
313.15	.4001	1078.8	
313.15	.5001	1045.7	
313.15	.6027	1014.8	
313.15	.7023	987.4	
313.15	.7999	962.8	
313.15	.8991	939.7	
313.15	1	917.9	

System: N,N-diethylaniline + sulfolane; phases: Liquid
Fixed: Pressure, kPa = 101
Property: Viscosity, Pa*s (Liquid); method: Capillary tube (Ostwald; Ubbelohde) method
Temperature, K	Mole fraction of N,N-diethylaniline	Viscosity, Pa*s	uncertainty
303.15	0	.0102	
303.15	.0999	.00819	
303.15	.2008	.00662	
303.15	.2993	.00541	
303.15	.4001	.00444	
303.15	.5001	.0037	
303.15	.6027	.00309	
303.15	.7023	.00263	
303.15	.7999	.00226	
303.15	.8991	.00196	
303.15	1	.00172	
308.15	0	.00895	
308.15	.0999	.00726	
308.15	.2008	.00588	
308.15	.2993	.00481	
308.15	.4001	.00396	
308.15	.5001	.0033	
308.15	.6027	.00277	
308.15	.7023	.00236	
308.15	.7999	.00204	
308.15	.8991	.00177	
308.15	1	.00155	
313.15	0	.00788	
313.15	.0999	.00645	
313.15	.2008	.00525	
313.15	.2993	.00431	
313.15	.4001	.00354	
313.15	.5001	.00296	
313.15	.6027	.00249	
313.15	.7023	.00213	
313.15	.7999	.00184	
313.15	.8991	.0016	
313.15	1	.0014	
