Measured thermophysical data. Experimental and computational study on the molecular energetics of benzyloxyphenol isomers
Source: J. Chem. Thermodyn., 2011, 10.1016/j.jct.2011.06.014
Compound 1: p-(benzyloxy)phenol, C13H12O2
Compound 2: carbon dioxide, CO2
Compound 3: water, H2O
Compound 4: oxygen, O2
Compound 5: hydrogen, H2
Compound 6: carbon, graphite, C

System: p-(benzyloxy)phenol; phases: Crystal, Gas
Property: Vapor or sublimation pressure, kPa (Crystal); method: Knudsen effusion method
Temperature, K	Vapor or sublimation pressure, kPa	uncertainty
347.16	.000086	.00001
349.18	.000112	.00001
351.13	.00014	.00001
353.16	.000189	.00001
355.16	.000236	.00001
357.12	.000294	.00001
359.15	.00039	.00001
361.15	.000486	.00001
363.12	.000595	.00001
365.15	.000786	.00001
367.15	.000967	.00001
369.12	.001193	.00001
347.16	.000087	.00001
349.18	.000116	.00001
351.13	.000146	.00001
353.16	.000181	.00001
355.16	.000233	.00001
357.12	.000305	.00001
359.15	.00037	.00001
361.15	.000479	.00001
363.12	.000614	.00001
365.15	.000743	.00001
367.15	.000966	.00001
369.12	.001242	.00001
347.16	.000087	.00001
349.18	.000116	.00001
351.13	.000146	.00001
353.16	.000181	.00001
355.16	.000233	.00001
357.12	.000305	.00001
359.15	.00037	.00001
361.15	.000479	.00001
363.12	.000614	.00001
365.15	.000743	.00001
367.15	.000966	.00001
369.12	.001242	.00001

System: p-(benzyloxy)phenol; phases: Crystal, Gas
Property: Molar enthalpy of vaporization or sublimation, kJ/mol (Crystal); method: Derived by Second law
Temperature, K	Molar enthalpy of vaporization or sublimation, kJ/mol	uncertainty
358.15	128.9	.6
298.15	131	.9

Reaction: -1 p-(benzyloxy)phenol + 13 carbon dioxide + 6 water + -15 oxygen
Property: Specific internal energy of reaction at constant volume, J/g
-32825.2

Reaction: 1 p-(benzyloxy)phenol + -6 hydrogen + -13 carbon, graphite + -1 oxygen
Property: Molar enthalpy of reaction, kJ/mol
250.5
