Measured thermophysical data. Phase equilibrium properties of binary mixtures containing 2,5-dimethylfuran and furfuryl alcohol or methyl isobutyl ketone at several temperatures
Source: J. Chem. Thermodyn., 2014, 10.1016/j.jct.2013.10.039
Compound 1: furfuryl alcohol, C5H6O2, purity 98%
Compound 2: methyl isobutyl ketone, C6H12O, purity 99%
Compound 3: 2,5-dimethylfuran, C6H8O, purity 99%

System: furfuryl alcohol; phases: Liquid, Gas
Property: Vapor or sublimation pressure, kPa (Liquid); method: Closed cell (Static) method
Temperature, K	Vapor or sublimation pressure, kPa	uncertainty
273.11	.009	.002
283.08	.022	.002
293.16	.053	.002
303.09	.115	.002
323.16	.471	.002
331.87	.815	.002
333.17	.882	.002
341.85	1.479	.002
343.19	1.611	.0005
351.81	2.577	.0005
353.2	2.787	.0005
362.09	4.368	.0005
363.2	4.649	.0005
372.04	7.065	.0005
382.09	11.092	.0005
392.15	17.099	.0005
402.18	25.115	.0005
412.11	36.527	.0005
313.15	.242	.002
323.15	.475	.002
333.15	.89	.002
343.15	1.597	.0005
353.15	2.755	.0005
363.15	4.588	.0005
373.15	7.398	.0005
383.15	11.588	.0005
393.15	17.675	.0005

System: methyl isobutyl ketone; phases: Liquid, Gas
Property: Vapor or sublimation pressure, kPa (Liquid); method: Closed cell (Static) method
Temperature, K	Vapor or sublimation pressure, kPa	uncertainty
331.98	13.853	.0005
341.81	20.717	.0005
351.81	30.285	.0005
362.04	43.507	.0005
372.03	60.558	.0005
382.04	82.621	.0005
392.07	110.739	.0005
313.15	5.882	.0005
323.15	9.417	.0005
333.15	14.561	.0005
343.15	21.822	.0005
353.15	31.802	.0005
363.15	45.194	.0005
373.15	62.784	.0005
383.15	85.441	.0005
393.15	114.119	.0005

System: 2,5-dimethylfuran; phases: Liquid, Gas
Property: Vapor or sublimation pressure, kPa (Liquid); method: Closed cell (Static) method
Temperature, K	Vapor or sublimation pressure, kPa	uncertainty
313.15	13.939	.07
323.15	21.541	.108
333.15	32.204	.161
343.15	46.744	.234
353.15	66.079	.33
363.15	91.227	.456
373.15	123.285	.616
383.15	163.427	.817
393.15	212.881	1.064

System: furfuryl alcohol + 2,5-dimethylfuran; phases: Liquid, Gas
Property: Vapor or sublimation pressure, kPa (Liquid); method: Closed cell (Static) method
Temperature, K	Mole fraction of 2,5-dimethylfuran	Vapor or sublimation pressure, kPa	uncertainty
313.15	0	.242	.005
313.15	.1735	8.615	.043
313.15	.3292	11.324	.057
313.15	.5014	13.391	.067
313.15	.6676	13.869	.069
313.15	.8075	14.533	.073
313.15	1	13.939	.07
323.15	0	.475	.01
323.15	.1735	12.333	.062
323.15	.3292	16.407	.082
323.15	.5014	19.398	.097
323.15	.6676	20.527	.103
323.15	.8075	21.658	.108
323.15	1	21.541	.108
333.15	0	.89	.018
333.15	.1735	17.305	.087
333.15	.3292	23.25	.116
333.15	.5014	27.512	.138
333.15	.6676	29.639	.148
333.15	.8075	31.482	.157
333.15	1	32.204	.161
343.15	0	1.597	.008
343.15	.1735	23.836	.119
343.15	.3292	32.286	.161
343.15	.5014	38.275	.191
343.15	.6676	41.845	.209
343.15	.8075	44.737	.224
343.15	1	46.744	.234
353.15	0	2.755	.014
353.15	.1735	32.276	.161
353.15	.3292	44.01	.22
353.15	.5014	52.311	.262
353.15	.6676	57.881	.289
353.15	.8075	62.273	.311
353.15	1	66.079	.33
363.15	0	4.588	.023
363.15	.1735	43.024	.215
363.15	.3292	58.979	.295
363.15	.5014	70.333	.352
363.15	.6676	78.579	.393
363.15	.8075	85.06	.425
363.15	1	91.227	.456
373.15	0	7.398	.037
373.15	.1735	56.525	.283
373.15	.3292	77.813	.389
373.15	.5014	93.147	.466
373.15	.6676	104.868	.524
373.15	.8075	114.191	.571
373.15	1	123.285	.616
383.15	0	11.588	.058
383.15	.1735	73.271	.366
383.15	.3292	101.191	.506
383.15	.5014	121.647	.608
383.15	.6676	137.768	.689
383.15	.8075	150.88	.754
383.15	1	163.427	.817
393.15	0	17.675	.088
393.15	.1735	93.799	.469
393.15	.3292	129.851	.649
393.15	.5014	156.822	.784
393.15	.6676	178.388	.892
393.15	.8075	196.455	.982
393.15	1	212.881	1.064

System: methyl isobutyl ketone + 2,5-dimethylfuran; phases: Liquid, Gas
Property: Vapor or sublimation pressure, kPa (Liquid); method: Closed cell (Static) method
Temperature, K	Mole fraction of 2,5-dimethylfuran	Vapor or sublimation pressure, kPa	uncertainty
313.15	0	5.882	.029
313.15	.1748	9.302	.047
313.15	.3209	10.726	.054
313.15	.4986	12.197	.061
313.15	.6627	13.51	.068
313.15	.8281	14.685	.073
313.15	1	13.939	.07
323.15	0	9.417	.047
323.15	.1748	14.073	.07
323.15	.3209	16.141	.081
323.15	.4986	18.266	.091
323.15	.6627	20.249	.101
323.15	.8281	22.018	.11
323.15	1	21.541	.108
333.15	0	14.561	.073
333.15	.1748	20.745	.104
333.15	.3209	23.684	.118
333.15	.4986	26.699	.133
333.15	.6627	29.584	.148
333.15	.8281	32.172	.161
333.15	1	32.204	.161
343.15	0	21.822	.109
343.15	.1748	29.866	.149
343.15	.3209	33.96	.17
343.15	.4986	38.17	.191
343.15	.6627	42.231	.211
343.15	.8281	45.921	.23
343.15	1	46.744	.234
353.15	0	31.802	.159
353.15	.1748	42.084	.21
353.15	.3209	47.682	.238
353.15	.4986	53.475	.267
353.15	.6627	59.025	.295
353.15	.8281	64.165	.321
353.15	1	66.079	.33
363.15	0	45.194	.226
363.15	.1748	58.145	.291
363.15	.3209	65.674	.328
363.15	.4986	73.537	.368
363.15	.6627	80.919	.405
363.15	.8281	87.929	.44
363.15	1	91.227	.456
373.15	0	62.784	.314
373.15	.1748	78.901	.395
373.15	.3209	88.872	.444
373.15	.4986	99.411	.497
373.15	.6627	108.991	.545
373.15	.8281	118.37	.592
373.15	1	123.285	.616
383.15	0	85.441	.427
383.15	.1748	105.31	.527
383.15	.3209	118.329	.592
383.15	.4986	132.287	.661
383.15	.6627	144.436	.722
383.15	.8281	156.766	.784
383.15	1	163.427	.817
393.15	0	114.119	.571
393.15	.1748	138.43	.692
393.15	.3209	155.213	.776
393.15	.4986	173.494	.867
393.15	.6627	188.569	.943
393.15	.8281	204.522	1.023
393.15	1	212.881	1.064
