Measured thermophysical data. Thermochemical study of three dibromophenol isomers
Source: J. Chem. Thermodyn., 2011, 10.1016/j.jct.2010.08.020
Compound 1: 2,4-dibromophenol, C6H4Br2O, purity 95%
Compound 2: 2,6-dibromophenol, C6H4Br2O, purity 99%
Compound 3: 3,5-dibromophenol, C6H4Br2O, purity 97%
Compound 4: carbon dioxide, CO2
Compound 5: water, H2O
Compound 6: oxygen, O2
Compound 7: hydrogen bromide, BrH
Compound 8: bromine, Br2
Compound 9: carbon, graphite, C
Compound 10: hydrogen, H2

System: 2,4-dibromophenol; phases: Crystal, Gas
Property: Molar enthalpy of vaporization or sublimation, kJ/mol (Crystal); method: drop (calvet) calorimetry
Temperature, K	Molar enthalpy of vaporization or sublimation, kJ/mol	uncertainty
298.15	81.3	1.5

System: 2,6-dibromophenol; phases: Crystal, Gas
Property: Molar enthalpy of vaporization or sublimation, kJ/mol (Crystal); method: drop (calvet) calorimetry
Temperature, K	Molar enthalpy of vaporization or sublimation, kJ/mol	uncertainty
298.15	83.4	1.5

System: 3,5-dibromophenol; phases: Crystal, Gas
Property: Molar enthalpy of vaporization or sublimation, kJ/mol (Crystal); method: drop (calvet) calorimetry
Temperature, K	Molar enthalpy of vaporization or sublimation, kJ/mol	uncertainty
298.15	94.3	1.8

System: 3,5-dibromophenol; phases: Crystal, Gas
Property: Vapor or sublimation pressure, kPa (Crystal); method: Knudsen effusion method
Temperature, K	Vapor or sublimation pressure, kPa	uncertainty
299.19	.00012	
301.19	.000157	
303.2	.000196	
305.11	.000241	
307.18	.000325	
309.11	.000407	
311.13	.000502	
313.19	.000663	
315.21	.000813	
317.12	.001011	
299.19	.000118	
301.19	.000146	
303.2	.000184	
305.11	.000244	
307.18	.000315	
309.11	.000414	
311.13	.000501	
313.19	.000629	
315.21	.000838	
317.12	.001023	
299.19	.000117	
301.19	.000151	
303.2	.000189	
305.11	.000242	
307.18	.000317	
309.11	.000389	
311.13	.000493	
313.19	.00065	
315.21	.000801	
317.12	.000993	

Reaction: -1 2,4-dibromophenol + 2 hydrogen bromide + 6 carbon dioxide + 1 water + -6 oxygen
Property: Specific internal energy of reaction at constant volume, J/g
-10908.1

Reaction: -1 2,6-dibromophenol + 2 hydrogen bromide + 6 carbon dioxide + 1 water + -6 oxygen
Property: Specific internal energy of reaction at constant volume, J/g
-10941.5

Reaction: -1 3,5-dibromophenol + 2 hydrogen bromide + 6 carbon dioxide + 1 water + -6 oxygen
Property: Specific internal energy of reaction at constant volume, J/g
-10933.4

Reaction: 1 2,4-dibromophenol + -1 bromine + -2 hydrogen + -6 carbon, graphite + -0.5 oxygen
Property: Molar internal energy of reaction at constant volume, kJ/mol
-140.9

Reaction: 1 2,6-dibromophenol + -1 bromine + -2 hydrogen + -6 carbon, graphite + -0.5 oxygen
Property: Molar internal energy of reaction at constant volume, kJ/mol
-132.5

Reaction: 1 3,5-dibromophenol + -1 bromine + -2 hydrogen + -6 carbon, graphite + -0.5 oxygen
Property: Molar internal energy of reaction at constant volume, kJ/mol
-134.5
