Measured thermophysical data. Studies on properties of ionic liquids 1-alkyl-3-methylimidazolium lactate at temperatures from (288.15 to 333.15) K
Source: J. Chem. Thermodyn., 2013, 10.1016/j.jct.2013.07.008
Compound 1: 1-ethyl-3-methylimidazolium lactate, C9H16N2O3
Compound 2: 1-pentyl-3-methylimidazolium lactate, C12H22N2O3
Compound 3: water, H2O

System: 1-ethyl-3-methylimidazolium lactate; phases: Liquid
Fixed: Pressure, kPa = 101.325
Property: Mass density, kg/m3 (Liquid); method: Buoyancy - hydrostatic balance
Temperature, K	Mass density, kg/m3	uncertainty
288.15	1192.9	.2
293.15	1189.8	.2
303.15	1183.4	.2
308.15	1180.1	.2
313.15	1176.4	.2
318.15	1173.4	.2
323.15	1170.4	.2
328.15	1167.1	.2
333.15	1163.6	.2

System: 1-ethyl-3-methylimidazolium lactate; phases: Liquid, Air at 1 atmosphere
Property: Surface tension liquid-gas, N/m (Liquid); method: Maximal bubble pressure
Temperature, K	Surface tension liquid-gas, N/m	uncertainty
288.15	.0495	.0001
293.15	.0492	.0001
303.15	.0484	.0001
308.15	.048	.0001
313.15	.0477	.0001
318.15	.0474	.0001
323.15	.047	.0001
328.15	.0466	.0001
333.15	.0463	.0001

System: 1-ethyl-3-methylimidazolium lactate; phases: Liquid
Fixed: Pressure, kPa = 101.325
Property: Refractive index (Na D-line) (Liquid); method: Standard Abbe refractometry
Temperature, K	Refractive index (Na D-line)	uncertainty
288.15	1.5026	.0001
293.15	1.5014	.0001
303.15	1.4987	.0001
308.15	1.4977	.0001
313.15	1.4961	.0001
318.15	1.495	.0001
323.15	1.4936	.0001
328.15	1.4926	.0001
333.15	1.4913	.0001

System: 1-ethyl-3-methylimidazolium lactate; phases: Glass, Liquid, Air at 1 atmosphere
Property: Triple point temperature, K (Glass); method: DSC/DTA
Triple point temperature, K	uncertainty
191.85	1

System: 1-pentyl-3-methylimidazolium lactate; phases: Liquid
Fixed: Pressure, kPa = 101.325
Property: Mass density, kg/m3 (Liquid); method: Buoyancy - hydrostatic balance
Temperature, K	Mass density, kg/m3	uncertainty
288.15	1112.6	.2
293.15	1109	.2
303.15	1102.7	.2
308.15	1099.4	.2
313.15	1095.3	.2
318.15	1092.9	.2
323.15	1089.9	.2
328.15	1086.4	.2
333.15	1083.3	.2

System: 1-pentyl-3-methylimidazolium lactate; phases: Liquid, Air at 1 atmosphere
Property: Surface tension liquid-gas, N/m (Liquid); method: Maximal bubble pressure
Temperature, K	Surface tension liquid-gas, N/m	uncertainty
288.15	.0431	.0001
293.15	.0427	.0001
303.15	.042	.0001
308.15	.0415	.0001
313.15	.0412	.0001
318.15	.0409	.0001
323.15	.0405	.0001
328.15	.0401	.0001
333.15	.0398	.0001

System: 1-pentyl-3-methylimidazolium lactate; phases: Liquid
Fixed: Pressure, kPa = 101.325
Property: Refractive index (Na D-line) (Liquid); method: Standard Abbe refractometry
Temperature, K	Refractive index (Na D-line)	uncertainty
288.15	1.494	.0001
293.15	1.4928	.0001
303.15	1.4901	.0001
308.15	1.4891	.0001
313.15	1.4875	.0001
318.15	1.4864	.0001
323.15	1.485	.0001
328.15	1.4841	.0001
333.15	1.4827	.0001

System: 1-pentyl-3-methylimidazolium lactate; phases: Glass, Liquid, Air at 1 atmosphere
Property: Triple point temperature, K (Glass); method: DSC/DTA
Triple point temperature, K	uncertainty
194.95	1

System: water + 1-ethyl-3-methylimidazolium lactate; phases: Liquid
Fixed: Pressure, kPa = 101
Property: Mass density, kg/m3 (Liquid); method: Buoyancy - hydrostatic balance
Mass fraction of water	Temperature, K	Mass density, kg/m3	uncertainty
.0082	288.15	1197.3	.2
.0082	293.15	1194.1	.2
.0082	303.15	1187.6	.2
.0082	308.15	1184.3	.2
.0082	313.15	1180.9	.2
.0082	318.15	1177.6	.2
.0082	323.15	1174.5	.2
.0082	328.15	1171.3	.2
.0082	333.15	1168	.2
.0104	288.15	1198.4	.2
.0104	293.15	1195.2	.2
.0104	303.15	1188.8	.2
.0104	308.15	1185.5	.2
.0104	313.15	1182	.2
.0104	318.15	1178.8	.2
.0104	323.15	1175.6	.2
.0104	328.15	1172.5	.2
.0104	333.15	1169.1	.2
.0121	288.15	1199.4	.2
.0121	293.15	1196.1	.2
.0121	303.15	1189.7	.2
.0121	308.15	1186.4	.2
.0121	313.15	1182.9	.2
.0121	318.15	1179.7	.2
.0121	323.15	1176.4	.2
.0121	328.15	1173.4	.2
.0121	333.15	1170	.2
.0158	288.15	1201.3	.2
.0158	293.15	1198.1	.2
.0158	303.15	1191.5	.2
.0158	308.15	1188.3	.2
.0158	313.15	1184.9	.2
.0158	318.15	1181.5	.2
.0158	323.15	1178.2	.2
.0158	328.15	1175.3	.2
.0158	333.15	1172	.2
.0205	288.15	1203.8	.2
.0205	293.15	1200.5	.2
.0205	303.15	1194	.2
.0205	308.15	1190.7	.2
.0205	313.15	1187.5	.2
.0205	318.15	1184	.2
.0205	323.15	1180.6	.2
.0205	328.15	1177.7	.2
.0205	333.15	1174.5	.2

System: water + 1-ethyl-3-methylimidazolium lactate; phases: Liquid, Air at 1 atmosphere
Property: Surface tension liquid-gas, N/m (Liquid); method: Maximal bubble pressure
Mass fraction of water	Temperature, K	Surface tension liquid-gas, N/m	uncertainty
.0082	288.15	.0501	.0001
.0082	293.15	.0498	.0001
.0082	303.15	.0491	.0001
.0082	308.15	.0487	.0001
.0082	313.15	.0484	.0001
.0082	318.15	.0481	.0001
.0082	323.15	.0477	.0001
.0082	328.15	.0473	.0001
.0082	333.15	.047	.0001
.0104	288.15	.0503	.0001
.0104	293.15	.05	.0001
.0104	303.15	.0493	.0001
.0104	308.15	.0489	.0001
.0104	313.15	.0486	.0001
.0104	318.15	.0483	.0001
.0104	323.15	.0479	.0001
.0104	328.15	.0475	.0001
.0104	333.15	.0472	.0001
.0121	288.15	.0504	.0001
.0121	293.15	.0501	.0001
.0121	303.15	.0494	.0001
.0121	308.15	.049	.0001
.0121	313.15	.0487	.0001
.0121	318.15	.0484	.0001
.0121	323.15	.048	.0001
.0121	328.15	.0476	.0001
.0121	333.15	.0473	.0001
.0158	288.15	.0507	.0001
.0158	293.15	.0504	.0001
.0158	303.15	.0497	.0001
.0158	308.15	.0493	.0001
.0158	313.15	.049	.0001
.0158	318.15	.0487	.0001
.0158	323.15	.0483	.0001
.0158	328.15	.0479	.0001
.0158	333.15	.0476	.0001
.0205	288.15	.051	.0001
.0205	293.15	.0507	.0001
.0205	303.15	.0501	.0001
.0205	308.15	.0497	.0001
.0205	313.15	.0494	.0001
.0205	318.15	.0491	.0001
.0205	323.15	.0487	.0001
.0205	328.15	.0483	.0001
.0205	333.15	.048	.0001

System: water + 1-ethyl-3-methylimidazolium lactate; phases: Liquid
Fixed: Pressure, kPa = 101
Property: Refractive index (Na D-line) (Liquid); method: Standard Abbe refractometry
Mass fraction of water	Temperature, K	Refractive index (Na D-line)	uncertainty
.0082	288.15	1.5019	.0001
.0082	293.15	1.5006	.0001
.0082	303.15	1.498	.0001
.0082	308.15	1.4969	.0001
.0082	313.15	1.4955	.0001
.0082	318.15	1.4943	.0001
.0082	323.15	1.4931	.0001
.0082	328.15	1.4919	.0001
.0082	333.15	1.4906	.0001
.0104	288.15	1.5017	.0001
.0104	293.15	1.5004	.0001
.0104	303.15	1.4978	.0001
.0104	308.15	1.4967	.0001
.0104	313.15	1.4953	.0001
.0104	318.15	1.4941	.0001
.0104	323.15	1.493	.0001
.0104	328.15	1.4917	.0001
.0104	333.15	1.4904	.0001
.0121	288.15	1.5016	.0001
.0121	293.15	1.5002	.0001
.0121	303.15	1.4977	.0001
.0121	308.15	1.4965	.0001
.0121	313.15	1.4952	.0001
.0121	318.15	1.494	.0001
.0121	323.15	1.4929	.0001
.0121	328.15	1.4915	.0001
.0121	333.15	1.4903	.0001
.0158	288.15	1.5013	.0001
.0158	293.15	1.4999	.0001
.0158	303.15	1.4974	.0001
.0158	308.15	1.4962	.0001
.0158	313.15	1.4949	.0001
.0158	318.15	1.4937	.0001
.0158	323.15	1.4927	.0001
.0158	328.15	1.4912	.0001
.0158	333.15	1.49	.0001
.0205	288.15	1.5009	.0001
.0205	293.15	1.4994	.0001
.0205	303.15	1.497	.0001
.0205	308.15	1.4957	.0001
.0205	313.15	1.4946	.0001
.0205	318.15	1.4933	.0001
.0205	323.15	1.4924	.0001
.0205	328.15	1.4908	.0001
.0205	333.15	1.4896	.0001

System: water + 1-pentyl-3-methylimidazolium lactate; phases: Liquid
Fixed: Pressure, kPa = 101
Property: Mass density, kg/m3 (Liquid); method: Buoyancy - hydrostatic balance
Mass fraction of water	Temperature, K	Mass density, kg/m3	uncertainty
.0086	288.15	1116.6	.2
.0086	293.15	1113.1	.2
.0086	303.15	1106.8	.2
.0086	308.15	1103.6	.2
.0086	313.15	1099.9	.2
.0086	318.15	1097.1	.2
.0086	323.15	1093.9	.2
.0086	328.15	1090.5	.2
.0086	333.15	1087.4	.2
.0106	288.15	1117.4	.2
.0106	293.15	1113.9	.2
.0106	303.15	1107.6	.2
.0106	308.15	1104.3	.2
.0106	313.15	1100.7	.2
.0106	318.15	1097.8	.2
.0106	323.15	1094.6	.2
.0106	328.15	1091.2	.2
.0106	333.15	1088.1	.2
.0129	288.15	1118.6	.2
.0129	293.15	1115.2	.2
.0129	303.15	1108.8	.2
.0129	308.15	1105.6	.2
.0129	313.15	1102.1	.2
.0129	318.15	1099.1	.2
.0129	323.15	1095.8	.2
.0129	328.15	1092.5	.2
.0129	333.15	1089.3	.2
.0163	288.15	1120.3	.2
.0163	293.15	1116.8	.2
.0163	303.15	1110.5	.2
.0163	308.15	1107.3	.2
.0163	313.15	1104	.2
.0163	318.15	1100.8	.2
.0163	323.15	1097.5	.2
.0163	328.15	1094.1	.2
.0163	333.15	1091	.2
.021	288.15	1122.4	.2
.021	293.15	1119	.2
.021	303.15	1112.7	.2
.021	308.15	1109.5	.2
.021	313.15	1106.4	.2
.021	318.15	1103	.2
.021	323.15	1099.6	.2
.021	328.15	1096.4	.2
.021	333.15	1093.2	.2

System: water + 1-pentyl-3-methylimidazolium lactate; phases: Liquid, Air at 1 atmosphere
Property: Surface tension liquid-gas, N/m (Liquid); method: Maximal bubble pressure
Mass fraction of water	Temperature, K	Surface tension liquid-gas, N/m	uncertainty
.0086	288.15	.0437	.0001
.0086	293.15	.0433	.0001
.0086	303.15	.0426	.0001
.0086	308.15	.0422	.0001
.0086	313.15	.0419	.0001
.0086	318.15	.0416	.0001
.0086	323.15	.0412	.0001
.0086	328.15	.0408	.0001
.0086	333.15	.0405	.0001
.0106	288.15	.0438	.0001
.0106	293.15	.0434	.0001
.0106	303.15	.0427	.0001
.0106	308.15	.0423	.0001
.0106	313.15	.042	.0001
.0106	318.15	.0418	.0001
.0106	323.15	.0414	.0001
.0106	328.15	.041	.0001
.0106	333.15	.0407	.0001
.0129	288.15	.044	.0001
.0129	293.15	.0436	.0001
.0129	303.15	.0429	.0001
.0129	308.15	.0425	.0001
.0129	313.15	.0422	.0001
.0129	318.15	.0419	.0001
.0129	323.15	.0415	.0001
.0129	328.15	.0411	.0001
.0129	333.15	.0408	.0001
.0163	288.15	.0443	.0001
.0163	293.15	.0439	.0001
.0163	303.15	.0432	.0001
.0163	308.15	.0428	.0001
.0163	313.15	.0425	.0001
.0163	318.15	.0422	.0001
.0163	323.15	.0418	.0001
.0163	328.15	.0414	.0001
.0163	333.15	.0411	.0001
.021	288.15	.0446	.0001
.021	293.15	.0442	.0001
.021	303.15	.0435	.0001
.021	308.15	.0432	.0001
.021	313.15	.0429	.0001
.021	318.15	.0426	.0001
.021	323.15	.0422	.0001
.021	328.15	.0418	.0001
.021	333.15	.0415	.0001

System: water + 1-pentyl-3-methylimidazolium lactate; phases: Liquid
Fixed: Pressure, kPa = 101
Property: Refractive index (Na D-line) (Liquid); method: Standard Abbe refractometry
Mass fraction of water	Temperature, K	Refractive index (Na D-line)	uncertainty
.0081	288.15	1.4933	.0001
.0081	293.15	1.492	.0001
.0081	303.15	1.4894	.0001
.0081	308.15	1.4883	.0001
.0081	313.15	1.4869	.0001
.0081	318.15	1.4857	.0001
.0081	323.15	1.4845	.0001
.0081	328.15	1.4833	.0001
.0081	333.15	1.482	.0001
.0102	288.15	1.4931	.0001
.0102	293.15	1.4918	.0001
.0102	303.15	1.4892	.0001
.0102	308.15	1.4881	.0001
.0102	313.15	1.4867	.0001
.0102	318.15	1.4855	.0001
.0102	323.15	1.4844	.0001
.0102	328.15	1.4831	.0001
.0102	333.15	1.4818	.0001
.0129	288.15	1.4929	.0001
.0129	293.15	1.4916	.0001
.0129	303.15	1.489	.0001
.0129	308.15	1.4879	.0001
.0129	313.15	1.4865	.0001
.0129	318.15	1.4853	.0001
.0129	323.15	1.4842	.0001
.0129	328.15	1.4829	.0001
.0129	333.15	1.4816	.0001
.0153	288.15	1.4927	.0001
.0153	293.15	1.4913	.0001
.0153	303.15	1.4888	.0001
.0153	308.15	1.4876	.0001
.0153	313.15	1.4863	.0001
.0153	318.15	1.4851	.0001
.0153	323.15	1.4841	.0001
.0153	328.15	1.4826	.0001
.0153	333.15	1.4814	.0001
.0199	288.15	1.4923	.0001
.0199	293.15	1.4909	.0001
.0199	303.15	1.4884	.0001
.0199	308.15	1.4872	.0001
.0199	313.15	1.486	.0001
.0199	318.15	1.4847	.0001
.0199	323.15	1.4838	.0001
.0199	328.15	1.4822	.0001
.0199	333.15	1.481	.0001
