Measured thermophysical data. Thermodynamic properties of neopentylbenzene over the range from T approaching (0 to 350) K
Source: J. Chem. Thermodyn., 2012, 10.1016/j.jct.2011.12.010
Compound 1: benzene, neopentyl-, C11H16

System: benzene, neopentyl-; phases: Crystal, Liquid, Gas
Property: Molar enthalpy of transition or fusion, kJ/mol (Crystal); method: Adiabatic calorimetry
Molar enthalpy of transition or fusion, kJ/mol	uncertainty
15.382	.051

System: benzene, neopentyl-; phases: Crystal, Liquid, Gas
Property: Triple point temperature, K (Crystal); method: Adiabatic calorimetry
Triple point temperature, K	uncertainty
255.43	.01

System: benzene, neopentyl-; phases: Crystal
Fixed: Pressure, kPa = 101.325
Property: Molar heat capacity at constant pressure, J/K/mol (Crystal); method: Vacuum adiabatic calorimetry
Temperature, K	Molar heat capacity at constant pressure, J/K/mol	uncertainty
79.98	76.7585408	.1535170816
81.93	78.0971592	.1561943184
83.87	79.5022928	.1590045856
85.81	80.9323696	.1618647392
87.75	82.4040184	.1648080368
89.69	83.892296	.167784592
91.64	85.388888	.170777776
93.59	86.968624	.173937248
95.54	88.298928	.176597856
97.5	89.79552	.17959104
99.45	91.292112	.182584224
101.41	92.539272	.185078544
103.37	94.119008	.188238016
105.32	95.532456	.191064912
107.28	97.029048	.194058096
109.23	98.10992	.19621984
111.18	99.606512	.199213024
113.14	100.853672	.201707344
115.09	102.599696	.205199392
117.46	104.262576	.208525152
119.37	105.343448	.210686896
121.31	106.923184	.213846368
123.26	108.004056	.216008112
125.2	109.666936	.219333872
127.13	110.747808	.221495616
129.07	111.994968	.223989936
131	113.49156	.22698312
132.93	115.071296	.230142592
134.85	116.152168	.232304336
136.78	117.399328	.234798656
138.7	118.646488	.237292976
140.61	120.14308	.24028616
142.53	121.39024	.24278048
144.43	122.969976	.245939952
146.34	124.217136	.248434272
148.22	125.630584	.251261168
150.12	126.877744	.253755488
152.5	128.374336	.256748672
155.37	130.037216	.260074432
158.24	132.282104	.264564208
161.11	134.111272	.268222544
163.99	135.94044	.27188088
166.87	138.268472	.276536944
169.76	140.347072	.280694144
172.66	141.926808	.283853616
175.55	144.337984	.288675968
178.45	146.250296	.292500592
181.36	148.328896	.296657792
184.27	150.324352	.300648704
187.18	152.56924	.30513848
190.11	154.897272	.309794544
194.33	157.55788	.31511576
197.18	160.0522	.3201044
200.37	162.297088	.324594176
203.56	164.62512	.32925024
206.46	166.786864	.333573728
209.27	168.78232	.33756464
212.11	170.362056	.340724112
215.02	172.5238	.3450476
217.92	174.269824	.348539648
220.82	176.514712	.353029424
223.7	178.177592	.356355184
226.59	180.256192	.360512384
229.46	182.334792	.364669584
232.33	184.330248	.368660496
235.2	186.575136	.373150272
238.05	188.32116	.37664232
240.89	190.482904	.380965808
243.72	192.395216	.384790432
246.56	197.88272	.39576544
249.34	207.610568	.415221136
252.01	245.2748	.4905496
254.15	685.439136	1.370878272
255.01	4462.33848	8.92467696
255.21	9885.8216	19.7716432
255.28	25300.7192	50.6014384
255.31	57760.1368	115.5202736
255.33	87966.352	175.932704
255.34	129413.636	258.827272
255.35	107812.8248	215.6256496
255.36	116093.9672	232.1879344
255.37	104711.5536	209.4231072

System: benzene, neopentyl-; phases: Liquid
Fixed: Pressure, kPa = 101.325
Property: Molar heat capacity at constant pressure, J/K/mol (Liquid); method: Vacuum adiabatic calorimetry
Temperature, K	Molar heat capacity at constant pressure, J/K/mol	uncertainty
255.69	1889.86312	3.77972624
257.37	252.175752	.504351504

System: benzene, neopentyl-; phases: Crystal
Fixed: Pressure, kPa = 101.325
Property: Molar heat capacity at constant pressure, J/K/mol (Crystal); method: Vacuum adiabatic calorimetry
Temperature, K	Molar heat capacity at constant pressure, J/K/mol	uncertainty
246.6	202.123064	.404246128
252.39	417.050304	.834100608
255.06	8092.40552	16.18481104
255.28	48988.4448	97.9768896
255.33	76733.5976	153.4671952
255.54	8291.11968	16.58223936
258.78	252.092608	.504185216
264.99	254.919504	.509839008
271.15	257.829544	.515659088
277.28	260.822728	.521645456
283.39	264.314776	.528629552
289.47	267.640536	.535281072
295.52	270.800008	.541600016
301.54	273.460616	.546921232
307.54	275.372928	.550745856
313.51	277.617816	.555235632
319.32	279.36384	.55872768
325.26	281.85816	.56371632
331.19	285.18392	.57036784
337.07	289.091688	.578183376
342.92	292.66688	.58533376
348.74	295.99264	.59198528
350.54	297.489232	.594978464

System: benzene, neopentyl-; phases: Crystal
Fixed: Pressure, kPa = 101.325
Property: Molar heat capacity at constant pressure, J/K/mol (Crystal); method: Vacuum adiabatic calorimetry
Temperature, K	Molar heat capacity at constant pressure, J/K/mol	uncertainty
239.91	189.734608	.379469216
240.92	190.566048	.381132096
241.92	190.981768	.381963536
242.92	191.896352	.383792704
243.92	192.727792	.385455584
244.93	193.72552	.38745104
246	195.637832	.391275664
247.1	197.383856	.394767712
248.19	200.875904	.401751808
249.28	206.030832	.412061664
250.36	213.26436	.42652872
251.42	222.659632	.445319264
252.46	249.265712	.498531424
253.4	315.032616	.630065232
254.18	538.107968	1.076215936
254.69	1232.19408	2.46438816
254.95	2919.18584	5.83837168
255.09	5555.68208	11.11136416
255.17	8555.5176	17.1110352
255.22	11108.0384	22.2160768
255.24	13801.904	27.603808
255.27	19397.4952	38.7949904
255.29	27603.808	55.207616
255.3	34197.1272	68.3942544
255.31	44199.3504	88.3987008
255.32	54201.5736	108.4031472
255.33	64902.2064	129.8044128
255.33	77698.068	155.396136
255.34	99598.1976	199.1963952
255.34	126902.6872	253.8053744
255.35	195005.9376	390.0118752
255.35	778028.2944	1556.0565888
255.36	139000.1392	278.0002784
255.36	123402.3248	246.8046496
255.37	85039.6832	170.0793664
255.37	73299.7504	146.5995008
255.37	60803.2072	121.6064144
255.38	53104.0728	106.2081456
255.38	47999.0312	95.9980624
255.4	38296.1264	76.5922528

System: benzene, neopentyl-; phases: Liquid
Fixed: Pressure, kPa = 101.325
Property: Molar heat capacity at constant pressure, J/K/mol (Liquid); method: Vacuum adiabatic calorimetry
Temperature, K	Molar heat capacity at constant pressure, J/K/mol	uncertainty
255.61	779.807576	1.559615152
256.43	250.014008	.500028016
257.44	250.596016	.501192032
258.44	251.09488	.50218976
259.45	251.676888	.503353776
260.46	252.258896	.504517792
261.48	252.924048	.505848096
262.48	253.422912	.506845824
263.49	254.00492	.50800984
264.48	254.586928	.509173856
265.49	255.085792	.510171584
266.49	255.6678	.5113356
267.49	256.000376	.512000752
268.67	256.582384	.513164768

System: benzene, neopentyl-; phases: Crystal
Fixed: Pressure, kPa = 101.325
Property: Molar heat capacity at constant pressure, J/K/mol (Crystal); method: Vacuum adiabatic calorimetry
Temperature, K	Molar heat capacity at constant pressure, J/K/mol	uncertainty
6.43	.785793944	.01571587888
6.83	.9478416	.018956832
7.1	1.0517716	.021035432
7.5	1.19976792	.0239953584
7.91	1.4092908	.028185816
8.27	1.61964512	.0323929024
8.57	1.81004488	.0362008976
8.9	2.04035376	.0408070752
9.24	2.30392024	.0460784048
9.58	2.53755488	.0507510976
9.91	2.77035808	.0554071616
10.24	2.99983552	.0599967104
10.55	3.2800308	.065600616
10.86	3.54027152	.0708054304
11.15	3.75977168	.0751954336
11.45	4.07987608	.0815975216
11.74	4.36007136	.0872014272
12.04	4.69015304	.0938030608
12.51	5.19982576	.1039965152
13.17	6.00133392	.1200266784
13.78	6.67978896	.1335957792
14.4	7.41977056	.1483954112
14.99	8.10986576	.1621973152

System: benzene, neopentyl-; phases: Crystal
Fixed: Pressure, kPa = 101.325
Property: Molar heat capacity at constant pressure, J/K/mol (Crystal); method: Vacuum adiabatic calorimetry
Temperature, K	Molar heat capacity at constant pressure, J/K/mol	uncertainty
15.59	8.8797792	.044398896
16.17	9.6530184	.048265092
16.76	10.4179432	.052089716
17.35	11.182868	.05591434
18.02	12.1473384	.060736692
18.82	13.469328	.06734664
19.44	14.4504272	.072252136
20.07	15.4897272	.077448636
20.87	16.753516	.08376758
21.6	17.959104	.08979552
22.31	19.1813208	.095906604
22.92	20.1541056	.100770528
23.68	21.3430648	.106715324
24.39	22.4405656	.112202828
25.18	23.5796384	.117898192
25.93	24.6605104	.123302552
26.71	25.7580112	.128790056
27.52	26.8887696	.134443848
28.33	28.1276152	.140638076
29.16	29.2417448	.146208724
30.01	30.4223896	.152111948
30.87	31.4201176	.157100588
31.75	32.7421072	.163710536
32.64	33.7481496	.168740748
33.41	34.6959912	.173479956
34.46	36.126068	.18063034
35.4	37.2983984	.186491992
36.35	38.4291568	.192145784
37.32	39.6680024	.198340012
38.31	40.9401056	.204700528
39.3	41.8879472	.209439736

System: benzene, neopentyl-; phases: Crystal
Fixed: Pressure, kPa = 101.325
Property: Molar heat capacity at constant pressure, J/K/mol (Crystal); method: Vacuum adiabatic calorimetry
Temperature, K	Molar heat capacity at constant pressure, J/K/mol	uncertainty
40.33	43.0187056	.0860374112
41.36	44.2492368	.0884984736
42.4	45.5712264	.0911424528
43.47	46.7019848	.0934039696
44.54	47.932516	.095865032
45.63	48.8969864	.0977939728
46.73	49.7866272	.0995732544
47.83	50.8508704	.1017017408
48.96	51.6989392	.1033978784
50.08	52.7049816	.1054099632
51.22	53.7692248	.1075384496
52.37	54.6172936	.1092345872
53.54	55.6565936	.1113131872
54.59	56.4215184	.1128430368
56	57.6437352	.1152874704
57.09	58.5832624	.1171665248
58.29	59.7223352	.1194446704
59.5	60.7117488	.1214234976
60.59	61.7011624	.1234023248
61.93	63.064724	.126129448
63.16	64.1539104	.1283078208
64.57	65.2597256	.1305194512
65.64	66.1244232	.1322488464
66.89	67.1969808	.1343939616
68.15	67.9951632	.1359903264
69.4	69.0594064	.1381188128
70.99	70.1901648	.1403803296
72.9	71.7033856	.1434067712
74.83	72.917288	.145834576
76.87	74.4305088	.1488610176
78.7	75.7524984	.1515049968
80.65	77.0828024	.1541656048
82.61	78.7955688	.1575911376
84.58	80.150816	.160301632
86.55	81.4229192	.1628458384
88.51	82.9195112	.1658390224
90.49	84.640592	.169281184
92.48	86.137184	.172274368

System: benzene, neopentyl-; phases: Liquid
Fixed: Pressure, kPa = 101.325
Property: Molar heat capacity at constant pressure, J/K/mol (Liquid); method: Vacuum adiabatic calorimetry
Temperature, K	Molar heat capacity at constant pressure, J/K/mol	uncertainty
300.23	272.71232	.54542464
304.11	274.292056	.548584112
307.98	275.62236	.55124472
311.84	276.952664	.553905328
315.67	278.199824	.556399648
319.51	279.862704	.559725408
323.33	281.359296	.562718592
327.15	283.022176	.566044352
330.95	285.267064	.570534128
334.56	287.345664	.574691328
338.32	289.923128	.579846256
342.07	292.334304	.584668608
345.8	294.828624	.589657248
349.52	296.82408	.59364816

System: benzene, neopentyl-; phases: Liquid
Fixed: Pressure, kPa = 101.325
Property: Molar heat capacity at constant pressure, J/K/mol (Liquid); method: Vacuum adiabatic calorimetry
Temperature, K	Molar heat capacity at constant pressure, J/K/mol	uncertainty
300.79	273.12804	.54625608
304.68	274.541488	.549082976
308.57	275.705504	.551411008
312.43	277.202096	.554404192
316.31	278.5324	.5570648
320.02	279.945848	.559891696
323.89	281.44244	.56288488
327.74	283.022176	.566044352
331.59	285.267064	.570534128
335.41	288.010816	.576021632
339.23	290.505136	.581010272
343.02	292.750024	.585500048
346.79	295.244344	.590488688
350.54	297.489232	.594978464
335.41	288.010816	.576021632

System: benzene, neopentyl-; phases: Crystal
Fixed: Pressure, kPa = 101.325
Property: Molar heat capacity at constant pressure, J/K/mol (Crystal); method: Vacuum adiabatic calorimetry
Temperature, K	Molar heat capacity at constant pressure, J/K/mol	uncertainty
5	.35835064	
10	2.8352104	
15	8.1564264	
20	15.3650112	
25	23.3135776	
30	30.3558744	
35	36.7579624	
40	42.8274744	
45	48.2068912	
50	52.6800384	
60	61.2106128	
70	69.5416416	
80	76.6670824	
90	84.141728	
100	91.541544	
110	98.775072	
120	105.925456	
130	112.826408	
140	119.72736	
150	126.545168	
160	133.44612	
170	140.347072	
180	147.414312	
190	154.64784	
200	161.964512	
210	169.114896	
220	175.932704	
230	182.584224	
240	189.402032	
250	196.136696	
255.43	199.711888	

System: benzene, neopentyl-; phases: Crystal
Fixed: Pressure, kPa = 101.325
Property: Molar enthalpy, kJ/mol (Crystal); method: Vacuum adiabatic calorimetry
Temperature, K	Molar enthalpy, kJ/mol	uncertainty
5	.00039992264	
10	.0072002704	
15	.033548604	
20	.0913918848	
25	.188300374	
30	.32301444	
35	.490923748	
40	.689762624	
45	.917785044	
50	1.1702518	
60	1.739039904	
70	2.394380912	
80	3.125549248	
90	3.929302296	
100	4.80821752	
110	5.760050032	
120	6.7845504	
130	7.878476008	
140	9.040912272	
150	10.27285692	
160	11.5723145	
170	12.94152989	
180	14.37925594	
190	15.89214416	
200	17.4768688	
210	19.13642304	
220	20.8525152	
230	22.64177408	
240	24.50419968	
250	26.439792	
255.43	27.50252614	

System: benzene, neopentyl-; phases: Crystal
Fixed: Pressure, kPa = 101.325
Property: Molar entropy, J/K/mol (Crystal); method: Vacuum adiabatic calorimetry
Temperature, K	Molar entropy, J/K/mol	uncertainty
5	.11972736	
10	.956156	
15	3.0264416	
20	6.298158	
25	10.5842312	
30	15.4814128	
35	20.6446552	
40	25.9575568	
45	31.3203448	
50	36.6415608	
60	46.9846744	
70	57.0700416	
80	66.8228328	
90	76.28462	
100	85.555176	
110	94.617872	
120	103.51428	
130	112.2444	
140	120.891376	
150	129.372064	
160	137.769608	
170	146.084008	
180	154.23212	
190	162.463376	
200	170.528344	
210	178.593312	
220	186.65828	
230	194.640104	
240	202.538784	
250	210.437464	
255.43	214.677808	

System: benzene, neopentyl-; phases: Liquid
Fixed: Pressure, kPa = 101.325
Property: Molar heat capacity at constant pressure, J/K/mol (Liquid); method: Vacuum adiabatic calorimetry
Temperature, K	Molar heat capacity at constant pressure, J/K/mol	uncertainty
255.43	249.598288	.499196576
260	252.009464	.504018928
270	257.164392	.514328784
280	262.485608	.524971216
290	267.973112	.535946224
298.15	271.88088	.54376176
300	272.629176	.545258352
310	276.287512	.552575024
320	279.77956	.55955912
330	284.435624	.568871248
340	290.837712	.581675424
350	296.990368	.593980736

System: benzene, neopentyl-; phases: Liquid
Fixed: Pressure, kPa = 101.325
Property: Molar enthalpy, kJ/mol (Liquid); method: Vacuum adiabatic calorimetry
Temperature, K	Molar enthalpy, kJ/mol	uncertainty
255.43	42.87845581	
260	44.03472528	
270	46.581426	
280	49.16803584	
290	51.840284	
298.15	54.04085625	
300	54.5258352	
310	57.27125008	
320	60.04992256	
330	62.88679584	
340	65.75360096	
350	68.7060444	

System: benzene, neopentyl-; phases: Liquid
Fixed: Pressure, kPa = 101.325
Property: Molar entropy, J/K/mol (Liquid); method: Vacuum adiabatic calorimetry
Temperature, K	Molar entropy, J/K/mol	uncertainty
255.43	274.874064	
260	279.36384	
270	288.9254	
280	298.403816	
290	307.715944	
298.15	315.198904	
300	316.861784	
310	325.841336	
320	334.6546	
330	343.38472	
340	351.948552	
350	360.42924	
