Measured thermophysical data. Thermodynamics of the micellization process of carboxylates: A conductivity study
Source: J. Chem. Thermodyn., 2015, 10.1016/j.jct.2014.12.011
Compound 1: sodium octanoate, C8H15NaO2, purity 99%
Compound 2: sodium decanoate, C10H19NaO2, purity 98%
Compound 3: sodium dodecanoate, C12H23NaO2, purity 99%
Compound 4: potassium decanoate, C10H19KO2
Compound 5: water, H2O
Compound 6: cesium decanoate, C10H19CsO2

System: sodium octanoate + water; phases: Liquid
Fixed: Pressure, kPa = 100
Property: Electrical conductivity, S/m (Liquid); method: Alternating current cell with electrodes
Temperature, K	Molality, mol/kg of sodium octanoate	Electrical conductivity, S/m	uncertainty
278.15	.04715	.1681	.0008405
278.15	.0899	.2988	.001494
278.15	.13201	.4159	.0020795
278.15	.16993	.5102	.002551
278.15	.2149	.6058	.003029
278.15	.26349	.6914	.003457
278.15	.43678	1.015	.005075
278.15	.48125	1.0923	.0054615
278.15	.52879	1.1607	.0058035
278.15	.57852	1.2245	.0061225
278.15	.62998	1.288	.00644
278.15	.68294	1.3516	.006758
278.15	.73371	1.4124	.007062
288.15	.04715	.2234	.001117
288.15	.0899	.398	.00199
288.15	.13201	.5547	.0027735
288.15	.16993	.6723	.0033615
288.15	.2149	.7967	.0039835
288.15	.26349	.9238	.004619
288.15	.30587	.9763	.0048815
288.15	.34638	1.1762	.005881
288.15	.38976	1.2932	.006466
288.15	.43678	1.3982	.006991
288.15	.48125	1.4901	.0074505
288.15	.52879	1.5835	.0079175
288.15	.57852	1.6774	.008387
288.15	.62998	1.7711	.0088555
288.15	.68294	1.8657	.0093285
288.15	.73371	1.9556	.009778
298.15	.04715	.2841	.0014205
298.15	.0899	.5081	.0025405
298.15	.13201	.7092	.003546
298.15	.16993	.8562	.004281
298.15	.2149	1.0196	.005098
298.15	.26349	1.1848	.005924
298.15	.30587	1.2854	.006427
298.15	.34638	1.5365	.0076825
298.15	.38976	1.6727	.0083635
298.15	.43678	1.811	.009055
298.15	.48125	1.9344	.009672
298.15	.52879	2.0609	.0103045
298.15	.57852	2.189	.010945
298.15	.62998	2.3171	.0115855
298.15	.68294	2.4463	.0122315
298.15	.73371	2.5693	.0128465
308.15	.04715	.3505	.0017525
308.15	.0899	.6274	.003137
308.15	.13201	.8758	.004379
308.15	.16993	1.058	.00529
308.15	.2149	1.2651	.0063255
308.15	.26349	1.4703	.0073515
308.15	.30587	1.7422	.008711
308.15	.34638	1.913	.009565
308.15	.38976	2.0854	.010427
308.15	.43678	2.2614	.011307
308.15	.48125	2.4198	.012099
308.15	.52879	2.5822	.012911
308.15	.57852	2.7472	.013736
308.15	.62998	2.9123	.0145615
308.15	.68294	3.0784	.015392
308.15	.73371	3.236	.01618
318.15	.04715	.4206	.002103
318.15	.0899	.7539	.0037695
318.15	.13201	1.0551	.0052755
318.15	.16993	1.2799	.0063995
318.15	.2149	1.5381	.0076905
318.15	.26349	1.8752	.009376
318.15	.30587	2.1058	.010529
318.15	.34638	2.3141	.0115705
318.15	.38976	2.5258	.012629
318.15	.43678	2.7429	.0137145
318.15	.48125	2.9377	.0146885
318.15	.52879	3.1377	.0156885
318.15	.57852	3.3404	.016702
318.15	.62998	3.5452	.017726
318.15	.68294	3.7496	.018748
318.15	.73371	3.9438	.019719
328.15	.04715	.4944	.002472
328.15	.0899	.8854	.004427
328.15	.13201	1.2415	.0062075
328.15	.16993	1.522	.00761
328.15	.2149	1.8452	.009226
328.15	.26349	2.2131	.0110655
328.15	.30587	2.4868	.012434
328.15	.34638	2.7342	.013671
328.15	.38976	2.9866	.014933
328.15	.43678	3.2456	.016228
328.15	.48125	3.4793	.0173965
328.15	.52879	3.7189	.0185945
328.15	.57852	3.963	.019815
328.15	.62998	4.2046	.021023
328.15	.68294	4.4479	.0222395
328.15	.73371	4.678	.02339

System: sodium decanoate + water; phases: Liquid
Fixed: Pressure, kPa = 100
Property: Electrical conductivity, S/m (Liquid); method: Alternating current cell with electrodes
Temperature, K	Molality, mol/kg of sodium decanoate	Electrical conductivity, S/m	uncertainty
278.15	.01638	.0626	.000313
278.15	.03189	.1164	.000582
278.15	.04823	.1698	.000849
278.15	.06109	.21	.00105
278.15	.07519	.2524	.001262
278.15	.09179	.3003	.0015015
278.15	.10789	.3435	.0017175
278.15	.12486	.3884	.001942
278.15	.14337	.429	.002145
278.15	.16078	.4597	.0022985
278.15	.17977	.4894	.002447
278.15	.19915	.519	.002595
278.15	.21767	.5471	.0027355
278.15	.23655	.5759	.0028795
278.15	.25573	.6053	.0030265
288.15	.01638	.083	.000415
288.15	.03189	.1549	.0007745
288.15	.04823	.2261	.0011305
288.15	.06109	.2793	.0013965
288.15	.07519	.3359	.0016795
288.15	.09179	.3993	.0019965
288.15	.10789	.4585	.0022925
288.15	.12486	.5125	.0025625
288.15	.14337	.5595	.0027975
288.15	.16078	.5991	.0029955
288.15	.17977	.6405	.0032025
288.15	.19915	.6831	.0034155
288.15	.21767	.7239	.0036195
288.15	.23655	.7658	.003829
288.15	.25573	.8089	.0040445
298.15	.01638	.1058	.000529
298.15	.03189	.1975	.0009875
298.15	.04823	.2884	.001442
298.15	.06109	.3567	.0017835
298.15	.07519	.4294	.002147
298.15	.09179	.5112	.002556
298.15	.10789	.584	.00292
298.15	.12486	.6469	.0032345
298.15	.14337	.7054	.003527
298.15	.16078	.7577	.0037885
298.15	.17977	.8135	.0040675
298.15	.19915	.8715	.0043575
298.15	.21767	.9271	.0046355
298.15	.23655	.9843	.0049215
298.15	.25573	1.0427	.0052135
308.15	.01638	.1305	.0006525
308.15	.03189	.2436	.001218
308.15	.04823	.3563	.0017815
308.15	.06109	.4409	.0022045
308.15	.07519	.5311	.0026555
308.15	.09179	.632	.00316
308.15	.10789	.7188	.003594
308.15	.12486	.7947	.0039735
308.15	.14337	.8688	.004344
308.15	.16078	.9361	.0046805
308.15	.17977	1.0083	.0050415
308.15	.19915	1.0831	.0054155
308.15	.21767	1.1546	.005773
308.15	.23655	1.2283	.0061415
308.15	.25573	1.3032	.006516
318.15	.01638	.1567	.0007835
318.15	.03189	.2925	.0014625
318.15	.04823	.4284	.002142
318.15	.06109	.5305	.0026525
318.15	.07519	.6392	.003196
318.15	.09179	.7605	.0038025
318.15	.10789	.8646	.004323
318.15	.12486	.9582	.004791
318.15	.14337	1.0502	.005251
318.15	.16078	1.134	.00567
318.15	.17977	1.224	.00612
318.15	.19915	1.3162	.006581
318.15	.21767	1.405	.007025
318.15	.23655	1.495	.007475
318.15	.25573	1.5879	.0079395
328.15	.01638	.1841	.0009205
328.15	.03189	.3439	.0017195
328.15	.04823	.5039	.0025195
328.15	.06109	.6248	.003124
328.15	.07519	.7531	.0037655
328.15	.09179	.8963	.0044815
328.15	.10789	1.021	.005105
328.15	.12486	1.135	.005675
328.15	.14337	1.2485	.0062425
328.15	.16078	1.3497	.0067485
328.15	.17977	1.4591	.0072955
328.15	.19915	1.5679	.0078395
328.15	.21767	1.675	.008375
328.15	.23655	1.7829	.0089145
328.15	.25573	1.8928	.009464

System: water + cesium decanoate; phases: Liquid
Fixed: Pressure, kPa = 100
Property: Electrical conductivity, S/m (Liquid); method: Alternating current cell with electrodes
Temperature, K	Molality, mol/kg of cesium decanoate	Electrical conductivity, S/m	uncertainty
278.15	.00805	.0479	.0002395
278.15	.01759	.1013	.0005065
278.15	.0274	.1514	.000757
278.15	.03769	.2073	.0010365
278.15	.04818	.2612	.001306
278.15	.06109	.3163	.0015815
278.15	.0725	.3714	.001857
278.15	.08819	.4405	.0022025
278.15	.10266	.5001	.0025005
278.15	.11723	.5545	.0027725
278.15	.13248	.6113	.0030565
278.15	.15295	.6967	.0034835
278.15	.17051	.7509	.0037545
278.15	.1873	.7986	.003993
278.15	.2051	.8512	.004256
278.15	.22563	.9142	.004571
278.15	.24626	.9756	.004878
288.15	.00805	.0614	.000307
288.15	.01759	.1301	.0006505
288.15	.0274	.1973	.0009865
288.15	.03769	.2609	.0013045
288.15	.04818	.3265	.0016325
288.15	.06109	.4054	.002027
288.15	.0725	.4756	.002378
288.15	.08819	.5635	.0028175
288.15	.10266	.6391	.0031955
288.15	.11723	.715	.003575
288.15	.13248	.7896	.003948
288.15	.15295	.8748	.004374
288.15	.17051	.9442	.004721
288.15	.1873	1.009	.005045
288.15	.2051	1.079	.005395
288.15	.22563	1.1626	.005813
288.15	.24626	1.2453	.0062265
298.15	.00805	.0757	.0003785
298.15	.01759	.1605	.0008025
298.15	.0274	.241	.001205
298.15	.03769	.3229	.0016145
298.15	.04818	.4035	.0020175
298.15	.06109	.5016	.002508
298.15	.0725	.5878	.002939
298.15	.08819	.6957	.0034785
298.15	.10266	.7914	.003957
298.15	.11723	.8827	.0044135
298.15	.13248	.9653	.0048265
298.15	.15295	1.0704	.005352
298.15	.17051	1.1575	.0057875
298.15	.1873	1.2409	.0062045
298.15	.2051	1.3301	.0066505
298.15	.22563	1.4377	.0071885
298.15	.24626	1.5422	.007711
308.15	.00805	.091	.000455
308.15	.01759	.1928	.000964
308.15	.0274	.2902	.001451
308.15	.03769	.3897	.0019485
308.15	.04818	.4867	.0024335
308.15	.06109	.6043	.0030215
308.15	.0725	.7066	.003533
308.15	.08819	.8351	.0041755
308.15	.10266	.9536	.004768
308.15	.11723	1.0559	.0052795
308.15	.13248	1.1552	.005776
308.15	.15295	1.284	.00642
308.15	.17051	1.391	.006955
308.15	.1873	1.4929	.0074645
308.15	.2051	1.6042	.008021
308.15	.22563	1.7346	.008673
308.15	.24626	1.8643	.0093215
318.15	.00805	.107	.000535
318.15	.01759	.2265	.0011325
318.15	.0274	.342	.00171
318.15	.03769	.4599	.0022995
318.15	.04818	.575	.002875
318.15	.06109	.7127	.0035635
318.15	.0725	.8292	.004146
318.15	.08819	.9882	.004941
318.15	.10266	1.1212	.005606
318.15	.11723	1.2419	.0062095
318.15	.13248	1.3604	.006802
318.15	.15295	1.5141	.0075705
318.15	.17051	1.6424	.008212
318.15	.1873	1.7659	.0088295
318.15	.2051	1.898	.00949
318.15	.22563	2.0532	.010266
318.15	.24626	2.2071	.0110355
328.15	.00805	.1235	.0006175
328.15	.01759	.2605	.0013025
328.15	.0274	.3962	.001981
328.15	.03769	.5328	.002664
328.15	.04818	.6671	.0033355
328.15	.06109	.824	.00412
328.15	.0725	.9575	.0047875
328.15	.08819	1.1475	.0057375
328.15	.10266	1.2988	.006494
328.15	.11723	1.4416	.007208
328.15	.13248	1.581	.007905
328.15	.15295	1.7626	.008813
328.15	.17051	1.9141	.0095705
328.15	.1873	2.0582	.010291
328.15	.2051	2.2114	.011057
328.15	.22563	2.3911	.0119555
328.15	.24626	2.5704	.012852

System: water + potassium decanoate; phases: Liquid
Fixed: Pressure, kPa = 100
Property: Electrical conductivity, S/m (Liquid); method: Alternating current cell with electrodes
Temperature, K	Molality, mol/kg of potassium decanoate	Electrical conductivity, S/m	uncertainty
288.15	.00932	.0666	.000333
288.15	.01855	.1296	.000648
288.15	.02771	.1899	.0009495
288.15	.03678	.2471	.0012355
288.15	.04578	.3035	.0015175
288.15	.0547	.3577	.0017885
288.15	.06355	.4107	.0020535
288.15	.07232	.4618	.002309
288.15	.08102	.5115	.0025575
288.15	.08964	.5603	.0028015
288.15	.09819	.6076	.003038
288.15	.10667	.6539	.0032695
288.15	.11508	.6982	.003491
288.15	.12342	.7383	.0036915
288.15	.1317	.771	.003855
288.15	.1399	.8021	.0040105
288.15	.14804	.8314	.004157
288.15	.15611	.8598	.004299
288.15	.16411	.8877	.0044385
288.15	.17206	.9155	.0045775
288.15	.17993	.943	.004715
288.15	.18775	.9704	.004852
298.15	.00998	.0875	.0004375
298.15	.01987	.1717	.0008585
298.15	.02967	.2507	.0012535
298.15	.03939	.3277	.0016385
298.15	.04902	.4023	.0020115
298.15	.05856	.4743	.0023715
298.15	.06803	.5446	.002723
298.15	.07741	.6126	.003063
298.15	.08671	.6789	.0033945
298.15	.09593	.7432	.003716
298.15	.10508	.802	.00401
298.15	.11414	.8577	.0042885
298.15	.12313	.9054	.004527
298.15	.13205	.9486	.004743
298.15	.14089	.9896	.004948
298.15	.14965	1.0295	.0051475
298.15	.15835	1.069	.005345
298.15	.16697	1.1078	.005539
298.15	.17552	1.1466	.005733
298.15	.184	1.1854	.005927
298.15	.19241	1.2242	.006121
298.15	.20075	1.2628	.006314
298.15	.20902	1.3012	.006506
308.15	.00952	.1012	.000506
308.15	.01895	.1979	.0009895
308.15	.0283	.2898	.001449
308.15	.03758	.3791	.0018955
308.15	.04677	.4654	.002327
308.15	.05588	.5492	.002746
308.15	.06492	.631	.003155
308.15	.07388	.7103	.0035515
308.15	.08277	.7852	.003926
308.15	.09158	.8601	.0043005
308.15	.10032	.931	.004655
308.15	.10898	.9959	.0049795
308.15	.11757	1.0526	.005263
308.15	.1261	1.1043	.0055215
308.15	.13455	1.1534	.005767
308.15	.14293	1.2014	.006007
308.15	.15124	1.2487	.0062435
308.15	.15949	1.295	.006475
308.15	.16767	1.3416	.006708
308.15	.17579	1.3876	.006938
308.15	.18384	1.4336	.007168
308.15	.19182	1.4795	.0073975
308.15	.19974	1.5249	.0076245
318.15	.0099	.1249	.0006245
318.15	.01971	.2427	.0012135
318.15	.02944	.3557	.0017785
318.15	.03908	.4651	.0023255
318.15	.04864	.5706	.002853
318.15	.05811	.6735	.0033675
318.15	.0675	.7707	.0038535
318.15	.07682	.8672	.004336
318.15	.08605	.9619	.0048095
318.15	.0952	1.0521	.0052605
318.15	.10427	1.1353	.0056765
318.15	.11327	1.2104	.006052
318.15	.12219	1.2784	.006392
318.15	.13104	1.3416	.006708
318.15	.13981	1.404	.00702
318.15	.14851	1.4645	.0073225
318.15	.15714	1.5235	.0076175
318.15	.16569	1.5825	.0079125
318.15	.17418	1.6413	.0082065
318.15	.18259	1.6994	.008497
318.15	.19094	1.7572	.008786
318.15	.19922	1.8149	.0090745
318.15	.20743	1.8718	.009359
328.15	.00972	.1431	.0007155
328.15	.01937	.2786	.001393
328.15	.02892	.4082	.002041
328.15	.0384	.5332	.002666
328.15	.0478	.6543	.0032715
328.15	.05712	.7691	.0038455
328.15	.06636	.8831	.0044155
328.15	.07552	.9941	.0049705
328.15	.08461	1.1026	.005513
328.15	.09362	1.2073	.0060365
328.15	.10256	1.3051	.0065255
328.15	.11142	1.3951	.0069755
328.15	.12021	1.4765	.0073825
328.15	.12893	1.5532	.007766
328.15	.13758	1.6266	.008133
328.15	.14616	1.697	.008485
328.15	.15467	1.7673	.0088365
328.15	.16311	1.8363	.0091815
328.15	.17148	1.9044	.009522
328.15	.17979	1.9716	.009858
328.15	.18803	2.0385	.0101925
328.15	.19621	2.1059	.0105295
328.15	.20432	2.1719	.0108595

System: sodium dodecanoate + water; phases: Liquid
Fixed: Pressure, kPa = 100
Property: Electrical conductivity, S/m (Liquid); method: Alternating current cell with electrodes
Temperature, K	Molality, mol/kg of sodium dodecanoate	Electrical conductivity, S/m	uncertainty
298.15	.01084	.0726	.000363
298.15	.01211	.0809	.0004045
298.15	.01337	.0892	.000446
298.15	.01462	.0974	.000487
298.15	.01585	.1054	.000527
298.15	.01707	.1132	.000566
298.15	.01827	.1209	.0006045
298.15	.01946	.1286	.000643
298.15	.02064	.1361	.0006805
298.15	.0218	.1435	.0007175
298.15	.02295	.1507	.0007535
298.15	.02408	.1578	.000789
298.15	.0252	.1648	.000824
298.15	.02631	.1715	.0008575
298.15	.02741	.1778	.000889
298.15	.02849	.1829	.0009145
298.15	.02957	.1871	.0009355
298.15	.03063	.1909	.0009545
298.15	.03168	.1944	.000972
298.15	.03271	.1977	.0009885
298.15	.03374	.201	.001005
298.15	.03476	.2041	.0010205
298.15	.03576	.2072	.001036
298.15	.03675	.2102	.001051
308.15	.01107	.0928	.000464
308.15	.01239	.1034	.000517
308.15	.0137	.1142	.000571
308.15	.01499	.1248	.000624
308.15	.01626	.1352	.000676
308.15	.01752	.1454	.000727
308.15	.01876	.1555	.0007775
308.15	.01999	.1653	.0008265
308.15	.0212	.1751	.0008755
308.15	.0224	.1846	.000923
308.15	.02359	.194	.00097
308.15	.02476	.2031	.0010155
308.15	.02591	.2117	.0010585
308.15	.02706	.2191	.0010955
308.15	.02819	.2253	.0011265
308.15	.0293	.2307	.0011535
308.15	.03041	.2358	.001179
308.15	.0315	.2405	.0012025
308.15	.03257	.2448	.001224
308.15	.03364	.2493	.0012465
308.15	.0347	.2536	.001268
308.15	.03574	.2578	.001289
308.15	.03677	.262	.00131
308.15	.03779	.2661	.0013305
318.15	.01302	.1306	.000653
318.15	.01423	.1422	.000711
318.15	.01542	.1539	.0007695
318.15	.0166	.1653	.0008265
318.15	.01777	.1765	.0008825
318.15	.01892	.1875	.0009375
318.15	.02006	.1984	.000992
318.15	.02118	.2092	.001046
318.15	.02229	.2195	.0010975
318.15	.02339	.2299	.0011495
318.15	.02448	.2399	.0011995
318.15	.02555	.2493	.0012465
318.15	.02661	.2579	.0012895
318.15	.02766	.2653	.0013265
318.15	.0287	.2718	.001359
318.15	.02972	.2775	.0013875
318.15	.03074	.283	.001415
318.15	.03174	.2884	.001442
318.15	.03274	.2934	.001467
318.15	.03372	.2983	.0014915
318.15	.03469	.3032	.001516
318.15	.03565	.308	.00154
318.15	.0366	.3125	.0015625
318.15	.03754	.3172	.001586
328.15	.01297	.1512	.000756
328.15	.01413	.1638	.000819
328.15	.01527	.1767	.0008835
328.15	.01641	.1893	.0009465
328.15	.01752	.2017	.0010085
328.15	.01863	.214	.00107
328.15	.01972	.2258	.001129
328.15	.0208	.2376	.001188
328.15	.02187	.2488	.001244
328.15	.02292	.2602	.001301
328.15	.02397	.2714	.001357
328.15	.025	.2822	.001411
328.15	.02602	.2929	.0014645
328.15	.02703	.3028	.001514
328.15	.02802	.3112	.001556
328.15	.02901	.3188	.001594
328.15	.02999	.3257	.0016285
328.15	.03095	.3321	.0016605
328.15	.03191	.3382	.001691
328.15	.03285	.3439	.0017195
328.15	.03379	.3496	.001748
328.15	.03471	.355	.001775
328.15	.03563	.3604	.001802
328.15	.03653	.3656	.001828
