Measured thermophysical data. Energies of combustion and standard molar enthalpies of formation of ricinoleic acid and methyl ricinoleate
Source: J. Chem. Thermodyn., 2012, 10.1016/j.jct.2012.02.006
Compound 1: 9-octadecenoic acid, 12-hydroxy-, [R]-, C18H34O3, purity 99%
Compound 2: methyl ricinoleate, C19H36O3, purity 99%
Compound 3: carbon dioxide, CO2
Compound 4: water, H2O
Compound 5: oxygen, O2

System: 9-octadecenoic acid, 12-hydroxy-, [R]-; phases: Liquid
Fixed: Pressure, kPa = 101.325
Property: Molar heat capacity at constant pressure, J/K/mol (Liquid); method: Small sample (50 mg) DSC
Temperature, K	Molar heat capacity at constant pressure, J/K/mol	uncertainty
298.15	626.767596	31.3383798

System: methyl ricinoleate; phases: Liquid
Fixed: Pressure, kPa = 101.325
Property: Molar heat capacity at constant pressure, J/K/mol (Liquid); method: Small sample (50 mg) DSC
Temperature, K	Molar heat capacity at constant pressure, J/K/mol	uncertainty
298.15	696.53428086	34.826714043

Reaction: -1 9-octadecenoic acid, 12-hydroxy-, [R]- + 18 carbon dioxide + 17 water + -25 oxygen
Property: Specific internal energy of reaction at constant volume, J/g
-36277.1

Reaction: -1 methyl ricinoleate + 19 carbon dioxide + 18 water + -26.5 oxygen
Property: Specific internal energy of reaction at constant volume, J/g
-37044.4
