Measured thermophysical data. Enthalpies of solvation of ethylene oxide oligomers CH3O(CH2CH2O)nCH3 (n = 1  to 4) in different H-bonding solvents: Methanol, chloroform, and water. Group  contribution method as applied to the polar oligomers
Source: J. Chem. Thermodyn., 2011, 10.1016/j.jct.2011.07.001
Compound 1: 1,2-ethanediol, dimethyl ether, C4H10O2, purity 99.4%
Compound 2: 2,5,8-trioxanonane, C6H14O3, purity 99.5%
Compound 3: glyme 4, C8H18O4, purity 99.5%
Compound 4: dimethoxytetraglycol, C10H22O5, purity 98%
Compound 5: methanol, CH4O, purity 99%
Compound 6: freon 20, CHCl3, purity 99%

System: methanol + 1,2-ethanediol, dimethyl ether; phases: Liquid
Fixed: Temperature, K = 298.15
Fixed: Pressure, kPa = 101
Property: Molar enthalpy of solution, kJ/mol (Liquid); method: Isoperibol calorimetry
Molality, mol/kg of 1,2-ethanediol, dimethyl ether	Molar enthalpy of solution, kJ/mol	uncertainty
.02309	-.01	-.0002
.03504	0	0
.04631	.02	.0004
.0573	-.01	-.0002
.06788	-.04	-.0008
.1134	.01	.0002

System: methanol + 2,5,8-trioxanonane; phases: Liquid
Fixed: Temperature, K = 298.15
Fixed: Pressure, kPa = 101
Property: Molar enthalpy of solution, kJ/mol (Liquid); method: Isoperibol calorimetry
Molality, mol/kg of 2,5,8-trioxanonane	Molar enthalpy of solution, kJ/mol	uncertainty
.01912	.84	.0168
.0205	.83	.0166
.02866	.81	.0162
.0369	.78	.0156
.06099	.72	.0144
.11675	.64	.0128

System: methanol + glyme 4; phases: Liquid
Fixed: Temperature, K = 298.15
Fixed: Pressure, kPa = 101
Property: Molar enthalpy of solution, kJ/mol (Liquid); method: Isoperibol calorimetry
Molality, mol/kg of glyme 4	Molar enthalpy of solution, kJ/mol	uncertainty
.01544	1.14	.0228
.0237	1.1	.022
.02941	1.08	.0216
.0444	1	.02
.05503	.98	.0196
.08461	.86	.0172

System: methanol + dimethoxytetraglycol; phases: Liquid
Fixed: Temperature, K = 298.15
Fixed: Pressure, kPa = 101
Property: Molar enthalpy of solution, kJ/mol (Liquid); method: Isoperibol calorimetry
Molality, mol/kg of dimethoxytetraglycol	Molar enthalpy of solution, kJ/mol	uncertainty
.00336	1.65	.033
.01251	1.6	.032
.02111	1.54	.0308
.04485	1.39	.0278
.05909	1.3	.026
.07156	1.22	.0244

System: freon 20 + 1,2-ethanediol, dimethyl ether; phases: Liquid
Fixed: Temperature, K = 298.15
Fixed: Pressure, kPa = 101
Property: Molar enthalpy of solution, kJ/mol (Liquid); method: Isoperibol calorimetry
Molality, mol/kg of 1,2-ethanediol, dimethyl ether	Molar enthalpy of solution, kJ/mol	uncertainty
.00794	-16.81	-.3362
.01333	-16.83	-.3366
.01624	-16.78	-.3356
.02053	-16.77	-.3354

System: freon 20 + 2,5,8-trioxanonane; phases: Liquid
Fixed: Temperature, K = 298.15
Fixed: Pressure, kPa = 101
Property: Molar enthalpy of solution, kJ/mol (Liquid); method: Isoperibol calorimetry
Molality, mol/kg of 2,5,8-trioxanonane	Molar enthalpy of solution, kJ/mol	uncertainty
.00529	20.81	.4162
.01304	20.81	.4162
.02231	20.82	.4164
.02804	20.77	.4154

System: freon 20 + glyme 4; phases: Liquid
Fixed: Temperature, K = 298.15
Fixed: Pressure, kPa = 101
Property: Molar enthalpy of solution, kJ/mol (Liquid); method: Isoperibol calorimetry
Molality, mol/kg of glyme 4	Molar enthalpy of solution, kJ/mol	uncertainty
.00226	26.51	.5302
.00559	26.58	.5316
.00947	26.76	.5352
.0112	26.41	.5282
.01352	26.5	.53
.02174	26.8	.536

System: freon 20 + dimethoxytetraglycol; phases: Liquid
Fixed: Temperature, K = 298.15
Fixed: Pressure, kPa = 101
Property: Molar enthalpy of solution, kJ/mol (Liquid); method: Isoperibol calorimetry
Molality, mol/kg of dimethoxytetraglycol	Molar enthalpy of solution, kJ/mol	uncertainty
.00397	34.86	.6972
.00418	34.86	.6972
.01074	34.85	.697
.0141	34.85	.697
.01642	34.84	.6968
.0203	34.83	.6966
