Measured thermophysical data. Experiment and modeling solubility of CO2 in aqueous solutions of Diisopropanolamine + 2-amino-2-methyl-1-propanol + Piperazine at high pressures
Source: J. Chem. Thermodyn., 2014, 10.1016/j.jct.2013.11.025
Compound 1: piperazine, C4H10N2, purity 99%
Compound 2: diisopropanolamine, C6H15NO2, purity 98%
Compound 3: water, H2O
Compound 4: carbon dioxide, CO2, purity 99.998%

System: piperazine + carbon dioxide + water; phases: Liquid, Gas
Fixed: Temperature, K = 313.15
Property: Mole fraction of carbon dioxide (Liquid); method: Volumetric method
Mole fraction of piperazine	Partial pressure, kPa of carbon dioxide	Mole fraction of carbon dioxide	uncertainty
.0335	451	.03708	.0003708
.03338	945	.04059	.0004059
.03329	1410	.04308	.0004308
.03322	1846	.04511	.0004511
.03314	2412	.04736	.0004736
.03307	3008	.04956	.0004956
.03296	3948	.05248	.0005248

System: diisopropanolamine + carbon dioxide + water; phases: Liquid, Gas
Property: Mole fraction of carbon dioxide (Liquid); method: Volumetric method
Mole fraction of diisopropanolamine	Temperature, K	Partial pressure, kPa of carbon dioxide	Mole fraction of carbon dioxide	uncertainty
.09425	313.15	107	.0541	.000541
.09317	313.15	310	.06494	.0006494
.09234	313.15	679	.07323	.0007323
.09165	313.15	1246	.08019	.0008019
.09117	313.15	1845	.08497	.0008497
.09088	313.15	2327	.08797	.0008797
.09062	313.15	3023	.09053	.0009053
.09038	313.15	3459	.09291	.0009291
.09019	313.15	4064	.09488	.0009488
.09437	328.15	208	.05294	.0005294
.09369	328.15	432	.05977	.0005977
.09317	328.15	721	.06494	.0006494
.09276	328.15	1020	.06902	.0006902
.09221	328.15	1635	.0746	.000746
.09183	328.15	2171	.07842	.0007842
.09146	328.15	2842	.08213	.0008213
.09122	328.15	3423	.08456	.0008456
.09085	328.15	4025	.08822	.0008822
.09473	343.15	276	.04926	.0004926
.09437	343.15	393	.05294	.0005294
.09409	343.15	543	.0557	.000557
.09345	343.15	998	.06214	.0006214
.09295	343.15	1526	.06711	.0006711
.09258	343.15	2064	.07091	.0007091
.09225	343.15	2627	.07417	.0007417
.09195	343.15	3201	.07723	.0007723
.09153	343.15	3989	.08137	.0008137
