Measured thermophysical data. Thermodynamic and transport properties of binary mixtures; friction theory coupled with PC-SAFT model
Source: J. Chem. Thermodyn., 2015, 10.1016/j.jct.2015.04.017
Compound 1: diethylamine, C4H11N, purity 99%
Compound 2: 2-propanol, C3H8O, purity 99.5%
Compound 3: 2-butanol, C4H10O, purity 99.5%
Compound 4: 2-pentanol, C5H12O, purity 99%

System: diethylamine; phases: Liquid
Property: Mass density, kg/m3 (Liquid); method: Vibrating tube method
Temperature, K	Pressure, kPa	Mass density, kg/m3	uncertainty
293.15	100	704.8	.5
298.15	100	699.3	.5
303.15	100	694	.5
308.15	100	688.7	.5
313.15	100	683.3	.5
318.15	100	677.5	.5
323.15	100	672.1	.5

System: diethylamine; phases: Liquid
Property: Viscosity, Pa*s (Liquid); method: Concentric cylinders viscometry
Temperature, K	Pressure, kPa	Viscosity, Pa*s	uncertainty
293.15	100	.00032	.0000032
298.15	100	.000304	.00000304
303.15	100	.000288	.00000288
308.15	100	.000274	.00000274
313.15	100	.00026	.0000026
318.15	100	.000248	.00000248
323.15	100	.000237	.00000237

System: 2-propanol; phases: Liquid
Property: Mass density, kg/m3 (Liquid); method: Vibrating tube method
Temperature, K	Pressure, kPa	Mass density, kg/m3	uncertainty
293.15	100	785.4	.5
298.15	100	781.1	.5
303.15	100	776.8	.5
308.15	100	772.4	.5
313.15	100	768	.5
318.15	100	763.4	.5
323.15	100	758.8	.5

System: 2-propanol; phases: Liquid
Property: Viscosity, Pa*s (Liquid); method: Concentric cylinders viscometry
Temperature, K	Pressure, kPa	Viscosity, Pa*s	uncertainty
293.15	100	.00242	.0000242
298.15	100	.00208	.0000208
303.15	100	.0018	.000018
308.15	100	.00156	.0000156
313.15	100	.00136	.0000136
318.15	100	.00119	.0000119
323.15	100	.00105	.0000105

System: 2-butanol; phases: Liquid
Property: Mass density, kg/m3 (Liquid); method: Vibrating tube method
Temperature, K	Pressure, kPa	Mass density, kg/m3	uncertainty
293.15	100	806.7	.5
298.15	100	802.7	.5
303.15	100	798.4	.5
308.15	100	794.1	.5
313.15	100	789.8	.5
318.15	100	785.2	.5
323.15	100	780.6	.5

System: 2-butanol; phases: Liquid
Property: Viscosity, Pa*s (Liquid); method: Concentric cylinders viscometry
Temperature, K	Pressure, kPa	Viscosity, Pa*s	uncertainty
293.15	100	.00367	.0000367
298.15	100	.00305	.0000305
303.15	100	.00254	.0000254
308.15	100	.00213	.0000213
313.15	100	.00181	.0000181
318.15	100	.00154	.0000154
323.15	100	.00132	.0000132

System: 2-pentanol; phases: Liquid
Property: Mass density, kg/m3 (Liquid); method: Vibrating tube method
Temperature, K	Pressure, kPa	Mass density, kg/m3	uncertainty
293.15	100	809.3	.5
298.15	100	805.3	.5
303.15	100	801.2	.5
308.15	100	797	.5
313.15	100	792.7	.5
318.15	100	788.4	.5
323.15	100	784	.5

System: 2-pentanol; phases: Liquid
Property: Viscosity, Pa*s (Liquid); method: Concentric cylinders viscometry
Temperature, K	Pressure, kPa	Viscosity, Pa*s	uncertainty
293.15	100	.00397	.0000397
298.15	100	.00328	.0000328
303.15	100	.00272	.0000272
308.15	100	.00228	.0000228
313.15	100	.00193	.0000193
318.15	100	.00165	.0000165
323.15	100	.00142	.0000142

System: 2-propanol + diethylamine; phases: Liquid
Fixed: Pressure, kPa = 100
Property: Mass density, kg/m3 (Liquid); method: Vibrating tube method
Temperature, K	Mole fraction of diethylamine	Mass density, kg/m3	uncertainty
293.15	0	785.4	.5
293.15	.0215	784.4	.5
293.15	.0807	781.4	.5
293.15	.1595	776.8	.5
293.15	.2401	771.8	.5
293.15	.3491	764	.5
293.15	.4399	756.9	.5
293.15	.5598	746.9	.5
293.15	.6501	738.9	.5
293.15	.7395	730.5	.5
293.15	.8496	719.9	.5
293.15	.94	710.9	.5
293.15	.9863	706.2	.5
293.15	1	704.8	.5
298.15	0	781.1	.5
298.15	.0215	780.1	.5
298.15	.0807	777.3	.5
298.15	.1595	772.7	.5
298.15	.2401	767.4	.5
298.15	.3491	759.6	.5
298.15	.4399	752.3	.5
298.15	.5598	742.1	.5
298.15	.6501	733.9	.5
298.15	.7395	725.5	.5
298.15	.8496	714.7	.5
298.15	.94	705.5	.5
298.15	.9863	700.7	.5
298.15	1	699.3	.5
303.15	0	776.8	.5
303.15	.0215	775.8	.5
303.15	.0807	773	.5
303.15	.1595	768.4	.5
303.15	.2401	763	.5
303.15	.3491	755.1	.5
303.15	.4399	747.7	.5
303.15	.5598	737.4	.5
303.15	.6501	729	.5
303.15	.7395	720.4	.5
303.15	.8496	709.4	.5
303.15	.94	700.3	.5
303.15	.9863	695.4	.5
303.15	1	694	.5
308.15	0	772.4	.5
308.15	.0215	771.4	.5
308.15	.0807	768.5	.5
308.15	.1595	764.1	.5
308.15	.2401	758.7	.5
308.15	.3491	750.8	.5
308.15	.4399	743.5	.5
308.15	.5598	733	.5
308.15	.6501	724.5	.5
308.15	.7395	715.8	.5
308.15	.8496	704.6	.5
308.15	.94	695.2	.5
308.15	.9863	690.2	.5
308.15	1	688.7	.5
313.15	0	768	.5
313.15	.0215	767	.5
313.15	.0807	764	.5
313.15	.1595	759.5	.5
313.15	.2401	754.3	.5
313.15	.3491	746.3	.5
313.15	.4399	738.8	.5
313.15	.5598	728.3	.5
313.15	.6501	719.7	.5
313.15	.7395	710.7	.5
313.15	.8496	699.3	.5
313.15	.94	689.7	.5
313.15	.9863	684.8	.5
313.15	1	683.3	.5
318.15	0	763.4	.5
318.15	.0215	762.4	.5
318.15	.0807	759.5	.5
318.15	.1595	754.8	.5
318.15	.2401	749.5	.5
318.15	.3491	741.4	.5
318.15	.4399	733.9	.5
318.15	.5598	723.2	.5
318.15	.6501	714.4	.5
318.15	.7395	705.4	.5
318.15	.8496	693.9	.5
318.15	.94	684.1	.5
318.15	.9863	679	.5
318.15	1	677.5	.5
323.15	0	758.8	.5
323.15	.0215	757.8	.5
323.15	.0807	754.8	.5
323.15	.1595	750.2	.5
323.15	.2401	744.9	.5
323.15	.3491	736.8	.5
323.15	.4399	729.2	.5
323.15	.5598	718.3	.5
323.15	.6501	709.4	.5
323.15	.7395	700.3	.5
323.15	.8496	688.7	.5
323.15	.94	678.8	.5
323.15	.9863	673.6	.5
323.15	1	672.1	.5

System: 2-propanol + diethylamine; phases: Liquid
Fixed: Pressure, kPa = 100
Property: Viscosity, Pa*s (Liquid); method: Concentric cylinders viscometry
Temperature, K	Mole fraction of diethylamine	Viscosity, Pa*s	uncertainty
293.15	0	.00242	.0000242
293.15	.0215	.0023	.000023
293.15	.0807	.00199	.0000199
293.15	.1595	.00163	.0000163
293.15	.2401	.00133	.0000133
293.15	.3491	.00102	.0000102
293.15	.4399	.00084	.0000084
293.15	.5598	.00065	.0000065
293.15	.6501	.000551	.00000551
293.15	.7395	.00048	.0000048
293.15	.8496	.00041	.0000041
293.15	.94	.00036	.0000036
293.15	.9863	.00033	.0000033
293.15	1	.00032	.0000032
298.15	0	.00208	.0000208
298.15	.0215	.00199	.0000199
298.15	.0807	.00174	.0000174
298.15	.1595	.00144	.0000144
298.15	.2401	.001187	.00001187
298.15	.3491	.00091	.0000091
298.15	.4399	.00075	.0000075
298.15	.5598	.00058	.0000058
298.15	.6501	.0005	.000005
298.15	.7395	.00043	.0000043
298.15	.8496	.000376	.00000376
298.15	.94	.000336	.00000336
298.15	.9863	.000314	.00000314
298.15	1	.000304	.00000304
303.15	0	.0018	.000018
303.15	.0215	.00172	.0000172
303.15	.0807	.00151	.0000151
303.15	.1595	.001256	.00001256
303.15	.2401	.00105	.0000105
303.15	.3491	.000806	.00000806
303.15	.4399	.000671	.00000671
303.15	.5598	.000527	.00000527
303.15	.6501	.000455	.00000455
303.15	.7395	.00039	.0000039
303.15	.8496	.000343	.00000343
303.15	.94	.000315	.00000315
303.15	.9863	.000298	.00000298
303.15	1	.000288	.00000288
308.15	0	.00156	.0000156
308.15	.0215	.00149	.0000149
308.15	.0807	.00131	.0000131
308.15	.1595	.00109	.0000109
308.15	.2401	.000924	.00000924
308.15	.3491	.00072	.0000072
308.15	.4399	.000598	.00000598
308.15	.5598	.00048	.0000048
308.15	.6501	.000416	.00000416
308.15	.7395	.00036	.0000036
308.15	.8496	.000319	.00000319
308.15	.94	.000293	.00000293
308.15	.9863	.000282	.00000282
308.15	1	.000274	.00000274
313.15	0	.00136	.0000136
313.15	.0215	.00131	.0000131
313.15	.0807	.001152	.00001152
313.15	.1595	.00097	.0000097
313.15	.2401	.00082	.0000082
313.15	.3491	.00064	.0000064
313.15	.4399	.00054	.0000054
313.15	.5598	.000435	.00000435
313.15	.6501	.000376	.00000376
313.15	.7395	.00033	.0000033
313.15	.8496	.000296	.00000296
313.15	.94	.000274	.00000274
313.15	.9863	.000267	.00000267
313.15	1	.00026	.0000026
318.15	0	.00119	.0000119
318.15	.0215	.00115	.0000115
318.15	.0807	.00102	.0000102
318.15	.1595	.00086	.0000086
318.15	.2401	.000732	.00000732
318.15	.3491	.00058	.0000058
318.15	.4399	.000491	.00000491
318.15	.5598	.000396	.00000396
318.15	.6501	.000345	.00000345
318.15	.7395	.000304	.00000304
318.15	.8496	.000271	.00000271
318.15	.94	.000257	.00000257
318.15	.9863	.000251	.00000251
318.15	1	.000248	.00000248
323.15	0	.00105	.0000105
323.15	.0215	.00101	.0000101
323.15	.0807	.0009	.000009
323.15	.1595	.00078	.0000078
323.15	.2401	.00067	.0000067
323.15	.3491	.00054	.0000054
323.15	.4399	.00046	.0000046
323.15	.5598	.00037	.0000037
323.15	.6501	.00032	.0000032
323.15	.7395	.000283	.00000283
323.15	.8496	.000251	.00000251
323.15	.94	.000243	.00000243
323.15	.9863	.000238	.00000238
323.15	1	.000237	.00000237

System: 2-butanol + diethylamine; phases: Liquid
Fixed: Pressure, kPa = 100
Property: Mass density, kg/m3 (Liquid); method: Vibrating tube method
Temperature, K	Mole fraction of diethylamine	Mass density, kg/m3	uncertainty
293.15	0	806.7	.5
293.15	.0221	805.4	.5
293.15	.081	801.7	.5
293.15	.1601	796.2	.5
293.15	.24	789.9	.5
293.15	.3494	780.4	.5
293.15	.4395	771.7	.5
293.15	.5602	759.1	.5
293.15	.65	749	.5
293.15	.74	738.3	.5
293.15	.8503	724.4	.5
293.15	.94	712.8	.5
293.15	.9871	706.5	.5
293.15	1	704.8	.5
298.15	0	802.7	.5
298.15	.0221	801.4	.5
298.15	.081	797.6	.5
298.15	.1601	792	.5
298.15	.24	785.8	.5
298.15	.3494	776.1	.5
298.15	.4395	767.3	.5
298.15	.5602	754.5	.5
298.15	.65	744.3	.5
298.15	.74	733.4	.5
298.15	.8503	719.3	.5
298.15	.94	707.5	.5
298.15	.9871	701.1	.5
298.15	1	699.3	.5
303.15	0	798.4	.5
303.15	.0221	797.1	.5
303.15	.081	793.2	.5
303.15	.1601	787.7	.5
303.15	.24	781.3	.5
303.15	.3494	771.6	.5
303.15	.4395	762.8	.5
303.15	.5602	749.9	.5
303.15	.65	739.5	.5
303.15	.74	728.5	.5
303.15	.8503	714.3	.5
303.15	.94	702.3	.5
303.15	.9871	695.8	.5
303.15	1	694	.5
308.15	0	794.1	.5
308.15	.0221	792.8	.5
308.15	.081	789	.5
308.15	.1601	783.4	.5
308.15	.24	777.1	.5
308.15	.3494	767.3	.5
308.15	.4395	758.4	.5
308.15	.5602	745.4	.5
308.15	.65	734.8	.5
308.15	.74	723.6	.5
308.15	.8503	709.2	.5
308.15	.94	697	.5
308.15	.9871	690.5	.5
308.15	1	688.7	.5
313.15	0	789.8	.5
313.15	.0221	788.5	.5
313.15	.081	784.8	.5
313.15	.1601	779.1	.5
313.15	.24	772.7	.5
313.15	.3494	762.9	.5
313.15	.4395	753.8	.5
313.15	.5602	740.6	.5
313.15	.65	730	.5
313.15	.74	718.7	.5
313.15	.8503	704.2	.5
313.15	.94	691.9	.5
313.15	.9871	685.1	.5
313.15	1	683.3	.5
318.15	0	785.2	.5
318.15	.0221	783.8	.5
318.15	.081	779.9	.5
318.15	.1601	774.2	.5
318.15	.24	767.9	.5
318.15	.3494	758	.5
318.15	.4395	748.9	.5
318.15	.5602	735.6	.5
318.15	.65	724.8	.5
318.15	.74	713.4	.5
318.15	.8503	698.7	.5
318.15	.94	686.3	.5
318.15	.9871	679.4	.5
318.15	1	677.5	.5
323.15	0	780.6	.5
323.15	.0221	779.3	.5
323.15	.081	775.9	.5
323.15	.1601	770.2	.5
323.15	.24	763.7	.5
323.15	.3494	753.7	.5
323.15	.4395	744.5	.5
323.15	.5602	731	.5
323.15	.65	719.9	.5
323.15	.74	708.3	.5
323.15	.8503	693.4	.5
323.15	.94	680.7	.5
323.15	.9871	674	.5
323.15	1	672.1	.5

System: 2-butanol + diethylamine; phases: Liquid
Fixed: Pressure, kPa = 100
Property: Viscosity, Pa*s (Liquid); method: Concentric cylinders viscometry
Temperature, K	Mole fraction of diethylamine	Viscosity, Pa*s	uncertainty
293.15	0	.00367	.0000367
293.15	.0221	.00349	.0000349
293.15	.081	.00302	.0000302
293.15	.1601	.00249	.0000249
293.15	.24	.00204	.0000204
293.15	.3494	.001602	.00001602
293.15	.4395	.00132	.0000132
293.15	.5602	.001032	.00001032
293.15	.65	.000827	.00000827
293.15	.74	.000662	.00000662
293.15	.8503	.000496	.00000496
293.15	.94	.000384	.00000384
293.15	.9871	.000336	.00000336
293.15	1	.00032	.0000032
298.15	0	.00305	.0000305
298.15	.0221	.00291	.0000291
298.15	.081	.00254	.0000254
298.15	.1601	.00211	.0000211
298.15	.24	.00175	.0000175
298.15	.3494	.00137	.0000137
298.15	.4395	.00113	.0000113
298.15	.5602	.000868	.00000868
298.15	.65	.000712	.00000712
298.15	.74	.00058	.0000058
298.15	.8503	.000447	.00000447
298.15	.94	.000356	.00000356
298.15	.9871	.000317	.00000317
298.15	1	.000304	.00000304
303.15	0	.00254	.0000254
303.15	.0221	.00242	.0000242
303.15	.081	.00212	.0000212
303.15	.1601	.0018	.000018
303.15	.24	.00151	.0000151
303.15	.3494	.00117	.0000117
303.15	.4395	.00098	.0000098
303.15	.5602	.000754	.00000754
303.15	.65	.000628	.00000628
303.15	.74	.000515	.00000515
303.15	.8503	.00041	.0000041
303.15	.94	.000335	.00000335
303.15	.9871	.0003	.000003
303.15	1	.000288	.00000288
308.15	0	.00213	.0000213
308.15	.0221	.00204	.0000204
308.15	.081	.00182	.0000182
308.15	.1601	.00156	.0000156
308.15	.24	.00131	.0000131
308.15	.3494	.001033	.00001033
308.15	.4395	.000867	.00000867
308.15	.5602	.00068	.0000068
308.15	.65	.00057	.0000057
308.15	.74	.00048	.0000048
308.15	.8503	.00038	.0000038
308.15	.94	.000309	.00000309
308.15	.9871	.000284	.00000284
308.15	1	.000274	.00000274
313.15	0	.00181	.0000181
313.15	.0221	.00173	.0000173
313.15	.081	.00155	.0000155
313.15	.1601	.00133	.0000133
313.15	.24	.00115	.0000115
313.15	.3494	.00092	.0000092
313.15	.4395	.00078	.0000078
313.15	.5602	.00062	.0000062
313.15	.65	.000528	.00000528
313.15	.74	.000443	.00000443
313.15	.8503	.000359	.00000359
313.15	.94	.000298	.00000298
313.15	.9871	.00027	.0000027
313.15	1	.00026	.0000026
318.15	0	.00154	.0000154
318.15	.0221	.00149	.0000149
318.15	.081	.00134	.0000134
318.15	.1601	.00116	.0000116
318.15	.24	.00101	.0000101
318.15	.3494	.00083	.0000083
318.15	.4395	.00071	.0000071
318.15	.5602	.000574	.00000574
318.15	.65	.000489	.00000489
318.15	.74	.000416	.00000416
318.15	.8503	.000337	.00000337
318.15	.94	.000284	.00000284
318.15	.9871	.000257	.00000257
318.15	1	.000248	.00000248
323.15	0	.00132	.0000132
323.15	.0221	.00128	.0000128
323.15	.081	.00118	.0000118
323.15	.1601	.001049	.00001049
323.15	.24	.00093	.0000093
323.15	.3494	.000771	.00000771
323.15	.4395	.00066	.0000066
323.15	.5602	.000533	.00000533
323.15	.65	.000459	.00000459
323.15	.74	.000389	.00000389
323.15	.8503	.000318	.00000318
323.15	.94	.000268	.00000268
323.15	.9871	.000244	.00000244
323.15	1	.000237	.00000237

System: diethylamine + 2-pentanol; phases: Liquid
Fixed: Pressure, kPa = 100
Property: Mass density, kg/m3 (Liquid); method: Vibrating tube method
Temperature, K	Mole fraction of diethylamine	Mass density, kg/m3	uncertainty
293.15	0	809.3	.5
293.15	.0218	808.2	.5
293.15	.081	805	.5
293.15	.16	800.1	.5
293.15	.2399	794.4	.5
293.15	.3499	785.5	.5
293.15	.44	777.1	.5
293.15	.56	764.5	.5
293.15	.6501	753.9	.5
293.15	.74	742.4	.5
293.15	.8497	727.4	.5
293.15	.9397	714.1	.5
293.15	.9811	707.7	.5
293.15	1	704.8	.5
298.15	0	805.3	.5
298.15	.0218	804.2	.5
298.15	.081	800.9	.5
298.15	.16	796	.5
298.15	.2399	790.3	.5
298.15	.3499	781.2	.5
298.15	.44	772.6	.5
298.15	.56	759.8	.5
298.15	.6501	749.1	.5
298.15	.74	737.4	.5
298.15	.8497	722.2	.5
298.15	.9397	708.8	.5
298.15	.9811	702.3	.5
298.15	1	699.3	.5
303.15	0	801.2	.5
303.15	.0218	800	.5
303.15	.081	796.7	.5
303.15	.16	791.8	.5
303.15	.2399	785.9	.5
303.15	.3499	776.9	.5
303.15	.44	768.2	.5
303.15	.56	755.4	.5
303.15	.6501	744.4	.5
303.15	.74	732.7	.5
303.15	.8497	717.2	.5
303.15	.9397	703.6	.5
303.15	.9811	697	.5
303.15	1	694	.5
308.15	0	797	.5
308.15	.0218	795.9	.5
308.15	.081	792.5	.5
308.15	.16	787.6	.5
308.15	.2399	781.9	.5
308.15	.3499	772.7	.5
308.15	.44	764	.5
308.15	.56	751	.5
308.15	.6501	739.8	.5
308.15	.74	727.9	.5
308.15	.8497	712.1	.5
308.15	.9397	698.3	.5
308.15	.9811	691.7	.5
308.15	1	688.7	.5
313.15	0	792.7	.5
313.15	.0218	791.6	.5
313.15	.081	788.4	.5
313.15	.16	783.4	.5
313.15	.2399	777.6	.5
313.15	.3499	768.3	.5
313.15	.44	759.5	.5
313.15	.56	746.3	.5
313.15	.6501	735	.5
313.15	.74	722.9	.5
313.15	.8497	707.1	.5
313.15	.9397	692.9	.5
313.15	.9811	686.4	.5
313.15	1	683.3	.5
318.15	0	788.4	.5
318.15	.0218	787.2	.5
318.15	.081	783.8	.5
318.15	.16	778.9	.5
318.15	.2399	773.1	.5
318.15	.3499	763.8	.5
318.15	.44	754.9	.5
318.15	.56	741.6	.5
318.15	.6501	730.1	.5
318.15	.74	717.8	.5
318.15	.8497	701.6	.5
318.15	.9397	687.4	.5
318.15	.9811	680.6	.5
318.15	1	677.5	.5
323.15	0	784	.5
323.15	.0218	782.9	.5
323.15	.081	779.7	.5
323.15	.16	774.5	.5
323.15	.2399	768.4	.5
323.15	.3499	758.7	.5
323.15	.44	749.7	.5
323.15	.56	736.1	.5
323.15	.6501	724.6	.5
323.15	.74	712.3	.5
323.15	.8497	696.1	.5
323.15	.9397	682	.5
323.15	.9811	675.2	.5
323.15	1	672.1	.5

System: diethylamine + 2-pentanol; phases: Liquid
Fixed: Pressure, kPa = 100
Property: Viscosity, Pa*s (Liquid); method: Concentric cylinders viscometry
Temperature, K	Mole fraction of diethylamine	Viscosity, Pa*s	uncertainty
293.15	0	.00397	.0000397
293.15	.0218	.00375	.0000375
293.15	.081	.0032	.000032
293.15	.16	.00257	.0000257
293.15	.2399	.00204	.0000204
293.15	.3499	.0015	.000015
293.15	.44	.00116	.0000116
293.15	.56	.00084	.0000084
293.15	.6501	.00068	.0000068
293.15	.74	.000552	.00000552
293.15	.8497	.00045	.0000045
293.15	.9397	.000368	.00000368
293.15	.9811	.000332	.00000332
293.15	1	.00032	.0000032
298.15	0	.00328	.0000328
298.15	.0218	.00312	.0000312
298.15	.081	.0027	.000027
298.15	.16	.002207	.00002207
298.15	.2399	.00178	.0000178
298.15	.3499	.00133	.0000133
298.15	.44	.00104	.0000104
298.15	.56	.00076	.0000076
298.15	.6501	.000629	.00000629
298.15	.74	.000506	.00000506
298.15	.8497	.000416	.00000416
298.15	.9397	.000346	.00000346
298.15	.9811	.000316	.00000316
298.15	1	.000304	.00000304
303.15	0	.00272	.0000272
303.15	.0218	.0026	.000026
303.15	.081	.00228	.0000228
303.15	.16	.0019	.000019
303.15	.2399	.001555	.00001555
303.15	.3499	.00118	.0000118
303.15	.44	.00094	.0000094
303.15	.56	.0007	.000007
303.15	.6501	.000577	.00000577
303.15	.74	.000466	.00000466
303.15	.8497	.000387	.00000387
303.15	.9397	.000325	.00000325
303.15	.9811	.0003	.000003
303.15	1	.000288	.00000288
308.15	0	.00228	.0000228
308.15	.0218	.00218	.0000218
308.15	.081	.00192	.0000192
308.15	.16	.00162	.0000162
308.15	.2399	.00135	.0000135
308.15	.3499	.00105	.0000105
308.15	.44	.00085	.0000085
308.15	.56	.000644	.00000644
308.15	.6501	.00053	.0000053
308.15	.74	.000435	.00000435
308.15	.8497	.00036	.0000036
308.15	.9397	.000304	.00000304
308.15	.9811	.000283	.00000283
308.15	1	.000274	.00000274
313.15	0	.00193	.0000193
313.15	.0218	.00185	.0000185
313.15	.081	.00166	.0000166
313.15	.16	.00142	.0000142
313.15	.2399	.001204	.00001204
313.15	.3499	.000945	.00000945
313.15	.44	.000778	.00000778
313.15	.56	.000592	.00000592
313.15	.6501	.000489	.00000489
313.15	.74	.0004	.000004
313.15	.8497	.000335	.00000335
313.15	.9397	.000285	.00000285
313.15	.9811	.000268	.00000268
313.15	1	.00026	.0000026
318.15	0	.00165	.0000165
318.15	.0218	.00159	.0000159
318.15	.081	.00144	.0000144
318.15	.16	.00125	.0000125
318.15	.2399	.00107	.0000107
318.15	.3499	.000858	.00000858
318.15	.44	.00071	.0000071
318.15	.56	.000544	.00000544
318.15	.6501	.000446	.00000446
318.15	.74	.000367	.00000367
318.15	.8497	.000311	.00000311
318.15	.9397	.000268	.00000268
318.15	.9811	.000254	.00000254
318.15	1	.000248	.00000248
323.15	0	.00142	.0000142
323.15	.0218	.00137	.0000137
323.15	.081	.00125	.0000125
323.15	.16	.0011	.000011
323.15	.2399	.00096	.0000096
323.15	.3499	.00078	.0000078
323.15	.44	.00065	.0000065
323.15	.56	.000494	.00000494
323.15	.6501	.00041	.0000041
323.15	.74	.00034	.0000034
323.15	.8497	.000285	.00000285
323.15	.9397	.00025	.0000025
323.15	.9811	.00024	.0000024
323.15	1	.000237	.00000237
