Measured thermophysical data. Partial molar volumes of organic solutes in water. XXVI. 15-Crown-5 and 18-crown-6 ethers at temperatures (298 to 573) K and pressures up to 30 MPa
Source: J. Chem. Thermodyn., 2015, 10.1016/j.jct.2014.08.019
Compound 1: 15-crown-5, C10H20O5, purity 98%
Compound 2: 18-crown-6, C12H24O6, purity 99%
Compound 3: water, H2O

System: water + 15-crown-5; phases: Liquid
Property: Mass density, kg/m3 (Liquid); method: Vibrating tube method
Molality, mol/kg of 15-crown-5	Temperature, K	Pressure, kPa	Mass density, kg/m3	uncertainty
.055724	298.18	540	1.9054	.0051
.055724	298.18	540	1.9027	.0051
.101838	298.18	540	3.4649	.0051
.101838	298.18	540	3.462	.0051
.176907	298.18	540	5.946	.0051
.176907	298.18	540	5.9455	.0051
.229722	298.18	540	7.6716	.0051
.229722	298.18	540	7.6705	.0051
.298682	298.18	540	9.8776	.0051
.055724	298.18	30060	1.7972	.0101
.055724	298.18	30060	1.7954	.0101
.101838	298.18	30060	3.2736	.0101
.101838	298.18	30060	3.273	.0101
.176907	298.18	30060	5.6232	.0101
.176907	298.18	30060	5.6294	.0101
.229722	298.18	30060	7.2608	.0101
.229722	298.18	30060	7.2515	.0101
.298682	298.18	30060	9.3531	.0101
.298682	298.18	30060	9.3585	.0101
.055724	318.17	15120	1.7446	.0105
.055724	318.17	15120	1.7452	.0105
.101838	318.17	15120	3.177	.0105
.101838	318.17	15120	3.1721	.0105
.176907	318.17	15120	5.4508	.0105
.176907	318.17	15120	5.4479	.0105
.229722	318.17	15120	7.0205	.0105
.229722	318.17	15120	7.0219	.0105
.298682	318.17	15120	9.0299	.0105
.298682	318.17	15120	9.0307	.0105
.050613	338.17	550	1.5325	.0109
.050613	338.17	550	1.5303	.0109
.098178	338.17	550	2.9472	.0109
.098178	338.17	550	2.9536	.0109
.157316	338.17	550	4.6837	.0109
.157316	338.17	550	4.6826	.0109
.233115	338.17	550	6.8473	.0109
.233115	338.17	550	6.8464	.0109
.307599	338.17	550	8.924	.0109
.307599	338.17	550	8.9266	.0109
.055724	298.18	15190	1.8513	.0076
.055724	298.18	15190	1.8504	.0076
.101838	298.18	15190	3.3703	.0076
.101838	298.18	15190	3.3614	.0076
.176907	298.18	15190	5.791	.0076
.176907	298.18	15190	5.7897	.0076
.229722	298.18	15190	7.4656	.0076
.229722	298.18	15190	7.4741	.0076
.298682	298.18	15190	9.6182	.0076
.298682	298.18	15190	9.6248	.0076
.055724	318.16	540	1.7781	.008
.055724	318.16	540	1.7773	.008
.101838	318.16	540	3.235	.008
.101838	318.16	540	3.233	.008
.176907	318.16	540	5.5478	.008
.176907	318.16	540	5.5464	.008
.229722	318.16	540	7.1431	.008
.229722	318.16	540	7.1418	.008
.298682	318.16	540	9.1877	.008
.298682	318.16	540	9.189	.008
.055724	318.17	30230	1.7088	.013
.055724	318.17	30230	1.7089	.013
.101838	318.17	30230	3.1134	.013
.101838	318.17	30230	3.1095	.013
.176907	318.17	30230	5.3339	.013
.176907	318.17	30230	5.3402	.013
.229722	318.17	30230	6.8751	.013
.229722	318.17	30230	6.8785	.013
.298682	318.17	30230	8.8402	.013
.298682	318.17	30230	8.8552	.013
.050613	338.2	15110	1.5179	.0134
.050613	338.2	15110	1.5181	.0134
.098178	338.2	15110	2.9193	.0134
.098178	338.2	15110	2.9197	.0134
.157316	338.2	15110	4.6342	.0134
.157316	338.2	15110	4.6324	.0134
.233115	338.2	15110	6.7763	.0134
.233115	338.2	15110	6.7768	.0134
.307599	338.2	15110	8.8333	.0134
.307599	338.2	15110	8.8333	.0134
.050613	338.17	30130	1.4947	.0159
.050613	338.17	30130	1.498	.0159
.098178	338.17	30130	2.8785	.0159
.098178	338.17	30130	2.8798	.0159
.157316	338.17	30130	4.5718	.0159
.157316	338.17	30130	4.5772	.0159
.233115	338.17	30130	6.6927	.0159
.233115	338.17	30130	6.698	.0159
.307599	338.17	30130	8.7299	.0159
.307599	338.17	30130	8.7315	.0159
.050613	358.14	30190	1.4378	.0189
.050613	358.14	30190	1.4359	.0189
.098178	358.14	30190	2.7643	.0189
.098178	358.14	30190	2.7665	.0189
.157316	358.14	30190	4.389	.0189
.157316	358.14	30190	4.3924	.0189
.233115	358.14	30190	6.4178	.0189
.233115	358.14	30190	6.4243	.0189
.307599	358.14	30190	8.3589	.0189
.307599	358.14	30190	8.3676	.0189
.050613	373.18	30060	1.3924	.021
.050613	373.18	30060	1.3937	.021
.098178	373.18	30060	2.686	.021
.098178	373.18	30060	2.6863	.021
.157316	373.18	30060	4.2664	.021
.157316	373.18	30060	4.2647	.021
.233115	373.18	30060	6.2296	.021
.233115	373.18	30060	6.2317	.021
.307599	373.18	30060	8.1144	.021
.307599	373.18	30060	8.116	.021
.050613	398.14	30130	1.3328	.0247
.050613	398.14	30130	1.3377	.0247
.098178	398.14	30130	2.568	.0247
.098178	398.14	30130	2.5652	.0247
.157316	398.14	30130	4.071	.0247
.157316	398.14	30130	4.0727	.0247
.233115	398.14	30130	5.9451	.0247
.233115	398.14	30130	5.946	.0247
.307599	398.14	30130	7.7323	.0247
.307599	398.14	30130	7.732	.0247
.050613	358.16	560	1.4556	.0138
.050613	358.16	560	1.4545	.0138
.098178	358.16	560	2.7972	.0138
.098178	358.16	560	2.7979	.0138
.157316	358.16	560	4.4381	.0138
.157316	358.16	560	4.4396	.0138
.233115	358.16	560	6.487	.0138
.233115	358.16	560	6.4864	.0138
.307599	358.16	560	8.4475	.0138
.307599	358.16	560	8.4472	.0138
.050613	373.18	560	1.4035	.016
.050613	373.18	560	1.4015	.016
.098178	373.18	560	2.6973	.016
.098178	373.18	560	2.6967	.016
.157316	373.18	560	4.2732	.016
.157316	373.18	560	4.276	.016
.233115	373.18	560	6.2451	.016
.233115	373.18	560	6.2466	.016
.307599	373.18	560	8.1283	.016
.307599	373.18	560	8.1285	.016
.050613	398.14	2000	1.323	.0199
.050613	398.14	2000	1.3244	.0199
.098178	398.14	2000	2.5441	.0199
.098178	398.14	2000	2.5438	.0199
.157316	398.14	2000	4.0318	.0199
.157316	398.14	2000	4.0312	.0199
.233115	398.14	2000	5.8854	.0199
.233115	398.14	2000	5.8822	.0199
.307599	398.14	2000	7.6492	.0199
.307599	398.14	2000	7.6478	.0199
.050613	423.17	1950	1.2515	.0236
.050613	423.17	1950	1.2509	.0236
.098178	423.17	1950	2.3993	.0236
.098178	423.17	1950	2.3977	.0236
.157316	423.17	1950	3.7962	.0236
.157316	423.17	1950	3.7967	.0236
.233115	423.17	1950	5.5402	.0236
.233115	423.17	1950	5.5399	.0236
.307599	423.17	1950	7.1982	.0236
.307599	423.17	1950	7.1999	.0236
.050613	358.15	15130	1.4472	.0163
.050613	358.15	15130	1.4458	.0163
.098178	358.15	15130	2.7867	.0163
.098178	358.15	15130	2.7861	.0163
.157316	358.15	15130	4.4177	.0163
.157316	358.15	15130	4.417	.0163
.233115	358.15	15130	6.4601	.0163
.233115	358.15	15130	6.4589	.0163
.307599	358.15	15130	8.4121	.0163
.307599	358.15	15130	8.412	.0163
.050613	373.19	15090	1.3999	.0185
.050613	373.19	15090	1.4005	.0185
.098178	373.19	15090	2.6958	.0185
.098178	373.19	15090	2.6957	.0185
.157316	373.19	15090	4.2752	.0185
.157316	373.19	15090	4.2754	.0185
.233115	373.19	15090	6.2458	.0185
.233115	373.19	15090	6.2422	.0185
.307599	373.19	15090	8.1273	.0185
.307599	373.19	15090	8.1297	.0185
.050613	398.13	15120	1.3303	.0222
.050613	398.13	15120	1.332	.0222
.098178	398.13	15120	2.5602	.0222
.098178	398.13	15120	2.56	.0222
.157316	398.13	15120	4.0561	.0222
.157316	398.13	15120	4.0553	.0222
.233115	398.13	15120	5.9214	.0222
.233115	398.13	15120	5.919	.0222
.307599	398.13	15120	7.6995	.0222
.307599	398.13	15120	7.7005	.0222
.050613	423.17	15130	1.267	.0258
.050613	423.17	15130	1.2654	.0258
.098178	423.17	15130	2.4348	.0258
.098178	423.17	15130	2.4291	.0258
.157316	423.17	15130	3.8521	.0258
.157316	423.17	15130	3.8487	.0258
.233115	423.17	15130	5.6155	.0258
.233115	423.17	15130	5.6169	.0258
.307599	423.17	15130	7.3036	.0258
.307599	423.17	15130	7.302	.0258
.050613	423.17	30080	1.2846	.0283
.050613	423.17	30080	1.2807	.0283
.098178	423.17	30080	2.461	.0283
.098178	423.17	30080	2.4606	.0283
.157316	423.17	30080	3.8943	.0283
.157316	423.17	30080	3.8925	.0283
.233115	423.17	30080	5.6888	.0283
.233115	423.17	30080	5.691	.0283
.307599	423.17	30080	7.3956	.0283
.307599	423.17	30080	7.3972	.0283
.046274	448.17	30100	1.1248	.032
.046274	448.17	30100	1.1307	.032
.095967	448.17	30100	2.3099	.032
.095967	448.17	30100	2.3082	.032
.157316	448.17	30100	3.7384	.032
.157316	448.17	30100	3.7351	.032
.233115	448.17	30100	5.4549	.032
.233115	448.17	30100	5.4561	.032
.28651	448.17	30100	6.6122	.032
.28651	448.17	30100	6.6139	.032
.046274	473.18	30120	1.0768	.0357
.046274	473.18	30120	1.0777	.0357
.095967	473.18	30120	2.2186	.0357
.095967	473.18	30120	2.2174	.0357
.163743	473.18	30120	3.7265	.0357
.163743	473.18	30120	3.7252	.0357
.223502	473.18	30120	5.0288	.0357
.223502	473.18	30120	5.0267	.0357
.28651	473.18	30120	6.3632	.0357
.28651	473.18	30120	6.3603	.0357
.046274	498.07	30160	1.0351	.0393
.046274	498.07	30160	1.0428	.0393
.095967	498.07	30160	2.1502	.0393
.095967	498.07	30160	2.1436	.0393
.163743	498.07	30160	3.6074	.0393
.163743	498.07	30160	3.6034	.0393
.223502	498.07	30160	4.8618	.0393
.223502	498.07	30160	4.8616	.0393
.28651	498.07	30160	6.1552	.0393
.28651	498.07	30160	6.1551	.0393
.050613	448.17	2060	1.1794	.0272
.050613	448.17	2060	1.1778	.0272
.098178	448.17	2060	2.2569	.0272
.098178	448.17	2060	2.2606	.0272
.157316	448.17	2060	3.5753	.0272
.157316	448.17	2060	3.5706	.0272
.233115	448.17	2060	5.2094	.0272
.233115	448.17	2060	5.2109	.0272
.307599	448.17	2060	6.7638	.0272
.307599	448.17	2060	6.7635	.0272
.046274	473.16	2010	1.0088	.0309
.046274	473.16	2010	1.0095	.0309
.095967	473.16	2010	2.0742	.0309
.095967	473.16	2010	2.0736	.0309
.163743	473.16	2010	3.4828	.0309
.163743	473.16	2010	3.4807	.0309
.223502	473.16	2010	4.6935	.0309
.223502	473.16	2010	4.6927	.0309
.28651	473.16	2010	5.9371	.0309
.28651	473.16	2010	5.9363	.0309
.046274	498.07	2930	.9475	.0347
.046274	498.07	2930	.9461	.0347
.095967	498.07	2930	1.95	.0347
.095967	498.07	2930	1.9487	.0347
.163743	498.07	2930	3.2733	.0347
.163743	498.07	2930	3.2732	.0347
.223502	498.07	2930	4.4141	.0347
.223502	498.07	2930	4.4142	.0347
.28651	498.07	2930	5.5874	.0347
.28651	498.07	2930	5.586	.0347
.046274	523.18	5110	.8881	.0387
.046274	523.18	5110	.8855	.0387
.095967	523.18	5110	1.8318	.0387
.095967	523.18	5110	1.8256	.0387
.163743	523.18	5110	3.0697	.0387
.163743	523.18	5110	3.0674	.0387
.223502	523.18	5110	4.1374	.0387
.223502	523.18	5110	4.1302	.0387
.28651	523.18	5110	5.2356	.0387
.28651	523.18	5110	5.2249	.0387
.046274	448.18	15170	1.1013	.0295
.046274	448.18	15170	1.1013	.0295
.095967	448.18	15170	2.2589	.0295
.095967	448.18	15170	2.2619	.0295
.163743	448.18	15170	3.7953	.0295
.163743	448.18	15170	3.7962	.0295
.223502	448.18	15170	5.1203	.0295
.223502	448.18	15170	5.115	.0295
.28651	448.18	15170	6.4691	.0295
.28651	448.18	15170	6.4721	.0295
.046274	473.18	15110	1.0464	.0331
.046274	473.18	15110	1.0462	.0331
.095967	473.18	15110	2.1527	.0331
.095967	473.18	15110	2.1499	.0331
.163743	473.18	15110	3.6141	.0331
.163743	473.18	15110	3.6104	.0331
.223502	473.18	15110	4.8716	.0331
.223502	473.18	15110	4.869	.0331
.28651	473.18	15110	6.1623	.0331
.28651	473.18	15110	6.1606	.0331
.046274	498.07	15270	.998	.0368
.046274	498.07	15270	.9968	.0368
.095967	498.07	15270	2.0543	.0368
.095967	498.07	15270	2.0528	.0368
.163743	498.07	15270	3.4511	.0368
.163743	498.07	15270	3.449	.0368
.223502	498.07	15270	4.6535	.0368
.223502	498.07	15270	4.6506	.0368
.28651	498.07	15270	5.8901	.0368
.28651	498.07	15270	5.8883	.0368
.046274	523.18	15350	.9513	.0404
.046274	523.18	15350	.9519	.0404
.095967	523.18	15350	1.9575	.0404
.095967	523.18	15350	1.9536	.0404
.163743	523.18	15350	3.2808	.0404
.163743	523.18	15350	3.2753	.0404
.223502	523.18	15350	4.4104	.0404
.223502	523.18	15350	4.4127	.0404
.28651	523.18	15350	5.5858	.0404
.28651	523.18	15350	5.5877	.0404
.046274	523.18	30030	1.0161	.0429
.046274	523.18	30030	1.0106	.0429
.095967	523.18	30030	2.0897	.0429
.095967	523.18	30030	2.0852	.0429
.163743	523.18	30030	3.4933	.0429
.163743	523.18	30030	3.495	.0429
.223502	523.18	30030	4.7029	.0429
.223502	523.18	30030	4.7038	.0429
.28651	523.18	30030	5.9518	.0429
.28651	523.18	30030	5.9506	.0429

System: water + 18-crown-6; phases: Liquid
Property: Mass density, kg/m3 (Liquid); method: Vibrating tube method
Molality, mol/kg of 18-crown-6	Temperature, K	Pressure, kPa	Mass density, kg/m3	uncertainty
.051773	298.18	550	2.1233	.0051
.051773	298.18	550	2.1228	.0051
.091089	298.18	550	3.7111	.0051
.091089	298.18	550	3.7089	.0051
.151327	298.18	550	6.1115	.0051
.151327	298.18	550	6.1123	.0051
.206616	298.18	550	8.2703	.0051
.206616	298.18	550	8.27	.0051
.278466	298.18	550	11.0224	.0051
.278466	298.18	550	11.0195	.0051
.051773	298.18	30060	1.9978	.0101
.051773	298.18	30060	1.9966	.0101
.091089	298.18	30060	3.495	.0101
.091089	298.18	30060	3.4913	.0101
.151327	298.18	30060	5.7554	.0101
.151327	298.18	30060	5.7618	.0101
.206616	298.18	30060	7.7947	.0101
.206616	298.18	30060	7.797	.0101
.278466	298.18	30060	10.4008	.0101
.278466	298.18	30060	10.41	.0101
.051773	318.16	15120	1.9517	.0105
.051773	318.16	15120	1.9517	.0105
.091089	318.16	15120	3.4062	.0105
.091089	318.16	15120	3.4066	.0105
.151327	318.16	15120	5.5989	.0105
.151327	318.16	15120	5.6019	.0105
.206616	318.16	15120	7.5755	.0105
.206616	318.16	15120	7.5714	.0105
.278466	318.16	15120	10.0817	.0105
.278466	318.16	15120	10.0827	.0105
.054203	338.17	550	1.9688	.0109
.054203	338.17	550	1.9691	.0109
.108303	338.17	550	3.889	.0109
.108303	338.17	550	3.8845	.0109
.157748	338.17	550	5.6084	.0109
.207503	338.17	550	7.3044	.0109
.207503	338.17	550	7.307	.0109
.265685	338.17	550	9.2328	.0109
.265685	338.17	550	9.2344	.0109
.051773	298.17	15190	2.0622	.0076
.051773	298.17	15190	2.0608	.0076
.091089	298.17	15190	3.6043	.0076
.091089	298.17	15190	3.6031	.0076
.151327	298.17	15190	5.9402	.0076
.151327	298.17	15190	5.9348	.0076
.206616	298.17	15190	8.0356	.0076
.206616	298.17	15190	8.0369	.0076
.278466	298.17	15190	10.717	.0076
.278466	298.17	15190	10.7153	.0076
.051773	318.16	540	1.9901	.008
.051773	318.16	540	1.9896	.008
.091089	318.16	540	3.4729	.008
.091089	318.16	540	3.4745	.008
.151327	318.16	540	5.711	.008
.151327	318.16	540	5.7112	.008
.206616	318.16	540	7.7226	.008
.206616	318.16	540	7.7217	.008
.278466	318.16	540	10.2765	.008
.278466	318.16	540	10.2738	.008
.051773	318.16	30220	1.9075	.013
.051773	318.16	30220	1.9055	.013
.091089	318.16	30220	3.3288	.013
.091089	318.16	30220	3.329	.013
.151327	318.16	30220	5.4721	.013
.151327	318.16	30220	5.4735	.013
.206616	318.16	30220	7.4001	.013
.206616	318.16	30220	7.4118	.013
.278466	318.16	30220	9.8551	.013
.278466	318.16	30220	9.8658	.013
.054203	338.18	15100	1.9415	.0134
.054203	338.18	15100	1.9402	.0134
.108303	338.18	15100	3.8404	.0134
.108303	338.18	15100	3.8444	.0134
.157748	338.18	15100	5.5433	.0134
.157748	338.18	15100	5.5414	.0134
.207503	338.18	15100	7.2205	.0134
.207503	338.18	15100	7.223	.0134
.265685	338.18	15100	9.1282	.0134
.265685	338.18	15100	9.1237	.0134
.054203	338.17	30120	1.9118	.0159
.054203	338.17	30120	1.9137	.0159
.108303	338.17	30120	3.7873	.0159
.108303	338.17	30120	3.7883	.0159
.157748	338.17	30120	5.4664	.0159
.157748	338.17	30120	5.4673	.0159
.207503	338.17	30120	7.1242	.0159
.207503	338.17	30120	7.1242	.0159
.265685	338.17	30120	9.0062	.0159
.265685	338.17	30120	9.0071	.0159
.054203	358.14	30170	1.834	.0189
.054203	358.14	30170	1.8375	.0189
.108303	358.14	30170	3.6279	.0189
.108303	358.14	30170	3.6375	.0189
.157748	358.14	30170	5.2305	.0189
.157748	358.14	30170	5.243	.0189
.207503	358.14	30170	6.8107	.0189
.207503	358.14	30170	6.8241	.0189
.265685	358.14	30170	8.6093	.0189
.265685	358.14	30170	8.6254	.0189
.054203	373.18	30060	1.7782	.021
.054203	373.18	30060	1.7852	.021
.108303	373.18	30060	3.5311	.021
.108303	373.18	30060	3.5242	.021
.157748	373.18	30060	5.0866	.021
.157748	373.18	30060	5.0842	.021
.207503	373.18	30060	6.6156	.021
.207503	373.18	30060	6.6204	.021
.265685	373.18	30060	8.3562	.021
.265685	373.18	30060	8.3587	.021
.054203	398.14	30120	1.7027	.0247
.054203	398.14	30120	1.7044	.0247
.108303	398.14	30120	3.3608	.0247
.108303	398.14	30120	3.3635	.0247
.157748	398.14	30120	4.8399	.0247
.157748	398.14	30120	4.8486	.0247
.207503	398.14	30120	6.3043	.0247
.207503	398.14	30120	6.3086	.0247
.265685	398.14	30120	7.9539	.0247
.265685	398.14	30120	7.9637	.0247
.054203	358.16	560	1.8638	.0138
.054203	358.16	560	1.8627	.0138
.108303	358.16	560	3.6845	.0138
.108303	358.16	560	3.6851	.0138
.157748	358.16	560	5.3108	.0138
.157748	358.16	560	5.3152	.0138
.207503	358.16	560	6.9151	.0138
.207503	358.16	560	6.9154	.0138
.265685	358.16	560	8.7316	.0138
.265685	358.16	560	8.7314	.0138
.054203	373.18	560	1.7959	.016
.054203	373.18	560	1.7934	.016
.108303	373.18	560	3.5492	.016
.108303	373.18	560	3.5468	.016
.157748	373.18	560	5.1112	.016
.157748	373.18	560	5.1109	.016
.207503	373.18	560	6.6514	.016
.207503	373.18	560	6.6508	.016
.265685	373.18	560	8.3952	.016
.265685	373.18	560	8.3911	.016
.054203	398.14	2000	1.6934	.0199
.054203	398.14	2000	1.6937	.0199
.108303	398.14	2000	3.34	.0199
.108303	398.14	2000	3.3433	.0199
.157748	398.14	2000	4.8111	.0199
.157748	398.14	2000	4.8137	.0199
.207503	398.14	2000	6.259	.0199
.207503	398.14	2000	6.2579	.0199
.265685	398.14	2000	7.894	.0199
.265685	398.14	2000	7.8952	.0199
.054203	423.17	1950	1.6026	.0236
.054203	423.17	1950	1.6005	.0236
.108303	423.17	1950	3.1568	.0236
.108303	423.17	1950	3.1562	.0236
.157748	423.17	1950	4.5423	.0236
.157748	423.17	1950	4.5428	.0236
.207503	423.17	1950	5.9089	.0236
.207503	423.17	1950	5.9061	.0236
.265685	423.17	1950	7.45	.0236
.265685	423.17	1950	7.4508	.0236
.054203	358.15	15130	1.8541	.0163
.054203	358.15	15130	1.8531	.0163
.108303	358.15	15130	3.6636	.0163
.108303	358.15	15130	3.662	.0163
.157748	358.15	15130	5.2819	.0163
.157748	358.15	15130	5.2829	.0163
.207503	358.15	15130	6.8786	.0163
.207503	358.15	15130	6.8759	.0163
.265685	358.15	15130	8.6839	.0163
.265685	358.15	15130	8.6838	.0163
.054203	373.19	15090	1.7933	.0185
.054203	373.19	15090	1.7917	.0185
.108303	373.19	15090	3.5411	.0185
.108303	373.19	15090	3.541	.0185
.157748	373.19	15090	5.1026	.0185
.157748	373.19	15090	5.1028	.0185
.207503	373.19	15090	6.6419	.0185
.207503	373.19	15090	6.6412	.0185
.265685	373.19	15090	8.3841	.0185
.265685	373.19	15090	8.3825	.0185
.054203	398.13	15130	1.7008	.0222
.054203	398.13	15130	1.7007	.0222
.108303	398.13	15130	3.3574	.0222
.108303	398.13	15130	3.3551	.0222
.157748	398.13	15130	4.8351	.0222
.157748	398.13	15130	4.8373	.0222
.207503	398.13	15130	6.288	.0222
.207503	398.13	15130	6.2898	.0222
.265685	398.13	15130	7.9372	.0222
.265685	398.13	15130	7.9392	.0222
.054203	423.17	15120	1.6199	.0258
.054203	423.17	15120	1.6182	.0258
.108303	423.17	15120	3.1986	.0258
.108303	423.17	15120	3.1945	.0258
.157748	423.17	15120	4.5991	.0258
.157748	423.17	15120	4.5974	.0258
.207503	423.17	15120	5.9813	.0258
.207503	423.17	15120	5.9794	.0258
.265685	423.17	15120	7.5445	.0258
.265685	423.17	15120	7.5418	.0258
.054203	423.17	30070	1.6365	.0283
.054203	423.17	30070	1.6334	.0283
.108303	423.17	30070	3.229	.0283
.108303	423.17	30070	3.2297	.0283
.157748	423.17	30070	4.648	.0283
.157748	423.17	30070	4.6465	.0283
.207503	423.17	30070	6.0468	.0283
.207503	423.17	30070	6.043	.0283
.265685	423.17	30070	7.6275	.0283
.265685	423.17	30070	7.6264	.0283
.050461	448.17	30090	1.468	.032
.050461	448.17	30090	1.4668	.032
.09827	448.17	30090	2.8244	.032
.09827	448.17	30090	2.8265	.032
.156581	448.17	30090	4.4388	.032
.156581	448.17	30090	4.4432	.032
.207503	448.17	30090	5.8169	.032
.207503	448.17	30090	5.8148	.032
.265685	448.17	30090	7.3383	.032
.265685	448.17	30090	7.3381	.032
.050461	473.18	30120	1.4155	.0357
.050461	473.18	30120	1.4131	.0357
.09827	473.18	30120	2.7254	.0357
.09827	473.18	30120	2.7237	.0357
.156581	473.18	30120	4.2809	.0357
.156581	473.18	30120	4.2824	.0357
.212725	473.18	30120	5.7446	.0357
.212725	473.18	30120	5.7435	.0357
.266139	473.18	30120	7.1006	.0357
.266139	473.18	30120	7.1004	.0357
.050461	498.07	30160	1.3736	.0393
.050461	498.07	30160	1.375	.0393
.09827	498.07	30160	2.6462	.0393
.09827	498.07	30160	2.645	.0393
.156581	498.07	30160	4.1588	.0393
.156581	498.07	30160	4.1598	.0393
.212725	498.07	30160	5.5834	.0393
.212725	498.07	30160	5.5827	.0393
.266139	498.07	30160	6.9059	.0393
.266139	498.07	30160	6.9076	.0393
.054203	448.17	2060	1.5159	.0272
.054203	448.17	2060	1.5147	.0272
.108303	448.17	2060	2.9867	.0272
.108303	448.17	2060	2.9846	.0272
.157748	448.17	2060	4.3011	.0272
.157748	448.17	2060	4.2987	.0272
.207503	448.17	2060	5.5906	.0272
.207503	448.17	2060	5.5862	.0272
.265685	448.17	2060	7.051	.0272
.265685	448.17	2060	7.047	.0272
.050461	473.16	2000	1.3322	.0309
.050461	473.16	2000	1.3331	.0309
.09827	473.16	2000	2.563	.0309
.09827	473.16	2000	2.5636	.0309
.156581	473.16	2000	4.0296	.0309
.156581	473.16	2000	4.0305	.0309
.212725	473.16	2000	5.4025	.0309
.212725	473.16	2000	5.4034	.0309
.266139	473.16	2000	6.6751	.0309
.266139	473.16	2000	6.6757	.0309
.050461	498.07	2930	1.2601	.0347
.050461	498.07	2930	1.2594	.0347
.09827	498.07	2930	2.4266	.0347
.09827	498.07	2930	2.4259	.0347
.156581	498.07	2930	3.814	.0347
.156581	498.07	2930	3.8133	.0347
.212725	498.07	2930	5.1174	.0347
.212725	498.07	2930	5.1186	.0347
.266139	498.07	2930	6.328	.0347
.266139	498.07	2930	6.3295	.0347
.050461	523.18	5110	1.1972	.0387
.050461	523.18	5110	1.1966	.0387
.09827	523.18	5110	2.306	.0387
.09827	523.18	5110	2.3055	.0387
.156581	523.18	5110	3.6295	.0387
.156581	523.18	5110	3.6277	.0387
.212725	523.18	5110	4.8719	.0387
.212725	523.18	5110	4.8726	.0387
.266139	523.18	5110	6.0287	.0387
.266139	523.18	5110	6.03	.0387
.050461	448.18	15170	1.4446	.0295
.050461	448.18	15170	1.4431	.0295
.09827	448.18	15170	2.7737	.0295
.09827	448.18	15170	2.7741	.0295
.156581	448.18	15170	4.3588	.0295
.156581	448.18	15170	4.3633	.0295
.212725	448.18	15170	5.847	.0295
.212725	448.18	15170	5.8456	.0295
.266139	448.18	15170	7.2205	.0295
.266139	448.18	15170	7.2203	.0295
.050461	473.18	15110	1.3792	.0331
.050461	473.18	15110	1.3746	.0331
.09827	473.18	15110	2.6486	.0331
.09827	473.18	15110	2.6475	.0331
.156581	473.18	15110	4.1643	.0331
.156581	473.18	15110	4.165	.0331
.212725	473.18	15110	5.5819	.0331
.212725	473.18	15110	5.5843	.0331
.266139	473.18	15110	6.9012	.0331
.266139	473.18	15110	6.901	.0331
.050461	498.07	15270	1.3221	.0368
.050461	498.07	15270	1.3213	.0368
.09827	498.07	15270	2.5433	.0368
.09827	498.07	15270	2.5423	.0368
.156581	498.07	15270	3.9979	.0368
.156581	498.07	15270	3.9964	.0368
.212725	498.07	15270	5.3654	.0368
.212725	498.07	15270	5.3645	.0368
.266139	498.07	15270	6.6331	.0368
.266139	498.07	15270	6.6313	.0368
.050461	523.18	15350	1.27	.0404
.050461	523.18	15350	1.2701	.0404
.09827	523.18	15350	2.4452	.0404
.09827	523.18	15350	2.4434	.0404
.156581	523.18	15350	3.8495	.0404
.156581	523.18	15350	3.8462	.0404
.212725	523.18	15350	5.1686	.0404
.212725	523.18	15350	5.1637	.0404
.266139	523.18	15350	6.3921	.0404
.266139	523.18	15350	6.3878	.0404
.050461	523.18	30030	1.3469	.0429
.050461	523.18	30030	1.3471	.0429
.09827	523.18	30030	2.5887	.0429
.09827	523.18	30030	2.5881	.0429
.156581	523.18	30030	4.0697	.0429
.156581	523.18	30030	4.0707	.0429
.212725	523.18	30030	5.4652	.0429
.212725	523.18	30030	5.4648	.0429
.266139	523.18	30030	6.76	.0429
.266139	523.18	30030	6.7662	.0429
.050461	548.16	15090	1.2041	.044
.050461	548.16	15090	1.2037	.044
.09827	548.16	15090	2.3289	.044
.09827	548.16	15090	2.3286	.044
.156581	548.16	15090	3.6761	.044
.156581	548.16	15090	3.6749	.044
.212725	548.16	15090	4.9452	.044
.212725	548.16	15090	4.9431	.044
.266139	548.16	15090	6.1295	.044
.266139	548.16	15090	6.127	.044
.050461	548.18	7130	1.1334	.0427
.050461	548.18	7130	1.1317	.0427
.09827	548.18	7130	2.1834	.0427
.09827	548.18	7130	2.1809	.0427
.156581	548.18	7130	3.4417	.0427
.156581	548.18	7130	3.4371	.0427
.212725	548.18	7130	4.6261	.0427
.212725	548.18	7130	4.6242	.0427
.266139	548.18	7130	5.7314	.0427
.266139	548.18	7130	5.7284	.0427
.050461	548.19	30100	1.3183	.0466
.050461	548.19	30100	1.3177	.0466
.09827	548.19	30100	2.5404	.0466
.09827	548.19	30100	2.5399	.0466
.156581	548.19	30100	4.0031	.0466
.156581	548.19	30100	4.0028	.0466
.212725	548.19	30100	5.382	.0466
.212725	548.19	30100	5.3809	.0466
.266139	548.19	30100	6.6684	.0466
.266139	548.19	30100	6.6658	.0466
.050461	573.18	9920	1.0636	.0468
.09827	573.18	9920	2.0598	.0468
.156581	573.18	9920	3.2573	.0468
.212725	573.18	9920	4.393	.0468
.266139	573.18	9920	5.4508	.0468
.050461	573.17	15280	1.1526	.0477
.09827	573.17	15280	2.2281	.0477
.156581	573.17	15280	3.5217	.0477
.212725	573.17	15280	4.744	.0477
.266139	573.17	15280	5.8868	.0477
.050461	573.17	23080	1.2443	.0491
.09827	573.17	23080	2.4051	.0491
.156581	573.17	23080	3.7971	.0491
.212725	573.17	23080	5.1094	.0491
.266139	573.17	23080	6.3359	.0491
.050461	573.17	30110	1.305	.0503
.09827	573.17	30110	2.52	.0503
.156581	573.17	30110	3.9772	.0503
.212725	573.17	30110	5.3537	.0503
.266139	573.17	30110	6.6355	.0503
