Measured thermophysical data. Viscosities of binary mixtures containing 1-butanol + 2,2,4-trimethylpentane or + 1,2,4-trimethylbenzene at high pressures for the thermophysical characterization of biofuels
Source: J. Chem. Thermodyn., 2016, 10.1016/j.jct.2016.07.008
Compound 1: 1-butanol, C4H10O, purity 99.5%
Compound 2: 2,2,4-trimethylpentane, C8H18, purity 99.5%
Compound 3: 1,2,4-trimethylbenzene, C9H12, purity 98%

System: 1-butanol; phases: Liquid
Property: Viscosity, Pa*s (Liquid); method: Concentric cylinders viscometry
Pressure, kPa	Temperature, K	Viscosity, Pa*s	uncertainty
100	293.15	.002959	
100	313.15	.001794	
100	333.15	.0011543	
100	353.15	.0007837	

System: 1-butanol; phases: Liquid
Property: Viscosity, Pa*s (Liquid); method: Vibrating wire viscometry
Pressure, kPa	Temperature, K	Viscosity, Pa*s	uncertainty
100	293.15	.0029686	
100	298.15	.0026013	
100	313.15	.0017968	
100	323.15	.0014288	
100	333.15	.0011564	
100	348.15	.0008579	
100	353.15	.0007903	
1000	293.15	.0030011	
1000	298.15	.0026221	
1000	313.15	.0018132	
1000	323.15	.0014401	
1000	333.15	.0011722	
1000	348.15	.0008647	
1000	353.15	.0007943	
5000	293.15	.0031084	
5000	298.15	.0027151	
5000	313.15	.0018899	
5000	323.15	.001491	
5000	333.15	.0012273	
5000	348.15	.0008956	
5000	353.15	.0008284	
10000	293.15	.0032435	
10000	298.15	.0028337	
10000	313.15	.0019672	
10000	323.15	.0015559	
10000	333.15	.0012905	
10000	348.15	.0009349	
10000	353.15	.0008637	
20000	293.15	.0034787	
20000	298.15	.0030785	
20000	313.15	.0021399	
20000	323.15	.0016899	
20000	333.15	.0013888	
20000	348.15	.0010161	
20000	353.15	.0009473	
30000	293.15	.0037881	
30000	298.15	.0033335	
30000	313.15	.0023189	
30000	323.15	.0018294	
30000	333.15	.0015041	
30000	348.15	.0011007	
30000	353.15	.0010405	
40000	293.15	.0040777	
40000	298.15	.0035987	
40000	313.15	.0024799	
40000	323.15	.0019745	
40000	333.15	.001624	
40000	348.15	.0011887	
40000	353.15	.0011017	
50000	293.15	.0044007	
50000	298.15	.0038741	
50000	313.15	.0026295	
50000	323.15	.0021251	
50000	333.15	.0017414	
50000	348.15	.0012801	
50000	353.15	.00121	
60000	293.15	.0047398	
60000	298.15	.0041596	
60000	313.15	.002852	
60000	323.15	.0022813	
60000	333.15	.0018671	
60000	348.15	.0013749	
60000	353.15	.0012952	
70000	293.15	.0050764	
70000	298.15	.0044554	
70000	313.15	.0030886	
70000	323.15	.0024431	
70000	333.15	.0020137	
70000	348.15	.001473	
70000	353.15	.0013838	
80000	293.15	.0054377	
80000	298.15	.0047613	
80000	313.15	.0032466	
80000	323.15	.0026104	
80000	333.15	.0021367	
80000	348.15	.0015746	
80000	353.15	.0014734	
100000	293.15	.0061645	
100000	298.15	.0054037	
100000	313.15	.0036858	
100000	323.15	.0029616	
100000	333.15	.0023839	
100000	348.15	.0017879	
100000	353.15	.0016762	
120000	293.15	.0069795	
120000	298.15	.0060869	
120000	313.15	.004192	
120000	323.15	.0033351	
120000	333.15	.0026327	
120000	348.15	.0020149	
120000	353.15	.0018566	
140000	293.15	.0078435	
140000	298.15	.0068109	
140000	313.15	.0046383	
140000	323.15	.0036822	
140000	333.15	.0028831	
140000	348.15	.0022554	
140000	353.15	.0020372	

System: 1-butanol + 2,2,4-trimethylpentane; phases: Liquid
Property: Viscosity, Pa*s (Liquid); method: Vibrating wire viscometry
Temperature, K	Mole fraction of 1-butanol	Pressure, kPa	Viscosity, Pa*s	uncertainty
293.15	.3002	100	.000651	
293.15	.3002	1000	.0006579	
293.15	.3002	5000	.0006912	
293.15	.3002	10000	.0007318	
293.15	.3002	20000	.0008168	
293.15	.3002	30000	.0009098	
293.15	.3002	40000	.0010037	
293.15	.3002	50000	.0011077	
293.15	.3002	60000	.0012148	
293.15	.3002	70000	.0013241	
293.15	.3002	80000	.001433	
293.15	.3002	100000	.0016792	
293.15	.3002	120000	.0019417	
293.15	.3002	140000	.002211	
313.15	.3002	100	.0004938	
313.15	.3002	1000	.0004951	
313.15	.3002	5000	.0005303	
313.15	.3002	10000	.0005681	
313.15	.3002	20000	.0006344	
313.15	.3002	30000	.0007073	
313.15	.3002	40000	.0007728	
313.15	.3002	50000	.0008419	
313.15	.3002	60000	.0009375	
313.15	.3002	70000	.0010048	
313.15	.3002	80000	.0010809	
313.15	.3002	100000	.0012353	
313.15	.3002	120000	.0014135	
313.15	.3002	140000	.0015872	
333.15	.3002	100	.0003855	
333.15	.3002	1000	.0003922	
333.15	.3002	5000	.0004188	
333.15	.3002	10000	.0004439	
333.15	.3002	20000	.0004973	
333.15	.3002	30000	.000552	
333.15	.3002	40000	.0006073	
333.15	.3002	50000	.0006677	
333.15	.3002	60000	.0007297	
333.15	.3002	70000	.0007944	
333.15	.3002	80000	.000857	
333.15	.3002	100000	.0009892	
333.15	.3002	120000	.0011334	
333.15	.3002	140000	.0012794	
353.15	.3002	100	.0003085	
353.15	.3002	1000	.0003131	
353.15	.3002	5000	.0003362	
353.15	.3002	10000	.0003574	
353.15	.3002	20000	.0003982	
353.15	.3002	30000	.0004475	
353.15	.3002	40000	.000491	
353.15	.3002	50000	.0005403	
353.15	.3002	60000	.000592	
353.15	.3002	70000	.0006322	
353.15	.3002	80000	.0006788	
353.15	.3002	100000	.0007915	
353.15	.3002	120000	.0008951	
353.15	.3002	140000	.0010073	
293.15	.5003	100	.0008986	
293.15	.5003	1000	.0009064	
293.15	.5003	5000	.0009556	
293.15	.5003	10000	.0009979	
293.15	.5003	20000	.0011399	
293.15	.5003	30000	.0012741	
293.15	.5003	40000	.0014151	
293.15	.5003	50000	.0015621	
293.15	.5003	60000	.0017386	
293.15	.5003	70000	.0018946	
293.15	.5003	80000	.0020546	
293.15	.5003	100000	.0023866	
293.15	.5003	120000	.0027346	
293.15	.5003	140000	.0030986	
313.15	.5003	100	.0006427	
313.15	.5003	1000	.0006458	
313.15	.5003	5000	.0006742	
313.15	.5003	10000	.0007086	
313.15	.5003	20000	.0008024	
313.15	.5003	30000	.0008924	
313.15	.5003	40000	.0009864	
313.15	.5003	50000	.0010844	
313.15	.5003	60000	.0011864	
313.15	.5003	70000	.0012924	
313.15	.5003	80000	.0014024	
313.15	.5003	100000	.0016344	
313.15	.5003	120000	.0018824	
313.15	.5003	140000	.0021464	
333.15	.5003	100	.0004739	
333.15	.5003	1000	.0004756	
333.15	.5003	5000	.0005003	
333.15	.5003	10000	.0005334	
333.15	.5003	20000	.0005894	
333.15	.5003	30000	.0006494	
333.15	.5003	40000	.0007134	
333.15	.5003	50000	.0007814	
333.15	.5003	60000	.0008534	
333.15	.5003	70000	.0009294	
333.15	.5003	80000	.0010094	
333.15	.5003	100000	.0011814	
333.15	.5003	120000	.0013694	
333.15	.5003	140000	.0015734	
353.15	.5003	100	.0003658	
353.15	.5003	1000	.0003715	
353.15	.5003	5000	.0003955	
353.15	.5003	10000	.0004195	
353.15	.5003	20000	.0004654	
353.15	.5003	30000	.0005151	
353.15	.5003	40000	.0005714	
353.15	.5003	50000	.0006195	
353.15	.5003	60000	.000679	
353.15	.5003	70000	.0007319	
353.15	.5003	80000	.0007953	
353.15	.5003	100000	.0009151	
353.15	.5003	120000	.001026	
353.15	.5003	140000	.0011396	
293.15	.8	100	.0017768	
293.15	.8	1000	.0018049	
293.15	.8	5000	.0018374	
293.15	.8	10000	.0019489	
293.15	.8	20000	.0021606	
293.15	.8	30000	.0023535	
293.15	.8	40000	.0025778	
293.15	.8	50000	.0028262	
293.15	.8	60000	.0030379	
293.15	.8	70000	.0033084	
293.15	.8	80000	.0035368	
293.15	.8	100000	.0040663	
293.15	.8	120000	.0046535	
293.15	.8	140000	.0053221	
313.15	.8	100	.0011512	
313.15	.8	1000	.0011611	
313.15	.8	5000	.0012164	
313.15	.8	10000	.0012788	
313.15	.8	20000	.0014021	
313.15	.8	30000	.0015404	
313.15	.8	40000	.001674	
313.15	.8	50000	.0018245	
313.15	.8	60000	.0019723	
313.15	.8	70000	.0021136	
313.15	.8	80000	.002283	
313.15	.8	100000	.0026193	
313.15	.8	120000	.002954	
313.15	.8	140000	.0033279	
333.15	.8	100	.0007766	
333.15	.8	1000	.0007891	
333.15	.8	5000	.0008182	
333.15	.8	10000	.000868	
333.15	.8	20000	.0009602	
333.15	.8	30000	.00104	
333.15	.8	40000	.0011321	
333.15	.8	50000	.0012315	
333.15	.8	60000	.0013283	
333.15	.8	70000	.0014194	
333.15	.8	80000	.0015314	
333.15	.8	100000	.0017347	
333.15	.8	120000	.0019733	
333.15	.8	140000	.0022125	
353.15	.8	100	.0005523	
353.15	.8	1000	.0005621	
353.15	.8	5000	.0005811	
353.15	.8	10000	.0006183	
353.15	.8	20000	.0006708	
353.15	.8	30000	.0007334	
353.15	.8	40000	.000793	
353.15	.8	50000	.0008609	
353.15	.8	60000	.0009278	
353.15	.8	70000	.0009984	
353.15	.8	80000	.001069	
353.15	.8	100000	.0012026	
353.15	.8	120000	.0013654	
353.15	.8	140000	.0015259	
293.15	1	100	.0029686	
298.15	1	100	.0026013	
313.15	1	100	.0017968	
323.15	1	100	.0014288	
333.15	1	100	.0011564	
348.15	1	100	.0008579	
353.15	1	100	.0007903	
293.15	1	1000	.0030011	
298.15	1	1000	.0026221	
313.15	1	1000	.0018132	
323.15	1	1000	.0014401	
333.15	1	1000	.0011722	
348.15	1	1000	.0008647	
353.15	1	1000	.0007943	
293.15	1	5000	.0031084	
298.15	1	5000	.0027151	
313.15	1	5000	.0018899	
323.15	1	5000	.001491	
333.15	1	5000	.0012273	
348.15	1	5000	.0008956	
353.15	1	5000	.0008284	
293.15	1	10000	.0032435	
298.15	1	10000	.0028337	
313.15	1	10000	.0019672	
323.15	1	10000	.0015559	
333.15	1	10000	.0012905	
348.15	1	10000	.0009349	
353.15	1	10000	.0008637	
293.15	1	20000	.0034787	
298.15	1	20000	.0030785	
313.15	1	20000	.0021399	
323.15	1	20000	.0016899	
333.15	1	20000	.0013888	
348.15	1	20000	.0010161	
353.15	1	20000	.0009473	
293.15	1	30000	.0037881	
298.15	1	30000	.0033335	
313.15	1	30000	.0023189	
323.15	1	30000	.0018294	
333.15	1	30000	.0015041	
348.15	1	30000	.0011007	
353.15	1	30000	.0010405	
293.15	1	40000	.0040777	
298.15	1	40000	.0035987	
313.15	1	40000	.0024799	
323.15	1	40000	.0019745	
333.15	1	40000	.001624	
348.15	1	40000	.0011887	
353.15	1	40000	.0011017	
293.15	1	50000	.0044007	
298.15	1	50000	.0038741	
313.15	1	50000	.0026295	
323.15	1	50000	.0021251	
333.15	1	50000	.0017414	
348.15	1	50000	.0012801	
353.15	1	50000	.00121	
293.15	1	60000	.0047398	
298.15	1	60000	.0041596	
313.15	1	60000	.002852	
323.15	1	60000	.0022813	
333.15	1	60000	.0018671	
348.15	1	60000	.0013749	
353.15	1	60000	.0012952	
293.15	1	70000	.0050764	
298.15	1	70000	.0044554	
313.15	1	70000	.0030886	
323.15	1	70000	.0024431	
333.15	1	70000	.0020137	
348.15	1	70000	.001473	
353.15	1	70000	.0013838	
293.15	1	80000	.0054377	
298.15	1	80000	.0047613	
313.15	1	80000	.0032466	
323.15	1	80000	.0026104	
333.15	1	80000	.0021367	
348.15	1	80000	.0015746	
353.15	1	80000	.0014734	
293.15	1	100000	.0061645	
298.15	1	100000	.0054037	
313.15	1	100000	.0036858	
323.15	1	100000	.0029616	
333.15	1	100000	.0023839	
348.15	1	100000	.0017879	
353.15	1	100000	.0016762	
293.15	1	120000	.0069795	
298.15	1	120000	.0060869	
313.15	1	120000	.004192	
323.15	1	120000	.0033351	
333.15	1	120000	.0026327	
348.15	1	120000	.0020149	
353.15	1	120000	.0018566	
293.15	1	140000	.0078435	
298.15	1	140000	.0068109	
313.15	1	140000	.0046383	
323.15	1	140000	.0036822	
333.15	1	140000	.0028831	
348.15	1	140000	.0022554	
353.15	1	140000	.0020372	

System: 1-butanol + 1,2,4-trimethylbenzene; phases: Liquid
Property: Viscosity, Pa*s (Liquid); method: Vibrating wire viscometry
Temperature, K	Pressure, kPa	Mole fraction of 1-butanol	Viscosity, Pa*s	uncertainty
293.15	100	.2999	.0010044	
293.15	1000	.2999	.0010191	
293.15	5000	.2999	.001066	
293.15	10000	.2999	.0011039	
293.15	20000	.2999	.0011968	
293.15	30000	.2999	.0012916	
293.15	40000	.2999	.0013912	
293.15	50000	.2999	.0015157	
293.15	60000	.2999	.0016503	
293.15	70000	.2999	.0018042	
293.15	80000	.2999	.0019383	
293.15	100000	.2999	.0022361	
293.15	120000	.2999	.0025783	
293.15	140000	.2999	.0029557	
313.15	100	.2999	.0007478	
313.15	1000	.2999	.0007546	
313.15	5000	.2999	.0007792	
313.15	10000	.2999	.0008286	
313.15	20000	.2999	.0008853	
313.15	30000	.2999	.0009596	
313.15	40000	.2999	.0010253	
313.15	50000	.2999	.0011054	
313.15	60000	.2999	.0011811	
313.15	70000	.2999	.0012706	
313.15	80000	.2999	.0013566	
313.15	100000	.2999	.0015314	
313.15	120000	.2999	.0017529	
313.15	140000	.2999	.0019686	
333.15	100	.2999	.0005848	
333.15	1000	.2999	.0005927	
333.15	5000	.2999	.0006096	
333.15	10000	.2999	.0006356	
333.15	20000	.2999	.0006805	
333.15	30000	.2999	.0007326	
333.15	40000	.2999	.0007951	
333.15	50000	.2999	.0008476	
333.15	60000	.2999	.000906	
333.15	70000	.2999	.0009707	
333.15	80000	.2999	.0010297	
333.15	100000	.2999	.0011766	
333.15	120000	.2999	.0013082	
333.15	140000	.2999	.0014472	
353.15	100	.2999	.0004547	
353.15	1000	.2999	.0004576	
353.15	5000	.2999	.0004793	
353.15	10000	.2999	.0004978	
353.15	20000	.2999	.0005414	
353.15	30000	.2999	.000577	
353.15	40000	.2999	.0006166	
353.15	50000	.2999	.000659	
353.15	60000	.2999	.0007031	
353.15	70000	.2999	.0007463	
353.15	80000	.2999	.0007895	
353.15	100000	.2999	.0008968	
353.15	120000	.2999	.000997	
353.15	140000	.2999	.0011166	
293.15	100	.5289	.0012272	
293.15	1000	.5289	.0012281	
293.15	5000	.5289	.0012903	
293.15	10000	.5289	.0013481	
293.15	20000	.5289	.0014616	
293.15	30000	.5289	.0015884	
293.15	40000	.5289	.0017301	
293.15	50000	.5289	.0018695	
293.15	60000	.5289	.0020307	
293.15	70000	.5289	.0021965	
293.15	80000	.5289	.0024009	
293.15	100000	.5289	.0027733	
293.15	120000	.5289	.0032609	
293.15	140000	.5289	.0037185	
313.15	100	.5289	.0008685	
313.15	1000	.5289	.0008775	
313.15	5000	.5289	.0009012	
313.15	10000	.5289	.0009526	
313.15	20000	.5289	.001029	
313.15	30000	.5289	.001116	
313.15	40000	.5289	.001201	
313.15	50000	.5289	.001293	
313.15	60000	.5289	.0014022	
313.15	70000	.5289	.0014925	
313.15	80000	.5289	.0016115	
313.15	100000	.5289	.0018208	
313.15	120000	.5289	.0020651	
313.15	140000	.5289	.0023673	
333.15	100	.5289	.0006443	
333.15	1000	.5289	.0006496	
333.15	5000	.5289	.0006816	
333.15	10000	.5289	.0007029	
333.15	20000	.5289	.000753	
333.15	30000	.5289	.0008089	
333.15	40000	.5289	.0008688	
333.15	50000	.5289	.0009271	
333.15	60000	.5289	.0009904	
333.15	70000	.5289	.0010594	
333.15	80000	.5289	.001131	
333.15	100000	.5289	.0012953	
333.15	120000	.5289	.0014528	
333.15	140000	.5289	.001615	
353.15	100	.5289	.000495	
353.15	1000	.5289	.0004993	
353.15	5000	.5289	.0005174	
353.15	10000	.5289	.0005381	
353.15	20000	.5289	.0005739	
353.15	30000	.5289	.0006155	
353.15	40000	.5289	.0006521	
353.15	50000	.5289	.0006945	
353.15	60000	.5289	.0007392	
353.15	70000	.5289	.0007855	
353.15	80000	.5289	.0008338	
353.15	100000	.5289	.0009482	
353.15	120000	.5289	.0010623	
353.15	140000	.5289	.0011936	
293.15	100	.7991	.0019586	
293.15	1000	.7991	.0019768	
293.15	5000	.7991	.0020572	
293.15	10000	.7991	.002177	
293.15	20000	.7991	.0023813	
293.15	30000	.7991	.002563	
293.15	40000	.7991	.0027573	
293.15	50000	.7991	.0029951	
293.15	60000	.7991	.0032411	
293.15	70000	.7991	.003481	
293.15	80000	.7991	.0037543	
293.15	100000	.7991	.004289	
293.15	120000	.7991	.0048493	
293.15	140000	.7991	.0054698	
313.15	100	.7991	.0012541	
313.15	1000	.7991	.0012707	
313.15	5000	.7991	.0013318	
313.15	10000	.7991	.0013849	
313.15	20000	.7991	.0015057	
313.15	30000	.7991	.0016447	
313.15	40000	.7991	.0017593	
313.15	50000	.7991	.0019206	
313.15	60000	.7991	.0020462	
313.15	70000	.7991	.0021871	
313.15	80000	.7991	.0023425	
313.15	100000	.7991	.0026496	
313.15	120000	.7991	.0029949	
313.15	140000	.7991	.0033359	
333.15	100	.7991	.0008537	
333.15	1000	.7991	.0008605	
333.15	5000	.7991	.0008976	
333.15	10000	.7991	.00094	
333.15	20000	.7991	.0010264	
333.15	30000	.7991	.0011069	
333.15	40000	.7991	.0011968	
333.15	50000	.7991	.001282	
333.15	60000	.7991	.0013791	
333.15	70000	.7991	.0014665	
333.15	80000	.7991	.0015774	
333.15	100000	.7991	.0017711	
333.15	120000	.7991	.001945	
333.15	140000	.7991	.0021353	
353.15	100	.7991	.0006105	
353.15	1000	.7991	.000618	
353.15	5000	.7991	.0006396	
353.15	10000	.7991	.000667	
353.15	20000	.7991	.0007229	
353.15	30000	.7991	.0007805	
353.15	40000	.7991	.0008397	
353.15	50000	.7991	.0009004	
353.15	60000	.7991	.0009627	
353.15	70000	.7991	.0010264	
353.15	80000	.7991	.0010916	
353.15	100000	.7991	.0012263	
353.15	120000	.7991	.0013666	
353.15	140000	.7991	.0015122	
293.15	100	1	.0029686	
298.15	100	1	.0026013	
313.15	100	1	.0017968	
323.15	100	1	.0014288	
333.15	100	1	.0011564	
348.15	100	1	.0008579	
353.15	100	1	.0007903	
293.15	1000	1	.0030011	
298.15	1000	1	.0026221	
313.15	1000	1	.0018132	
323.15	1000	1	.0014401	
333.15	1000	1	.0011722	
348.15	1000	1	.0008647	
353.15	1000	1	.0007943	
293.15	5000	1	.0031084	
298.15	5000	1	.0027151	
313.15	5000	1	.0018899	
323.15	5000	1	.001491	
333.15	5000	1	.0012273	
348.15	5000	1	.0008956	
353.15	5000	1	.0008284	
293.15	10000	1	.0032435	
298.15	10000	1	.0028337	
313.15	10000	1	.0019672	
323.15	10000	1	.0015559	
333.15	10000	1	.0012905	
348.15	10000	1	.0009349	
353.15	10000	1	.0008637	
293.15	20000	1	.0034787	
298.15	20000	1	.0030785	
313.15	20000	1	.0021399	
323.15	20000	1	.0016899	
333.15	20000	1	.0013888	
348.15	20000	1	.0010161	
353.15	20000	1	.0009473	
293.15	30000	1	.0037881	
298.15	30000	1	.0033335	
313.15	30000	1	.0023189	
323.15	30000	1	.0018294	
333.15	30000	1	.0015041	
348.15	30000	1	.0011007	
353.15	30000	1	.0010405	
293.15	40000	1	.0040777	
298.15	40000	1	.0035987	
313.15	40000	1	.0024799	
323.15	40000	1	.0019745	
333.15	40000	1	.001624	
348.15	40000	1	.0011887	
353.15	40000	1	.0011017	
293.15	50000	1	.0044007	
298.15	50000	1	.0038741	
313.15	50000	1	.0026295	
323.15	50000	1	.0021251	
333.15	50000	1	.0017414	
348.15	50000	1	.0012801	
353.15	50000	1	.00121	
293.15	60000	1	.0047398	
298.15	60000	1	.0041596	
313.15	60000	1	.002852	
323.15	60000	1	.0022813	
333.15	60000	1	.0018671	
348.15	60000	1	.0013749	
353.15	60000	1	.0012952	
293.15	70000	1	.0050764	
298.15	70000	1	.0044554	
313.15	70000	1	.0030886	
323.15	70000	1	.0024431	
333.15	70000	1	.0020137	
348.15	70000	1	.001473	
353.15	70000	1	.0013838	
293.15	80000	1	.0054377	
298.15	80000	1	.0047613	
313.15	80000	1	.0032466	
323.15	80000	1	.0026104	
333.15	80000	1	.0021367	
348.15	80000	1	.0015746	
353.15	80000	1	.0014734	
293.15	100000	1	.0061645	
298.15	100000	1	.0054037	
313.15	100000	1	.0036858	
323.15	100000	1	.0029616	
333.15	100000	1	.0023839	
348.15	100000	1	.0017879	
353.15	100000	1	.0016762	
293.15	120000	1	.0069795	
298.15	120000	1	.0060869	
313.15	120000	1	.004192	
323.15	120000	1	.0033351	
333.15	120000	1	.0026327	
348.15	120000	1	.0020149	
353.15	120000	1	.0018566	
293.15	140000	1	.0078435	
298.15	140000	1	.0068109	
313.15	140000	1	.0046383	
323.15	140000	1	.0036822	
333.15	140000	1	.0028831	
348.15	140000	1	.0022554	
353.15	140000	1	.0020372	
