Measured thermophysical data. Solubility and solution thermodynamics of thymol in six pure organic solvents
Source: J. Chem. Thermodyn., 2016, 10.1016/j.jct.2015.09.010
Compound 1: thymol, C10H14O, purity 99.8%
Compound 2: methanol, CH4O, purity 99.5%
Compound 3: ethanol, C2H6O, purity 99.5%
Compound 4: 1-propanol, C3H8O, purity 99.5%
Compound 5: 2-propanol, C3H8O, purity 99.5%
Compound 6: 1-butanol, C4H10O, purity 99.5%
Compound 7: acetonitrile, C2H3N, purity 99.5%

System: thymol; phases: Crystal, Liquid, Air at 1 atmosphere
Property: Normal melting temperature, K (Crystal); method: DSC/DTA
Normal melting temperature, K	uncertainty
322.65	.5

System: thymol; phases: Crystal, Liquid, Air at 1 atmosphere
Property: Molar enthalpy of transition or fusion, kJ/mol (Crystal); method: DSC
Molar enthalpy of transition or fusion, kJ/mol	uncertainty
22.103	.44206

System: thymol; phases: Crystal
Fixed: Pressure, kPa = 101.325
Property: Molar heat capacity at constant pressure, J/K/mol (Crystal); method: Small sample (50 mg) scanning calorimetry
Temperature, K	Molar heat capacity at constant pressure, J/K/mol	uncertainty
283.15	229.68264924	6.8904794772
288.15	233.43808824	7.0031426472
293.15	237.3437448	7.120312344
298.15	241.0991838	7.232975514
303.15	245.00484036	7.3501452108

System: thymol; phases: Liquid
Fixed: Pressure, kPa = 101.325
Property: Molar heat capacity at constant pressure, J/K/mol (Liquid); method: Small sample (50 mg) scanning calorimetry
Temperature, K	Molar heat capacity at constant pressure, J/K/mol	uncertainty
343.15	343.39734216	10.3019202648
348.15	346.2514758	10.387544274
353.15	349.10560944	10.4731682832
358.15	351.95974308	10.5587922924
363.15	354.81387672	10.6444163016

System: methanol; phases: Liquid
Fixed: Pressure, kPa = 101.325
Property: Mass density, kg/m3 (Liquid); method: Pycnometric method
Temperature, K	Mass density, kg/m3	uncertainty
298.15	786.6	2.3

System: ethanol; phases: Liquid
Fixed: Pressure, kPa = 101.325
Property: Mass density, kg/m3 (Liquid); method: Pycnometric method
Temperature, K	Mass density, kg/m3	uncertainty
298.15	785.3	2.3

System: 1-propanol; phases: Liquid
Fixed: Pressure, kPa = 101.325
Property: Mass density, kg/m3 (Liquid); method: Pycnometric method
Temperature, K	Mass density, kg/m3	uncertainty
298.15	799.7	2.3

System: 2-propanol; phases: Liquid
Fixed: Pressure, kPa = 101.325
Property: Mass density, kg/m3 (Liquid); method: Pycnometric method
Temperature, K	Mass density, kg/m3	uncertainty
298.15	781.1	2.3

System: 1-butanol; phases: Liquid
Fixed: Pressure, kPa = 101.325
Property: Mass density, kg/m3 (Liquid); method: Pycnometric method
Temperature, K	Mass density, kg/m3	uncertainty
298.15	806.1	2.3

System: acetonitrile; phases: Liquid
Fixed: Pressure, kPa = 101.325
Property: Mass density, kg/m3 (Liquid); method: Pycnometric method
Temperature, K	Mass density, kg/m3	uncertainty
298.15	777.1	2.3

System: methanol + thymol; phases: Liquid, Crystal
Fixed: Pressure, kPa = 101.3
Property: Mole fraction of thymol (Liquid); method: gravimetrical method
Temperature, K	Mole fraction of thymol	uncertainty
279.15	.4388	.008776
283.15	.4728	.009456
288.25	.5232	.010464
293.15	.5886	.011772
298.15	.6708	.013416
303.15	.7377	.014754
308.15	.806	.01612
313.15	.8512	.017024

System: ethanol + thymol; phases: Liquid, Crystal
Fixed: Pressure, kPa = 101.3
Property: Mole fraction of thymol (Liquid); method: gravimetrical method
Temperature, K	Mole fraction of thymol	uncertainty
279.15	.4339	.008678
283.15	.4726	.009452
288.25	.5083	.010166
293.15	.5574	.011148
298.15	.6361	.012722
303.15	.6898	.013796
308.15	.7568	.015136
313.15	.8503	.017006

System: 1-propanol + thymol; phases: Liquid, Crystal
Fixed: Pressure, kPa = 101.3
Property: Mole fraction of thymol (Liquid); method: gravimetrical method
Temperature, K	Mole fraction of thymol	uncertainty
279.15	.3427	.006854
283.15	.4183	.008366
288.25	.4575	.00915
293.15	.5051	.010102
298.15	.5577	.011154
303.15	.6557	.013114
308.15	.7061	.014122
313.15	.8068	.016136

System: 2-propanol + thymol; phases: Liquid, Crystal
Fixed: Pressure, kPa = 101.3
Property: Mole fraction of thymol (Liquid); method: gravimetrical method
Temperature, K	Mole fraction of thymol	uncertainty
279.15	.3685	.00737
283.15	.4303	.008606
288.25	.4717	.009434
293.15	.5538	.011076
298.15	.6106	.012212
303.15	.6837	.013674
308.15	.7555	.01511
313.15	.8487	.016974

System: 1-butanol + thymol; phases: Liquid, Crystal
Fixed: Pressure, kPa = 101.3
Property: Mole fraction of thymol (Liquid); method: gravimetrical method
Temperature, K	Mole fraction of thymol	uncertainty
279.15	.3295	.00659
283.15	.3907	.007814
288.25	.4433	.008866
293.15	.4987	.009974
298.15	.5471	.010942
303.15	.6133	.012266
308.15	.6761	.013522
313.15	.7908	.015816

System: acetonitrile + thymol; phases: Liquid, Crystal
Fixed: Pressure, kPa = 101.3
Property: Mole fraction of thymol (Liquid); method: gravimetrical method
Temperature, K	Mole fraction of thymol	uncertainty
279.15	.5213	.010426
283.15	.5454	.010908
288.25	.6034	.012068
293.15	.6833	.013666
298.15	.7535	.01507
303.15	.7923	.015846
308.15	.8319	.016638
313.15	.8828	.017656
