Measured thermophysical data. An odd-even effect on solubility of dicarboxylic acids in organic solvents
Source: J. Chem. Thermodyn., 2014, 10.1016/j.jct.2014.05.009
Compound 1: oxalic acid, C2H2O4, purity 99%
Compound 2: malonic acid, C3H4O4, purity 99%
Compound 3: succinic acid, C4H6O4, purity 99%
Compound 4: glutaric acid, C5H8O4, purity 99%
Compound 5: adipic acid, C6H10O4, purity 99%
Compound 6: pimelic acid, C7H12O4, purity 99%
Compound 7: suberic acid, C8H14O4, purity 99%
Compound 8: azelaic acid, C9H16O4, purity 99%
Compound 9: sebacic acid, C10H18O4, purity 99%
Compound 10: ethanol, C2H6O, purity 99.5%
Compound 11: acetic acid, C2H4O2, purity 99.5%
Compound 12: acetone, C3H6O, purity 99.5%
Compound 13: ethyl acetate, C4H8O2, purity 99.5%

System: ethanol + oxalic acid; phases: Liquid, Crystal
Fixed: Pressure, kPa = 101.3
Property: Mole fraction of oxalic acid (Liquid); method: gravimetric
Temperature, K	Mole fraction of oxalic acid	uncertainty
288.15	.05049	.0010098
293.15	.05669	.0011338
298.15	.06576	.0013152
303.15	.07576	.0015152
308.15	.08757	.0017514
315.15	.1003	.002006
318.15	.1152	.002304
323.15	.1436	.002872

System: acetic acid + oxalic acid; phases: Liquid, Crystal
Fixed: Pressure, kPa = 101.3
Property: Mole fraction of oxalic acid (Liquid); method: gravimetric
Temperature, K	Mole fraction of oxalic acid	uncertainty
288.15	.03222	.0006444
293.15	.03848	.0007696
298.15	.04651	.0009302
303.15	.05634	.0011268
308.15	.06783	.0013566
315.15	.07914	.0015828
318.15	.08868	.0017736
323.15	.1041	.002082

System: acetone + oxalic acid; phases: Liquid, Crystal
Fixed: Pressure, kPa = 101.3
Property: Mole fraction of oxalic acid (Liquid); method: gravimetric
Temperature, K	Mole fraction of oxalic acid	uncertainty
288.15	.0112	.000224
293.15	.01164	.0002328
298.15	.01224	.0002448
303.15	.0134	.000268
308.15	.01467	.0002934
315.15	.01629	.0003258
318.15	.01821	.0003642
323.15	.0216	.000432

System: ethyl acetate + oxalic acid; phases: Liquid, Crystal
Fixed: Pressure, kPa = 101.3
Property: Mole fraction of oxalic acid (Liquid); method: gravimetric
Temperature, K	Mole fraction of oxalic acid	uncertainty
288.15	.004337	.00008674
293.15	.00476	.0000952
298.15	.005558	.00011116
303.15	.006306	.00012612
308.15	.007296	.00014592
315.15	.00856	.0001712
318.15	.01021	.0002042
323.15	.01269	.0002538

System: ethanol + malonic acid; phases: Liquid, Crystal
Fixed: Pressure, kPa = 101.3
Property: Mole fraction of malonic acid (Liquid); method: gravimetric
Temperature, K	Mole fraction of malonic acid	uncertainty
288.15	.05926	.0011852
293.15	.07114	.0014228
298.15	.08477	.0016954
303.15	.09394	.0018788
308.15	.1056	.002112
315.15	.1198	.002396
318.15	.1325	.00265
323.15	.147	.00294

System: acetic acid + malonic acid; phases: Liquid, Crystal
Fixed: Pressure, kPa = 101.3
Property: Mole fraction of malonic acid (Liquid); method: gravimetric
Temperature, K	Mole fraction of malonic acid	uncertainty
288.15	.0788	.001576
293.15	.09057	.0018114
298.15	.1	.002
303.15	.111	.00222
308.15	.1301	.002602
315.15	.146	.00292
318.15	.1652	.003304
323.15	.1813	.003626

System: acetone + malonic acid; phases: Liquid, Crystal
Fixed: Pressure, kPa = 101.3
Property: Mole fraction of malonic acid (Liquid); method: gravimetric
Temperature, K	Mole fraction of malonic acid	uncertainty
288.15	.07268	.0014536
293.15	.08314	.0016628
298.15	.09549	.0019098
303.15	.1126	.002252
308.15	.1269	.002538
315.15	.1506	.003012
318.15	.1668	.003336
323.15	.185	.0037

System: ethyl acetate + malonic acid; phases: Liquid, Crystal
Fixed: Pressure, kPa = 101.3
Property: Mole fraction of malonic acid (Liquid); method: gravimetric
Temperature, K	Mole fraction of malonic acid	uncertainty
288.15	.00972	.0001944
293.15	.01249	.0002498
298.15	.01393	.0002786
303.15	.01626	.0003252
308.15	.01819	.0003638
315.15	.02237	.0004474
318.15	.02836	.0005672
323.15	.03311	.0006622

System: ethanol + succinic acid; phases: Liquid, Crystal
Fixed: Pressure, kPa = 101.3
Property: Mole fraction of succinic acid (Liquid); method: gravimetric
Temperature, K	Mole fraction of succinic acid	uncertainty
288.15	.02915	.000583
293.15	.03071	.0006142
298.15	.04045	.000809
303.15	.04734	.0009468
308.15	.05551	.0011102
315.15	.06244	.0012488
318.15	.07514	.0015028
323.15	.08388	.0016776

System: acetic acid + succinic acid; phases: Liquid, Crystal
Fixed: Pressure, kPa = 101.3
Property: Mole fraction of succinic acid (Liquid); method: gravimetric
Temperature, K	Mole fraction of succinic acid	uncertainty
288.15	.01117	.0002234
293.15	.01421	.0002842
298.15	.01698	.0003396
303.15	.01989	.0003978
308.15	.02324	.0004648
315.15	.02705	.000541
318.15	.02876	.0005752
323.15	.03134	.0006268

System: acetone + succinic acid; phases: Liquid, Crystal
Fixed: Pressure, kPa = 101.3
Property: Mole fraction of succinic acid (Liquid); method: gravimetric
Temperature, K	Mole fraction of succinic acid	uncertainty
288.15	.01134	.0002268
293.15	.01362	.0002724
298.15	.0163	.000326
303.15	.01916	.0003832
308.15	.0226	.000452
315.15	.02667	.0005334
318.15	.03138	.0006276
323.15	.03683	.0007366

System: succinic acid + ethyl acetate; phases: Liquid, Crystal
Fixed: Pressure, kPa = 101.3
Property: Mole fraction of succinic acid (Liquid); method: gravimetric
Temperature, K	Mole fraction of succinic acid	uncertainty
288.15	.001321	.00002642
293.15	.002641	.00005282
298.15	.003769	.00007538
303.15	.004681	.00009362
308.15	.005685	.0001137
315.15	.006821	.00013642
318.15	.00737	.0001474
323.15	.007751	.00015502

System: ethanol + glutaric acid; phases: Liquid, Crystal
Fixed: Pressure, kPa = 101.3
Property: Mole fraction of glutaric acid (Liquid); method: gravimetric
Temperature, K	Mole fraction of glutaric acid	uncertainty
288.15	.1363	.002726
293.15	.1577	.003154
298.15	.1756	.003512
303.15	.2006	.004012
308.15	.2284	.004568
315.15	.2743	.005486
318.15	.3215	.00643
323.15	.3499	.006998

System: acetic acid + glutaric acid; phases: Liquid, Crystal
Fixed: Pressure, kPa = 101.3
Property: Mole fraction of glutaric acid (Liquid); method: gravimetric
Temperature, K	Mole fraction of glutaric acid	uncertainty
288.15	.173	.00346
293.15	.1964	.003928
298.15	.2208	.004416
303.15	.2409	.004818
308.15	.2763	.005526
315.15	.3104	.006208
318.15	.341	.00682
323.15	.3845	.00769

System: acetone + glutaric acid; phases: Liquid, Crystal
Fixed: Pressure, kPa = 101.3
Property: Mole fraction of glutaric acid (Liquid); method: gravimetric
Temperature, K	Mole fraction of glutaric acid	uncertainty
288.15	.1827	.003654
293.15	.2069	.004138
298.15	.2369	.004738
303.15	.2638	.005276
308.15	.3288	.006576
315.15	.3241	.006482
318.15	.3754	.007508
323.15	.4172	.008344

System: glutaric acid + ethyl acetate; phases: Liquid, Crystal
Fixed: Pressure, kPa = 101.3
Property: Mole fraction of glutaric acid (Liquid); method: gravimetric
Temperature, K	Mole fraction of glutaric acid	uncertainty
288.15	.0861	.001722
293.15	.1055	.00211
298.15	.1231	.002462
303.15	.1333	.002666
308.15	.1463	.002926
315.15	.1763	.003526
318.15	.2272	.004544
323.15	.3073	.006146

System: ethanol + adipic acid; phases: Liquid, Crystal
Fixed: Pressure, kPa = 101.3
Property: Mole fraction of adipic acid (Liquid); method: gravimetric
Temperature, K	Mole fraction of adipic acid	uncertainty
288.15	.02835	.000567
293.15	.03395	.000679
298.15	.03905	.000781
303.15	.04225	.000845
308.15	.05507	.0011014
315.15	.06727	.0013454
318.15	.08136	.0016272
323.15	.1036	.002072

System: acetic acid + adipic acid; phases: Liquid, Crystal
Fixed: Pressure, kPa = 101.3
Property: Mole fraction of adipic acid (Liquid); method: gravimetric
Temperature, K	Mole fraction of adipic acid	uncertainty
288.15	.01559	.0003118
293.15	.01924	.0003848
298.15	.02287	.0004574
303.15	.02667	.0005334
308.15	.0324	.000648
315.15	.0391	.000782
318.15	.04625	.000925
323.15	.05454	.0010908

System: acetone + adipic acid; phases: Liquid, Crystal
Fixed: Pressure, kPa = 101.3
Property: Mole fraction of adipic acid (Liquid); method: gravimetric
Temperature, K	Mole fraction of adipic acid	uncertainty
288.15	.01624	.0003248
293.15	.01903	.0003806
298.15	.02288	.0004576
303.15	.02605	.000521
308.15	.03206	.0006412
315.15	.03602	.0007204
318.15	.04032	.0008064
323.15	.0517	.001034

System: adipic acid + ethyl acetate; phases: Liquid, Crystal
Fixed: Pressure, kPa = 101.3
Property: Mole fraction of adipic acid (Liquid); method: gravimetric
Temperature, K	Mole fraction of adipic acid	uncertainty
288.15	.002858	.00005716
293.15	.003679	.00007358
298.15	.004964	.00009928
303.15	.006707	.00013414
308.15	.008552	.00017104
315.15	.01041	.0002082
318.15	.01182	.0002364
323.15	.01428	.0002856

System: ethanol + pimelic acid; phases: Liquid, Crystal
Fixed: Pressure, kPa = 101.3
Property: Mole fraction of pimelic acid (Liquid); method: gravimetric
Temperature, K	Mole fraction of pimelic acid	uncertainty
288.15	.06771	.0013542
293.15	.08513	.0017026
298.15	.1045	.00209
303.15	.1256	.002512
308.15	.1499	.002998
315.15	.1783	.003566
318.15	.2045	.00409
323.15	.2369	.004738

System: acetic acid + pimelic acid; phases: Liquid, Crystal
Fixed: Pressure, kPa = 101.3
Property: Mole fraction of pimelic acid (Liquid); method: gravimetric
Temperature, K	Mole fraction of pimelic acid	uncertainty
288.15	.06484	.0012968
293.15	.07942	.0015884
298.15	.09636	.0019272
303.15	.1187	.002374
308.15	.1399	.002798
315.15	.1691	.003382
318.15	.1993	.003986
323.15	.2322	.004644

System: acetone + pimelic acid; phases: Liquid, Crystal
Fixed: Pressure, kPa = 101.3
Property: Mole fraction of pimelic acid (Liquid); method: gravimetric
Temperature, K	Mole fraction of pimelic acid	uncertainty
288.15	.05457	.0010914
293.15	.07518	.0015036
298.15	.118	.00236
303.15	.1465	.00293
308.15	.1745	.00349
315.15	.2015	.00403
318.15	.2241	.004482
323.15	.2462	.004924

System: pimelic acid + ethyl acetate; phases: Liquid, Crystal
Fixed: Pressure, kPa = 101.3
Property: Mole fraction of pimelic acid (Liquid); method: gravimetric
Temperature, K	Mole fraction of pimelic acid	uncertainty
288.15	.02334	.0004668
293.15	.03205	.000641
298.15	.05173	.0010346
303.15	.07176	.0014352
308.15	.08016	.0016032
315.15	.09037	.0018074
318.15	.1017	.002034
323.15	.1279	.002558

System: ethanol + suberic acid; phases: Liquid, Crystal
Fixed: Pressure, kPa = 101.3
Property: Mole fraction of suberic acid (Liquid); method: gravimetric
Temperature, K	Mole fraction of suberic acid	uncertainty
288.15	.02084	.0004168
293.15	.02533	.0005066
298.15	.03096	.0006192
303.15	.03752	.0007504
308.15	.04544	.0009088
315.15	.05534	.0011068
318.15	.0683	.001366
323.15	.08475	.001695

System: acetic acid + suberic acid; phases: Liquid, Crystal
Fixed: Pressure, kPa = 101.3
Property: Mole fraction of suberic acid (Liquid); method: gravimetric
Temperature, K	Mole fraction of suberic acid	uncertainty
288.15	.01148	.0002296
293.15	.01447	.0002894
298.15	.01764	.0003528
303.15	.0216	.000432
308.15	.0264	.000528
315.15	.03289	.0006578
318.15	.04055	.000811
323.15	.05013	.0010026

System: acetone + suberic acid; phases: Liquid, Crystal
Fixed: Pressure, kPa = 101.3
Property: Mole fraction of suberic acid (Liquid); method: gravimetric
Temperature, K	Mole fraction of suberic acid	uncertainty
288.15	.009202	.00018404
293.15	.01275	.000255
298.15	.01671	.0003342
303.15	.02097	.0004194
308.15	.025	.0005
315.15	.0301	.000602
318.15	.03564	.0007128
323.15	.0405	.00081

System: ethyl acetate + suberic acid; phases: Liquid, Crystal
Fixed: Pressure, kPa = 101.3
Property: Mole fraction of suberic acid (Liquid); method: gravimetric
Temperature, K	Mole fraction of suberic acid	uncertainty
288.15	.002381	.00004762
293.15	.003022	.00006044
298.15	.003886	.00007772
303.15	.00513	.0001026
308.15	.006415	.0001283
315.15	.008193	.00016386
318.15	.009776	.00019552
323.15	.01184	.0002368

System: ethanol + azelaic acid; phases: Liquid, Crystal
Fixed: Pressure, kPa = 101.3
Property: Mole fraction of azelaic acid (Liquid); method: gravimetric
Temperature, K	Mole fraction of azelaic acid	uncertainty
288.15	.0534	.001068
293.15	.06013	.0012026
298.15	.07068	.0014136
303.15	.08511	.0017022
308.15	.1019	.002038
315.15	.1239	.002478
318.15	.1497	.002994
323.15	.1846	.003692

System: acetic acid + azelaic acid; phases: Liquid, Crystal
Fixed: Pressure, kPa = 101.3
Property: Mole fraction of azelaic acid (Liquid); method: gravimetric
Temperature, K	Mole fraction of azelaic acid	uncertainty
288.15	.0333	.000666
293.15	.04003	.0008006
298.15	.05243	.0010486
303.15	.06307	.0012614
308.15	.07612	.0015224
315.15	.09229	.0018458
318.15	.111	.00222
323.15	.1334	.002668

System: acetone + azelaic acid; phases: Liquid, Crystal
Fixed: Pressure, kPa = 101.3
Property: Mole fraction of azelaic acid (Liquid); method: gravimetric
Temperature, K	Mole fraction of azelaic acid	uncertainty
288.15	.02902	.0005804
293.15	.03315	.000663
298.15	.03996	.0007992
303.15	.04943	.0009886
308.15	.0634	.001268
315.15	.08063	.0016126
318.15	.1035	.00207
323.15	.1434	.002868

System: azelaic acid + ethyl acetate; phases: Liquid, Crystal
Fixed: Pressure, kPa = 101.3
Property: Mole fraction of azelaic acid (Liquid); method: gravimetric
Temperature, K	Mole fraction of azelaic acid	uncertainty
288.15	.009112	.00018224
293.15	.01127	.0002254
298.15	.01615	.000323
303.15	.02317	.0004634
308.15	.03259	.0006518
315.15	.05241	.0010482
318.15	.06631	.0013262
323.15	.09645	.001929

System: ethanol + sebacic acid; phases: Liquid, Crystal
Fixed: Pressure, kPa = 101.3
Property: Mole fraction of sebacic acid (Liquid); method: gravimetric
Temperature, K	Mole fraction of sebacic acid	uncertainty
288.15	.01404	.0002808
293.15	.01678	.0003356
298.15	.02096	.0004192
303.15	.02618	.0005236
308.15	.03239	.0006478
315.15	.04095	.000819
318.15	.05011	.0010022
323.15	.06476	.0012952

System: acetic acid + sebacic acid; phases: Liquid, Crystal
Fixed: Pressure, kPa = 101.3
Property: Mole fraction of sebacic acid (Liquid); method: gravimetric
Temperature, K	Mole fraction of sebacic acid	uncertainty
288.15	.006734	.00013468
293.15	.008777	.00017554
298.15	.01143	.0002286
303.15	.01494	.0002988
308.15	.0196	.000392
315.15	.02397	.0004794
318.15	.02934	.0005868
323.15	.03582	.0007164

System: acetone + sebacic acid; phases: Liquid, Crystal
Fixed: Pressure, kPa = 101.3
Property: Mole fraction of sebacic acid (Liquid); method: gravimetric
Temperature, K	Mole fraction of sebacic acid	uncertainty
288.15	.001498	.00002996
293.15	.003029	.00006058
298.15	.007302	.00014604
303.15	.01144	.0002288
308.15	.01568	.0003136
315.15	.02373	.0004746
318.15	.029	.00058
323.15	.03531	.0007062

System: sebacic acid + ethyl acetate; phases: Liquid, Crystal
Fixed: Pressure, kPa = 101.3
Property: Mole fraction of sebacic acid (Liquid); method: gravimetric
Temperature, K	Mole fraction of sebacic acid	uncertainty
288.15	.003094	.00006188
293.15	.003966	.00007932
298.15	.004898	.00009796
303.15	.006874	.00013748
308.15	.008212	.00016424
315.15	.009796	.00019592
318.15	.01235	.000247
323.15	.01567	.0003134
