Measured thermophysical data. Thermodynamic study of some basic dyes adsorption from aqueous solutions on activated carbon and new correlations
Source: J. Chem. Thermodyn., 2017, 10.1016/j.jct.2016.12.031
Compound 1: Safranine O, C20H19ClN4, purity 95%
Compound 2: Malachite green oxalate, C52H54N4O12, purity 98.8%

System: Safranine O; phases: Crystal, Liquid, Air at 1 atmosphere
Property: Normal melting temperature, K (Crystal); method: Visual observation
Normal melting temperature, K	uncertainty
573.15	.5

System: Malachite green oxalate; phases: Crystal, Liquid, Air at 1 atmosphere
Property: Normal melting temperature, K (Crystal); method: Visual observation
Normal melting temperature, K	uncertainty
433.15	.5
