Measured thermophysical data. Standard molar volumes and expansibilities of 1,3-alkyl-N-substituted achiral glycolurils in water at T = (278.15 to 318.15) K and p = 0.1 MPa: A comparative analysis
Source: J. Chem. Thermodyn., 2015, 10.1016/j.jct.2015.05.028
Compound 1: 1,3-dimethylglycoluril, C6H10N4O2, purity 98%
Compound 2: 1,3-diethylglycoluril, C8H14N4O2, purity 97%
Compound 3: water, H2O

System: 1,3-dimethylglycoluril; phases: Crystal, Liquid, Air at 1 atmosphere
Property: Normal melting temperature, K (Crystal); method: DSC/DTA
Normal melting temperature, K	uncertainty
526.43	1

System: 1,3-diethylglycoluril; phases: Crystal, Liquid, Air at 1 atmosphere
Property: Normal melting temperature, K (Crystal); method: DSC/DTA
Normal melting temperature, K	uncertainty
600.79	1

System: 1,3-dimethylglycoluril + water; phases: Liquid
Fixed: Pressure, kPa = 99.6
Property: Mass density, kg/m3 (Liquid); method: Vibrating tube method
Temperature, K	Molality, mol/kg of 1,3-dimethylglycoluril	Mass density, kg/m3	uncertainty
278.15	0	999.965	.05
278.15	.06671	1003.162	.05
278.15	.0951	1004.513	.05
278.15	.13192	1006.276	.05
278.15	.16903	1008.034	.05
278.15	.19874	1009.428	.05
278.15	.23225	1011.019	.05
278.15	.26786	1012.679	.05
278.15	.30384	1014.373	.05
278.15	.33262	1015.719	.05
278.15	.35939	1016.964	.05
278.15	.39194	1018.471	.05
288.15	0	999.101	.05
288.15	.06671	1002.213	.05
288.15	.0951	1003.523	.05
288.15	.13192	1005.233	.05
288.15	.16903	1006.935	.05
288.15	.19874	1008.308	.05
288.15	.23225	1009.843	.05
288.15	.26786	1011.464	.05
288.15	.30384	1013.1	.05
288.15	.33262	1014.407	.05
288.15	.35939	1015.62	.05
288.15	.39194	1017.085	.05
298.15	0	997.047	.05
298.15	.06671	1000.083	.05
298.15	.0951	1001.372	.05
298.15	.13192	1003.043	.05
298.15	.16903	1004.716	.05
298.15	.19874	1006.039	.05
298.15	.23225	1007.543	.05
298.15	.26786	1009.129	.05
298.15	.30384	1010.728	.05
298.15	.33262	1012.006	.05
298.15	.35939	1013.19	.05
298.15	.39194	1014.623	.05
308.15	0	994.035	.05
308.15	.06671	997.02	.05
308.15	.0951	998.281	.05
308.15	.13192	999.917	.05
308.15	.16903	1001.555	.05
308.15	.19874	1002.869	.05
308.15	.23225	1004.34	.05
308.15	.26786	1005.898	.05
308.15	.30384	1007.465	.05
308.15	.33262	1008.712	.05
308.15	.35939	1009.883	.05
308.15	.39194	1011.286	.05
318.15	0	990.216	.05
318.15	.06671	993.153	.05
318.15	.0951	994.389	.05
318.15	.13192	995.999	.05
318.15	.16903	997.607	.05
318.15	.19874	998.902	.05
318.15	.23225	1000.347	.05
318.15	.26786	1001.88	.05
318.15	.30384	1003.418	.05
318.15	.33262	1004.651	.05
318.15	.35939	1005.795	.05
318.15	.39194	1007.174	.05

System: water + 1,3-diethylglycoluril; phases: Liquid
Fixed: Pressure, kPa = 99.6
Property: Mass density, kg/m3 (Liquid); method: Vibrating tube method
Temperature, K	Molality, mol/kg of 1,3-diethylglycoluril	Mass density, kg/m3	uncertainty
278.15	0	999.964	.05
278.15	.01158	1000.477	.05
278.15	.01315	1000.541	.05
278.15	.01794	1000.763	.05
278.15	.02385	1001.02	.05
278.15	.02832	1001.208	.05
278.15	.03477	1001.502	.05
278.15	.04062	1001.765	.05
278.15	.04476	1001.953	.05
278.15	.04841	1002.105	.05
278.15	.0537	1002.347	.05
278.15	.05905	1002.576	.05
278.15	.06432	1002.809	.05
278.15	.06647	1002.898	.05
278.15	.06907	1003.011	.05
288.15	0	999.101	.05
288.15	.01158	999.594	.05
288.15	.01315	999.667	.05
288.15	.01794	999.871	.05
288.15	.02385	1000.123	.05
288.15	.02832	1000.315	.05
288.15	.03477	1000.602	.05
288.15	.04062	1000.851	.05
288.15	.04476	1001.033	.05
288.15	.04841	1001.18	.05
288.15	.0537	1001.418	.05
288.15	.05905	1001.629	.05
288.15	.06432	1001.865	.05
288.15	.06647	1001.957	.05
288.15	.06907	1002.068	.05
298.15	0	997.047	.05
298.15	.01158	997.533	.05
298.15	.01315	997.589	.05
298.15	.01794	997.801	.05
298.15	.02385	998.052	.05
298.15	.02832	998.231	.05
298.15	.03477	998.521	.05
298.15	.04062	998.752	.05
298.15	.04476	998.934	.05
298.15	.04841	999.081	.05
298.15	.0537	999.318	.05
298.15	.05905	999.528	.05
298.15	.06432	999.742	.05
298.15	.06647	999.836	.05
298.15	.06907	999.94	.05
308.15	0	994.035	.05
308.15	.01158	994.508	.05
308.15	.01315	994.565	.05
308.15	.01794	994.774	.05
308.15	.02385	995.029	.05
308.15	.02832	995.196	.05
308.15	.03477	995.477	.05
308.15	.04062	995.71	.05
308.15	.04476	995.885	.05
308.15	.04841	996.03	.05
308.15	.0537	996.256	.05
308.15	.05905	996.468	.05
308.15	.06432	996.678	.05
308.15	.06647	996.759	.05
308.15	.06907	996.876	.05
318.15	0	990.216	.05
318.15	.01158	990.681	.05
318.15	.01315	990.747	.05
318.15	.01794	990.935	.05
318.15	.02385	991.185	.05
318.15	.02832	991.363	.05
318.15	.03477	991.629	.05
318.15	.04062	991.866	.05
318.15	.04476	992.035	.05
318.15	.04841	992.176	.05
318.15	.0537	992.398	.05
318.15	.05905	992.605	.05
318.15	.06432	992.818	.05
318.15	.06647	992.893	.05
318.15	.06907	993.011	.05
