Measured thermophysical data. Effect of ionic liquids, 1-butyl-3-methyl imidazolium bromide and 1-hexyl-3-methyl imidazolium bromide on the vapour - Liquid equilibria of the aqueous D-fructose solutions at 298.15 K and atmospheric pressure using isopiestic method
Source: J. Chem. Thermodyn., 2017, 10.1016/j.jct.2016.10.015
Compound 1: 1-butyl-3-methylimidazolium bromide, C8H15BrN2
Compound 2: 1-hexyl-3-methylimidazolium bromide, C10H19BrN2
Compound 3: D-fructose, C6H12O6, purity 99.5%
Compound 4: water, H2O

System: D-fructose + water; phases: Liquid
Fixed: Temperature, K = 298.15
Fixed: Pressure, kPa = 100
Property: (Relative) activity of water (Liquid); method: Other
Molality, mol/kg of D-fructose	(Relative) activity of water	uncertainty
.8682	.984	
.8781	.9838	
.9295	.9828	
.9369	.9826	
.9486	.9825	
1.2115	.9775	
1.3238	.9756	
1.4051	.9742	
1.5416	.9716	
2.1117	.9606	
2.3928	.9552	
.7378	.9861	
.792	.9855	
1.0691	.98	
1.2116	.9775	
.5879	.9888	
.7222	.9863	
1.0263	.9804	
1.1505	.9781	
1.3218	.9754	
1.4065	.9734	

System: water + 1-butyl-3-methylimidazolium bromide; phases: Liquid
Fixed: Temperature, K = 298.15
Fixed: Pressure, kPa = 100
Property: (Relative) activity of water (Liquid); method: Other
Molality, mol/kg of 1-butyl-3-methylimidazolium bromide	(Relative) activity of water	uncertainty
.3905	.9888	
.552	.9847	
.5905	.984	
.7393	.9804	
.7803	.9793	
.8382	.9783	
.8442	.9781	
.9499	.9754	
1.4078	.9646	
1.5666	.9606	
1.7795	.9565	
2.2778	.9452	
2.436	.9426	
2.8755	.9343	
3.083	.9295	
3.409	.9233	
4.1247	.9104	
4.41	.9032	
.5051	.9863	
1.0035	.9734	

System: water + 1-hexyl-3-methylimidazolium bromide; phases: Liquid
Fixed: Temperature, K = 298.15
Fixed: Pressure, kPa = 100
Property: (Relative) activity of water (Liquid); method: Other
Molality, mol/kg of 1-hexyl-3-methylimidazolium bromide	(Relative) activity of water	uncertainty
.6531	.9837	
.6579	.9839	
.835	.9812	
.9881	.9787	
1.1676	.9754	
1.4968	.9718	
2.3004	.9633	
2.5207	.9596	
3.6854	.9449	
3.7298	.9434	
4.9525	.9223	
5.5531	.9106	
5.6044	.9107	
.5522	.9861	
.612	.9855	
.6877	.9838	
.7421	.9825	
.9146	.98	
1.0603	.9775	
1.5333	.9716	

System: D-fructose + water + 1-hexyl-3-methylimidazolium bromide; phases: Liquid
Fixed: Temperature, K = 298.15
Fixed: Pressure, kPa = 100
Property: (Relative) activity of water (Liquid); method: Other
Molality, mol/kg of 1-hexyl-3-methylimidazolium bromide	Molality, mol/kg of D-fructose	(Relative) activity of water	uncertainty
.5522	0	.9861	
.3994	.1423	.9861	
.1455	.4885	.9861	
0	.7378	.9861	
.612	0	.9855	
.447	.1589	.9855	
.16	.5373	.9855	
0	.792	.9855	
.6877	0	.9838	
.512	.1821	.9838	
.1796	.6029	.9838	
0	.8781	.9838	
.7421	0	.9825	
.5347	.1904	.9825	
.1926	.6475	.9825	
0	.9486	.9825	
.9146	0	.98	
.573	.3253	.98	
.1929	.7505	.98	
0	1.0691	.98	
1.0603	0	.9775	
.7773	.263	.9775	
.2573	.864	.9775	
0	1.2116	.9775	
1.5333	0	.9716	
.9155	.5823	.9716	
.4206	1.1309	.9716	
0	1.5416	.9716	

System: D-fructose + water + 1-butyl-3-methylimidazolium bromide; phases: Liquid
Fixed: Temperature, K = 298.15
Fixed: Pressure, kPa = 100
Property: (Relative) activity of water (Liquid); method: Other
Molality, mol/kg of 1-butyl-3-methylimidazolium bromide	Molality, mol/kg of D-fructose	(Relative) activity of water	uncertainty
.3905	0	.9888	
.284	.1736	.9888	
.1176	.3945	.9888	
0	.5879	.9888	
.5051	0	.9863	
.3341	.1906	.9863	
.1428	.4782	.9863	
0	.7222	.9863	
.5905	0	.984	
.4186	.2564	.984	
.1797	.6021	.984	
0	.8682	.984	
.7393	0	.9804	
.4946	.3027	.9804	
.2072	.6938	.9804	
0	1.0263	.9804	
.8442	0	.9781	
.6323	.2757	.9781	
.2773	.8174	.9781	
0	1.1505	.9781	
.9499	0	.9754	
.7085	.3092	.9754	
.3003	.8848	.9754	
0	1.3218	.9754	
1.0035	0	.9734	
.7731	.3373	.9734	
.3169	.9344	.9734	
0	1.4065	.9734	
1.5666	0	.9606	
1.1754	.5125	.9606	
.4881	1.4375	.9606	
0	2.1117	.9606	
