Measured thermophysical data. Thermodynamic study of (alkyl esters + a,x-alkyl dihalides) VII. HE  m and VE  m  for 20 binary mixtures {xCu 1H2u 1CO2C3H7 + (1   x)a,x-ClCH2(CH2)v 2CH2Cl},  where u = 1 to 4, a = 1 and v = x = 2 to 6. An analysis of behavior using the  COSMO-RS methodology
Source: J. Chem. Thermodyn., 2009, 10.1016/j.jct.2008.10.007
Compound 1: 1,2-dichloroethane, C2H4Cl2
Compound 2: 1,3-dichloropropane, C3H6Cl2
Compound 3: 1,4-dichlorobutane, C4H8Cl2
Compound 4: 1,5-dichloropentane, C5H10Cl2
Compound 5: 1,6-dichlorohexane, C6H12Cl2
Compound 6: propyl methanoate, C4H8O2, purity 97%
Compound 7: propyl ethanoate, C5H10O2, purity 99%
Compound 8: propyl propanoate, C6H12O2, purity 99%
Compound 9: propyl butanoate, C7H14O2, purity 99%

System: propyl methanoate; phases: Liquid
Property: Mass density, kg/m3 (Liquid); method: Vibrating tube method
Pressure, kPa	Temperature, K	Mass density, kg/m3	uncertainty
101	298.15	899.81	.02

System: propyl ethanoate; phases: Liquid
Property: Mass density, kg/m3 (Liquid); method: Vibrating tube method
Pressure, kPa	Temperature, K	Mass density, kg/m3	uncertainty
101	298.15	882.08	.02

System: propyl propanoate; phases: Liquid
Property: Mass density, kg/m3 (Liquid); method: Vibrating tube method
Pressure, kPa	Temperature, K	Mass density, kg/m3	uncertainty
101	298.15	875.61	.02

System: propyl butanoate; phases: Liquid
Property: Mass density, kg/m3 (Liquid); method: Vibrating tube method
Pressure, kPa	Temperature, K	Mass density, kg/m3	uncertainty
101	298.15	867.9	.02

System: 1,2-dichloroethane + propyl methanoate; phases: Liquid
Fixed: Pressure, kPa = 101
Fixed: Temperature, K = 298.15
Property: Excess molar enthalpy (molar enthalpy of mixing), kJ/mol (Liquid); method: Calvet calorimetry
Mole fraction of propyl methanoate	Excess molar enthalpy (molar enthalpy of mixing), kJ/mol	uncertainty
.074	-.04	-.0004
.1687	-.088	-.00088
.2733	-.154	-.00154
.3675	-.2	-.002
.4473	-.241	-.00241
.5035	-.254	-.00254
.5082	-.255	-.00255
.5746	-.25	-.0025
.6509	-.238	-.00238
.7385	-.205	-.00205
.8389	-.144	-.00144
.9272	-.077	-.00077

System: 1,2-dichloroethane + propyl methanoate; phases: Liquid
Fixed: Pressure, kPa = 101
Fixed: Temperature, K = 298.15
Property: Mass density, kg/m3 (Liquid); method: Vibrating tube method
Mole fraction of propyl methanoate	Mass density, kg/m3	uncertainty
.0502	1224.05	.02
.0994	1203.36	.02
.1495	1182.95	.02
.2004	1162.75	.02
.2543	1141.88	.02
.308	1121.58	.02
.3635	1101.24	.02
.4207	1080.82	.02
.4795	1060.31	.02
.5379	1040.49	.02
.599	1020.32	.02
.6634	999.69	.02
.7281	979.46	.02
.7928	959.73	.02
.8612	939.48	.02
1	899.81	.02

System: propyl methanoate + 1,3-dichloropropane; phases: Liquid
Fixed: Pressure, kPa = 101
Fixed: Temperature, K = 298.15
Property: Excess molar enthalpy (molar enthalpy of mixing), kJ/mol (Liquid); method: Calvet calorimetry
Mole fraction of propyl methanoate	Excess molar enthalpy (molar enthalpy of mixing), kJ/mol	uncertainty
.065	-.015	-.00015
.1452	-.031	-.00031
.2308	-.054	-.00054
.3182	-.079	-.00079
.3939	-.099	-.00099
.4578	-.105	-.00105
.5145	-.114	-.00114
.5379	-.113	-.00113
.5862	-.112	-.00112
.6669	-.103	-.00103
.7509	-.088	-.00088
.8484	-.062	-.00062
.9347	-.032	-.00032

System: propyl methanoate + 1,3-dichloropropane; phases: Liquid
Fixed: Pressure, kPa = 101
Fixed: Temperature, K = 298.15
Property: Mass density, kg/m3 (Liquid); method: Vibrating tube method
Mole fraction of propyl methanoate	Mass density, kg/m3	uncertainty
.0604	1161.58	.02
.1163	1145.6	.02
.1772	1128.25	.02
.2336	1112.22	.02
.2937	1095.19	.02
.3531	1078.45	.02
.4676	1046.35	.02
.5255	1030.24	.02
.5854	1013.57	.02
.6437	997.42	.02
.7051	980.49	.02
.7636	964.45	.02
.8238	947.98	.02
.8823	932.02	.02
1	899.81	.02

System: 1,4-dichlorobutane + propyl methanoate; phases: Liquid
Fixed: Pressure, kPa = 101
Fixed: Temperature, K = 298.15
Property: Excess molar enthalpy (molar enthalpy of mixing), kJ/mol (Liquid); method: Calvet calorimetry
Mole fraction of propyl methanoate	Excess molar enthalpy (molar enthalpy of mixing), kJ/mol	uncertainty
.0692	.039	.00039
.1586	.065	.00065
.2416	.08	.0008
.3365	.077	.00077
.4234	.062	.00062
.5005	.042	.00042
.5667	.017	.00017
.6288	-.016	-.00016
.6884	-.035	-.00035
.7528	-.038	-.00038
.817	-.038	-.00038
.8815	-.028	-.00028
.9414	-.013	-.00013

System: 1,4-dichlorobutane + propyl methanoate; phases: Liquid
Fixed: Pressure, kPa = 101
Fixed: Temperature, K = 298.15
Property: Mass density, kg/m3 (Liquid); method: Vibrating tube method
Mole fraction of propyl methanoate	Mass density, kg/m3	uncertainty
.0699	1119.28	.02
.1344	1105.73	.02
.2012	1091.45	.02
.3873	1050.4	.02
.4476	1036.71	.02
.5676	1008.76	.02
.6231	995.55	.02
.6814	981.44	.02
.7384	967.39	.02
.7933	953.67	.02
.8452	940.47	.02
.8982	926.78	.02
.9521	912.65	.02
1	899.81	.02

System: propyl methanoate + 1,5-dichloropentane; phases: Liquid
Fixed: Pressure, kPa = 101
Fixed: Temperature, K = 298.15
Property: Excess molar enthalpy (molar enthalpy of mixing), kJ/mol (Liquid); method: Calvet calorimetry
Mole fraction of propyl methanoate	Excess molar enthalpy (molar enthalpy of mixing), kJ/mol	uncertainty
.0772	.062	.00062
.1733	.109	.00109
.2797	.14	.0014
.3611	.146	.00146
.4265	.142	.00142
.48	.135	.00135
.5257	.126	.00126
.5865	.11	.0011
.6476	.09	.0009
.7088	.068	.00068
.7665	.048	.00048
.8266	.03	.0003
.8827	.017	.00017
.9526	.005	.00005

System: propyl methanoate + 1,5-dichloropentane; phases: Liquid
Fixed: Pressure, kPa = 101
Fixed: Temperature, K = 298.15
Property: Mass density, kg/m3 (Liquid); method: Vibrating tube method
Mole fraction of propyl methanoate	Mass density, kg/m3	uncertainty
.1431	1073.06	.02
.215	1061.43	.02
.2831	1050.01	.02
.3476	1038.81	.02
.4101	1027.62	.02
.4756	1015.48	.02
.5351	1004.04	.02
.65	980.9	.02
.7551	958.34	.02
.8569	935.09	.02
.9046	923.69	.02
.953	911.75	.02
1	899.81	.02

System: propyl methanoate + 1,6-dichlorohexane; phases: Liquid
Fixed: Pressure, kPa = 101
Fixed: Temperature, K = 298.15
Property: Excess molar enthalpy (molar enthalpy of mixing), kJ/mol (Liquid); method: Calvet calorimetry
Mole fraction of propyl methanoate	Excess molar enthalpy (molar enthalpy of mixing), kJ/mol	uncertainty
.0891	.088	.00088
.2066	.156	.00156
.3241	.205	.00205
.4164	.219	.00219
.4832	.211	.00211
.5353	.198	.00198
.5847	.181	.00181
.6323	.163	.00163
.6975	.135	.00135
.7658	.104	.00104
.8389	.069	.00069
.9059	.038	.00038
.9621	.016	.00016

System: propyl methanoate + 1,6-dichlorohexane; phases: Liquid
Fixed: Pressure, kPa = 101
Fixed: Temperature, K = 298.15
Property: Mass density, kg/m3 (Liquid); method: Vibrating tube method
Mole fraction of propyl methanoate	Mass density, kg/m3	uncertainty
.0861	1054	.02
.1676	1044.21	.02
.2459	1034.25	.02
.3157	1024.9	.02
.3867	1014.88	.02
.4515	1005.28	.02
.5124	995.82	.02
.6287	976.43	.02
.6818	966.95	.02
.7826	947.72	.02
.8311	937.83	.02
.8777	927.92	.02
.9609	909.1	.02
1	899.81	.02

System: 1,2-dichloroethane + propyl ethanoate; phases: Liquid
Fixed: Pressure, kPa = 101
Fixed: Temperature, K = 298.15
Property: Excess molar enthalpy (molar enthalpy of mixing), kJ/mol (Liquid); method: Calvet calorimetry
Mole fraction of propyl ethanoate	Excess molar enthalpy (molar enthalpy of mixing), kJ/mol	uncertainty
.0472	-.065	-.00065
.1047	-.139	-.00139
.1719	-.234	-.00234
.2424	-.332	-.00332
.3127	-.425	-.00425
.3806	-.491	-.00491
.4423	-.535	-.00535
.5012	-.551	-.00551
.5663	-.545	-.00545
.6408	-.511	-.00511
.7169	-.446	-.00446
.8115	-.328	-.00328
.9076	-.187	-.00187

System: 1,2-dichloroethane + propyl ethanoate; phases: Liquid
Fixed: Pressure, kPa = 101
Fixed: Temperature, K = 298.15
Property: Mass density, kg/m3 (Liquid); method: Vibrating tube method
Mole fraction of propyl ethanoate	Mass density, kg/m3	uncertainty
.0403	1224.14	.02
.0822	1202.71	.02
.1258	1181.25	.02
.1723	1159.34	.02
.2206	1137.71	.02
.271	1116.1	.02
.323	1094.66	.02
.3773	1073.38	.02
.435	1051.79	.02
.4925	1031.26	.02
.5542	1010.09	.02
.6231	987.69	.02
.693	966.04	.02
.7654	944.7	.02
.8389	924.07	.02
.9173	903.11	.02
1	882.08	.02

System: propyl ethanoate + 1,3-dichloropropane; phases: Liquid
Fixed: Pressure, kPa = 101
Fixed: Temperature, K = 298.15
Property: Excess molar enthalpy (molar enthalpy of mixing), kJ/mol (Liquid); method: Calvet calorimetry
Mole fraction of propyl ethanoate	Excess molar enthalpy (molar enthalpy of mixing), kJ/mol	uncertainty
.054	-.038	-.00038
.1279	-.086	-.00086
.2091	-.146	-.00146
.2781	-.205	-.00205
.3637	-.261	-.00261
.4401	-.31	-.0031
.5067	-.34	-.0034
.5223	-.347	-.00347
.572	-.35	-.0035
.6457	-.326	-.00326
.738	-.284	-.00284
.8364	-.204	-.00204
.931	-.099	-.00099

System: propyl ethanoate + 1,3-dichloropropane; phases: Liquid
Fixed: Pressure, kPa = 101
Fixed: Temperature, K = 298.15
Property: Mass density, kg/m3 (Liquid); method: Vibrating tube method
Mole fraction of propyl ethanoate	Mass density, kg/m3	uncertainty
.051	1160.75	.02
.1013	1143.09	.02
.1519	1125.74	.02
.2062	1107.55	.02
.2602	1089.75	.02
.314	1072.51	.02
.4262	1037.75	.02
.5391	1004.31	.02
.5986	987.32	.02
.6602	970.1	.02
.7227	953.06	.02
.758	943.63	.02
.7981	933.1	.02
.8553	918.23	.02
.934	898.35	.02
1	882.08	.02

System: propyl ethanoate + 1,4-dichlorobutane; phases: Liquid
Fixed: Pressure, kPa = 101
Fixed: Temperature, K = 298.15
Property: Excess molar enthalpy (molar enthalpy of mixing), kJ/mol (Liquid); method: Calvet calorimetry
Mole fraction of propyl ethanoate	Excess molar enthalpy (molar enthalpy of mixing), kJ/mol	uncertainty
.0555	-.02	-.0002
.1316	-.055	-.00055
.2183	-.098	-.00098
.3079	-.15	-.0015
.3915	-.201	-.00201
.456	-.23	-.0023
.4663	-.234	-.00234
.4979	-.241	-.00241
.5721	-.236	-.00236
.6576	-.219	-.00219
.7494	-.187	-.00187
.8443	-.133	-.00133
.9296	-.073	-.00073

System: propyl ethanoate + 1,4-dichlorobutane; phases: Liquid
Fixed: Pressure, kPa = 101
Fixed: Temperature, K = 298.15
Property: Mass density, kg/m3 (Liquid); method: Vibrating tube method
Mole fraction of propyl ethanoate	Mass density, kg/m3	uncertainty
.0583	1118.51	.02
.1175	1103.2	.02
.1743	1088.55	.02
.232	1073.72	.02
.3494	1043.76	.02
.465	1014.55	.02
.523	999.98	.02
.5845	984.6	.02
.6424	970.19	.02
.7011	955.64	.02
.7618	940.61	.02
.8813	911.2	.02
.9397	896.91	.02
1	882.08	.02

System: propyl ethanoate + 1,5-dichloropentane; phases: Liquid
Fixed: Pressure, kPa = 101
Fixed: Temperature, K = 298.15
Property: Excess molar enthalpy (molar enthalpy of mixing), kJ/mol (Liquid); method: Calvet calorimetry
Mole fraction of propyl ethanoate	Excess molar enthalpy (molar enthalpy of mixing), kJ/mol	uncertainty
.0656	-.016	-.00016
.1426	-.02	-.0002
.2338	-.056	-.00056
.3247	-.1	-.001
.4088	-.141	-.00141
.4844	-.164	-.00164
.5428	-.172	-.00172
.5426	-.171	-.00171
.6183	-.171	-.00171
.6974	-.153	-.00153
.7844	-.118	-.00118
.8682	-.077	-.00077
.9448	-.034	-.00034

System: propyl ethanoate + 1,5-dichloropentane; phases: Liquid
Fixed: Pressure, kPa = 101
Fixed: Temperature, K = 298.15
Property: Mass density, kg/m3 (Liquid); method: Vibrating tube method
Mole fraction of propyl ethanoate	Mass density, kg/m3	uncertainty
.0592	1083.72	.02
.126	1070.79	.02
.1854	1059.08	.02
.2502	1046.15	.02
.3122	1033.6	.02
.3736	1021.02	.02
.495	995.63	.02
.5537	983.11	.02
.6672	958.42	.02
.7269	945.17	.02
.7802	933.16	.02
.8365	920.34	.02
.889	908.23	.02
.9471	894.67	.02
1	882.08	.02

System: propyl ethanoate + 1,6-dichlorohexane; phases: Liquid
Fixed: Pressure, kPa = 101
Fixed: Temperature, K = 298.15
Property: Excess molar enthalpy (molar enthalpy of mixing), kJ/mol (Liquid); method: Calvet calorimetry
Mole fraction of propyl ethanoate	Excess molar enthalpy (molar enthalpy of mixing), kJ/mol	uncertainty
.0861	.025	.00025
.1716	.02	.0002
.2676	-.013	-.00013
.3149	-.032	-.00032
.3896	-.061	-.00061
.4563	-.082	-.00082
.5169	-.1	-.001
.5684	-.106	-.00106
.5761	-.103	-.00103
.6268	-.101	-.00101
.6841	-.092	-.00092
.7455	-.081	-.00081
.8101	-.064	-.00064
.8793	-.044	-.00044
.9463	-.024	-.00024

System: propyl ethanoate + 1,6-dichlorohexane; phases: Liquid
Fixed: Pressure, kPa = 101
Fixed: Temperature, K = 298.15
Property: Mass density, kg/m3 (Liquid); method: Vibrating tube method
Mole fraction of propyl ethanoate	Mass density, kg/m3	uncertainty
.0708	1053.44	.02
.1405	1042.95	.02
.208	1032.5	.02
.2725	1022.22	.02
.3392	1011.28	.02
.4656	989.61	.02
.584	968.14	.02
.6947	946.95	.02
.8017	925.34	.02
.8514	914.87	.02
.902	903.96	.02
.9502	893.34	.02
1	882.08	.02

System: propyl propanoate + 1,2-dichloroethane; phases: Liquid
Fixed: Pressure, kPa = 101
Fixed: Temperature, K = 298.15
Property: Excess molar enthalpy (molar enthalpy of mixing), kJ/mol (Liquid); method: Calvet calorimetry
Mole fraction of propyl propanoate	Excess molar enthalpy (molar enthalpy of mixing), kJ/mol	uncertainty
.0428	-.054	-.00054
.1001	-.125	-.00125
.1671	-.22	-.0022
.2376	-.317	-.00317
.3085	-.408	-.00408
.3736	-.483	-.00483
.4312	-.524	-.00524
.4782	-.554	-.00554
.5177	-.557	-.00557
.5861	-.537	-.00537
.671	-.488	-.00488
.7874	-.357	-.00357
.9084	-.183	-.00183

System: propyl propanoate + 1,2-dichloroethane; phases: Liquid
Fixed: Pressure, kPa = 101
Fixed: Temperature, K = 298.15
Property: Mass density, kg/m3 (Liquid); method: Vibrating tube method
Mole fraction of propyl propanoate	Mass density, kg/m3	uncertainty
.0347	1224.28	.02
.0727	1201.87	.02
.1118	1180.16	.02
.1538	1158.1	.02
.1965	1136.61	.02
.2437	1114.31	.02
.2932	1092.38	.02
.3455	1070.49	.02
.3994	1049.24	.02
.4599	1026.87	.02
.5188	1006.4	.02
.5854	984.69	.02
.6557	963.29	.02
.7316	941.63	.02
.8153	919.43	.02
.8998	898.5	.02
1	875.61	.02

System: propyl propanoate + 1,3-dichloropropane; phases: Liquid
Fixed: Pressure, kPa = 101
Fixed: Temperature, K = 298.15
Property: Excess molar enthalpy (molar enthalpy of mixing), kJ/mol (Liquid); method: Calvet calorimetry
Mole fraction of propyl propanoate	Excess molar enthalpy (molar enthalpy of mixing), kJ/mol	uncertainty
.0469	-.039	-.00039
.1103	-.087	-.00087
.1814	-.151	-.00151
.2562	-.228	-.00228
.3312	-.289	-.00289
.4023	-.336	-.00336
.4661	-.369	-.00369
.528	-.388	-.00388
.6046	-.374	-.00374
.706	-.332	-.00332
.816	-.241	-.00241
.9152	-.133	-.00133

System: propyl propanoate + 1,3-dichloropropane; phases: Liquid
Fixed: Pressure, kPa = 101
Fixed: Temperature, K = 298.15
Property: Mass density, kg/m3 (Liquid); method: Vibrating tube method
Mole fraction of propyl propanoate	Mass density, kg/m3	uncertainty
.0456	1160.2	.02
.09	1142.38	.02
.1357	1124.66	.02
.1827	1107.03	.02
.2323	1089.1	.02
.2857	1070.52	.02
.3377	1053.06	.02
.3926	1035.32	.02
.5112	999.15	.02
.5749	980.88	.02
.6382	963.43	.02
.7097	944.54	.02
.7804	926.67	.02
.8459	910.76	.02
.9232	892.71	.02
1	875.61	.02

System: propyl propanoate + 1,4-dichlorobutane; phases: Liquid
Fixed: Pressure, kPa = 101
Fixed: Temperature, K = 298.15
Property: Excess molar enthalpy (molar enthalpy of mixing), kJ/mol (Liquid); method: Calvet calorimetry
Mole fraction of propyl propanoate	Excess molar enthalpy (molar enthalpy of mixing), kJ/mol	uncertainty
.0573	-.026	-.00026
.133	-.063	-.00063
.2168	-.129	-.00129
.3006	-.193	-.00193
.381	-.25	-.0025
.4539	-.297	-.00297
.5117	-.311	-.00311
.5559	-.311	-.00311
.6419	-.297	-.00297
.7366	-.26	-.0026
.8338	-.187	-.00187
.9261	-.095	-.00095

System: propyl propanoate + 1,4-dichlorobutane; phases: Liquid
Fixed: Pressure, kPa = 101
Fixed: Temperature, K = 298.15
Property: Mass density, kg/m3 (Liquid); method: Vibrating tube method
Mole fraction of propyl propanoate	Mass density, kg/m3	uncertainty
.0527	1118.03	.02
.1038	1102.83	.02
.1547	1087.98	.02
.2085	1072.56	.02
.2627	1057.37	.02
.3186	1041.98	.02
.3736	1027.16	.02
.49	996.65	.02
.5485	981.77	.02
.612	965.97	.02
.6735	950.93	.02
.7351	936.2	.02
.8004	920.88	.02
.866	905.76	.02
.9333	890.53	.02
1	875.61	.02

System: propyl propanoate + 1,5-dichloropentane; phases: Liquid
Fixed: Pressure, kPa = 101
Fixed: Temperature, K = 298.15
Property: Excess molar enthalpy (molar enthalpy of mixing), kJ/mol (Liquid); method: Calvet calorimetry
Mole fraction of propyl propanoate	Excess molar enthalpy (molar enthalpy of mixing), kJ/mol	uncertainty
.0588	-.017	-.00017
.1375	-.057	-.00057
.2257	-.101	-.00101
.3118	-.157	-.00157
.3922	-.207	-.00207
.4517	-.241	-.00241
.4693	-.247	-.00247
.5239	-.255	-.00255
.5982	-.246	-.00246
.6783	-.22	-.0022
.7663	-.178	-.00178
.855	-.12	-.0012
.9359	-.061	-.00061

System: propyl propanoate + 1,5-dichloropentane; phases: Liquid
Fixed: Pressure, kPa = 101
Fixed: Temperature, K = 298.15
Property: Mass density, kg/m3 (Liquid); method: Vibrating tube method
Mole fraction of propyl propanoate	Mass density, kg/m3	uncertainty
.0586	1081.99	.02
.1204	1068.2	.02
.1736	1056.39	.02
.2854	1031.55	.02
.3403	1019.42	.02
.4006	1006.12	.02
.5242	978.97	.02
.635	954.74	.02
.6961	941.43	.02
.7548	928.67	.02
.8219	914.07	.02
.8809	901.3	.02
.942	888.12	.02
1	875.61	.02

System: propyl propanoate + 1,6-dichlorohexane; phases: Liquid
Fixed: Pressure, kPa = 101
Fixed: Temperature, K = 298.15
Property: Excess molar enthalpy (molar enthalpy of mixing), kJ/mol (Liquid); method: Calvet calorimetry
Mole fraction of propyl propanoate	Excess molar enthalpy (molar enthalpy of mixing), kJ/mol	uncertainty
.0728	-.025	-.00025
.1664	-.055	-.00055
.2656	-.097	-.00097
.3635	-.148	-.00148
.4374	-.175	-.00175
.4861	-.192	-.00192
.5174	-.202	-.00202
.5675	-.207	-.00207
.6298	-.202	-.00202
.7081	-.18	-.0018
.7895	-.156	-.00156
.8738	-.099	-.00099
.9478	-.046	-.00046

System: propyl propanoate + 1,6-dichlorohexane; phases: Liquid
Fixed: Pressure, kPa = 101
Fixed: Temperature, K = 298.15
Property: Mass density, kg/m3 (Liquid); method: Vibrating tube method
Mole fraction of propyl propanoate	Mass density, kg/m3	uncertainty
.0665	1052.5	.02
.1321	1041.17	.02
.1948	1030.19	.02
.2568	1019.24	.02
.3171	1008.42	.02
.3785	997.31	.02
.556	964.22	.02
.7294	930.71	.02
.7852	919.58	.02
.8399	908.58	.02
.8955	897.26	.02
.949	886.33	.02
1	875.61	.02

System: propyl butanoate + 1,2-dichloroethane; phases: Liquid
Fixed: Pressure, kPa = 101
Fixed: Temperature, K = 298.15
Property: Excess molar enthalpy (molar enthalpy of mixing), kJ/mol (Liquid); method: Calvet calorimetry
Mole fraction of propyl butanoate	Excess molar enthalpy (molar enthalpy of mixing), kJ/mol	uncertainty
.0365	-.035	-.00035
.0999	-.096	-.00096
.1556	-.152	-.00152
.2176	-.22	-.0022
.281	-.286	-.00286
.343	-.356	-.00356
.3848	-.398	-.00398
.4055	-.41	-.0041
.4534	-.442	-.00442
.5266	-.456	-.00456
.6369	-.417	-.00417
.7616	-.312	-.00312
.8961	-.167	-.00167

System: propyl butanoate + 1,2-dichloroethane; phases: Liquid
Fixed: Pressure, kPa = 101
Fixed: Temperature, K = 298.15
Property: Mass density, kg/m3 (Liquid); method: Vibrating tube method
Mole fraction of propyl butanoate	Mass density, kg/m3	uncertainty
.0329	1222.22	.02
.065	1200.67	.02
.1029	1176.79	.02
.1385	1155.7	.02
.1815	1132.09	.02
.2225	1110.75	.02
.2703	1087.77	.02
.3191	1065.93	.02
.3743	1043.05	.02
.4285	1022.26	.02
.4904	1000.19	.02
.556	978.67	.02
.628	956.91	.02
.7087	934.51	.02
.7989	911.8	.02
.8938	890.06	.02
1	867.9	.02

System: propyl butanoate + 1,3-dichloropropane; phases: Liquid
Fixed: Pressure, kPa = 101
Fixed: Temperature, K = 298.15
Property: Excess molar enthalpy (molar enthalpy of mixing), kJ/mol (Liquid); method: Calvet calorimetry
Mole fraction of propyl butanoate	Excess molar enthalpy (molar enthalpy of mixing), kJ/mol	uncertainty
.0386	-.02	-.0002
.0938	-.053	-.00053
.159	-.096	-.00096
.2273	-.157	-.00157
.2973	-.212	-.00212
.3649	-.262	-.00262
.4253	-.298	-.00298
.5121	-.339	-.00339
.5732	-.334	-.00334
.6582	-.315	-.00315
.748	-.273	-.00273
.8421	-.194	-.00194
.9299	-.098	-.00098

System: propyl butanoate + 1,3-dichloropropane; phases: Liquid
Fixed: Pressure, kPa = 101
Fixed: Temperature, K = 298.15
Property: Mass density, kg/m3 (Liquid); method: Vibrating tube method
Mole fraction of propyl butanoate	Mass density, kg/m3	uncertainty
.0366	1161.49	.02
.0766	1143.1	.02
.1186	1124.61	.02
.1603	1107.03	.02
.2067	1088.41	.02
.2552	1069.83	.02
.3066	1051.21	.02
.3595	1032.94	.02
.4152	1014.72	.02
.5357	978.32	.02
.5999	960.48	.02
.6691	942.33	.02
.7439	923.8	.02
.8228	905.44	.02
.9064	887.12	.02
1	867.9	.02

System: propyl butanoate + 1,4-dichlorobutane; phases: Liquid
Fixed: Pressure, kPa = 101
Fixed: Temperature, K = 298.15
Property: Excess molar enthalpy (molar enthalpy of mixing), kJ/mol (Liquid); method: Calvet calorimetry
Mole fraction of propyl butanoate	Excess molar enthalpy (molar enthalpy of mixing), kJ/mol	uncertainty
.0503	-.019	-.00019
.1217	-.049	-.00049
.2009	-.085	-.00085
.2826	-.128	-.00128
.3602	-.174	-.00174
.4315	-.216	-.00216
.5579	-.263	-.00263
.6248	-.256	-.00256
.699	-.234	-.00234
.7829	-.191	-.00191
.8689	-.126	-.00126
.9389	-.066	-.00066

System: propyl butanoate + 1,4-dichlorobutane; phases: Liquid
Fixed: Pressure, kPa = 101
Fixed: Temperature, K = 298.15
Property: Mass density, kg/m3 (Liquid); method: Vibrating tube method
Mole fraction of propyl butanoate	Mass density, kg/m3	uncertainty
.1349	1087.88	.02
.1841	1072.12	.02
.233	1056.97	.02
.2856	1041.17	.02
.3405	1025.23	.02
.3956	1009.76	.02
.5129	978.41	.02
.6385	947.12	.02
.7731	915.88	.02
.8454	900	.02
.918	884.64	.02
1	867.9	.02

System: propyl butanoate + 1,5-dichloropentane; phases: Liquid
Fixed: Pressure, kPa = 101
Fixed: Temperature, K = 298.15
Property: Excess molar enthalpy (molar enthalpy of mixing), kJ/mol (Liquid); method: Calvet calorimetry
Mole fraction of propyl butanoate	Excess molar enthalpy (molar enthalpy of mixing), kJ/mol	uncertainty
.0559	-.013	-.00013
.1285	-.036	-.00036
.2091	-.07	-.0007
.2908	-.108	-.00108
.3699	-.147	-.00147
.4417	-.188	-.00188
.4998	-.211	-.00211
.553	-.22	-.0022
.5757	-.219	-.00219
.6397	-.208	-.00208
.71	-.186	-.00186
.7828	-.154	-.00154
.8561	-.111	-.00111
.9304	-.061	-.00061

System: propyl butanoate + 1,5-dichloropentane; phases: Liquid
Fixed: Pressure, kPa = 101
Fixed: Temperature, K = 298.15
Property: Mass density, kg/m3 (Liquid); method: Vibrating tube method
Mole fraction of propyl butanoate	Mass density, kg/m3	uncertainty
.0527	1081.35	.02
.1057	1067.82	.02
.1578	1054.69	.02
.2095	1041.82	.02
.2663	1027.99	.02
.3782	1001.4	.02
.4944	974.66	.02
.6144	947.96	.02
.7409	920.76	.02
.804	907.58	.02
.8678	894.43	.02
.9363	880.61	.02
1	867.9	.02

System: propyl butanoate + 1,6-dichlorohexane; phases: Liquid
Fixed: Pressure, kPa = 101
Fixed: Temperature, K = 298.15
Property: Excess molar enthalpy (molar enthalpy of mixing), kJ/mol (Liquid); method: Calvet calorimetry
Mole fraction of propyl butanoate	Excess molar enthalpy (molar enthalpy of mixing), kJ/mol	uncertainty
.0619	-.022	-.00022
.1445	-.046	-.00046
.2343	-.076	-.00076
.3207	-.108	-.00108
.3911	-.137	-.00137
.4594	-.158	-.00158
.5174	-.169	-.00169
.5559	-.172	-.00172
.6181	-.168	-.00168
.6903	-.155	-.00155
.7651	-.132	-.00132
.849	-.096	-.00096
.9334	-.05	-.0005

System: propyl butanoate + 1,6-dichlorohexane; phases: Liquid
Fixed: Pressure, kPa = 101
Fixed: Temperature, K = 298.15
Property: Mass density, kg/m3 (Liquid); method: Vibrating tube method
Mole fraction of propyl butanoate	Mass density, kg/m3	uncertainty
.1123	1041.34	.02
.1686	1030.2	.02
.2265	1018.77	.02
.2841	1007.46	.02
.3424	995.99	.02
.4025	984.2	.02
.4598	973.01	.02
.5766	950.16	.02
.6959	926.91	.02
.755	915.37	.02
.8145	903.79	.02
.8778	891.49	.02
.9367	880.14	.02
1	867.9	.02
