Measured thermophysical data. Solubility and thermodynamic functions of tebuconazole in nine organic solvents from T = (278.15 to 313.15) K and mixing properties of solutions
Source: J. Chem. Thermodyn., 2017, 10.1016/j.jct.2016.11.032
Compound 1: tebuconazole, C16H22ClN3O, purity 98.2%
Compound 2: ethanol, C2H6O, purity 99.7%
Compound 3: methanol, CH4O, purity 99.5%
Compound 4: n-propanol, C3H8O, purity 99.5%
Compound 5: isopropanol, C3H8O, purity 99.7%
Compound 6: ethyl acetate, C4H8O2, purity 99.5%
Compound 7: acetone, C3H6O, purity 99.5%
Compound 8: toluene, C7H8, purity 99.5%
Compound 9: acetonitrile, C2H3N, purity 99.5%
Compound 10: 2-butanone, C4H8O, purity 99.5%

System: tebuconazole; phases: Crystal, Liquid, Air at 1 atmosphere
Property: Normal melting temperature, K (Crystal); method: DSC/DTA
Normal melting temperature, K	uncertainty
373.47	.5

System: tebuconazole; phases: Crystal, Liquid, Air at 1 atmosphere
Property: Molar enthalpy of transition or fusion, kJ/mol (Crystal); method: DSC
Molar enthalpy of transition or fusion, kJ/mol	uncertainty
28.95	.4

System: ethanol + tebuconazole; phases: Liquid, Crystal
Fixed: Pressure, kPa = 101.2
Property: Mole fraction of tebuconazole (Liquid); method: Chromatography
Temperature, K	Mole fraction of tebuconazole	uncertainty
278.15	.01031	
280.65	.01182	
283.15	.01358	
285.65	.01569	
288.15	.01791	
290.65	.02032	
293.15	.02341	
295.65	.02636	
298.15	.02987	
300.65	.03326	
303.15	.03703	
305.65	.04107	
308.15	.04627	
310.65	.05147	
313.15	.05717	

System: methanol + tebuconazole; phases: Liquid, Crystal
Fixed: Pressure, kPa = 101.2
Property: Mole fraction of tebuconazole (Liquid); method: Chromatography
Temperature, K	Mole fraction of tebuconazole	uncertainty
278.15	.01537	
280.65	.01735	
283.15	.01963	
285.65	.02245	
288.15	.02528	
290.65	.02839	
293.15	.03202	
295.65	.03589	
298.15	.04003	
300.65	.04437	
303.15	.04974	
305.65	.05511	
308.15	.06	
310.65	.0659	
313.15	.07236	

System: n-propanol + tebuconazole; phases: Liquid, Crystal
Fixed: Pressure, kPa = 101.2
Property: Mole fraction of tebuconazole (Liquid); method: Chromatography
Temperature, K	Mole fraction of tebuconazole	uncertainty
278.15	.00704	
280.65	.00825	
283.15	.00953	
285.65	.01122	
288.15	.01327	
290.65	.01526	
293.15	.01754	
295.65	.02013	
298.15	.02275	
300.65	.02577	
303.15	.0296	
305.65	.03383	
308.15	.03878	
310.65	.04438	
313.15	.04977	

System: isopropanol + tebuconazole; phases: Liquid, Crystal
Fixed: Pressure, kPa = 101.2
Property: Mole fraction of tebuconazole (Liquid); method: Chromatography
Temperature, K	Mole fraction of tebuconazole	uncertainty
278.15	.00877	
280.65	.01033	
283.15	.01204	
285.65	.01383	
288.15	.01589	
290.65	.01795	
293.15	.02035	
295.65	.02302	
298.15	.02604	
300.65	.02931	
303.15	.03279	
305.65	.03668	
308.15	.04161	
310.65	.04624	
313.15	.05194	

System: ethyl acetate + tebuconazole; phases: Liquid, Crystal
Fixed: Pressure, kPa = 101.2
Property: Mole fraction of tebuconazole (Liquid); method: Chromatography
Temperature, K	Mole fraction of tebuconazole	uncertainty
278.15	.02443	
280.65	.02704	
283.15	.02999	
285.65	.03365	
288.15	.03768	
290.65	.04213	
293.15	.04663	
295.65	.05119	
298.15	.05638	
300.65	.06125	
303.15	.06676	
305.65	.07342	
308.15	.07973	
310.65	.08672	
313.15	.09452	

System: acetone + tebuconazole; phases: Liquid, Crystal
Fixed: Pressure, kPa = 101.2
Property: Mole fraction of tebuconazole (Liquid); method: Chromatography
Temperature, K	Mole fraction of tebuconazole	uncertainty
278.15	.03039	
280.65	.03358	
283.15	.038	
285.65	.04163	
288.15	.04605	
290.65	.0507	
293.15	.05623	
295.65	.06132	
298.15	.06682	
300.65	.07227	
303.15	.07886	
305.65	.08514	
308.15	.09255	
310.65	.1007	
313.15	.1101	

System: toluene + tebuconazole; phases: Liquid, Crystal
Fixed: Pressure, kPa = 101.2
Property: Mole fraction of tebuconazole (Liquid); method: Chromatography
Temperature, K	Mole fraction of tebuconazole	uncertainty
278.15	.02167	
280.65	.02444	
283.15	.02764	
285.65	.03112	
288.15	.03537	
290.65	.04042	
293.15	.04529	
295.65	.05122	
298.15	.05777	
300.65	.06444	
303.15	.07116	
305.65	.07905	
308.15	.0873	
310.65	.0964	
313.15	.1051	

System: acetonitrile + tebuconazole; phases: Liquid, Crystal
Fixed: Pressure, kPa = 101.2
Property: Mole fraction of tebuconazole (Liquid); method: Chromatography
Temperature, K	Mole fraction of tebuconazole	uncertainty
278.15	.00516	
280.65	.00585	
283.15	.00662	
285.65	.00746	
288.15	.00838	
290.65	.00942	
293.15	.01072	
295.65	.01196	
298.15	.01335	
300.65	.01489	
303.15	.01655	
305.65	.01863	
308.15	.02084	
310.65	.02326	
313.15	.02608	

System: 2-butanone + tebuconazole; phases: Liquid, Crystal
Fixed: Pressure, kPa = 101.2
Property: Mole fraction of tebuconazole (Liquid); method: Chromatography
Temperature, K	Mole fraction of tebuconazole	uncertainty
278.15	.04038	
280.65	.04385	
283.15	.04765	
285.65	.05244	
288.15	.05689	
290.65	.06124	
293.15	.06592	
295.65	.07095	
298.15	.07595	
300.65	.08149	
303.15	.08694	
305.65	.09284	
308.15	.09866	
310.65	.1059	
313.15	.1129	
