Measured thermophysical data. Solubility of two metal-organic ruthenium precursors in supercritical CO2 and  their application in supercritical fluid technology
Source: J. Chem. Thermodyn., 2013, 10.1016/j.jct.2012.09.029
Compound 1: carbon dioxide, CO2, purity 99.98%
Compound 2: ruthenium (III) acetylacetonate, C15H21O6Ru, purity 99%
Compound 3: bis(2,2,6,6-tetramethyl-3,5-heptanedionato)(1,5-octadiene)ruthenium, C30H50O4Ru, purity 99%

System: carbon dioxide + ruthenium (III) acetylacetonate; phases: Fluid (supercritical or subcritical phases), Liquid
Property: Mole fraction of ruthenium (III) acetylacetonate (Fluid (supercritical or subcritical phases)); method: high pressure variable volume view cell
Pressure, kPa	Temperature, K	Mole fraction of ruthenium (III) acetylacetonate	uncertainty
8900	313	.0000191	.0000000191
9200	313	.0000351	.0000000351
9300	313	.0000506	.0000000506
9400	313	.0000546	.0000000546
9900	313	.0000749	.0000000749
10500	313	.0000903	.0000000903
10400	313	.0000917	.0000000917
11200	313	.0001113	.0000001113
11700	313	.0001206	.0000001206
11900	313	.000127	.000000127
12100	313	.0001305	.0000001305
10400	323	.0000191	.0000000191
10900	323	.0000351	.0000000351
11200	323	.0000506	.0000000506
11300	323	.0000546	.0000000546
11700	323	.0000749	.0000000749
12300	323	.0000903	.0000000903
12300	323	.0000917	.0000000917
13200	323	.0001113	.0000001113
14100	323	.0001206	.0000001206
14300	323	.000127	.000000127
14600	323	.0001305	.0000001305
11900	333	.0000191	.0000000191
12300	333	.0000351	.0000000351
13000	333	.0000546	.0000000546
13100	333	.0000612	.0000000612
13400	333	.0000749	.0000000749
14000	333	.0000917	.0000000917
15000	333	.0001113	.0000001113
15500	333	.0001206	.0000001206
15900	333	.000127	.000000127
16100	333	.0001305	.0000001305
13400	343	.0000191	.0000000191
14000	343	.0000351	.0000000351
14600	343	.0000506	.0000000506
15400	343	.0000546	.0000000546
15100	343	.0000651	.0000000651
16000	343	.0000749	.0000000749
16500	343	.0000917	.0000000917
17600	343	.0001113	.0000001113
17900	343	.0001206	.0000001206
18000	343	.000127	.000000127
14500	353	.0000191	.0000000191
15300	353	.0000351	.0000000351
15900	353	.0000486	.0000000486
16100	353	.0000546	.0000000546
16400	353	.0000651	.0000000651
17100	353	.0000749	.0000000749
17900	353	.0000917	.0000000917
18500	353	.0001113	.0000001113
19000	353	.0001206	.0000001206
19300	353	.000127	.000000127

System: carbon dioxide + bis(2,2,6,6-tetramethyl-3,5-heptanedionato)(1,5-octadiene)ruthenium; phases: Fluid (supercritical or subcritical phases), Liquid
Property: Mole fraction of bis(2,2,6,6-tetramethyl-3,5-heptanedionato)(1,5-octadiene)ruthenium (Fluid (supercritical or subcritical phases)); method: high pressure variable volume view cell
Pressure, kPa	Temperature, K	Mole fraction of bis(2,2,6,6-tetramethyl-3,5-heptanedionato)(1,5-octadiene)ruthenium	uncertainty
9200	313	.0000247	.0000000247
9400	313	.0000365	.0000000365
10100	313	.0000489	.0000000489
11600	313	.0000596	.0000000596
12400	313	.0000653	.0000000653
13700	313	.0000743	.0000000743
14000	313	.0000818	.0000000818
15500	313	.0000922	.0000000922
11000	323	.0000247	.0000000247
11600	323	.0000365	.0000000365
12700	323	.0000489	.0000000489
12800	323	.0000499	.0000000499
13200	323	.0000596	.0000000596
14300	323	.0000653	.0000000653
14900	323	.0000743	.0000000743
15100	323	.0000818	.0000000818
16400	323	.0000922	.0000000922
12800	333	.0000247	.0000000247
13300	333	.0000365	.0000000365
14100	333	.0000489	.0000000489
14700	333	.0000596	.0000000596
16100	333	.0000741	.0000000741
16300	333	.0000818	.0000000818
17700	333	.0000922	.0000000922
14400	343	.0000247	.0000000247
14900	343	.0000365	.0000000365
15900	343	.0000489	.0000000489
16400	343	.0000596	.0000000596
17200	343	.0000653	.0000000653
17400	343	.0000743	.0000000743
17500	343	.0000818	.0000000818
18000	343	.0000922	.0000000922
15400	353	.0000247	.0000000247
16300	353	.0000365	.0000000365
17400	353	.0000489	.0000000489
18000	353	.0000596	.0000000596
19200	353	.0000741	.0000000741
19500	353	.0000818	.0000000818
19400	353	.0000922	.0000000922
