Measured thermophysical data. Measurement and modeling the excess molar properties of binary mixtures of {[C6mim][BF4] + 3-amino-1-propanol} and {[C6mim][BF4] + isobutanol}: Application of Prigogine-Flory-Patterson theory
Source: J. Chem. Thermodyn., 2012, 10.1016/j.jct.2011.12.008
Compound 1: 1-hexyl-3-methylimidazolium tetrafluoroborate, C10H19BF4N2, purity 98%
Compound 2: 3-amino-1-propanol, C3H9NO, purity 99%
Compound 3: 2-methyl-1-propanol, C4H10O, purity 99%

System: 1-hexyl-3-methylimidazolium tetrafluoroborate; phases: Liquid
Fixed: Pressure, kPa = 101.325
Property: Mass density, kg/m3 (Liquid); method: Vibrating tube method
Temperature, K	Mass density, kg/m3	uncertainty
293.15	1149.05	.05
298.15	1145.61	.05
303.15	1142.3	.05
308.15	1138.95	.05
313.15	1135.59	.05
318.15	1132.22	.05
323.15	1128.88	.05
328.15	1125.5	.05
333.15	1122.14	.05
338.15	1118.8	.05

System: 1-hexyl-3-methylimidazolium tetrafluoroborate; phases: Liquid
Fixed: Pressure, kPa = 101.325
Property: Viscosity, Pa*s (Liquid); method: Capillary tube (Ostwald; Ubbelohde) method
Temperature, K	Viscosity, Pa*s	uncertainty
293.15	.2346826	.004693652
298.15	.1789155	.00357831
303.15	.1361489	.002722978
308.15	.1066512	.002133024
313.15	.0831274	.001662548
318.15	.0691261	.001382522
323.15	.0567382	.001134764
328.15	.0483554	.000967108
333.15	.0430084	.000860168
338.15	.0371506	.000743012

System: 3-amino-1-propanol; phases: Liquid
Fixed: Pressure, kPa = 101.325
Property: Mass density, kg/m3 (Liquid); method: Vibrating tube method
Temperature, K	Mass density, kg/m3	uncertainty
293.15	987.55	.05
298.15	983.55	.05
303.15	979.53	.05
308.15	975.51	.05
313.15	971.47	.05
318.15	967.43	.05
323.15	963.37	.05
328.15	959.3	.05
333.15	955.22	.05
338.15	951.14	.05

System: 3-amino-1-propanol; phases: Liquid
Fixed: Pressure, kPa = 101.325
Property: Viscosity, Pa*s (Liquid); method: Capillary tube (Ostwald; Ubbelohde) method
Temperature, K	Viscosity, Pa*s	uncertainty
293.15	.0392895	.00078579
298.15	.0304336	.000608672
303.15	.0238679	.000477358
308.15	.0190712	.000381424
313.15	.0152664	.000305328
318.15	.0123545	.00024709
323.15	.0102191	.000204382
328.15	.0085347	.000170694
333.15	.0071234	.000142468
338.15	.0060452	.000120904

System: 2-methyl-1-propanol; phases: Liquid
Fixed: Pressure, kPa = 101.325
Property: Mass density, kg/m3 (Liquid); method: Vibrating tube method
Temperature, K	Mass density, kg/m3	uncertainty
293.15	801.75	.05
298.15	797.89	.05
303.15	793.99	.05
308.15	790.04	.05
313.15	786.04	.05
318.15	781.98	.05
323.15	777.85	.05
328.15	773.65	.05
333.15	769.36	.05
338.15	764.99	.05

System: 2-methyl-1-propanol; phases: Liquid
Fixed: Pressure, kPa = 101.325
Property: Viscosity, Pa*s (Liquid); method: Capillary tube (Ostwald; Ubbelohde) method
Temperature, K	Viscosity, Pa*s	uncertainty
293.15	.0040855	.00008171
298.15	.00345	.000069
303.15	.0028767	.000057534
308.15	.0023845	.00004769
313.15	.0020909	.000041818
318.15	.0018503	.000037006
323.15	.0015759	.000031518
328.15	.0012967	.000025934
333.15	.0011243	.000022486
338.15	.0009876	.000019752

System: 3-amino-1-propanol + 1-hexyl-3-methylimidazolium tetrafluoroborate; phases: Liquid
Fixed: Pressure, kPa = 101
Property: Mass density, kg/m3 (Liquid); method: Vibrating tube method
Temperature, K	Mole fraction of 1-hexyl-3-methylimidazolium tetrafluoroborate	Mass density, kg/m3	uncertainty
293.15	0	987.55	.05
293.15	.0536	1010.87	.05
293.15	.0969	1026.17	.05
293.15	.202	1055.57	.05
293.15	.3217	1080.32	.05
293.15	.4942	1105.94	.05
293.15	.6135	1118.92	.05
293.15	.7276	1129.17	.05
293.15	.8343	1137.49	.05
293.15	.9204	1143.7	.05
293.15	1	1149.05	.05
298.15	0	983.55	.05
298.15	.0536	1006.96	.05
298.15	.0969	1022.3	.05
298.15	.202	1051.74	.05
298.15	.3217	1076.53	.05
298.15	.4942	1102.24	.05
298.15	.6135	1115.24	.05
298.15	.7276	1125.66	.05
298.15	.8343	1134.08	.05
298.15	.9204	1140.23	.05
298.15	1	1145.61	.05
303.15	0	979.53	.05
303.15	.0536	1003.04	.05
303.15	.0969	1018.41	.05
303.15	.202	1047.91	.05
303.15	.3217	1072.75	.05
303.15	.4942	1098.55	.05
303.15	.6135	1111.63	.05
303.15	.7276	1122.11	.05
303.15	.8343	1130.63	.05
303.15	.9204	1136.88	.05
303.15	1	1142.3	.05
308.15	0	975.51	.05
308.15	.0536	999.11	.05
308.15	.0969	1014.5	.05
308.15	.202	1044.05	.05
308.15	.3217	1068.95	.05
308.15	.4942	1094.86	.05
308.15	.6135	1108.04	.05
308.15	.7276	1118.58	.05
308.15	.8343	1127.18	.05
308.15	.9204	1133.5	.05
308.15	1	1138.95	.05
313.15	0	971.47	.05
313.15	.0536	995.18	.05
313.15	.0969	1010.6	.05
313.15	.202	1040.2	.05
313.15	.3217	1065.16	.05
313.15	.4942	1091.16	.05
313.15	.6135	1104.43	.05
313.15	.7276	1115.05	.05
313.15	.8343	1123.73	.05
313.15	.9204	1130.12	.05
313.15	1	1135.59	.05
318.15	0	967.43	.05
318.15	.0536	991.28	.05
318.15	.0969	1006.67	.05
318.15	.202	1036.34	.05
318.15	.3217	1061.36	.05
318.15	.4942	1087.47	.05
318.15	.6135	1100.82	.05
318.15	.7276	1111.54	.05
318.15	.8343	1120.28	.05
318.15	.9204	1126.73	.05
318.15	1	1132.22	.05
323.15	0	963.37	.05
323.15	.0536	987.32	.05
323.15	.0969	1002.75	.05
323.15	.202	1032.48	.05
323.15	.3217	1057.55	.05
323.15	.4942	1083.77	.05
323.15	.6135	1097.21	.05
323.15	.7276	1108.02	.05
323.15	.8343	1116.83	.05
323.15	.9204	1123.36	.05
323.15	1	1128.88	.05
328.15	0	959.3	.05
328.15	.0536	983.35	.05
328.15	.0969	998.8	.05
328.15	.202	1028.62	.05
328.15	.3217	1053.76	.05
328.15	.4942	1080.08	.05
328.15	.6135	1093.61	.05
328.15	.7276	1104.51	.05
328.15	.8343	1113.4	.05
328.15	.9204	1119.94	.05
328.15	1	1125.5	.05
333.15	0	955.22	.05
333.15	.0536	979.37	.05
333.15	.0969	994.86	.05
333.15	.202	1024.75	.05
333.15	.3217	1049.98	.05
333.15	.4942	1076.4	.05
333.15	.6135	1090.05	.05
333.15	.7276	1101.02	.05
333.15	.8343	1109.97	.05
333.15	.9204	1116.55	.05
333.15	1	1122.14	.05
338.15	0	951.14	.05
338.15	.0536	975.37	.05
338.15	.0969	990.91	.05
338.15	.202	1020.88	.05
338.15	.3217	1046.21	.05
338.15	.4942	1072.72	.05
338.15	.6135	1086.5	.05
338.15	.7276	1097.55	.05
338.15	.8343	1106.57	.05
338.15	.9204	1113.17	.05
338.15	1	1118.8	.05

System: 3-amino-1-propanol + 1-hexyl-3-methylimidazolium tetrafluoroborate; phases: Liquid
Fixed: Pressure, kPa = 101
Property: Excess molar volume, m3/mol (Liquid); method: Calculated with densities of this investigation
Temperature, K	Mole fraction of 1-hexyl-3-methylimidazolium tetrafluoroborate	Excess molar volume, m3/mol	uncertainty
293.15	0	0	0
293.15	.0536	-.00000004	-.0000000002
293.15	.0969	-.000000019	-.000000000095
293.15	.202	.000000045	.000000000225
293.15	.3217	.000000097	.000000000485
293.15	.4942	.000000142	.00000000071
293.15	.6135	.000000202	.00000000101
293.15	.7276	.000000235	.000000001175
293.15	.8343	.000000215	.000000001075
293.15	.9204	.000000126	.00000000063
293.15	1	0	0
298.15	0	0	0
298.15	.0536	-.000000043	-.000000000215
298.15	.0969	-.000000021	-.000000000105
298.15	.202	.000000047	.000000000235
298.15	.3217	.000000105	.000000000525
298.15	.4942	.000000153	.000000000765
298.15	.6135	.000000219	.000000001095
298.15	.7276	.000000233	.000000001165
298.15	.8343	.000000202	.00000000101
298.15	.9204	.000000127	.000000000635
298.15	1	0	0
303.15	0	0	0
303.15	.0536	-.000000045	-.000000000225
303.15	.0969	-.000000021	-.000000000105
303.15	.202	.000000054	.00000000027
303.15	.3217	.00000012	.0000000006
303.15	.4942	.000000175	.000000000875
303.15	.6135	.000000241	.000000001205
303.15	.7276	.000000257	.000000001285
303.15	.8343	.000000218	.00000000109
303.15	.9204	.000000132	.00000000066
303.15	1	0	0
308.15	0	0	0
308.15	.0536	-.000000048	-.00000000024
308.15	.0969	-.000000021	-.000000000105
308.15	.202	.000000062	.00000000031
308.15	.3217	.000000135	.000000000675
308.15	.4942	.000000194	.00000000097
308.15	.6135	.000000258	.00000000129
308.15	.7276	.000000272	.00000000136
308.15	.8343	.000000228	.00000000114
308.15	.9204	.000000133	.000000000665
308.15	1	0	0
313.15	0	0	0
313.15	.0536	-.000000051	-.000000000255
313.15	.0969	-.000000021	-.000000000105
313.15	.202	.000000068	.00000000034
313.15	.3217	.000000147	.000000000735
313.15	.4942	.000000213	.000000001065
313.15	.6135	.000000276	.00000000138
313.15	.7276	.000000286	.00000000143
313.15	.8343	.000000236	.00000000118
313.15	.9204	.000000134	.00000000067
313.15	1	0	0
318.15	0	0	0
318.15	.0536	-.000000057	-.000000000285
318.15	.0969	-.000000021	-.000000000105
318.15	.202	.000000075	.000000000375
318.15	.3217	.00000016	.0000000008
318.15	.4942	.00000023	.00000000115
318.15	.6135	.000000291	.000000001455
318.15	.7276	.000000296	.00000000148
318.15	.8343	.000000242	.00000000121
318.15	.9204	.000000134	.00000000067
318.15	1	0	0
323.15	0	0	0
323.15	.0536	-.00000006	-.0000000003
323.15	.0969	-.000000021	-.000000000105
323.15	.202	.000000081	.000000000405
323.15	.3217	.000000175	.000000000875
323.15	.4942	.000000249	.000000001245
323.15	.6135	.000000309	.000000001545
323.15	.7276	.000000311	.000000001555
323.15	.8343	.000000252	.00000000126
323.15	.9204	.000000136	.00000000068
323.15	1	0	0
328.15	0	0	0
328.15	.0536	-.000000063	-.000000000315
328.15	.0969	-.000000021	-.000000000105
328.15	.202	.000000085	.000000000425
328.15	.3217	.000000184	.00000000092
328.15	.4942	.000000264	.00000000132
328.15	.6135	.000000323	.000000001615
328.15	.7276	.000000317	.000000001585
328.15	.8343	.000000253	.000000001265
328.15	.9204	.000000138	.00000000069
328.15	1	0	0
333.15	0	0	0
333.15	.0536	-.000000066	-.00000000033
333.15	.0969	-.000000022	-.00000000011
333.15	.202	.000000089	.000000000445
333.15	.3217	.000000194	.00000000097
333.15	.4942	.000000277	.000000001385
333.15	.6135	.00000033	.00000000165
333.15	.7276	.000000323	.000000001615
333.15	.8343	.000000255	.000000001275
333.15	.9204	.00000014	.0000000007
333.15	1	0	0
338.15	0	0	0
338.15	.0536	-.000000066	-.00000000033
338.15	.0969	-.000000022	-.00000000011
338.15	.202	.000000095	.000000000475
338.15	.3217	.000000202	.00000000101
338.15	.4942	.000000294	.00000000147
338.15	.6135	.000000339	.000000001695
338.15	.7276	.000000329	.000000001645
338.15	.8343	.000000257	.000000001285
338.15	.9204	.000000142	.00000000071
338.15	1	0	0

System: 3-amino-1-propanol + 1-hexyl-3-methylimidazolium tetrafluoroborate; phases: Liquid
Fixed: Pressure, kPa = 101
Property: Viscosity, Pa*s (Liquid); method: Capillary tube (Ostwald; Ubbelohde) method
Temperature, K	Mole fraction of 1-hexyl-3-methylimidazolium tetrafluoroborate	Viscosity, Pa*s	uncertainty
293.15	0	.0392895	.00078579
293.15	.0536	.0393521	.000787042
293.15	.0969	.0428947	.000857894
293.15	.202	.0492589	.000985178
293.15	.3217	.0569885	.00113977
293.15	.4942	.0778187	.001556374
293.15	.6135	.0972715	.00194543
293.15	.7276	.1250127	.002500254
293.15	.8343	.1638661	.003277322
293.15	.9204	.1922009	.003844018
293.15	1	.2346826	.004693652
298.15	0	.0304336	.000608672
298.15	.0536	.0308025	.00061605
298.15	.0969	.0332032	.000664064
298.15	.202	.0378528	.000757056
298.15	.3217	.0446148	.000892296
298.15	.4942	.0596521	.001193042
298.15	.6135	.0745317	.001490634
298.15	.7276	.0952027	.001904054
298.15	.8343	.1234708	.002469416
298.15	.9204	.148265	.0029653
298.15	1	.1789155	.00357831
303.15	0	.0238679	.000477358
303.15	.0536	.0241627	.000483254
303.15	.0969	.0260182	.000520364
303.15	.202	.0294509	.000589018
303.15	.3217	.0345528	.000691056
303.15	.4942	.0460335	.00092067
303.15	.6135	.0579611	.001159222
303.15	.7276	.073646	.00147292
303.15	.8343	.0958403	.001916806
303.15	.9204	.1157853	.002315706
303.15	1	.1361489	.002722978
308.15	0	.0190712	.000381424
308.15	.0536	.019137	.00038274
308.15	.0969	.0205809	.000411618
308.15	.202	.0234128	.000468256
308.15	.3217	.0275334	.000550668
308.15	.4942	.0364461	.000728922
308.15	.6135	.0458052	.000916104
308.15	.7276	.058093	.00116186
308.15	.8343	.0753841	.001507682
308.15	.9204	.0910447	.001820894
308.15	1	.1066512	.002133024
313.15	0	.0152664	.000305328
313.15	.0536	.0156363	.000312726
313.15	.0969	.0166263	.000332526
313.15	.202	.0187397	.000374794
313.15	.3217	.0220525	.00044105
313.15	.4942	.0291396	.000582792
313.15	.6135	.0364695	.00072939
313.15	.7276	.0463224	.000926448
313.15	.8343	.059623	.00119246
313.15	.9204	.0716004	.001432008
313.15	1	.0831274	.001662548
318.15	0	.0123545	.00024709
318.15	.0536	.0126802	.000253604
318.15	.0969	.0135986	.000271972
318.15	.202	.0157579	.000315158
318.15	.3217	.0184211	.000368422
318.15	.4942	.0239048	.000478096
318.15	.6135	.0286397	.000572794
318.15	.7276	.0378545	.00075709
318.15	.8343	.0482157	.000964314
318.15	.9204	.0584956	.001169912
318.15	1	.0691261	.001382522
323.15	0	.0102191	.000204382
323.15	.0536	.0106112	.000212224
323.15	.0969	.011157	.00022314
323.15	.202	.0126123	.000252246
323.15	.3217	.0158899	.000317798
323.15	.4942	.019726	.00039452
323.15	.6135	.024201	.00048402
323.15	.7276	.031188	.00062376
323.15	.8343	.0396062	.000792124
323.15	.9204	.0479045	.00095809
323.15	1	.0567382	.001134764
328.15	0	.0085347	.000170694
328.15	.0536	.0087	.000174
328.15	.0969	.0093247	.000186494
328.15	.202	.0109569	.000219138
328.15	.3217	.0130373	.000260746
328.15	.4942	.0165772	.000331544
328.15	.6135	.0199186	.000398372
328.15	.7276	.0260544	.000521088
328.15	.8343	.033113	.00066226
328.15	.9204	.0412632	.000825264
328.15	1	.0483554	.000967108
333.15	0	.0071234	.000142468
333.15	.0536	.0071439	.000142878
333.15	.0969	.0078356	.000156712
333.15	.202	.0089183	.000178366
333.15	.3217	.0104656	.000209312
333.15	.4942	.0138582	.000277164
333.15	.6135	.017138	.00034276
333.15	.7276	.0218136	.000436272
333.15	.8343	.0275042	.000550084
333.15	.9204	.03745	.000749
333.15	1	.0430084	.000860168
338.15	0	.0060452	.000120904
338.15	.0536	.0062208	.000124416
338.15	.0969	.0066759	.000133518
338.15	.202	.0076339	.000152678
338.15	.3217	.0091526	.000183052
338.15	.4942	.0119368	.000238736
338.15	.6135	.0147113	.000294226
338.15	.7276	.0186414	.000372828
338.15	.8343	.0232393	.000464786
338.15	.9204	.032093	.00064186
338.15	1	.0371506	.000743012

System: 2-methyl-1-propanol + 1-hexyl-3-methylimidazolium tetrafluoroborate; phases: Liquid
Fixed: Pressure, kPa = 101
Property: Mass density, kg/m3 (Liquid); method: Vibrating tube method
Temperature, K	Mole fraction of 1-hexyl-3-methylimidazolium tetrafluoroborate	Mass density, kg/m3	uncertainty
293.15	0	801.75	.05
293.15	.3101	989.53	.05
293.15	.4279	1031.42	.05
293.15	.5606	1068.28	.05
293.15	.6901	1097.67	.05
293.15	.8327	1123.89	.05
293.15	1	1149.05	.05
298.15	0	797.89	.05
298.15	.3101	985.83	.05
298.15	.4279	1027.83	.05
298.15	.5606	1064.75	.05
298.15	.6901	1094.14	.05
298.15	.8327	1120.44	.05
298.15	1	1145.61	.05
303.15	0	793.99	.05
303.15	.1004	870.1	.05
303.15	.151	902.53	.05
303.15	.2009	931.08	.05
303.15	.3101	982.2	.05
303.15	.4279	1024.31	.05
303.15	.5606	1061.3	.05
303.15	.6901	1090.76	.05
303.15	.8327	1117.15	.05
303.15	1	1142.3	.05
308.15	0	790.04	.05
308.15	.1004	866.28	.05
308.15	.151	898.71	.05
308.15	.2009	927.23	.05
308.15	.3101	978.63	.05
308.15	.4279	1020.8	.05
308.15	.5606	1057.79	.05
308.15	.6901	1087.32	.05
308.15	.8327	1113.75	.05
308.15	1	1138.95	.05
313.15	0	786.04	.05
313.15	.1004	862.42	.05
313.15	.151	894.93	.05
313.15	.2009	923.74	.05
313.15	.3101	975.11	.05
313.15	.4279	1017.21	.05
313.15	.5606	1054.27	.05
313.15	.6901	1083.88	.05
313.15	.8327	1110.33	.05
313.15	1	1135.59	.05
318.15	0	781.98	.05
318.15	.1004	858.54	.05
318.15	.151	891.18	.05
318.15	.2009	920.15	.05
318.15	.3101	971.5	.05
318.15	.4279	1013.64	.05
318.15	.5606	1050.78	.05
318.15	.6901	1080.45	.05
318.15	.8327	1106.94	.05
318.15	1	1132.22	.05
323.15	0	777.85	.05
323.15	.1004	854.62	.05
323.15	.151	887.3	.05
323.15	.2009	916.37	.05
323.15	.3101	967.87	.05
323.15	.4279	1010.02	.05
323.15	.5606	1047.3	.05
323.15	.6901	1077.03	.05
323.15	.8327	1103.61	.05
323.15	1	1128.88	.05
328.15	0	773.65	.05
328.15	.1004	850.65	.05
328.15	.151	883.51	.05
328.15	.2009	912.52	.05
328.15	.3101	964.12	.05
328.15	.4279	1006.35	.05
328.15	.5606	1043.79	.05
328.15	.6901	1073.6	.05
328.15	.8327	1100.2	.05
328.15	1	1125.5	.05
333.15	0	769.36	.05
333.15	.1004	846.65	.05
333.15	.151	879.73	.05
333.15	.2009	908.64	.05
333.15	.3101	960.36	.05
333.15	.4279	1002.74	.05
333.15	.5606	1040.26	.05
333.15	.6901	1070.21	.05
333.15	.8327	1096.86	.05
333.15	1	1122.14	.05
338.15	0	764.99	.05
338.15	.1004	842.59	.05
338.15	.151	875.79	.05
338.15	.2009	904.74	.05
338.15	.3101	956.56	.05
338.15	.4279	999.08	.05
338.15	.5606	1036.78	.05
338.15	.6901	1066.82	.05
338.15	.8327	1093.56	.05
338.15	1	1118.8	.05

System: 2-methyl-1-propanol + 1-hexyl-3-methylimidazolium tetrafluoroborate; phases: Liquid
Fixed: Pressure, kPa = 101
Property: Excess molar volume, m3/mol (Liquid); method: Calculated with densities of this investigation
Temperature, K	Mole fraction of 1-hexyl-3-methylimidazolium tetrafluoroborate	Excess molar volume, m3/mol	uncertainty
293.15	0	0	0
293.15	.3101	-.000001047	-.000000005235
293.15	.4279	-.000000984	-.00000000492
293.15	.5606	-.000000765	-.000000003825
293.15	.6901	-.000000581	-.000000002905
293.15	.8327	-.000000312	-.00000000156
293.15	1	0	0
298.15	0	0	0
298.15	.3101	-.00000107	-.00000000535
298.15	.4279	-.000001013	-.000000005065
298.15	.5606	-.00000079	-.00000000395
298.15	.6901	-.000000596	-.00000000298
298.15	.8327	-.000000327	-.000000001635
298.15	1	0	0
303.15	0	0	0
303.15	.1004	-.000000359	-.000000001795
303.15	.151	-.000000612	-.00000000306
303.15	.2009	-.000000844	-.00000000422
303.15	.3101	-.000001097	-.000000005485
303.15	.4279	-.000001044	-.00000000522
303.15	.5606	-.000000817	-.000000004085
303.15	.6901	-.00000062	-.0000000031
303.15	.8327	-.000000351	-.000000001755
303.15	1	0	0
308.15	0	0	0
308.15	.1004	-.000000377	-.000000001885
308.15	.151	-.00000063	-.00000000315
308.15	.2009	-.000000857	-.000000004285
308.15	.3101	-.00000114	-.0000000057
308.15	.4279	-.000001083	-.000000005415
308.15	.5606	-.000000842	-.00000000421
308.15	.6901	-.000000641	-.000000003205
308.15	.8327	-.000000361	-.000000001805
308.15	1	0	0
313.15	0	0	0
313.15	.1004	-.000000398	-.00000000199
313.15	.151	-.000000658	-.00000000329
313.15	.2009	-.000000922	-.00000000461
313.15	.3101	-.000001193	-.000000005965
313.15	.4279	-.000001117	-.000000005585
313.15	.5606	-.000000869	-.000000004345
313.15	.6901	-.000000663	-.000000003315
313.15	.8327	-.000000371	-.000000001855
313.15	1	0	0
318.15	0	0	0
318.15	.1004	-.000000422	-.00000000211
318.15	.151	-.000000698	-.00000000349
318.15	.2009	-.000000981	-.000000004905
318.15	.3101	-.000001242	-.00000000621
318.15	.4279	-.000001157	-.000000005785
318.15	.5606	-.000000905	-.000000004525
318.15	.6901	-.000000694	-.00000000347
318.15	.8327	-.000000389	-.000000001945
318.15	1	0	0
323.15	0	0	0
323.15	.1004	-.000000448	-.00000000224
323.15	.151	-.000000729	-.000000003645
323.15	.2009	-.000001022	-.00000000511
323.15	.3101	-.000001293	-.000000006465
323.15	.4279	-.000001195	-.000000005975
323.15	.5606	-.000000945	-.000000004725
323.15	.6901	-.000000725	-.000000003625
323.15	.8327	-.000000415	-.000000002075
323.15	1	0	0
328.15	0	0	0
328.15	.1004	-.000000478	-.00000000239
328.15	.151	-.000000781	-.000000003905
328.15	.2009	-.000001064	-.00000000532
328.15	.3101	-.000001339	-.000000006695
328.15	.4279	-.000001235	-.000000006175
328.15	.5606	-.00000099	-.00000000495
328.15	.6901	-.000000763	-.000000003815
328.15	.8327	-.000000436	-.00000000218
328.15	1	0	0
333.15	0	0	0
333.15	.1004	-.000000514	-.00000000257
333.15	.151	-.000000843	-.000000004215
333.15	.2009	-.00000111	-.00000000555
333.15	.3101	-.000001389	-.000000006945
333.15	.4279	-.000001288	-.00000000644
333.15	.5606	-.000001035	-.000000005175
333.15	.6901	-.000000811	-.000000004055
333.15	.8327	-.000000467	-.000000002335
333.15	1	0	0
338.15	0	0	0
338.15	.1004	-.000000553	-.000000002765
338.15	.151	-.000000895	-.000000004475
338.15	.2009	-.000001163	-.000000005815
338.15	.3101	-.00000144	-.0000000072
338.15	.4279	-.000001341	-.000000006705
338.15	.5606	-.000001092	-.00000000546
338.15	.6901	-.00000086	-.0000000043
338.15	.8327	-.000000507	-.000000002535
338.15	1	0	0

System: 2-methyl-1-propanol + 1-hexyl-3-methylimidazolium tetrafluoroborate; phases: Liquid
Fixed: Pressure, kPa = 101
Property: Viscosity, Pa*s (Liquid); method: Capillary tube (Ostwald; Ubbelohde) method
Temperature, K	Mole fraction of 1-hexyl-3-methylimidazolium tetrafluoroborate	Viscosity, Pa*s	uncertainty
293.15	0	.0040855	.00008171
293.15	.3101	.0182562	.000365124
293.15	.4279	.0268809	.000537618
293.15	.5606	.0497495	.00099499
293.15	.6901	.0843804	.001687608
293.15	.8327	.1388087	.002776174
293.15	1	.2346826	.004693652
298.15	0	.00345	.000069
298.15	.3101	.0154727	.000309454
298.15	.4279	.0230071	.000460142
298.15	.5606	.0377159	.000754318
298.15	.6901	.0668123	.001336246
298.15	.8327	.1079426	.002158852
298.15	1	.1789155	.00357831
303.15	0	.0028767	.000057534
303.15	.1004	.0059503	.000119006
303.15	.151	.0074544	.000149088
303.15	.2009	.008374	.00016748
303.15	.3101	.0129372	.000258744
303.15	.4279	.0189014	.000378028
303.15	.5606	.0321044	.000642088
303.15	.6901	.0537742	.001075484
303.15	.8327	.0845467	.001690934
303.15	1	.1361489	.002722978
308.15	0	.0023845	.00004769
308.15	.1004	.0049749	.000099498
308.15	.151	.0063385	.00012677
308.15	.2009	.0071161	.000142322
308.15	.3101	.0107366	.000214732
308.15	.4279	.015812	.00031624
308.15	.5606	.0257368	.000514736
308.15	.6901	.0453625	.00090725
308.15	.8327	.0676153	.001352306
308.15	1	.1066512	.002133024
313.15	0	.0020909	.000041818
313.15	.1004	.004108	.00008216
313.15	.151	.0052018	.000104036
313.15	.2009	.0061844	.000123688
313.15	.3101	.0091024	.000182048
313.15	.4279	.0134284	.000268568
313.15	.5606	.0216671	.000433342
313.15	.6901	.0375247	.000750494
313.15	.8327	.0527947	.001055894
313.15	1	.0831274	.001662548
318.15	0	.0018503	.000037006
318.15	.1004	.0031879	.000063758
318.15	.151	.0043882	.000087764
318.15	.2009	.0052811	.000105622
318.15	.3101	.0077577	.000155154
318.15	.4279	.0114542	.000229084
318.15	.5606	.0187981	.000375962
318.15	.6901	.0314041	.000628082
318.15	.8327	.0450682	.000901364
318.15	1	.0691261	.001382522
323.15	0	.0015759	.000031518
323.15	.1004	.0029928	.000059856
323.15	.151	.0037652	.000075304
323.15	.2009	.0045554	.000091108
323.15	.3101	.0067192	.000134384
323.15	.4279	.0099193	.000198386
323.15	.5606	.0156432	.000312864
323.15	.6901	.0263134	.000526268
323.15	.8327	.0360128	.000720256
323.15	1	.0567382	.001134764
328.15	0	.0012967	.000025934
328.15	.1004	.0025861	.000051722
328.15	.151	.0032662	.000065324
328.15	.2009	.003949	.00007898
328.15	.3101	.0058552	.000117104
328.15	.4279	.0086163	.000172326
328.15	.5606	.0136194	.000272388
328.15	.6901	.0218782	.000437564
328.15	.8327	.029918	.00059836
328.15	1	.0483554	.000967108
333.15	0	.0011243	.000022486
333.15	.1004	.0022103	.000044206
333.15	.151	.0028473	.000056946
333.15	.2009	.0034749	.000069498
333.15	.3101	.0051801	.000103602
333.15	.4279	.0075998	.000151996
333.15	.5606	.0119215	.00023843
333.15	.6901	.0189797	.000379594
333.15	.8327	.0268439	.000536878
333.15	1	.0430084	.000860168
338.15	0	.0009876	.000019752
338.15	.1004	.0018531	.000037062
338.15	.151	.0025259	.000050518
338.15	.2009	.0030558	.000061116
338.15	.3101	.0045663	.000091326
338.15	.4279	.0063742	.000127484
338.15	.5606	.0100986	.000201972
338.15	.6901	.0157765	.00031553
338.15	.8327	.0234343	.000468686
338.15	1	.0371506	.000743012
