Measured thermophysical data. Determination and correlation of solid-liquid phase equilibrium and phase diagram for multicomponent system of mixed dibasic acids. (III) Ternary system of succinic acid + glutaric acid + ethanol system
Source: J. Chem. Thermodyn., 2017, 10.1016/j.jct.2016.12.010
Compound 1: succinic acid, C4H6O4, purity 98.5%
Compound 2: glutaric acid, C5H8O4, purity 98.5%
Compound 3: ethanol, C2H6O, purity 99.7%

System: ethanol + succinic acid + glutaric acid; phases: Liquid, Crystal
Fixed: Pressure, kPa = 101.3
Property: Mass fraction of glutaric acid (Liquid); method: Chromatography
Temperature, K	Mass fraction of succinic acid	Mass fraction of glutaric acid	uncertainty
283.15	0	.1926	
283.15	.00823	.1906	
283.15	.0164	.1896	
283.15	.0252	.1878	
283.15	.0345	.1856	
283.15	.0436	.1824	
303.15	0	.4065	
303.15	.00997	.4018	
303.15	.0199	.396	
303.15	.0296	.3913	
303.15	.0398	.3857	
303.15	.0499	.3808	
303.15	.0595	.3752	
313.15	0	.5552	
313.15	.00944	.5485	
313.15	.0178	.543	
313.15	.0254	.5371	
313.15	.034	.5316	
313.15	.043	.5253	
313.15	.053	.5193	
313.15	.0625	.511	

System: ethanol + succinic acid + glutaric acid; phases: Liquid, Crystal
Fixed: Pressure, kPa = 101.3
Property: Mass fraction of succinic acid (Liquid); method: Chromatography
Temperature, K	Mass fraction of glutaric acid	Mass fraction of succinic acid	uncertainty
283.15	.1824	.0436	
283.15	.1649	.0448	
283.15	.1452	.0461	
283.15	.1212	.0479	
283.15	.09298	.0496	
283.15	.06226	.0522	
283.15	.0296	.0548	
283.15	0	.0569	
303.15	.3752	.0595	
303.15	.3283	.0649	
303.15	.2823	.0711	
303.15	.228	.0769	
303.15	.1663	.0852	
303.15	.08946	.0953	
303.15	0	.1084	
313.15	.511	.0625	
313.15	.4605	.0695	
313.15	.4071	.0774	
313.15	.3473	.0864	
313.15	.2838	.0965	
313.15	.2212	.1055	
313.15	.1572	.115	
313.15	.08375	.1266	
313.15	0	.1419	

System: ethanol + succinic acid + glutaric acid; phases: Liquid, Crystal, Crystal
Fixed: Pressure, kPa = 101.3
Property: Mass fraction of glutaric acid (Liquid); method: Chromatography
Temperature, K	Mass fraction of glutaric acid	uncertainty
283.15	.1824	
303.15	.3752	
313.15	.511	

System: ethanol + succinic acid + glutaric acid; phases: Liquid, Crystal, Crystal
Fixed: Pressure, kPa = 101.3
Property: Mass fraction of succinic acid (Liquid); method: Chromatography
Temperature, K	Mass fraction of succinic acid	uncertainty
283.15	.0436	
303.15	.0595	
313.15	.0625	

System: ethanol + succinic acid + glutaric acid; phases: Liquid
Fixed: Pressure, kPa = 101.3
Property: Mass density, kg/m3 (Liquid); method: Vibrating tube method
Temperature, K	Mass fraction of succinic acid	Mass fraction of glutaric acid	Mass density, kg/m3	uncertainty
283.15	0	.1926	967.2	
283.15	.00823	.1906	967.7	
283.15	.0164	.1896	968	
283.15	.0252	.1878	970.3	
283.15	.0345	.1856	973.8	
283.15	.0436	.1824	979.3	
283.15	.0448	.1649	961.6	
283.15	.0461	.1452	946.6	
283.15	.0479	.1212	928.1	
283.15	.0496	.09298	907	
283.15	.0522	.06226	880.8	
283.15	.0548	.0296	855.5	
283.15	.0569	0	836.8	
303.15	0	.4065	999.4	
303.15	.00997	.4018	1000.2	
303.15	.0199	.396	1003.5	
303.15	.0296	.3913	1007.3	
303.15	.0398	.3857	1012	
303.15	.0499	.3808	1017.6	
303.15	.0595	.3752	1026.1	
303.15	.0649	.3283	997.8	
303.15	.0711	.2823	970.4	
303.15	.0769	.228	945.4	
303.15	.0852	.1663	914.5	
303.15	.0953	.08946	880.6	
303.15	.1084	0	843.8	
313.15	0	.5552	1005.4	
313.15	.00944	.5485	1008.1	
313.15	.0178	.543	1011.9	
313.15	.0254	.5371	1016.4	
313.15	.034	.5316	1021.9	
313.15	.043	.5253	1027.1	
313.15	.053	.5193	1032.6	
313.15	.0625	.511	1039	
313.15	.0695	.4605	1015.9	
313.15	.0774	.4071	991.4	
313.15	.0864	.3473	968.4	
313.15	.0965	.2838	947.3	
313.15	.1055	.2212	928.4	
313.15	.115	.1572	908.5	
313.15	.1266	.08375	888.3	
313.15	.1419	0	868.6	
