Measured thermophysical data. Phase equilibrium measurements and thermodynamic modeling of aqueous solutions of polyamines CO2 absorbents: 3-aminopropylmethylamine, 3-aminopropyldimethylamine and N,N-diethyl 1,3-propanediamine at temperatures from 273 K to 363 K
Source: J. Chem. Thermodyn., 2016, 10.1016/j.jct.2015.08.023
Compound 1: N-methyl-1,3-propylenediamine, C4H12N2, purity 98%
Compound 2: 1,3-propanediamine, N,N-dimethyl-, C5H14N2, purity 99%
Compound 3: 1,3-propanediamine, N,N-diethyl-, C7H18N2, purity 99%
Compound 4: water, H2O, purity 99.9%

System: N-methyl-1,3-propylenediamine; phases: Liquid, Gas
Property: Vapor or sublimation pressure, kPa (Liquid); method: Closed cell (Static) method
Temperature, K	Vapor or sublimation pressure, kPa	uncertainty
273	.089	.003
283.37	.205	.003
293.47	.431	.003
303.11	.861	.001
313.18	1.607	.0003
323.26	2.83	.0003
323.26	2.828	.0003
333.23	4.764	.0003
333.25	4.764	.0003
343.26	7.745	.0003
343.28	7.742	.0003
343.3	7.74	.0003
352.54	11.854	.0003
352.54	11.847	.0003
353.24	12.137	.0003
362.82	18.101	.0003
362.84	18.106	.0003
372.74	26.606	.0003
372.76	26.609	.0003
382.84	38.343	.0003
382.87	38.346	.0003
392.92	53.963	.0003
392.95	53.959	.0003
402.59	73.401	.0003
402.59	73.398	.0003
402.61	73.412	.0003
422.46	129.798	.0003
422.46	129.794	.0003
422.51	129.836	.0003
432.4	169.969	.0003
432.4	170.017	.0003
273.15	.089	.003
283.15	.204	.003
293.15	.4319	.003
303.15	.8539	.001
313.15	1.591	.0003
323.15	2.814	.0003
333.15	4.755	.0003
343.15	7.716	.0003
353.15	12.079	.0003
363.15	18.313	.0003

System: 1,3-propanediamine, N,N-dimethyl-; phases: Liquid, Gas
Property: Vapor or sublimation pressure, kPa (Liquid); method: Closed cell (Static) method
Temperature, K	Vapor or sublimation pressure, kPa	uncertainty
273.04	.183	.003
283.06	.381	.003
293.13	.749	.001
303.16	1.396	.0003
313.21	2.478	.0003
323.27	4.186	.0003
333.32	6.828	.0003
343.37	10.727	.0003
343.37	10.725	.0003
353.41	16.311	.0003
363.44	24.103	.0003
283.15	.3844	.003
293.15	.7536	.001
303.15	1.397	.0003
313.15	2.464	.0003
323.15	4.162	.0003
333.15	6.763	.0003
343.15	10.614	.0003
353.15	16.151	.0003
363.15	23.897	.0003

System: 1,3-propanediamine, N,N-diethyl-; phases: Liquid, Gas
Property: Vapor or sublimation pressure, kPa (Liquid); method: Closed cell (Static) method
Temperature, K	Vapor or sublimation pressure, kPa	uncertainty
263.16	.014	.003
273.05	.034	.003
283.27	.077	.003
283.27	.077	.003
293.22	.163	.003
303.14	.326	.003
303.16	.325	.003
313.16	.616	.001
313.18	.616	.001
323.16	1.112	.001
323.16	1.114	.001
333.18	1.94	.0003
343.21	3.234	.0003
353.19	5.161	.0003
353.19	5.162	.0003
363.25	7.965	.0003
273.15	.0338	.003
283.15	.0768	.003
293.15	.1631	.003
303.15	.3257	.003
313.15	.6164	.001
323.15	1.112	.001
333.15	1.922	.0003
343.15	3.199	.0003
353.15	5.143	.0003
363.15	8.017	.0003

System: N-methyl-1,3-propylenediamine + water; phases: Liquid, Gas
Property: Vapor or sublimation pressure, kPa (Liquid); method: Closed cell (Static) method
Mole fraction of N-methyl-1,3-propylenediamine	Temperature, K	Vapor or sublimation pressure, kPa	uncertainty
.13	273.15	.4324	.003
.27	273.15	.2321	.003
.3898	273.15	.1542	.003
.4995	273.15	.1328	.003
.6298	273.15	.1196	.003
.7597	273.15	.1099	.003
.889	273.15	.1043	.003
1	273.15	.089	.003
.13	283.15	.8987	.001
.27	283.15	.5088	.003
.3898	283.15	.3511	.003
.4995	283.15	.3024	.003
.6298	283.15	.2703	.003
.7597	283.15	.2473	.003
.889	283.15	.2316	.003
1	283.15	.204	.003
.13	293.15	1.76	.0003
.27	293.15	1.046	.001
.3898	293.15	.7468	.001
.4995	293.15	.6437	.001
.6298	293.15	.5723	.003
.7597	293.15	.5212	.003
.889	293.15	.4817	.003
1	293.15	.4319	.003
.13	303.15	3.27	.0003
.27	303.15	2.033	.0003
.3898	303.15	1.496	.0003
.4995	303.15	1.292	.001
.6298	303.15	1.144	.001
.7597	303.15	1.037	.001
.889	303.15	.9464	.001
1	303.15	.8539	.001
.13	313.15	5.8	.0003
.27	313.15	3.758	.0003
.3898	313.15	2.841	.0003
.4995	313.15	2.458	.0003
.6298	313.15	2.173	.0003
.7597	313.15	1.959	.0003
.889	313.15	1.767	.0003
1	313.15	1.591	.0003
.13	323.15	9.866	.0003
.27	323.15	6.643	.0003
.3898	323.15	5.147	.0003
.4995	323.15	4.466	.0003
.6298	323.15	3.941	.0003
.7597	323.15	3.535	.0003
.889	323.15	3.154	.0003
1	323.15	2.814	.0003
.13	333.15	16.171	.0003
.27	333.15	11.282	.0003
.3898	333.15	8.94	.0003
.4995	333.15	7.779	.0003
.6298	333.15	6.863	.0003
.7597	333.15	6.123	.0003
.889	333.15	5.404	.0003
1	333.15	4.755	.0003
.13	343.15	25.633	.0003
.27	343.15	18.486	.0003
.3898	343.15	14.951	.0003
.4995	343.15	13.05	.0003
.6298	343.15	11.518	.0003
.7597	343.15	10.222	.0003
.889	343.15	8.929	.0003
1	343.15	7.716	.0003
.13	353.15	39.425	.0003
.27	353.15	29.325	.0003
.3898	353.15	24.165	.0003
.4995	353.15	21.162	.0003
.6298	353.15	18.695	.0003
.7597	353.15	16.505	.0003
.889	353.15	14.278	.0003
1	353.15	12.079	.0003
.13	363.15	59.006	.0003
.27	363.15	45.177	.0003
.3898	363.15	37.873	.0003
.4995	363.15	33.28	.0003
.6298	363.15	29.44	.0003
.7597	363.15	25.858	.0003
.889	363.15	22.162	.0003
1	363.15	18.313	.0003

System: 1,3-propanediamine, N,N-dimethyl- + water; phases: Liquid, Gas
Property: Vapor or sublimation pressure, kPa (Liquid); method: Closed cell (Static) method
Mole fraction of 1,3-propanediamine, N,N-dimethyl-	Temperature, K	Vapor or sublimation pressure, kPa	uncertainty
.1299	283.15	.9041	.001
.2698	283.15	.6301	.001
.4996	283.15	.493	.003
.6292	283.15	.4624	.003
.7598	283.15	.4367	.003
.8897	283.15	.4172	.003
1	283.15	.3844	.003
.1299	293.15	1.772	.0003
.2698	293.15	1.286	.001
.4996	293.15	1.026	.001
.6292	293.15	.9555	.001
.7598	293.15	.8909	.001
.8897	293.15	.8355	.001
1	293.15	.7536	.001
.1299	303.15	3.303	.0003
.2698	303.15	2.485	.0003
.4996	303.15	2.013	.0003
.6292	303.15	1.865	.0003
.7598	303.15	1.718	.0003
.8897	303.15	1.583	.0003
1	303.15	1.397	.0003
.1299	313.15	5.883	.0003
.2698	313.15	4.572	.0003
.4996	313.15	3.752	.0003
.6292	313.15	3.458	.0003
.7598	313.15	3.153	.0003
.8897	313.15	2.855	.0003
1	313.15	2.464	.0003
.1299	323.15	10.064	.0003
.2698	323.15	8.054	.0003
.4996	323.15	6.682	.0003
.6292	323.15	6.13	.0003
.7598	323.15	5.534	.0003
.8897	323.15	4.929	.0003
1	323.15	4.162	.0003
.1299	333.15	16.603	.0003
.2698	333.15	13.644	.0003
.4996	333.15	11.423	.0003
.6292	333.15	10.436	.0003
.7598	333.15	9.335	.0003
.8897	333.15	8.186	.0003
1	333.15	6.763	.0003
.1299	343.15	26.507	.0003
.2698	343.15	22.314	.0003
.4996	343.15	18.824	.0003
.6292	343.15	17.132	.0003
.7598	343.15	15.196	.0003
.8897	343.15	13.128	.0003
1	343.15	10.614	.0003
.1299	353.15	41.083	.0003
.2698	353.15	35.353	.0003
.4996	353.15	30.011	.0003
.6292	353.15	27.219	.0003
.7598	353.15	23.957	.0003
.8897	353.15	20.402	.0003
1	353.15	16.151	.0003
.1299	363.15	61.985	.0003
.2698	363.15	54.423	.0003
.4996	363.15	46.438	.0003
.6292	363.15	41.987	.0003
.7598	363.15	36.686	.0003
.8897	363.15	30.819	.0003
1	363.15	23.897	.0003

System: 1,3-propanediamine, N,N-diethyl- + water; phases: Liquid, Gas
Property: Vapor or sublimation pressure, kPa (Liquid); method: Closed cell (Static) method
Mole fraction of 1,3-propanediamine, N,N-diethyl-	Temperature, K	Vapor or sublimation pressure, kPa	uncertainty
.13	273.15	.4907	.003
.2701	273.15	.3425	.003
.3896	273.15	.2557	.003
.4989	273.15	.2118	.003
.63	273.15	.1651	.003
.76	273.15	.1256	.003
.8897	273.15	.0827	.003
1	273.15	.0338	.003
.13	283.15	1.019	.001
.2701	283.15	.7445	.001
.3896	283.15	.5741	.003
.4989	283.15	.4818	.003
.63	283.15	.382	.003
.76	283.15	.2915	.003
.8897	283.15	.1921	.003
1	283.15	.0768	.003
.13	293.15	1.995	.0003
.2701	293.15	1.518	.0003
.3896	293.15	1.204	.001
.4989	293.15	1.022	.001
.63	293.15	.8218	.001
.76	293.15	.6292	.001
.8897	293.15	.4143	.003
1	293.15	.1631	.003
.13	303.15	3.708	.0003
.2701	303.15	2.926	.0003
.3896	303.15	2.377	.0003
.4989	303.15	2.04	.0003
.63	303.15	1.659	.0003
.76	303.15	1.274	.001
.8897	303.15	.8375	.001
1	303.15	.3257	.003
.13	313.15	6.583	.0003
.2701	313.15	5.364	.0003
.3896	313.15	4.45	.0003
.4989	313.15	3.858	.0003
.63	313.15	3.165	.0003
.76	313.15	2.439	.0003
.8897	313.15	1.599	.0003
1	313.15	.6164	.001
.13	323.15	11.213	.0003
.2701	323.15	9.408	.0003
.3896	323.15	7.947	.0003
.4989	323.15	6.954	.0003
.63	323.15	5.745	.0003
.76	323.15	4.442	.0003
.8897	323.15	2.903	.0003
1	323.15	1.112	.001
.13	333.15	18.41	.0003
.2701	333.15	15.858	.0003
.3896	333.15	13.609	.0003
.4989	333.15	12.011	.0003
.63	333.15	9.979	.0003
.76	333.15	7.742	.0003
.8897	333.15	5.04	.0003
1	333.15	1.922	.0003
.13	343.15	29.238	.0003
.2701	343.15	25.793	.0003
.3896	343.15	22.447	.0003
.4989	343.15	19.967	.0003
.63	343.15	16.663	.0003
.76	343.15	12.969	.0003
.8897	343.15	8.407	.0003
1	343.15	3.199	.0003
.13	353.15	45.066	.0003
.2701	353.15	40.626	.0003
.3896	353.15	35.793	.0003
.4989	353.15	32.073	.0003
.63	353.15	26.857	.0003
.76	353.15	20.969	.0003
.8897	353.15	13.533	.0003
1	353.15	5.143	.0003
.13	363.15	67.601	.0003
.2701	363.15	62.159	.0003
.3896	363.15	55.362	.0003
.4989	363.15	49.946	.0003
.63	363.15	41.93	.0003
.76	363.15	32.841	.0003
.8897	363.15	21.097	.0003
1	363.15	8.017	.0003
