Measured thermophysical data. Activity coefficients at infinite dilution and physicochemical properties  for organic solutes and water in the ionic liquid 1-(2-methoxyethyl)-  1-methylpyrrolidinium trifluorotris(perfluoroethyl)phosphate
Source: J. Chem. Thermodyn., 2013, 10.1016/j.jct.2013.01.007
Compound 1: pentane, C5H12, purity 99%
Compound 2: hexane, C6H14, purity 99%
Compound 3: 3-methylpentane, C6H14, purity 99%
Compound 4: 2,2-dimethylbutane, C6H14, purity 99%
Compound 5: heptane, C7H16, purity 99.5%
Compound 6: octane, C8H18, purity 99%
Compound 7: 2,2,4-trimethylpentane, C8H18, purity 99%
Compound 8: nonane, C9H20, purity 99%
Compound 9: decane, C10H22, purity 99%
Compound 10: cyclopentane, C5H10, purity 99%
Compound 11: cyclohexane, C6H12, purity 99%
Compound 12: methylcyclohexane, C7H14, purity 99%
Compound 13: cycloheptane, C7H14, purity 98%
Compound 14: cyclooctane, C8H16, purity 99%
Compound 15: 1-pentene, C5H10, purity 98.5%
Compound 16: 1-hexene, C6H12, purity 99%
Compound 17: cyclohexene, C6H10, purity 99%
Compound 18: 1-heptene, C7H14, purity 99%
Compound 19: 1-octene, C8H16, purity 98%
Compound 20: 1-decene, C10H20, purity 97%
Compound 21: 1-pentyne, C5H8, purity 99%
Compound 22: 1-hexyne, C6H10, purity 97%
Compound 23: 1-heptyne, C7H12, purity 98%
Compound 24: 1-octyne, C8H14, purity 97%
Compound 25: benzene, C6H6, purity 99.8%
Compound 26: toluene, C7H8, purity 99.8%
Compound 27: ethylbenzene, C8H10, purity 99.8%
Compound 28: o-xylene, C8H10, purity 99%
Compound 29: m-xylene, C8H10, purity 99%
Compound 30: p-xylene, C8H10, purity 99%
Compound 31: styrene, C8H8, purity 99.9%
Compound 32: isopropenylbenzene, C9H10, purity 99%
Compound 33: thiophene, C4H4S, purity 99%
Compound 34: pyridine, C5H5N, purity 99.8%
Compound 35: methanol, CH4O, purity 99.9%
Compound 36: ethanol, C2H6O, purity 99.8%
Compound 37: propan-1-ol, C3H8O, purity 99.9%
Compound 38: propan-2-ol, C3H8O, purity 99.9%
Compound 39: butan-1-ol, C4H10O, purity 99.8%
Compound 40: butan-2-ol, C4H10O, purity 99.5%
Compound 41: isobutanol, C4H10O, purity 99.5%
Compound 42: tert-butanol, C4H10O, purity 99.7%
Compound 43: water, H2O, purity 99.8%
Compound 44: methyl acetate, C3H6O2, purity 99.8%
Compound 45: methyl propanoate, C4H8O2, purity 99%
Compound 46: methyl butanoate, C5H10O2, purity 99%
Compound 47: ethyl acetate, C4H8O2, purity 99.8%
Compound 48: tetrahydrofuran, C4H8O, purity 99.9%
Compound 49: 1,4-dioxane, C4H8O2, purity 99.8%
Compound 50: tert-butyl methyl ether, C5H12O, purity 99.8%
Compound 51: tert-butyl ethyl ether, C6H14O, purity 99%
Compound 52: diethyl ether, C4H10O, purity 99.9%
Compound 53: dipropyl ether, C6H14O, purity 99%
Compound 54: dibutyl ether, C8H18O, purity 99.3%
Compound 55: acetone, C3H6O, purity 99.9%
Compound 56: 2-pentanone, C5H10O, purity 99%
Compound 57: 3-pentanone, C5H10O, purity 99%
Compound 58: butanal, C4H8O, purity 99%
Compound 59: acetonitrile, C2H3N, purity 99.9%
Compound 60: 1-nitropropane, C3H7NO2, purity 98.5%
Compound 61: 1-(2-methoxyethyl)-1-methylpyrrolidinium trifluorotris(perfluoroethyl)phosphate(V), C14H18F18NOP, purity 99.5%
Compound 62: diisopropyl ether, C6H14O, purity 99%

System: pentane + 1-(2-methoxyethyl)-1-methylpyrrolidinium trifluorotris(perfluoroethyl)phosphate(V); phases: Liquid
Fixed: Pressure, kPa = 101
Fixed: Mole fraction of pentane = 0
Property: Activity coefficient of pentane (Liquid); method: Chromatography
Temperature, K	Activity coefficient of pentane	uncertainty
318.15	7.59	.2277
328.15	7.39	.2217
338.15	7.21	.2163
348.15	7.02	.2106
358.15	6.87	.2061
368.15	6.74	.2022

System: hexane + 1-(2-methoxyethyl)-1-methylpyrrolidinium trifluorotris(perfluoroethyl)phosphate(V); phases: Liquid
Fixed: Pressure, kPa = 101
Fixed: Mole fraction of hexane = 0
Property: Activity coefficient of hexane (Liquid); method: Chromatography
Temperature, K	Activity coefficient of hexane	uncertainty
318.15	10.8	.324
328.15	10.4	.312
338.15	10	.3
348.15	9.7	.291
358.15	9.39	.2817
368.15	9.09	.2727

System: 3-methylpentane + 1-(2-methoxyethyl)-1-methylpyrrolidinium trifluorotris(perfluoroethyl)phosphate(V); phases: Liquid
Fixed: Pressure, kPa = 101
Fixed: Mole fraction of 3-methylpentane = 0
Property: Activity coefficient of 3-methylpentane (Liquid); method: Chromatography
Temperature, K	Activity coefficient of 3-methylpentane	uncertainty
318.15	9.45	.2835
328.15	9.07	.2721
338.15	8.77	.2631
348.15	8.48	.2544
358.15	8.24	.2472
368.15	8.02	.2406

System: 2,2-dimethylbutane + 1-(2-methoxyethyl)-1-methylpyrrolidinium trifluorotris(perfluoroethyl)phosphate(V); phases: Liquid
Fixed: Pressure, kPa = 101
Fixed: Mole fraction of 2,2-dimethylbutane = 0
Property: Activity coefficient of 2,2-dimethylbutane (Liquid); method: Chromatography
Temperature, K	Activity coefficient of 2,2-dimethylbutane	uncertainty
318.15	8.28	.2484
328.15	8.06	.2418
338.15	7.82	.2346
348.15	7.61	.2283
358.15	7.47	.2241
368.15	7.28	.2184

System: heptane + 1-(2-methoxyethyl)-1-methylpyrrolidinium trifluorotris(perfluoroethyl)phosphate(V); phases: Liquid
Fixed: Pressure, kPa = 101
Fixed: Mole fraction of heptane = 0
Property: Activity coefficient of heptane (Liquid); method: Chromatography
Temperature, K	Activity coefficient of heptane	uncertainty
318.15	15.7	.471
328.15	14.7	.441
338.15	14	.42
348.15	13.3	.399
358.15	12.7	.381
368.15	12.2	.366

System: octane + 1-(2-methoxyethyl)-1-methylpyrrolidinium trifluorotris(perfluoroethyl)phosphate(V); phases: Liquid
Fixed: Pressure, kPa = 101
Fixed: Mole fraction of octane = 0
Property: Activity coefficient of octane (Liquid); method: Chromatography
Temperature, K	Activity coefficient of octane	uncertainty
318.15	22.1	.663
328.15	20.8	.624
338.15	19.6	.588
348.15	18.5	.555
358.15	17.5	.525
368.15	16.7	.501

System: 2,2,4-trimethylpentane + 1-(2-methoxyethyl)-1-methylpyrrolidinium trifluorotris(perfluoroethyl)phosphate(V); phases: Liquid, Gas
Fixed: Mole fraction of 2,2,4-trimethylpentane = 0
Property: Activity coefficient of 2,2,4-trimethylpentane (Liquid); method: Chromatography
Temperature, K	Activity coefficient of 2,2,4-trimethylpentane	uncertainty
318.15	13.9	.417
328.15	13.3	.399
338.15	12.7	.381
348.15	12.3	.369
358.15	11.8	.354
368.15	11.5	.345

System: nonane + 1-(2-methoxyethyl)-1-methylpyrrolidinium trifluorotris(perfluoroethyl)phosphate(V); phases: Liquid
Fixed: Pressure, kPa = 101
Fixed: Mole fraction of nonane = 0
Property: Activity coefficient of nonane (Liquid); method: Chromatography
Temperature, K	Activity coefficient of nonane	uncertainty
318.15	31.6	.948
328.15	29.3	.879
338.15	27.2	.816
348.15	25.4	.762
358.15	23.8	.714
368.15	22.4	.672

System: decane + 1-(2-methoxyethyl)-1-methylpyrrolidinium trifluorotris(perfluoroethyl)phosphate(V); phases: Liquid
Fixed: Pressure, kPa = 101
Fixed: Mole fraction of decane = 0
Property: Activity coefficient of decane (Liquid); method: Chromatography
Temperature, K	Activity coefficient of decane	uncertainty
318.15	45.1	1.353
328.15	41.2	1.236
338.15	37.9	1.137
348.15	35.2	1.056
358.15	32.6	.978
368.15	30.6	.918

System: cyclopentane + 1-(2-methoxyethyl)-1-methylpyrrolidinium trifluorotris(perfluoroethyl)phosphate(V); phases: Liquid
Fixed: Pressure, kPa = 101
Fixed: Mole fraction of cyclopentane = 0
Property: Activity coefficient of cyclopentane (Liquid); method: Chromatography
Temperature, K	Activity coefficient of cyclopentane	uncertainty
318.15	4.99	.1497
328.15	4.83	.1449
338.15	4.68	.1404
348.15	4.54	.1362
358.15	4.44	.1332
368.15	4.33	.1299

System: cyclohexane + 1-(2-methoxyethyl)-1-methylpyrrolidinium trifluorotris(perfluoroethyl)phosphate(V); phases: Liquid
Fixed: Pressure, kPa = 101
Fixed: Mole fraction of cyclohexane = 0
Property: Activity coefficient of cyclohexane (Liquid); method: Chromatography
Temperature, K	Activity coefficient of cyclohexane	uncertainty
318.15	7.32	.2196
328.15	6.99	.2097
338.15	6.73	.2019
348.15	6.46	.1938
358.15	6.25	.1875
368.15	6.03	.1809

System: methylcyclohexane + 1-(2-methoxyethyl)-1-methylpyrrolidinium trifluorotris(perfluoroethyl)phosphate(V); phases: Liquid
Fixed: Pressure, kPa = 101
Fixed: Mole fraction of methylcyclohexane = 0
Property: Activity coefficient of methylcyclohexane (Liquid); method: Chromatography
Temperature, K	Activity coefficient of methylcyclohexane	uncertainty
318.15	9.62	.2886
328.15	9.11	.2733
338.15	8.69	.2607
348.15	8.34	.2502
358.15	7.96	.2388
368.15	7.68	.2304

System: cycloheptane + 1-(2-methoxyethyl)-1-methylpyrrolidinium trifluorotris(perfluoroethyl)phosphate(V); phases: Liquid
Fixed: Pressure, kPa = 101
Fixed: Mole fraction of cycloheptane = 0
Property: Activity coefficient of cycloheptane (Liquid); method: Chromatography
Temperature, K	Activity coefficient of cycloheptane	uncertainty
318.15	10.4	.312
328.15	9.76	.2928
338.15	9.28	.2784
348.15	8.82	.2646
358.15	8.43	.2529
368.15	8.04	.2412

System: cyclooctane + 1-(2-methoxyethyl)-1-methylpyrrolidinium trifluorotris(perfluoroethyl)phosphate(V); phases: Liquid
Fixed: Pressure, kPa = 101
Fixed: Mole fraction of cyclooctane = 0
Property: Activity coefficient of cyclooctane (Liquid); method: Chromatography
Temperature, K	Activity coefficient of cyclooctane	uncertainty
318.15	14.2	.426
328.15	13.3	.399
338.15	12.4	.372
348.15	11.8	.354
358.15	11.1	.333
368.15	10.5	.315

System: 1-pentene + 1-(2-methoxyethyl)-1-methylpyrrolidinium trifluorotris(perfluoroethyl)phosphate(V); phases: Liquid
Fixed: Pressure, kPa = 101
Fixed: Mole fraction of 1-pentene = 0
Property: Activity coefficient of 1-pentene (Liquid); method: Chromatography
Temperature, K	Activity coefficient of 1-pentene	uncertainty
318.15	3.78	.1134
328.15	3.78	.1134
338.15	3.78	.1134
348.15	3.78	.1134
358.15	3.78	.1134
368.15	3.79	.1137

System: 1-hexene + 1-(2-methoxyethyl)-1-methylpyrrolidinium trifluorotris(perfluoroethyl)phosphate(V); phases: Liquid
Fixed: Pressure, kPa = 101
Fixed: Mole fraction of 1-hexene = 0
Property: Activity coefficient of 1-hexene (Liquid); method: Chromatography
Temperature, K	Activity coefficient of 1-hexene	uncertainty
318.15	5.47	.1641
328.15	5.39	.1617
338.15	5.31	.1593
348.15	5.24	.1572
358.15	5.18	.1554
368.15	5.1	.153

System: cyclohexene + 1-(2-methoxyethyl)-1-methylpyrrolidinium trifluorotris(perfluoroethyl)phosphate(V); phases: Liquid
Fixed: Pressure, kPa = 101
Fixed: Mole fraction of cyclohexene = 0
Property: Activity coefficient of cyclohexene (Liquid); method: Chromatography
Temperature, K	Activity coefficient of cyclohexene	uncertainty
318.15	4.16	.1248
328.15	4.09	.1227
338.15	4.02	.1206
348.15	3.97	.1191
358.15	3.91	.1173
368.15	3.87	.1161

System: 1-heptene + 1-(2-methoxyethyl)-1-methylpyrrolidinium trifluorotris(perfluoroethyl)phosphate(V); phases: Liquid
Fixed: Pressure, kPa = 101
Fixed: Mole fraction of 1-heptene = 0
Property: Activity coefficient of 1-heptene (Liquid); method: Chromatography
Temperature, K	Activity coefficient of 1-heptene	uncertainty
318.15	7.75	.2325
328.15	7.6	.228
338.15	7.45	.2235
348.15	7.32	.2196
358.15	7.19	.2157
368.15	7.1	.213

System: 1-octene + 1-(2-methoxyethyl)-1-methylpyrrolidinium trifluorotris(perfluoroethyl)phosphate(V); phases: Liquid
Fixed: Pressure, kPa = 101
Fixed: Mole fraction of 1-octene = 0
Property: Activity coefficient of 1-octene (Liquid); method: Chromatography
Temperature, K	Activity coefficient of 1-octene	uncertainty
318.15	11.1	.333
328.15	10.8	.324
338.15	10.5	.315
348.15	10.2	.306
358.15	9.85	.2955
368.15	9.63	.2889

System: 1-decene + 1-(2-methoxyethyl)-1-methylpyrrolidinium trifluorotris(perfluoroethyl)phosphate(V); phases: Liquid
Fixed: Pressure, kPa = 101
Fixed: Mole fraction of 1-decene = 0
Property: Activity coefficient of 1-decene (Liquid); method: Chromatography
Temperature, K	Activity coefficient of 1-decene	uncertainty
318.15	21.7	.651
328.15	20.8	.624
338.15	20	.6
348.15	19.2	.576
358.15	18.5	.555
368.15	17.8	.534

System: 1-pentyne + 1-(2-methoxyethyl)-1-methylpyrrolidinium trifluorotris(perfluoroethyl)phosphate(V); phases: Liquid
Fixed: Pressure, kPa = 101
Fixed: Mole fraction of 1-pentyne = 0
Property: Activity coefficient of 1-pentyne (Liquid); method: Chromatography
Temperature, K	Activity coefficient of 1-pentyne	uncertainty
318.15	1.7	.051
328.15	1.75	.0525
338.15	1.8	.054
348.15	1.86	.0558
358.15	1.9	.057
368.15	1.95	.0585

System: 1-hexyne + 1-(2-methoxyethyl)-1-methylpyrrolidinium trifluorotris(perfluoroethyl)phosphate(V); phases: Liquid
Fixed: Pressure, kPa = 101
Fixed: Mole fraction of 1-hexyne = 0
Property: Activity coefficient of 1-hexyne (Liquid); method: Chromatography
Temperature, K	Activity coefficient of 1-hexyne	uncertainty
318.15	2.42	.0726
328.15	2.47	.0741
338.15	2.52	.0756
348.15	2.57	.0771
358.15	2.6	.078
368.15	2.65	.0795

System: 1-heptyne + 1-(2-methoxyethyl)-1-methylpyrrolidinium trifluorotris(perfluoroethyl)phosphate(V); phases: Liquid
Fixed: Pressure, kPa = 101
Fixed: Mole fraction of 1-heptyne = 0
Property: Activity coefficient of 1-heptyne (Liquid); method: Chromatography
Temperature, K	Activity coefficient of 1-heptyne	uncertainty
318.15	3.4	.102
328.15	3.43	.1029
338.15	3.47	.1041
348.15	3.5	.105
358.15	3.53	.1059
368.15	3.56	.1068

System: 1-octyne + 1-(2-methoxyethyl)-1-methylpyrrolidinium trifluorotris(perfluoroethyl)phosphate(V); phases: Liquid
Fixed: Pressure, kPa = 101
Fixed: Mole fraction of 1-octyne = 0
Property: Activity coefficient of 1-octyne (Liquid); method: Chromatography
Temperature, K	Activity coefficient of 1-octyne	uncertainty
318.15	4.78	.1434
328.15	4.78	.1434
338.15	4.78	.1434
348.15	4.78	.1434
358.15	4.79	.1437
368.15	4.79	.1437

System: benzene + 1-(2-methoxyethyl)-1-methylpyrrolidinium trifluorotris(perfluoroethyl)phosphate(V); phases: Liquid
Fixed: Pressure, kPa = 101
Fixed: Mole fraction of benzene = 0
Property: Activity coefficient of benzene (Liquid); method: Chromatography
Temperature, K	Activity coefficient of benzene	uncertainty
318.15	.626	.01878
328.15	.663	.01989
338.15	.701	.02103
348.15	.741	.02223
358.15	.778	.02334
368.15	.817	.02451

System: toluene + 1-(2-methoxyethyl)-1-methylpyrrolidinium trifluorotris(perfluoroethyl)phosphate(V); phases: Liquid
Fixed: Pressure, kPa = 101
Fixed: Mole fraction of toluene = 0
Property: Activity coefficient of toluene (Liquid); method: Chromatography
Temperature, K	Activity coefficient of toluene	uncertainty
318.15	.851	.02553
328.15	.909	.02727
338.15	.955	.02865
348.15	1.01	.0303
358.15	1.06	.0318
368.15	1.11	.0333

System: ethylbenzene + 1-(2-methoxyethyl)-1-methylpyrrolidinium trifluorotris(perfluoroethyl)phosphate(V); phases: Liquid
Fixed: Pressure, kPa = 101
Fixed: Mole fraction of ethylbenzene = 0
Property: Activity coefficient of ethylbenzene (Liquid); method: Chromatography
Temperature, K	Activity coefficient of ethylbenzene	uncertainty
318.15	1.24	.0372
328.15	1.31	.0393
338.15	1.37	.0411
348.15	1.44	.0432
358.15	1.5	.045
368.15	1.57	.0471

System: o-xylene + 1-(2-methoxyethyl)-1-methylpyrrolidinium trifluorotris(perfluoroethyl)phosphate(V); phases: Liquid
Fixed: Pressure, kPa = 101
Fixed: Mole fraction of o-xylene = 0
Property: Activity coefficient of o-xylene (Liquid); method: Chromatography
Temperature, K	Activity coefficient of o-xylene	uncertainty
318.15	1.1	.033
328.15	1.17	.0351
338.15	1.23	.0369
348.15	1.29	.0387
358.15	1.35	.0405
368.15	1.42	.0426

System: m-xylene + 1-(2-methoxyethyl)-1-methylpyrrolidinium trifluorotris(perfluoroethyl)phosphate(V); phases: Liquid
Fixed: Pressure, kPa = 101
Fixed: Mole fraction of m-xylene = 0
Property: Activity coefficient of m-xylene (Liquid); method: Chromatography
Temperature, K	Activity coefficient of m-xylene	uncertainty
318.15	1.16	.0348
328.15	1.23	.0369
338.15	1.29	.0387
348.15	1.37	.0411
358.15	1.44	.0432
368.15	1.51	.0453

System: p-xylene + 1-(2-methoxyethyl)-1-methylpyrrolidinium trifluorotris(perfluoroethyl)phosphate(V); phases: Liquid
Fixed: Pressure, kPa = 101
Fixed: Mole fraction of p-xylene = 0
Property: Activity coefficient of p-xylene (Liquid); method: Chromatography
Temperature, K	Activity coefficient of p-xylene	uncertainty
318.15	1.2	.036
328.15	1.28	.0384
338.15	1.34	.0402
348.15	1.42	.0426
358.15	1.49	.0447
368.15	1.57	.0471

System: styrene + 1-(2-methoxyethyl)-1-methylpyrrolidinium trifluorotris(perfluoroethyl)phosphate(V); phases: Liquid
Fixed: Pressure, kPa = 101
Fixed: Mole fraction of styrene = 0
Property: Activity coefficient of styrene (Liquid); method: Chromatography
Temperature, K	Activity coefficient of styrene	uncertainty
318.15	.806	.02418
328.15	.856	.02568
338.15	.905	.02715
348.15	.962	.02886
358.15	1.02	.0306
368.15	1.07	.0321

System: isopropenylbenzene + 1-(2-methoxyethyl)-1-methylpyrrolidinium trifluorotris(perfluoroethyl)phosphate(V); phases: Liquid
Fixed: Pressure, kPa = 101
Fixed: Mole fraction of isopropenylbenzene = 0
Property: Activity coefficient of isopropenylbenzene (Liquid); method: Chromatography
Temperature, K	Activity coefficient of isopropenylbenzene	uncertainty
318.15	1.18	.0354
328.15	1.26	.0378
338.15	1.36	.0408
348.15	1.45	.0435
358.15	1.54	.0462
368.15	1.61	.0483

System: thiophene + 1-(2-methoxyethyl)-1-methylpyrrolidinium trifluorotris(perfluoroethyl)phosphate(V); phases: Liquid
Fixed: Pressure, kPa = 101
Fixed: Mole fraction of thiophene = 0
Property: Activity coefficient of thiophene (Liquid); method: Chromatography
Temperature, K	Activity coefficient of thiophene	uncertainty
318.15	.651	.01953
328.15	.687	.02061
338.15	.722	.02166
348.15	.76	.0228
358.15	.796	.02388
368.15	.827	.02481

System: pyridine + 1-(2-methoxyethyl)-1-methylpyrrolidinium trifluorotris(perfluoroethyl)phosphate(V); phases: Liquid, Gas
Fixed: Mole fraction of pyridine = 0
Property: Activity coefficient of pyridine (Liquid); method: Chromatography
Temperature, K	Activity coefficient of pyridine	uncertainty
318.15	.427	.01281
328.15	.449	.01347
338.15	.472	.01416
348.15	.498	.01494
358.15	.52	.0156
368.15	.542	.01626

System: methanol + 1-(2-methoxyethyl)-1-methylpyrrolidinium trifluorotris(perfluoroethyl)phosphate(V); phases: Liquid
Fixed: Pressure, kPa = 101
Fixed: Mole fraction of methanol = 0
Property: Activity coefficient of methanol (Liquid); method: Chromatography
Temperature, K	Activity coefficient of methanol	uncertainty
318.15	2.3	.069
328.15	2.11	.0633
338.15	1.95	.0585
348.15	1.83	.0549
358.15	1.7	.051
368.15	1.59	.0477

System: ethanol + 1-(2-methoxyethyl)-1-methylpyrrolidinium trifluorotris(perfluoroethyl)phosphate(V); phases: Liquid
Fixed: Pressure, kPa = 101
Fixed: Mole fraction of ethanol = 0
Property: Activity coefficient of ethanol (Liquid); method: Chromatography
Temperature, K	Activity coefficient of ethanol	uncertainty
318.15	2.63	.0789
328.15	2.4	.072
338.15	2.2	.066
348.15	2.04	.0612
358.15	1.9	.057
368.15	1.77	.0531

System: propan-1-ol + 1-(2-methoxyethyl)-1-methylpyrrolidinium trifluorotris(perfluoroethyl)phosphate(V); phases: Liquid
Fixed: Pressure, kPa = 101
Fixed: Mole fraction of propan-1-ol = 0
Property: Activity coefficient of propan-1-ol (Liquid); method: Chromatography
Temperature, K	Activity coefficient of propan-1-ol	uncertainty
318.15	3.28	.0984
328.15	2.96	.0888
338.15	2.7	.081
348.15	2.49	.0747
358.15	2.3	.069
368.15	2.11	.0633

System: propan-2-ol + 1-(2-methoxyethyl)-1-methylpyrrolidinium trifluorotris(perfluoroethyl)phosphate(V); phases: Liquid
Fixed: Pressure, kPa = 101
Fixed: Mole fraction of propan-2-ol = 0
Property: Activity coefficient of propan-2-ol (Liquid); method: Chromatography
Temperature, K	Activity coefficient of propan-2-ol	uncertainty
318.15	2.64	.0792
328.15	2.41	.0723
338.15	2.19	.0657
348.15	2.04	.0612
358.15	1.89	.0567
368.15	1.76	.0528

System: butan-1-ol + 1-(2-methoxyethyl)-1-methylpyrrolidinium trifluorotris(perfluoroethyl)phosphate(V); phases: Liquid
Fixed: Pressure, kPa = 101
Fixed: Mole fraction of butan-1-ol = 0
Property: Activity coefficient of butan-1-ol (Liquid); method: Chromatography
Temperature, K	Activity coefficient of butan-1-ol	uncertainty
318.15	4.14	.1242
328.15	3.71	.1113
338.15	3.34	.1002
348.15	3.07	.0921
358.15	2.82	.0846
368.15	2.57	.0771

System: butan-2-ol + 1-(2-methoxyethyl)-1-methylpyrrolidinium trifluorotris(perfluoroethyl)phosphate(V); phases: Liquid
Fixed: Pressure, kPa = 101
Fixed: Mole fraction of butan-2-ol = 0
Property: Activity coefficient of butan-2-ol (Liquid); method: Chromatography
Temperature, K	Activity coefficient of butan-2-ol	uncertainty
318.15	3.05	.0915
328.15	2.78	.0834
338.15	2.53	.0759
348.15	2.35	.0705
358.15	2.2	.066
368.15	2.03	.0609

System: isobutanol + 1-(2-methoxyethyl)-1-methylpyrrolidinium trifluorotris(perfluoroethyl)phosphate(V); phases: Liquid
Fixed: Pressure, kPa = 101
Fixed: Mole fraction of isobutanol = 0
Property: Activity coefficient of isobutanol (Liquid); method: Chromatography
Temperature, K	Activity coefficient of isobutanol	uncertainty
318.15	3.88	.1164
328.15	3.47	.1041
338.15	3.12	.0936
348.15	2.83	.0849
358.15	2.59	.0777
368.15	2.39	.0717

System: tert-butanol + 1-(2-methoxyethyl)-1-methylpyrrolidinium trifluorotris(perfluoroethyl)phosphate(V); phases: Liquid
Fixed: Pressure, kPa = 101
Fixed: Mole fraction of tert-butanol = 0
Property: Activity coefficient of tert-butanol (Liquid); method: Chromatography
Temperature, K	Activity coefficient of tert-butanol	uncertainty
318.15	2.25	.0675
328.15	2.09	.0627
338.15	1.95	.0585
348.15	1.84	.0552
358.15	1.74	.0522
368.15	1.65	.0495

System: water + 1-(2-methoxyethyl)-1-methylpyrrolidinium trifluorotris(perfluoroethyl)phosphate(V); phases: Liquid
Fixed: Pressure, kPa = 101
Fixed: Mole fraction of water = 0
Property: Activity coefficient of water (Liquid); method: Chromatography
Temperature, K	Activity coefficient of water	uncertainty
318.15	8.06	.2418
328.15	6.86	.2058
338.15	5.87	.1761
348.15	5.1	.153
358.15	4.49	.1347
368.15	3.94	.1182

System: methyl acetate + 1-(2-methoxyethyl)-1-methylpyrrolidinium trifluorotris(perfluoroethyl)phosphate(V); phases: Liquid
Fixed: Pressure, kPa = 101
Fixed: Mole fraction of methyl acetate = 0
Property: Activity coefficient of methyl acetate (Liquid); method: Chromatography
Temperature, K	Activity coefficient of methyl acetate	uncertainty
318.15	.364	.01092
328.15	.389	.01167
338.15	.416	.01248
348.15	.444	.01332
358.15	.473	.01419
368.15	.501	.01503

System: methyl propanoate + 1-(2-methoxyethyl)-1-methylpyrrolidinium trifluorotris(perfluoroethyl)phosphate(V); phases: Liquid
Fixed: Pressure, kPa = 101
Fixed: Mole fraction of methyl propanoate = 0
Property: Activity coefficient of methyl propanoate (Liquid); method: Chromatography
Temperature, K	Activity coefficient of methyl propanoate	uncertainty
318.15	.451	.01353
328.15	.484	.01452
338.15	.518	.01554
348.15	.555	.01665
358.15	.591	.01773
368.15	.627	.01881

System: methyl butanoate + 1-(2-methoxyethyl)-1-methylpyrrolidinium trifluorotris(perfluoroethyl)phosphate(V); phases: Liquid
Fixed: Pressure, kPa = 101
Fixed: Mole fraction of methyl butanoate = 0
Property: Activity coefficient of methyl butanoate (Liquid); method: Chromatography
Temperature, K	Activity coefficient of methyl butanoate	uncertainty
318.15	.614	.01842
328.15	.654	.01962
338.15	.699	.02097
348.15	.742	.02226
358.15	.785	.02355
368.15	.828	.02484

System: ethyl acetate + 1-(2-methoxyethyl)-1-methylpyrrolidinium trifluorotris(perfluoroethyl)phosphate(V); phases: Liquid
Fixed: Pressure, kPa = 101
Fixed: Mole fraction of ethyl acetate = 0
Property: Activity coefficient of ethyl acetate (Liquid); method: Chromatography
Temperature, K	Activity coefficient of ethyl acetate	uncertainty
318.15	.46	.0138
328.15	.491	.01473
338.15	.523	.01569
348.15	.558	.01674
358.15	.593	.01779
368.15	.627	.01881

System: tetrahydrofuran + 1-(2-methoxyethyl)-1-methylpyrrolidinium trifluorotris(perfluoroethyl)phosphate(V); phases: Liquid
Fixed: Pressure, kPa = 101
Fixed: Mole fraction of tetrahydrofuran = 0
Property: Activity coefficient of tetrahydrofuran (Liquid); method: Chromatography
Temperature, K	Activity coefficient of tetrahydrofuran	uncertainty
318.15	.474	.01422
328.15	.503	.01509
338.15	.533	.01599
348.15	.563	.01689
358.15	.593	.01779
368.15	.62	.0186

System: 1,4-dioxane + 1-(2-methoxyethyl)-1-methylpyrrolidinium trifluorotris(perfluoroethyl)phosphate(V); phases: Liquid
Fixed: Pressure, kPa = 101
Fixed: Mole fraction of 1,4-dioxane = 0
Property: Activity coefficient of 1,4-dioxane (Liquid); method: Chromatography
Temperature, K	Activity coefficient of 1,4-dioxane	uncertainty
318.15	.389	.01167
328.15	.422	.01266
338.15	.455	.01365
348.15	.49	.0147
358.15	.523	.01569
368.15	.555	.01665

System: tert-butyl methyl ether + 1-(2-methoxyethyl)-1-methylpyrrolidinium trifluorotris(perfluoroethyl)phosphate(V); phases: Liquid
Fixed: Pressure, kPa = 101
Fixed: Mole fraction of tert-butyl methyl ether = 0
Property: Activity coefficient of tert-butyl methyl ether (Liquid); method: Chromatography
Temperature, K	Activity coefficient of tert-butyl methyl ether	uncertainty
318.15	1.33	.0399
328.15	1.39	.0417
338.15	1.46	.0438
348.15	1.52	.0456
358.15	1.58	.0474
368.15	1.64	.0492

System: tert-butyl ethyl ether + 1-(2-methoxyethyl)-1-methylpyrrolidinium trifluorotris(perfluoroethyl)phosphate(V); phases: Liquid
Fixed: Pressure, kPa = 101
Fixed: Mole fraction of tert-butyl ethyl ether = 0
Property: Activity coefficient of tert-butyl ethyl ether (Liquid); method: Chromatography
Temperature, K	Activity coefficient of tert-butyl ethyl ether	uncertainty
318.15	3.03	.0909
328.15	3.08	.0924
338.15	3.14	.0942
348.15	3.19	.0957
358.15	3.23	.0969
368.15	3.28	.0984

System: diethyl ether + 1-(2-methoxyethyl)-1-methylpyrrolidinium trifluorotris(perfluoroethyl)phosphate(V); phases: Liquid
Fixed: Pressure, kPa = 101
Fixed: Mole fraction of diethyl ether = 0
Property: Activity coefficient of diethyl ether (Liquid); method: Chromatography
Temperature, K	Activity coefficient of diethyl ether	uncertainty
318.15	1.38	.0414
328.15	1.42	.0426
338.15	1.48	.0444
348.15	1.53	.0459
358.15	1.58	.0474
368.15	1.62	.0486

System: dipropyl ether + 1-(2-methoxyethyl)-1-methylpyrrolidinium trifluorotris(perfluoroethyl)phosphate(V); phases: Liquid
Fixed: Pressure, kPa = 101
Fixed: Mole fraction of dipropyl ether = 0
Property: Activity coefficient of dipropyl ether (Liquid); method: Chromatography
Temperature, K	Activity coefficient of dipropyl ether	uncertainty
318.15	3.47	.1041
328.15	3.5	.105
338.15	3.53	.1059
348.15	3.56	.1068
358.15	3.59	.1077
368.15	3.61	.1083

System: dibutyl ether + 1-(2-methoxyethyl)-1-methylpyrrolidinium trifluorotris(perfluoroethyl)phosphate(V); phases: Liquid
Fixed: Pressure, kPa = 101
Fixed: Mole fraction of dibutyl ether = 0
Property: Activity coefficient of dibutyl ether (Liquid); method: Chromatography
Temperature, K	Activity coefficient of dibutyl ether	uncertainty
318.15	7.39	.2217
328.15	7.23	.2169
338.15	7.1	.213
348.15	6.96	.2088
358.15	6.87	.2061
368.15	6.76	.2028

System: acetone + 1-(2-methoxyethyl)-1-methylpyrrolidinium trifluorotris(perfluoroethyl)phosphate(V); phases: Liquid
Fixed: Pressure, kPa = 101
Fixed: Mole fraction of acetone = 0
Property: Activity coefficient of acetone (Liquid); method: Chromatography
Temperature, K	Activity coefficient of acetone	uncertainty
318.15	.24	.0072
328.15	.257	.00771
338.15	.276	.00828
348.15	.295	.00885
358.15	.313	.00939
368.15	.332	.00996

System: 2-pentanone + 1-(2-methoxyethyl)-1-methylpyrrolidinium trifluorotris(perfluoroethyl)phosphate(V); phases: Liquid
Fixed: Pressure, kPa = 101
Fixed: Mole fraction of 2-pentanone = 0
Property: Activity coefficient of 2-pentanone (Liquid); method: Chromatography
Temperature, K	Activity coefficient of 2-pentanone	uncertainty
318.15	.392	.01176
328.15	.42	.0126
338.15	.448	.01344
348.15	.478	.01434
358.15	.506	.01518
368.15	.534	.01602

System: 3-pentanone + 1-(2-methoxyethyl)-1-methylpyrrolidinium trifluorotris(perfluoroethyl)phosphate(V); phases: Liquid
Fixed: Pressure, kPa = 101
Fixed: Mole fraction of 3-pentanone = 0
Property: Activity coefficient of 3-pentanone (Liquid); method: Chromatography
Temperature, K	Activity coefficient of 3-pentanone	uncertainty
318.15	.394	.01182
328.15	.425	.01275
338.15	.456	.01368
348.15	.488	.01464
358.15	.519	.01557
368.15	.548	.01644

System: butanal + 1-(2-methoxyethyl)-1-methylpyrrolidinium trifluorotris(perfluoroethyl)phosphate(V); phases: Liquid
Fixed: Pressure, kPa = 101
Fixed: Mole fraction of butanal = 0
Property: Activity coefficient of butanal (Liquid); method: Chromatography
Temperature, K	Activity coefficient of butanal	uncertainty
318.15	.453	.01359
328.15	.48	.0144
338.15	.508	.01524
348.15	.538	.01614
358.15	.564	.01692
368.15	.596	.01788

System: acetonitrile + 1-(2-methoxyethyl)-1-methylpyrrolidinium trifluorotris(perfluoroethyl)phosphate(V); phases: Liquid
Fixed: Pressure, kPa = 101
Fixed: Mole fraction of acetonitrile = 0
Property: Activity coefficient of acetonitrile (Liquid); method: Chromatography
Temperature, K	Activity coefficient of acetonitrile	uncertainty
318.15	.292	.00876
328.15	.306	.00918
338.15	.322	.00966
348.15	.336	.01008
358.15	.352	.01056
368.15	.364	.01092

System: 1-nitropropane + 1-(2-methoxyethyl)-1-methylpyrrolidinium trifluorotris(perfluoroethyl)phosphate(V); phases: Liquid
Fixed: Pressure, kPa = 101
Fixed: Mole fraction of 1-nitropropane = 0
Property: Activity coefficient of 1-nitropropane (Liquid); method: Chromatography
Temperature, K	Activity coefficient of 1-nitropropane	uncertainty
318.15	.5	.015
328.15	.518	.01554
338.15	.538	.01614
348.15	.559	.01677
358.15	.578	.01734
368.15	.597	.01791

System: diisopropyl ether + 1-(2-methoxyethyl)-1-methylpyrrolidinium trifluorotris(perfluoroethyl)phosphate(V); phases: Liquid
Fixed: Pressure, kPa = 101
Fixed: Mole fraction of diisopropyl ether = 0
Property: Activity coefficient of diisopropyl ether (Liquid); method: Chromatography
Temperature, K	Activity coefficient of diisopropyl ether	uncertainty
318.15	3.04	.0912
328.15	3.11	.0933
338.15	3.18	.0954
348.15	3.24	.0972
358.15	3.29	.0987
368.15	3.35	.1005
