Measured thermophysical data. Isothermal (vapor + liquid) equilibria for the binary mixtures of (propylene oxide + ethanol) and (propylene oxide + 1-propanol) at several temperatures
Source: J. Chem. Thermodyn., 2015, 10.1016/j.jct.2015.02.006
Compound 1: propylene oxide, C3H6O, purity 99.5%
Compound 2: ethanol, C2H6O, purity 99.5%
Compound 3: 1-propanol, C3H8O, purity 99.9%
Compound 4: acetone, C3H6O, purity 99.9%
Compound 5: methanol, CH4O, purity 99.9%

System: propylene oxide; phases: Liquid, Gas
Property: Vapor or sublimation pressure, kPa (Liquid); method: Closed cell (Static) method
Temperature, K	Vapor or sublimation pressure, kPa	uncertainty
303.15	86.9	.43
318.15	147.85	.74
333.15	237.88	1.19

System: ethanol; phases: Liquid, Gas
Property: Vapor or sublimation pressure, kPa (Liquid); method: Closed cell (Static) method
Temperature, K	Vapor or sublimation pressure, kPa	uncertainty
303.15	10.42	.17
318.15	23.02	.19
333.15	46.63	.23

System: 1-propanol; phases: Liquid, Gas
Property: Vapor or sublimation pressure, kPa (Liquid); method: Closed cell (Static) method
Temperature, K	Vapor or sublimation pressure, kPa	uncertainty
303.15	3.63	.15
318.15	9.01	.16
333.15	19.93	.18

System: ethanol + propylene oxide; phases: Liquid, Gas
Property: Vapor or sublimation pressure, kPa (Liquid); method: Closed cell (Static) method
Temperature, K	Mole fraction of propylene oxide	Vapor or sublimation pressure, kPa	uncertainty
303.15	0	10.42	.17
303.15	.0323	17.16	.18
303.15	.071	23.32	.19
303.15	.1574	34.97	.21
303.15	.2616	45.72	.23
303.15	.3155	50.22	.25
303.15	.3526	53.22	.27
303.15	.428	58.05	.29
303.15	.4797	61.25	.31
303.15	.5313	64.06	.32
303.15	.6194	68.76	.34
303.15	.7349	73.87	.37
303.15	.8248	77.92	.39
303.15	.9031	81.76	.41
303.15	1	86.9	.43
318.15	0	23.02	.19
318.15	.0323	33.37	.2
318.15	.071	42.96	.23
318.15	.1574	61.42	.31
318.15	.2616	78.65	.39
318.15	.3155	85.64	.43
318.15	.3526	91.2	.46
318.15	.428	98.99	.49
318.15	.4797	104.46	.52
318.15	.5313	109.4	.55
318.15	.6194	117.06	.59
318.15	.7349	126.74	.63
318.15	.8248	133.6	.67
318.15	.9031	139.77	.7
318.15	1	147.85	.74
333.15	0	46.63	.23
333.15	.0323	61.9	.31
333.15	.071	75.77	.38
333.15	.1574	103.03	.52
333.15	.2616	129.82	.65
333.15	.3155	140.73	.7
333.15	.3526	148.92	.74
333.15	.428	161.98	.81
333.15	.4797	170.33	.85
333.15	.5313	178.55	.89
333.15	.6194	190.78	.95
333.15	.7349	205.52	1.03
333.15	.8248	216.18	1.08
333.15	.9031	226.44	1.13
333.15	1	237.88	1.19

System: 1-propanol + propylene oxide; phases: Liquid, Gas
Property: Vapor or sublimation pressure, kPa (Liquid); method: Closed cell (Static) method
Temperature, K	Mole fraction of propylene oxide	Vapor or sublimation pressure, kPa	uncertainty
303.15	0	3.63	.15
303.15	.0668	15.3	.16
303.15	.1127	22.07	.18
303.15	.1677	28.81	.19
303.15	.2415	37.07	.21
303.15	.2837	40.96	.22
303.15	.3495	46.46	.23
303.15	.4463	53.43	.27
303.15	.5139	58.08	.29
303.15	.5966	62.96	.31
303.15	.6949	68.24	.34
303.15	.7692	72.3	.36
303.15	.8212	75.16	.38
303.15	.8845	79.02	.4
303.15	1	86.9	.43
318.15	0	9.01	.16
318.15	.0668	26.89	.18
318.15	.1127	37.39	.21
318.15	.1677	48.3	.24
318.15	.2415	61.65	.31
318.15	.2837	68.16	.34
318.15	.3495	77.64	.39
318.15	.4463	89.69	.45
318.15	.5139	97.44	.49
318.15	.5966	105.73	.53
318.15	.6949	115.64	.58
318.15	.7692	122.89	.61
318.15	.8212	127.74	.64
318.15	.8845	134.86	.67
318.15	1	147.85	.74
333.15	0	19.93	.18
333.15	.0668	45.88	.23
333.15	.1127	61.12	.31
333.15	.1677	77.93	.39
333.15	.2415	98.39	.49
333.15	.2837	108.44	.54
333.15	.3495	123.5	.62
333.15	.4463	142.45	.71
333.15	.5139	155.33	.78
333.15	.5966	169.74	.85
333.15	.6949	186.22	.93
333.15	.7692	198.11	.99
333.15	.8212	206.32	1.03
333.15	.8845	217.5	1.09
333.15	1	237.88	1.19

System: methanol + acetone; phases: Liquid, Gas
Property: Vapor or sublimation pressure, kPa (Liquid); method: Closed cell (Static) method
Temperature, K	Mole fraction of acetone	Vapor or sublimation pressure, kPa	uncertainty
323.15	.0343	59.11	.3
323.15	.1071	65.08	.33
323.15	.2068	70.97	.35
323.15	.3278	76.18	.38
323.15	.396	78.26	.39
323.15	.4962	80.75	.4
323.15	.6637	83.08	.42
323.15	.7346	83.54	.42
323.15	.8788	83.35	.42
