Measured thermophysical data. Study of interactions of D(+)-glucose and D(-)-fructose with trilithium citrate in aqueous medium through volumetric and ultrasonic properties over the temperature range T = (288.15 318.15) K
Source: J. Chem. Thermodyn., 2017, 10.1016/j.jct.2016.11.010
Compound 1: D(+)-glucose, C6H12O6, purity 99%
Compound 2: D-(-)-fructose, C6H12O6, purity 99%
Compound 3: water, H2O
Compound 4: trilithium citrate, C6H5Li3O7, purity 98.5%

System: D(+)-glucose + trilithium citrate + water; phases: Liquid
Fixed: Pressure, kPa = 100
Property: Mass density, kg/m3 (Liquid); method: Vibrating tube method
Temperature, K	Solvent: Molality, mol/kg of trilithium citrate	Molality, mol/kg of D(+)-glucose	Mass density, kg/m3	uncertainty
288.15	.2	0	1027.568	
288.15	.2	.10197	1034.225	
288.15	.2	.19827	1040.343	
288.15	.2	.29984	1046.63	
288.15	.2	.39848	1052.574	
288.15	.2	.49888	1058.462	
288.15	.2	.60163	1064.323	
288.15	.2	.70182	1069.888	
288.15	.2	.7989	1075.138	
288.15	.2	.89649	1080.299	
288.15	.2	.99884	1085.56	
288.15	.2	1.10241	1090.743	
288.15	.2	1.20049	1095.505	
298.15	.2	0	1025.153	
298.15	.2	.10197	1031.738	
298.15	.2	.19827	1037.788	
298.15	.2	.29984	1044.004	
298.15	.2	.39848	1049.877	
298.15	.2	.49888	1055.698	
298.15	.2	.60163	1061.495	
298.15	.2	.70182	1067.003	
298.15	.2	.7989	1072.192	
298.15	.2	.89649	1077.283	
298.15	.2	.99884	1082.471	
298.15	.2	1.10241	1087.591	
298.15	.2	1.20049	1092.293	
308.15	.2	0	1021.936	
308.15	.2	.10197	1028.427	
308.15	.2	.19827	1034.389	
308.15	.2	.29984	1040.512	
308.15	.2	.39848	1046.297	
308.15	.2	.49888	1052.024	
308.15	.2	.60163	1057.732	
308.15	.2	.70182	1063.154	
308.15	.2	.7989	1068.253	
308.15	.2	.89649	1073.245	
308.15	.2	.99884	1078.356	
308.15	.2	1.10241	1083.391	
308.15	.2	1.20049	1088.026	
318.15	.2	0	1017.984	
318.15	.2	.10197	1024.403	
318.15	.2	.19827	1030.303	
318.15	.2	.29984	1036.359	
318.15	.2	.39848	1042.08	
318.15	.2	.49888	1047.759	
318.15	.2	.60163	1053.406	
318.15	.2	.70182	1058.769	
318.15	.2	.7989	1063.821	
318.15	.2	.89649	1068.776	
318.15	.2	.99884	1073.834	
318.15	.2	1.10241	1078.816	
318.15	.2	1.20049	1083.39	
288.15	.4	0	1052.95	
288.15	.4	.10149	1059.39	
288.15	.4	.20337	1065.673	
288.15	.4	.30074	1071.515	
288.15	.4	.40015	1077.32	
288.15	.4	.49877	1082.918	
288.15	.4	.59656	1088.313	
288.15	.4	.696	1093.657	
288.15	.4	.80072	1099.135	
288.15	.4	.9049	1104.451	
288.15	.4	1.00179	1109.237	
288.15	.4	1.09831	1113.879	
288.15	.4	1.20084	1118.674	
298.15	.4	0	1050.229	
298.15	.4	.10149	1056.604	
298.15	.4	.20337	1062.819	
298.15	.4	.30074	1068.599	
298.15	.4	.40015	1074.336	
298.15	.4	.49877	1079.872	
298.15	.4	.59656	1085.212	
298.15	.4	.696	1090.505	
298.15	.4	.80072	1095.922	
298.15	.4	.9049	1101.169	
298.15	.4	1.00179	1105.889	
298.15	.4	1.09831	1110.477	
298.15	.4	1.20084	1115.216	
308.15	.4	0	1046.822	
308.15	.4	.10149	1053.098	
308.15	.4	.20337	1059.217	
308.15	.4	.30074	1064.902	
308.15	.4	.40015	1070.547	
308.15	.4	.49877	1075.987	
308.15	.4	.59656	1081.239	
308.15	.4	.696	1086.443	
308.15	.4	.80072	1091.76	
308.15	.4	.9049	1096.897	
308.15	.4	1.00179	1101.543	
308.15	.4	1.09831	1106.049	
308.15	.4	1.20084	1110.714	
318.15	.4	0	1042.766	
318.15	.4	.10149	1048.964	
318.15	.4	.20337	1055.009	
318.15	.4	.30074	1060.624	
318.15	.4	.40015	1066.199	
318.15	.4	.49877	1071.587	
318.15	.4	.59656	1076.775	
318.15	.4	.696	1081.915	
318.15	.4	.80072	1087.175	
318.15	.4	.9049	1092.268	
318.15	.4	1.00179	1096.858	
318.15	.4	1.09831	1101.31	
318.15	.4	1.20084	1105.906	
288.15	.6	0	1078.48	
288.15	.6	.10007	1084.631	
288.15	.6	.20026	1090.613	
288.15	.6	.29886	1096.334	
288.15	.6	.3996	1102.017	
288.15	.6	.50065	1107.551	
288.15	.6	.60301	1112.99	
288.15	.6	.70185	1118.095	
288.15	.6	.80174	1123.112	
288.15	.6	.90046	1127.949	
288.15	.6	.98872	1132.13	
288.15	.6	1.10142	1137.358	
288.15	.6	1.18717	1141.176	
298.15	.6	0	1075.505	
298.15	.6	.10007	1081.582	
298.15	.6	.20026	1087.489	
298.15	.6	.29886	1093.139	
298.15	.6	.3996	1098.746	
298.15	.6	.50065	1104.208	
298.15	.6	.60301	1109.582	
298.15	.6	.70185	1114.629	
298.15	.6	.80174	1119.58	
298.15	.6	.90046	1124.345	
298.15	.6	.98872	1128.459	
298.15	.6	1.10142	1133.615	
298.15	.6	1.18717	1137.401	
308.15	.6	0	1071.938	
308.15	.6	.10007	1077.931	
308.15	.6	.20026	1083.755	
308.15	.6	.29886	1089.322	
308.15	.6	.3996	1094.848	
308.15	.6	.50065	1100.224	
308.15	.6	.60301	1105.518	
308.15	.6	.70185	1110.489	
308.15	.6	.80174	1115.356	
308.15	.6	.90046	1120.026	
308.15	.6	.98872	1124.084	
308.15	.6	1.10142	1129.157	
308.15	.6	1.18717	1132.873	
318.15	.6	0	1067.779	
318.15	.6	.10007	1073.676	
318.15	.6	.20026	1079.411	
318.15	.6	.29886	1084.889	
318.15	.6	.3996	1090.325	
318.15	.6	.50065	1095.631	
318.15	.6	.60301	1100.841	
318.15	.6	.70185	1105.732	
318.15	.6	.80174	1110.529	
318.15	.6	.90046	1115.144	
318.15	.6	.98872	1119.138	
318.15	.6	1.10142	1124.131	
318.15	.6	1.18717	1127.774	

System: D(+)-glucose + trilithium citrate + water; phases: Liquid
Fixed: Pressure, kPa = 100
Fixed: Frequency, MHz = 3
Property: Speed of sound, m/s (Liquid); method: Sing-around technique in a fixed-path interferometer
Temperature, K	Solvent: Molality, mol/kg of trilithium citrate	Molality, mol/kg of D(+)-glucose	Speed of sound, m/s	uncertainty
288.15	.2	0	1509.41	
288.15	.2	.10197	1517.86	
288.15	.2	.19827	1524.83	
288.15	.2	.29984	1531.09	
288.15	.2	.39848	1537.32	
288.15	.2	.49888	1542.82	
288.15	.2	.60163	1550.63	
288.15	.2	.70182	1556.92	
288.15	.2	.7989	1563.2	
288.15	.2	.89649	1569.34	
288.15	.2	.99884	1574.39	
288.15	.2	1.10241	1582.14	
288.15	.2	1.20049	1588.75	
298.15	.2	0	1536.02	
298.15	.2	.10197	1543.65	
298.15	.2	.19827	1550.26	
298.15	.2	.29984	1555.88	
298.15	.2	.39848	1561.55	
298.15	.2	.49888	1566.53	
298.15	.2	.60163	1573.73	
298.15	.2	.70182	1579.55	
298.15	.2	.7989	1585.31	
298.15	.2	.89649	1590.93	
298.15	.2	.99884	1595.64	
298.15	.2	1.10241	1602.59	
298.15	.2	1.20049	1608.78	
308.15	.2	0	1556.23	
308.15	.2	.10197	1563.49	
308.15	.2	.19827	1569.82	
308.15	.2	.29984	1574.89	
308.15	.2	.39848	1580.14	
308.15	.2	.49888	1584.74	
308.15	.2	.60163	1591.33	
308.15	.2	.70182	1596.73	
308.15	.2	.7989	1602.05	
308.15	.2	.89649	1607.22	
308.15	.2	.99884	1611.53	
308.15	.2	1.10241	1617.93	
308.15	.2	1.20049	1623.81	
318.15	.2	0	1570.5	
318.15	.2	.10197	1577.14	
318.15	.2	.19827	1583.34	
318.15	.2	.29984	1589.66	
318.15	.2	.39848	1595.83	
318.15	.2	.49888	1600.37	
318.15	.2	.60163	1606	
318.15	.2	.70182	1611.15	
318.15	.2	.7989	1616.2	
318.15	.2	.89649	1620.93	
318.15	.2	.99884	1625.58	
318.15	.2	1.10241	1631.09	
318.15	.2	1.20049	1636.88	
288.15	.4	0	1548.56	
288.15	.4	.10197	1555.95	
288.15	.4	.19827	1563.45	
288.15	.4	.29984	1568.51	
288.15	.4	.39848	1575.93	
288.15	.4	.49888	1581.3	
288.15	.4	.60163	1589.51	
288.15	.4	.70182	1595.06	
288.15	.4	.7989	1601.74	
288.15	.4	.89649	1607.98	
288.15	.4	.99884	1614.07	
288.15	.4	1.10241	1620.53	
288.15	.4	1.20049	1626.3	
298.15	.4	0	1572.66	
298.15	.4	.10197	1579.47	
298.15	.4	.19827	1586.57	
298.15	.4	.29984	1590.96	
298.15	.4	.39848	1597.85	
298.15	.4	.49888	1602.7	
298.15	.4	.60163	1610.34	
298.15	.4	.70182	1615.32	
298.15	.4	.7989	1621.48	
298.15	.4	.89649	1627.18	
298.15	.4	.99884	1632.75	
298.15	.4	1.10241	1638.83	
298.15	.4	1.20049	1644.05	
308.15	.4	0	1590.42	
308.15	.4	.10197	1597	
308.15	.4	.19827	1603.76	
308.15	.4	.29984	1607.62	
308.15	.4	.39848	1614.01	
308.15	.4	.49888	1618.52	
308.15	.4	.60163	1625.61	
308.15	.4	.70182	1630.14	
308.15	.4	.7989	1635.8	
308.15	.4	.89649	1641.07	
308.15	.4	.99884	1646.21	
308.15	.4	1.10241	1651.97	
308.15	.4	1.20049	1656.71	
318.15	.4	0	1602.21	
318.15	.4	.10197	1608.58	
318.15	.4	.19827	1614.97	
318.15	.4	.29984	1620.65	
318.15	.4	.39848	1626.21	
318.15	.4	.49888	1631.35	
318.15	.4	.60163	1637.13	
318.15	.4	.70182	1641.36	
318.15	.4	.7989	1647.02	
318.15	.4	.89649	1652.11	
318.15	.4	.99884	1657.15	
318.15	.4	1.10241	1662.37	
318.15	.4	1.20049	1666.84	
288.15	.6	0	1589.23	
288.15	.6	.10149	1595.59	
288.15	.6	.20337	1601.93	
288.15	.6	.30074	1608.18	
288.15	.6	.40015	1614.57	
288.15	.6	.49877	1620.98	
288.15	.6	.59656	1627.48	
288.15	.6	.696	1633.74	
288.15	.6	.80072	1640.08	
288.15	.6	.9049	1646.34	
288.15	.6	1.00179	1651.94	
288.15	.6	1.09831	1659.09	
288.15	.6	1.20084	1664.53	
298.15	.6	0	1610.35	
298.15	.6	.10149	1616.71	
298.15	.6	.20337	1623.05	
298.15	.6	.30074	1629.3	
298.15	.6	.40015	1635.69	
298.15	.6	.49877	1642.1	
298.15	.6	.59656	1648.6	
298.15	.6	.696	1654.86	
298.15	.6	.80072	1661.2	
298.15	.6	.9049	1667.46	
298.15	.6	1.00179	1673.06	
298.15	.6	1.09831	1680.21	
298.15	.6	1.20084	1685.65	
308.15	.6	0	1625.97	
308.15	.6	.10149	1632.33	
308.15	.6	.20337	1638.67	
308.15	.6	.30074	1644.92	
308.15	.6	.40015	1651.31	
308.15	.6	.49877	1657.72	
308.15	.6	.59656	1664.22	
308.15	.6	.696	1670.48	
308.15	.6	.80072	1676.82	
308.15	.6	.9049	1683.08	
308.15	.6	1.00179	1688.68	
308.15	.6	1.09831	1695.83	
308.15	.6	1.20084	1701.27	
318.15	.6	0	1636.08	
318.15	.6	.10149	1642.44	
318.15	.6	.20337	1648.78	
318.15	.6	.30074	1655.03	
318.15	.6	.40015	1661.42	
318.15	.6	.49877	1667.83	
318.15	.6	.59656	1674.33	
318.15	.6	.696	1680.59	
318.15	.6	.80072	1686.93	
318.15	.6	.9049	1693.19	
318.15	.6	1.00179	1698.79	
318.15	.6	1.09831	1705.94	
318.15	.6	1.20084	1711.38	

System: D-(-)-fructose + trilithium citrate + water; phases: Liquid
Fixed: Pressure, kPa = 100
Property: Mass density, kg/m3 (Liquid); method: Vibrating tube method
Temperature, K	Solvent: Molality, mol/kg of trilithium citrate	Molality, mol/kg of D-(-)-fructose	Mass density, kg/m3	uncertainty
288.15	.2	0	1027.568	
288.15	.2	.10011	1034.28	
288.15	.2	.20177	1040.917	
288.15	.2	.29854	1047.069	
288.15	.2	.4022	1053.491	
288.15	.2	.49961	1059.363	
288.15	.2	.59768	1065.118	
288.15	.2	.70243	1071.108	
288.15	.2	.80009	1076.546	
288.15	.2	.90152	1082.063	
288.15	.2	.99902	1087.218	
288.15	.2	1.10115	1092.486	
288.15	.2	1.20109	1097.517	
298.15	.2	0	1025.153	
298.15	.2	.10011	1031.796	
298.15	.2	.20177	1038.362	
298.15	.2	.29854	1044.445	
298.15	.2	.4022	1050.793	
298.15	.2	.49961	1056.594	
298.15	.2	.59768	1062.288	
298.15	.2	.70243	1068.216	
298.15	.2	.80009	1073.608	
298.15	.2	.90152	1079.063	
298.15	.2	.99902	1084.18	
298.15	.2	1.10115	1089.4	
298.15	.2	1.20109	1094.4	
308.15	.2	0	1021.936	
308.15	.2	.10011	1028.505	
308.15	.2	.20177	1034.99	
308.15	.2	.29854	1040.996	
308.15	.2	.4022	1047.262	
308.15	.2	.49961	1052.995	
308.15	.2	.59768	1058.613	
308.15	.2	.70243	1064.457	
308.15	.2	.80009	1069.763	
308.15	.2	.90152	1075.116	
308.15	.2	.99902	1080.121	
308.15	.2	1.10115	1085.23	
308.15	.2	1.20109	1090.116	
318.15	.2	0	1017.984	
318.15	.2	.10011	1024.494	
318.15	.2	.20177	1030.923	
318.15	.2	.29854	1036.876	
318.15	.2	.4022	1043.085	
318.15	.2	.49961	1048.757	
318.15	.2	.59768	1054.321	
318.15	.2	.70243	1060.103	
318.15	.2	.80009	1065.349	
318.15	.2	.90152	1070.649	
318.15	.2	.99902	1075.613	
318.15	.2	1.10115	1080.672	
318.15	.2	1.20109	1085.474	
288.15	.4	0	1052.95	
288.15	.4	.1006	1059.52	
288.15	.4	.20545	1066.179	
288.15	.4	.2993	1071.974	
288.15	.4	.39729	1077.872	
288.15	.4	.49634	1083.673	
288.15	.4	.60358	1089.779	
288.15	.4	.70281	1095.265	
288.15	.4	.80234	1100.628	
288.15	.4	.89865	1105.688	
288.15	.4	1.00103	1110.923	
288.15	.4	1.10406	1116.049	
288.15	.4	1.19899	1120.65	
298.15	.4	0	1050.229	
298.15	.4	.1006	1056.727	
298.15	.4	.20545	1063.308	
298.15	.4	.2993	1069.032	
298.15	.4	.39729	1074.856	
298.15	.4	.49634	1080.581	
298.15	.4	.60358	1086.617	
298.15	.4	.70281	1092.042	
298.15	.4	.80234	1097.355	
298.15	.4	.89865	1102.353	
298.15	.4	1.00103	1107.545	
298.15	.4	1.10406	1112.621	
298.15	.4	1.19899	1117.192	
308.15	.4	0	1046.822	
308.15	.4	.1006	1053.238	
308.15	.4	.20545	1059.73	
308.15	.4	.2993	1065.375	
308.15	.4	.39729	1071.116	
308.15	.4	.49634	1076.766	
308.15	.4	.60358	1082.713	
308.15	.4	.70281	1088.054	
308.15	.4	.80234	1093.274	
308.15	.4	.89865	1098.169	
308.15	.4	1.00103	1103.238	
308.15	.4	1.10406	1108.196	
308.15	.4	1.19899	1112.65	
318.15	.4	0	1042.766	
318.15	.4	.1006	1049.117	
318.15	.4	.20545	1055.545	
318.15	.4	.2993	1061.132	
318.15	.4	.39729	1066.815	
318.15	.4	.49634	1072.397	
318.15	.4	.60358	1078.279	
318.15	.4	.70281	1083.555	
318.15	.4	.80234	1088.709	
318.15	.4	.89865	1093.548	
318.15	.4	1.00103	1098.569	
318.15	.4	1.10406	1103.471	
318.15	.4	1.19899	1107.839	
288.15	.6	0	1078.48	
288.15	.6	.10009	1084.835	
288.15	.6	.19984	1090.992	
288.15	.6	.30224	1097.133	
288.15	.6	.39693	1102.655	
288.15	.6	.49971	1108.484	
288.15	.6	.59822	1113.906	
288.15	.6	.70142	1119.429	
288.15	.6	.80138	1124.632	
288.15	.6	.89873	1129.549	
288.15	.6	.99836	1134.455	
288.15	.6	1.10138	1139.392	
288.15	.6	1.20048	1144.018	
298.15	.6	0	1075.505	
298.15	.6	.10009	1081.791	
298.15	.6	.19984	1087.877	
298.15	.6	.30224	1093.945	
298.15	.6	.39693	1099.398	
298.15	.6	.49971	1105.153	
298.15	.6	.59822	1110.514	
298.15	.6	.70142	1115.978	
298.15	.6	.80138	1121.135	
298.15	.6	.89873	1125.97	
298.15	.6	.99836	1130.836	
298.15	.6	1.10138	1135.726	
298.15	.6	1.20048	1140.265	
308.15	.6	0	1071.938	
308.15	.6	.10009	1078.131	
308.15	.6	.19984	1084.121	
308.15	.6	.30224	1090.09	
308.15	.6	.39693	1095.452	
308.15	.6	.49971	1101.118	
308.15	.6	.59822	1106.386	
308.15	.6	.70142	1111.751	
308.15	.6	.80138	1116.803	
308.15	.6	.89873	1121.585	
308.15	.6	.99836	1126.326	
308.15	.6	1.10138	1131.092	
308.15	.6	1.20048	1135.563	
318.15	.6	0	1067.779	
318.15	.6	.10009	1073.922	
318.15	.6	.19984	1079.865	
318.15	.6	.30224	1085.788	
318.15	.6	.39693	1091.107	
318.15	.6	.49971	1096.716	
318.15	.6	.59822	1101.939	
318.15	.6	.70142	1107.251	
318.15	.6	.80138	1112.25	
318.15	.6	.89873	1116.95	
318.15	.6	.99836	1121.655	
318.15	.6	1.10138	1126.375	
318.15	.6	1.20048	1130.764	

System: D-(-)-fructose + trilithium citrate + water; phases: Liquid
Fixed: Pressure, kPa = 100
Fixed: Frequency, MHz = 3
Property: Speed of sound, m/s (Liquid); method: Sing-around technique in a fixed-path interferometer
Temperature, K	Solvent: Molality, mol/kg of trilithium citrate	Molality, mol/kg of D-(-)-fructose	Speed of sound, m/s	uncertainty
288.15	.2	0	1509.41	
288.15	.2	.10011	1518.35	
288.15	.2	.20177	1525.37	
288.15	.2	.29854	1532.52	
288.15	.2	.4022	1539.22	
288.15	.2	.49961	1546.02	
288.15	.2	.59768	1552.87	
288.15	.2	.70243	1559.8	
288.15	.2	.80009	1566.71	
288.15	.2	.90152	1572.32	
288.15	.2	.99902	1579.9	
288.15	.2	1.10115	1587.05	
288.15	.2	1.20109	1593.14	
298.15	.2	0	1536.02	
298.15	.2	.10011	1544.1	
298.15	.2	.20177	1550.38	
298.15	.2	.29854	1556.91	
298.15	.2	.4022	1562.78	
298.15	.2	.49961	1568.9	
298.15	.2	.59768	1575.09	
298.15	.2	.70243	1581.36	
298.15	.2	.80009	1587.52	
298.15	.2	.90152	1592.61	
298.15	.2	.99902	1599.4	
298.15	.2	1.10115	1605.94	
298.15	.2	1.20109	1611.39	
308.15	.2	0	1556.23	
308.15	.2	.10011	1563.93	
308.15	.2	.20177	1569.54	
308.15	.2	.29854	1575.61	
308.15	.2	.4022	1580.73	
308.15	.2	.49961	1586.32	
308.15	.2	.59768	1591.9	
308.15	.2	.70243	1597.53	
308.15	.2	.80009	1603	
308.15	.2	.90152	1607.76	
308.15	.2	.99902	1613.83	
308.15	.2	1.10115	1619.85	
308.15	.2	1.20109	1624.78	
318.15	.2	0	1570.5	
318.15	.2	.10011	1577.5	
318.15	.2	.20177	1582.58	
318.15	.2	.29854	1588.18	
318.15	.2	.4022	1594.95	
318.15	.2	.49961	1600.63	
318.15	.2	.59768	1606	
318.15	.2	.70243	1611.1	
318.15	.2	.80009	1617.02	
318.15	.2	.90152	1622.23	
318.15	.2	.99902	1627.56	
318.15	.2	1.10115	1633.19	
318.15	.2	1.20109	1637.52	
288.15	.4	0	1548.56	
288.15	.4	.1006	1556.92	
288.15	.4	.20545	1563.16	
288.15	.4	.2993	1570.9	
288.15	.4	.39729	1577.8	
288.15	.4	.49634	1584.82	
288.15	.4	.60358	1590.65	
288.15	.4	.70281	1597.91	
288.15	.4	.80234	1603.1	
288.15	.4	.89865	1610.97	
288.15	.4	1.00103	1617.91	
288.15	.4	1.10406	1624.3	
288.15	.4	1.19899	1630.61	
298.15	.4	0	1572.66	
298.15	.4	.1006	1580.32	
298.15	.4	.20545	1585.88	
298.15	.4	.2993	1592.94	
298.15	.4	.39729	1599.08	
298.15	.4	.49634	1605.41	
298.15	.4	.60358	1610.52	
298.15	.4	.70281	1617.22	
298.15	.4	.80234	1621.86	
298.15	.4	.89865	1628.92	
298.15	.4	1.00103	1635.19	
298.15	.4	1.10406	1640.99	
298.15	.4	1.19899	1646.72	
308.15	.4	0	1590.42	
308.15	.4	.1006	1597.76	
308.15	.4	.20545	1602.81	
308.15	.4	.2993	1609.07	
308.15	.4	.39729	1614.66	
308.15	.4	.49634	1620.52	
308.15	.4	.60358	1625.04	
308.15	.4	.70281	1631.03	
308.15	.4	.80234	1635.25	
308.15	.4	.89865	1641.63	
308.15	.4	1.00103	1647.35	
308.15	.4	1.10406	1652.67	
308.15	.4	1.19899	1657.88	
318.15	.4	0	1602.21	
318.15	.4	.1006	1609.21	
318.15	.4	.20545	1615.93	
318.15	.4	.2993	1621.27	
318.15	.4	.39729	1627.49	
318.15	.4	.49634	1633	
318.15	.4	.60358	1639.12	
318.15	.4	.70281	1644.08	
318.15	.4	.80234	1649.1	
318.15	.4	.89865	1654.06	
318.15	.4	1.00103	1659.42	
318.15	.4	1.10406	1664.29	
318.15	.4	1.19899	1669.23	
288.15	.6	0	1589.23	
288.15	.6	.10009	1596.62	
288.15	.6	.19984	1605.01	
288.15	.6	.30224	1610.77	
288.15	.6	.39693	1618.88	
288.15	.6	.49971	1625.32	
288.15	.6	.59822	1632.42	
288.15	.6	.70142	1638.24	
288.15	.6	.80138	1644.68	
288.15	.6	.89873	1650.95	
288.15	.6	.99836	1658.47	
288.15	.6	1.10138	1665.06	
288.15	.6	1.20048	1670.03	
298.15	.6	0	1610.35	
298.15	.6	.10009	1616.89	
298.15	.6	.19984	1624.53	
298.15	.6	.30224	1629.69	
298.15	.6	.39693	1637.04	
298.15	.6	.49971	1642.9	
298.15	.6	.59822	1649.61	
298.15	.6	.70142	1654.62	
298.15	.6	.80138	1660.49	
298.15	.6	.89873	1666.03	
298.15	.6	.99836	1672.93	
298.15	.6	1.10138	1678.46	
298.15	.6	1.20048	1683.21	
308.15	.6	0	1625.97	
308.15	.6	.10009	1631.97	
308.15	.6	.19984	1638.81	
308.15	.6	.30224	1643.56	
308.15	.6	.39693	1650.2	
308.15	.6	.49971	1655.52	
308.15	.6	.59822	1661.78	
308.15	.6	.70142	1666.11	
308.15	.6	.80138	1671.46	
308.15	.6	.89873	1676.45	
308.15	.6	.99836	1682.83	
308.15	.6	1.10138	1687.61	
308.15	.6	1.20048	1691.97	
318.15	.6	0	1636.08	
318.15	.6	.10009	1641.79	
318.15	.6	.19984	1647.63	
318.15	.6	.30224	1654.25	
318.15	.6	.39693	1660.17	
318.15	.6	.49971	1665.01	
318.15	.6	.59822	1670.82	
318.15	.6	.70142	1676.53	
318.15	.6	.80138	1682.39	
318.15	.6	.89873	1687.23	
318.15	.6	.99836	1692.97	
318.15	.6	1.10138	1698.4	
318.15	.6	1.20048	1702.13	

System: trilithium citrate + water; phases: Liquid
Property: Mass density, kg/m3 (Liquid); method: Vibrating tube method
Temperature, K	Molality, mol/kg of trilithium citrate	Pressure, kPa	Mass density, kg/m3	uncertainty
288.15	.2	100	1027.568	
298.15	.2	100	1025.153	
308.15	.2	100	1021.936	
318.15	.2	100	1017.984	
288.15	.4	100	1052.95	
298.15	.4	100	1050.229	
308.15	.4	100	1046.822	
318.15	.4	100	1042.766	
288.15	.6	100	1078.48	
298.15	.6	100	1075.505	
308.15	.6	100	1071.938	
318.15	.6	100	1067.779	

System: trilithium citrate + water; phases: Liquid
Fixed: Frequency, MHz = 3
Property: Speed of sound, m/s (Liquid); method: Sing-around technique in a fixed-path interferometer
Temperature, K	Molality, mol/kg of trilithium citrate	Pressure, kPa	Speed of sound, m/s	uncertainty
288.15	.2	100	1509.41	
298.15	.2	100	1536.02	
308.15	.2	100	1556.23	
318.15	.2	100	1570.5	
288.15	.4	100	1548.56	
298.15	.4	100	1572.66	
308.15	.4	100	1590.42	
318.15	.4	100	1602.21	
288.15	.6	100	1589.23	
298.15	.6	100	1610.35	
308.15	.6	100	1625.97	
318.15	.6	100	1636.08	
