Measured thermophysical data. Phase equilibrium investigation with ionic liquids and selectivity in separation of 2-phenylethanol from water
Source: J. Chem. Thermodyn., 2016, 10.1016/j.jct.2016.07.025
Compound 1: 4-hexyl-4-methylmorpholinium bis((trifluoromethyl)sulfonyl)amide, C13H24F6N2O5S2
Compound 2: 1-allyl-3-methylimidazolium bis(trifluoromethylsulfonyl)imide, C9H11F6N3O4S2, purity 98.5%
Compound 3: diethylmethylsulfonium bis[(trifluoromethyl)sulfonyl]imide, C7H13F6NO4S3, purity 97%
Compound 4: phenethyl alcohol, C8H10O, purity 99%
Compound 5: water, H2O

System: 4-hexyl-4-methylmorpholinium bis((trifluoromethyl)sulfonyl)amide; phases: Glass, Liquid, Air at 1 atmosphere
Property: Triple point temperature, K (Glass); method: DSC
Triple point temperature, K	uncertainty
211.7	.1

System: 4-hexyl-4-methylmorpholinium bis((trifluoromethyl)sulfonyl)amide; phases: Liquid
Fixed: Pressure, kPa = 101.325
Property: Mass density, kg/m3 (Liquid); method: Vibrating tube method
Temperature, K	Mass density, kg/m3	uncertainty
293.15	1375.6	
298.15	1371.3	
303.15	1367.1	
308.15	1362.8	
313.15	1358.6	
318.15	1354.4	
323.15	1350.2	
328.15	1345.9	
333.15	1341.7	
338.15	1337.6	
343.15	1333.4	
348.15	1329.3	

System: 4-hexyl-4-methylmorpholinium bis((trifluoromethyl)sulfonyl)amide; phases: Liquid
Fixed: Pressure, kPa = 101.325
Property: Viscosity, Pa*s (Liquid); method: Falling or rolling sphere viscometry
Temperature, K	Viscosity, Pa*s	uncertainty
298.15	.501	
303.15	.352	
308.15	.254	
313.15	.188	
318.15	.1419	
323.15	.1094	
328.15	.0859	
333.15	.0691	
338.15	.0562	
343.15	.045	
348.15	.0383	

System: 4-hexyl-4-methylmorpholinium bis((trifluoromethyl)sulfonyl)amide; phases: Liquid, Air at 1 atmosphere
Property: Surface tension liquid-gas, N/m (Liquid); method: Ring tensiometer
Temperature, K	Surface tension liquid-gas, N/m	uncertainty
298.15	.0316	
303.15	.0315	
308.15	.0313	
313.15	.0311	
318.15	.0308	
323.15	.0306	
328.15	.0304	
333.15	.0303	
338.15	.0301	
343.15	.0299	
348.15	.0297	

System: 1-allyl-3-methylimidazolium bis(trifluoromethylsulfonyl)imide; phases: Glass, Liquid, Air at 1 atmosphere
Property: Triple point temperature, K (Glass); method: DSC
Triple point temperature, K	uncertainty
184.1	.1

System: 1-allyl-3-methylimidazolium bis(trifluoromethylsulfonyl)imide; phases: Liquid, Air at 1 atmosphere
Property: Surface tension liquid-gas, N/m (Liquid); method: Ring tensiometer
Temperature, K	Surface tension liquid-gas, N/m	uncertainty
298.15	.0317	
303.15	.0315	
308.15	.0313	
313.15	.031	
318.15	.0307	
323.15	.0305	
328.15	.0303	
333.15	.03	
338.15	.0298	
343.15	.0296	
348.15	.0293	

System: diethylmethylsulfonium bis[(trifluoromethyl)sulfonyl]imide; phases: Crystal 1, Liquid, Air at 1 atmosphere
Property: Normal melting temperature, K (Crystal 1); method: DSC/DTA
Normal melting temperature, K	uncertainty
256.4	.1

System: diethylmethylsulfonium bis[(trifluoromethyl)sulfonyl]imide; phases: Crystal 1, Liquid, Air at 1 atmosphere
Property: Molar enthalpy of transition or fusion, kJ/mol (Crystal 1); method: DSC
Molar enthalpy of transition or fusion, kJ/mol	uncertainty
12.5	.5

System: diethylmethylsulfonium bis[(trifluoromethyl)sulfonyl]imide; phases: Crystal 2, Crystal 1, Air at 1 atmosphere
Property: Molar enthalpy of transition or fusion, kJ/mol (Crystal 2); method: DSC
Molar enthalpy of transition or fusion, kJ/mol	uncertainty
3.3	.5

System: diethylmethylsulfonium bis[(trifluoromethyl)sulfonyl]imide; phases: Crystal 2, Crystal 1, Air at 1 atmosphere
Property: Triple point temperature, K (Crystal 2); method: DSC
Triple point temperature, K	uncertainty
250.1	.1

System: phenethyl alcohol; phases: Liquid
Fixed: Pressure, kPa = 101.325
Property: Mass density, kg/m3 (Liquid); method: Vibrating tube method
Temperature, K	Mass density, kg/m3	uncertainty
293.15	1019	

System: water + 4-hexyl-4-methylmorpholinium bis((trifluoromethyl)sulfonyl)amide; phases: Liquid mixture 1, Liquid mixture 2
Fixed: Pressure, kPa = 101
Property: Liquid-liquid equilibrium temperature, K (Liquid mixture 1); method: Visual observation
Mole fraction of 4-hexyl-4-methylmorpholinium bis((trifluoromethyl)sulfonyl)amide	Liquid-liquid equilibrium temperature, K	uncertainty
.6832	287.2	
.6654	297.8	
.6453	305.2	
.6315	311.4	
.6133	318	
.5917	325.9	
.5694	333.3	
.5353	345.2	
.5032	354.5	
.4892	359.1	
.4688	367.2	

System: water + 4-hexyl-4-methylmorpholinium bis((trifluoromethyl)sulfonyl)amide; phases: Liquid mixture 2, Liquid mixture 1
Fixed: Pressure, kPa = 101
Property: Mole fraction of 4-hexyl-4-methylmorpholinium bis((trifluoromethyl)sulfonyl)amide (Liquid mixture 2); method: Conductivity method
Temperature, K	Mole fraction of 4-hexyl-4-methylmorpholinium bis((trifluoromethyl)sulfonyl)amide	uncertainty
298.2	.00017	
308.2	.0002	
318.2	.00023	
328.2	.00027	
338.2	.0003	

System: water + 4-hexyl-4-methylmorpholinium bis((trifluoromethyl)sulfonyl)amide; phases: Liquid mixture 1, Liquid mixture 2
Fixed: Pressure, kPa = 101
Property: Mole fraction of 4-hexyl-4-methylmorpholinium bis((trifluoromethyl)sulfonyl)amide (Liquid mixture 1); method: Chromatography
Temperature, K	Mole fraction of 4-hexyl-4-methylmorpholinium bis((trifluoromethyl)sulfonyl)amide	uncertainty
308.15	.647	

System: water + 1-allyl-3-methylimidazolium bis(trifluoromethylsulfonyl)imide; phases: Liquid mixture 1, Liquid mixture 2
Fixed: Pressure, kPa = 101
Property: Liquid-liquid equilibrium temperature, K (Liquid mixture 1); method: Visual observation
Mole fraction of 1-allyl-3-methylimidazolium bis(trifluoromethylsulfonyl)imide	Liquid-liquid equilibrium temperature, K	uncertainty
.6935	309.1	
.6613	318	
.6554	319.3	
.6384	324.1	
.6154	329.8	
.5924	334.1	

System: water + 1-allyl-3-methylimidazolium bis(trifluoromethylsulfonyl)imide; phases: Liquid mixture 2, Liquid mixture 1
Fixed: Pressure, kPa = 101
Property: Mole fraction of 1-allyl-3-methylimidazolium bis(trifluoromethylsulfonyl)imide (Liquid mixture 2); method: Conductivity method
Temperature, K	Mole fraction of 1-allyl-3-methylimidazolium bis(trifluoromethylsulfonyl)imide	uncertainty
298.2	.00067	
308.2	.00075	
318.2	.00088	
328.2	.00101	
338.2	.00119	

System: water + 1-allyl-3-methylimidazolium bis(trifluoromethylsulfonyl)imide; phases: Liquid mixture 1, Liquid mixture 2
Fixed: Pressure, kPa = 101
Property: Mole fraction of 1-allyl-3-methylimidazolium bis(trifluoromethylsulfonyl)imide (Liquid mixture 1); method: Chromatography
Temperature, K	Mole fraction of 1-allyl-3-methylimidazolium bis(trifluoromethylsulfonyl)imide	uncertainty
308.15	.696	

System: water + diethylmethylsulfonium bis[(trifluoromethyl)sulfonyl]imide; phases: Liquid mixture 1, Liquid mixture 2
Fixed: Pressure, kPa = 101
Property: Liquid-liquid equilibrium temperature, K (Liquid mixture 1); method: Visual observation
Mole fraction of diethylmethylsulfonium bis[(trifluoromethyl)sulfonyl]imide	Liquid-liquid equilibrium temperature, K	uncertainty
.7052	307.8	
.6965	313.7	
.6884	319.1	
.6762	325.4	
.6601	333	
.6506	339.1	

System: water + diethylmethylsulfonium bis[(trifluoromethyl)sulfonyl]imide; phases: Liquid mixture 2, Liquid mixture 1
Fixed: Pressure, kPa = 101
Property: Mole fraction of diethylmethylsulfonium bis[(trifluoromethyl)sulfonyl]imide (Liquid mixture 2); method: Conductivity method
Temperature, K	Mole fraction of diethylmethylsulfonium bis[(trifluoromethyl)sulfonyl]imide	uncertainty
298.2	.00119	
308.2	.0013	
318.2	.00147	
328.2	.00162	
338.2	.0019	

System: water + diethylmethylsulfonium bis[(trifluoromethyl)sulfonyl]imide; phases: Liquid mixture 1, Liquid mixture 2
Fixed: Pressure, kPa = 101
Property: Mole fraction of diethylmethylsulfonium bis[(trifluoromethyl)sulfonyl]imide (Liquid mixture 1); method: Chromatography
Temperature, K	Mole fraction of diethylmethylsulfonium bis[(trifluoromethyl)sulfonyl]imide	uncertainty
308.15	.706	

System: water + diethylmethylsulfonium bis[(trifluoromethyl)sulfonyl]imide; phases: Liquid mixture 2, Liquid mixture 1
Fixed: Pressure, kPa = 101
Property: Mole fraction of diethylmethylsulfonium bis[(trifluoromethyl)sulfonyl]imide (Liquid mixture 2); method: Chromatography
Temperature, K	Mole fraction of diethylmethylsulfonium bis[(trifluoromethyl)sulfonyl]imide	uncertainty
308.15	.001	

System: phenethyl alcohol + water + 4-hexyl-4-methylmorpholinium bis((trifluoromethyl)sulfonyl)amide; phases: Liquid mixture 1, Liquid mixture 2
Fixed: Temperature, K = 308.15
Fixed: Pressure, kPa = 101
Property: Mole fraction of 4-hexyl-4-methylmorpholinium bis((trifluoromethyl)sulfonyl)amide (Liquid mixture 1); method: Chromatography
Property: Mole fraction of phenethyl alcohol (Liquid mixture 2); method: Chromatography
Property: Mole fraction of 4-hexyl-4-methylmorpholinium bis((trifluoromethyl)sulfonyl)amide (Liquid mixture 2); method: Chromatography
Mole fraction of phenethyl alcohol	Mole fraction of 4-hexyl-4-methylmorpholinium bis((trifluoromethyl)sulfonyl)amide	uncertainty	Mole fraction of phenethyl alcohol	uncertainty	Mole fraction of 4-hexyl-4-methylmorpholinium bis((trifluoromethyl)sulfonyl)amide	uncertainty
0	0	.003	0	.003	.647	.003
.004	0	.003	.553	.003	.017	.003
.004	0	.003	.582	.003	0	.003
0	0	.003	.073	.003	.586	.003
.001	0	.003	.16	.003	.512	.003
.001	0	.003	.195	.003	.476	.003
.002	0	.003	.27	.003	.378	.003
.002	0	.003	.303	.003	.336	.003
.002	0	.003	.348	.003	.29	.003
.003	0	.003	.387	.003	.223	.003
.003	0	.003	.394	.003	.185	.003
.003	0	.003	.447	.003	.139	.003
.003	0	.003	.463	.003	.106	.003
.004	0	.003	.501	.003	.057	.003

System: phenethyl alcohol + water + 1-allyl-3-methylimidazolium bis(trifluoromethylsulfonyl)imide; phases: Liquid mixture 2, Liquid mixture 1
Fixed: Temperature, K = 308.15
Fixed: Pressure, kPa = 101
Property: Mole fraction of 1-allyl-3-methylimidazolium bis(trifluoromethylsulfonyl)imide (Liquid mixture 2); method: Chromatography
Property: Mole fraction of phenethyl alcohol (Liquid mixture 1); method: Chromatography
Property: Mole fraction of 1-allyl-3-methylimidazolium bis(trifluoromethylsulfonyl)imide (Liquid mixture 1); method: Chromatography
Mole fraction of phenethyl alcohol	Mole fraction of 1-allyl-3-methylimidazolium bis(trifluoromethylsulfonyl)imide	uncertainty	Mole fraction of phenethyl alcohol	uncertainty	Mole fraction of 1-allyl-3-methylimidazolium bis(trifluoromethylsulfonyl)imide	uncertainty
0	.696	.003	0	.003	0	.003
.315	.302	.003	.002	.003	0	.003
.367	.248	.003	.002	.003	0	.003
.413	.195	.003	.002	.003	0	.003
.452	.131	.003	.003	.003	0	.003
.51	.055	.003	.003	.003	0	.003
.582	0	.003	.004	.003	0	.003
.068	.594	.003	0	.003	0	.003
.126	.518	.003	.001	.003	0	.003
.183	.458	.003	.001	.003	0	.003
.226	.403	.003	.001	.003	0	.003
.271	.358	.003	.002	.003	0	.003

System: phenethyl alcohol + water + diethylmethylsulfonium bis[(trifluoromethyl)sulfonyl]imide; phases: Liquid mixture 2, Liquid mixture 1
Fixed: Temperature, K = 308.15
Fixed: Pressure, kPa = 101
Property: Mole fraction of diethylmethylsulfonium bis[(trifluoromethyl)sulfonyl]imide (Liquid mixture 2); method: Chromatography
Property: Mole fraction of phenethyl alcohol (Liquid mixture 1); method: Chromatography
Property: Mole fraction of diethylmethylsulfonium bis[(trifluoromethyl)sulfonyl]imide (Liquid mixture 1); method: Chromatography
Mole fraction of phenethyl alcohol	Mole fraction of diethylmethylsulfonium bis[(trifluoromethyl)sulfonyl]imide	uncertainty	Mole fraction of phenethyl alcohol	uncertainty	Mole fraction of diethylmethylsulfonium bis[(trifluoromethyl)sulfonyl]imide	uncertainty
0	.706	.003	0	.003	.001	.003
.139	.516	.003	.002	.003	.001	.003
.195	.444	.003	.002	.003	.001	.003
.26	.373	.003	.002	.003	0	.003
.321	.285	.003	.003	.003	0	.003
.35	.254	.003	.002	.003	0	.003
.374	.229	.003	.003	.003	0	.003
.442	.14	.003	.003	.003	0	.003
.467	.117	.003	.003	.003	0	.003
.555	.031	.003	.004	.003	0	.003
.582	0	.003	.004	.003	0	.003
.036	.653	.003	.001	.003	.001	.003
.058	.629	.003	.001	.003	.001	.003
.104	.565	.003	.002	.003	.001	.003

System: phenethyl alcohol + water; phases: Liquid mixture 2, Liquid mixture 1
Property: Mole fraction of phenethyl alcohol (Liquid mixture 2); method: Chromatography
Temperature, K	Pressure, kPa	Mole fraction of phenethyl alcohol	uncertainty
308.15	101	.582	

System: phenethyl alcohol + water; phases: Liquid mixture 1, Liquid mixture 2
Property: Mole fraction of phenethyl alcohol (Liquid mixture 1); method: Chromatography
Temperature, K	Pressure, kPa	Mole fraction of phenethyl alcohol	uncertainty
308.15	101	.004	
