Measured thermophysical data. Excess thermodynamic functions derived from densities and surface tensions  of (p- or o-xylene + ethylene glycol dimethyl ether) between the temperatures  (298.15 and 308.15) K
Source: J. Chem. Thermodyn., 2009, 10.1016/j.jct.2009.04.001
Compound 1: 1,4-dimethylbenzene, C8H10
Compound 2: 1,2-dimethylbenzene, C8H10
Compound 3: 1,2-dimethoxyethane, C4H10O2

System: 1,4-dimethylbenzene; phases: Liquid
Fixed: Pressure, kPa = 101.325
Property: Mass density, kg/m3 (Liquid); method: Vibrating tube method
Temperature, K	Mass density, kg/m3	uncertainty
298.15	856.95	.05
303.15	852.61	.05
308.15	848.27	.05

System: 1,4-dimethylbenzene; phases: Liquid, Gas
Property: Surface tension liquid-gas, N/m (Liquid); method: Pendant drop shape
Temperature, K	Surface tension liquid-gas, N/m	uncertainty
298.15	.02811	.00005
303.15	.02759	.00005
308.15	.02707	.00005

System: 1,2-dimethylbenzene; phases: Liquid
Fixed: Pressure, kPa = 101.325
Property: Mass density, kg/m3 (Liquid); method: Vibrating tube method
Temperature, K	Mass density, kg/m3	uncertainty
298.15	875.09	.05
303.15	870.86	.05
308.15	866.64	.05

System: 1,2-dimethylbenzene; phases: Liquid, Gas
Property: Surface tension liquid-gas, N/m (Liquid); method: Pendant drop shape
Temperature, K	Surface tension liquid-gas, N/m	uncertainty
298.15	.02986	.00005
303.15	.02918	.00005
308.15	.02861	.00005

System: 1,2-dimethoxyethane; phases: Liquid
Fixed: Pressure, kPa = 101.325
Property: Mass density, kg/m3 (Liquid); method: Vibrating tube method
Temperature, K	Mass density, kg/m3	uncertainty
298.15	861.36	.05
303.15	856.79	.05
308.15	851.24	.05

System: 1,2-dimethoxyethane; phases: Liquid, Gas
Property: Surface tension liquid-gas, N/m (Liquid); method: Pendant drop shape
Temperature, K	Surface tension liquid-gas, N/m	uncertainty
298.15	.02427	.00005
303.15	.02373	.00005
308.15	.02316	.00005

System: 1,2-dimethoxyethane; phases: Liquid
Property: Mass density, kg/m3 (Liquid); method: Vibrating tube method
Temperature, K	Pressure, kPa	Mass density, kg/m3	uncertainty
303.15	101	856.8	.05

System: 1,4-dimethylbenzene + 1,2-dimethoxyethane; phases: Liquid
Fixed: Pressure, kPa = 101
Property: Mass density, kg/m3 (Liquid); method: Vibrating tube method
Temperature, K	Mole fraction of 1,2-dimethoxyethane	Mass density, kg/m3	uncertainty
298.15	0	856.95	.05
298.15	.1002	857.45	.05
298.15	.2004	857.95	.05
298.15	.2996	858.44	.05
298.15	.4001	858.93	.05
298.15	.5009	859.41	.05
298.15	.5997	859.85	.05
298.15	.7018	860.28	.05
298.15	.8005	860.66	.05
298.15	.8998	861.02	.05
298.15	1	861.36	.05
303.15	0	852.61	.05
303.15	.0999	853.1	.05
303.15	.2007	853.58	.05
303.15	.3002	854.06	.05
303.15	.3999	854.52	.05
303.15	.4999	854.97	.05
303.15	.6001	855.4	.05
303.15	.7011	855.81	.05
303.15	.8003	856.19	.05
303.15	.9003	856.52	.05
303.15	1	856.79	.05
308.15	0	848.27	.05
308.15	.0996	848.66	.05
308.15	.1998	849.05	.05
308.15	.2997	849.41	.05
308.15	.4001	849.76	.05
308.15	.4995	850.09	.05
308.15	.6004	850.4	.05
308.15	.6993	850.67	.05
308.15	.7993	850.93	.05
308.15	.8998	851.14	.05
308.15	1	851.24	.05

System: 1,4-dimethylbenzene + 1,2-dimethoxyethane; phases: Liquid
Fixed: Pressure, kPa = 101
Property: Excess molar volume, m3/mol (Liquid); method: Calculated with densities of this investigation
Temperature, K	Mole fraction of 1,2-dimethoxyethane	Excess molar volume, m3/mol	uncertainty
298.15	0	0	
298.15	.1002	-.0000000172	
298.15	.2004	-.0000000321	
298.15	.2996	-.000000044	
298.15	.4001	-.0000000529	
298.15	.5009	-.0000000579	
298.15	.5997	-.0000000571	
298.15	.7018	-.0000000506	
298.15	.8005	-.0000000384	
298.15	.8998	-.0000000215	
298.15	1	0	
303.15	0	0	
303.15	.0999	-.0000000185	
303.15	.2007	-.0000000339	
303.15	.3002	-.0000000469	
303.15	.3999	-.0000000548	
303.15	.4999	-.0000000604	
303.15	.6001	-.00000006	
303.15	.7011	-.0000000545	
303.15	.8003	-.0000000444	
303.15	.9003	-.0000000272	
303.15	1	0	
308.15	0	0	
308.15	.0996	-.0000000197	
308.15	.1998	-.0000000374	
308.15	.2997	-.0000000493	
308.15	.4001	-.0000000579	
308.15	.4995	-.0000000626	
308.15	.6004	-.0000000625	
308.15	.6993	-.0000000566	
308.15	.7993	-.0000000477	
308.15	.8998	-.0000000311	
308.15	1	0	

System: 1,4-dimethylbenzene + 1,2-dimethoxyethane; phases: Liquid, Air at 1 atmosphere
Property: Surface tension liquid-gas, N/m (Liquid); method: Pendant drop shape
Temperature, K	Mole fraction of 1,2-dimethoxyethane	Surface tension liquid-gas, N/m	uncertainty
298.15	0	.02811	.00005
298.15	.1002	.02763	.00005
298.15	.2004	.02717	.00005
298.15	.2996	.02675	.00005
298.15	.4001	.02632	.00005
298.15	.5009	.02591	.00005
298.15	.5997	.02554	.00005
298.15	.7018	.02518	.00005
298.15	.8005	.02487	.00005
298.15	.8998	.02457	.00005
298.15	1	.02427	.00005
303.15	0	.02759	.00005
303.15	.0999	.02712	.00005
303.15	.2007	.02667	.00005
303.15	.3002	.02624	.00005
303.15	.3999	.02582	.00005
303.15	.4999	.02541	.00005
303.15	.6001	.02503	.00005
303.15	.7011	.02468	.00005
303.15	.8003	.02437	.00005
303.15	.9003	.02405	.00005
303.15	1	.02373	.00005
308.15	0	.02707	.00005
308.15	.0996	.02661	.00005
308.15	.1998	.02616	.00005
308.15	.2997	.02573	.00005
308.15	.4001	.0253	.00005
308.15	.4995	.02489	.00005
308.15	.6004	.02451	.00005
308.15	.6993	.02417	.00005
308.15	.7993	.02384	.00005
308.15	.8998	.0235	.00005
308.15	1	.02316	.00005

System: 1,2-dimethylbenzene + 1,2-dimethoxyethane; phases: Liquid
Fixed: Pressure, kPa = 101
Property: Mass density, kg/m3 (Liquid); method: Vibrating tube method
Temperature, K	Mole fraction of 1,2-dimethoxyethane	Mass density, kg/m3	uncertainty
298.15	0	875.09	.05
298.15	.0995	874.01	.05
298.15	.1998	872.89	.05
298.15	.3003	871.73	.05
298.15	.4004	870.51	.05
298.15	.4998	869.24	.05
298.15	.6001	867.86	.05
298.15	.7008	866.37	.05
298.15	.7996	864.86	.05
298.15	.8992	863.22	.05
298.15	.95	862.34	.05
298.15	1	861.36	.05
303.15	0	870.86	.05
303.15	.0996	869.77	.05
303.15	.1997	868.64	.05
303.15	.3007	867.45	.05
303.15	.3997	866.2	.05
303.15	.5001	864.88	.05
303.15	.6012	863.46	.05
303.15	.7009	861.98	.05
303.15	.7988	860.43	.05
303.15	.8998	858.74	.05
303.15	.9498	857.85	.05
303.15	1	856.8	.05
308.15	0	866.64	.05
308.15	.0998	865.45	.05
308.15	.2005	864.2	.05
308.15	.3003	862.9	.05
308.15	.4009	861.51	.05
308.15	.4991	860.07	.05
308.15	.5995	858.53	.05
308.15	.7013	856.88	.05
308.15	.7991	855.2	.05
308.15	.9008	853.35	.05
308.15	.9503	852.39	.05
308.15	1	851.24	.05

System: 1,2-dimethylbenzene + 1,2-dimethoxyethane; phases: Liquid
Fixed: Pressure, kPa = 101
Property: Excess molar volume, m3/mol (Liquid); method: Calculated with densities of this investigation
Temperature, K	Mole fraction of 1,2-dimethoxyethane	Excess molar volume, m3/mol	uncertainty
298.15	0	0	
298.15	.0995	-.0000000161	
298.15	.1998	-.000000032	
298.15	.3003	-.0000000459	
298.15	.4004	-.0000000573	
298.15	.4998	-.0000000657	
298.15	.6001	-.0000000663	
298.15	.7008	-.0000000591	
298.15	.7996	-.0000000505	
298.15	.8992	-.0000000344	
298.15	.95	-.0000000231	
298.15	1	0	
303.15	0	0	
303.15	.0996	-.0000000187	
303.15	.1997	-.000000037	
303.15	.3007	-.0000000532	
303.15	.3997	-.0000000625	
303.15	.5001	-.0000000701	
303.15	.6012	-.0000000711	
303.15	.7009	-.0000000674	
303.15	.7988	-.0000000571	
303.15	.8998	-.0000000414	
303.15	.9498	-.0000000295	
303.15	1	0	
308.15	0	0	
308.15	.0998	-.0000000218	
308.15	.2005	-.0000000418	
308.15	.3003	-.0000000581	
308.15	.4009	-.0000000689	
308.15	.4991	-.0000000737	
308.15	.5995	-.0000000755	
308.15	.7013	-.0000000719	
308.15	.7991	-.0000000625	
308.15	.9008	-.0000000465	
308.15	.9503	-.000000034	
308.15	1	0	

System: 1,2-dimethylbenzene + 1,2-dimethoxyethane; phases: Liquid, Air at 1 atmosphere
Property: Surface tension liquid-gas, N/m (Liquid); method: Pendant drop shape
Temperature, K	Mole fraction of 1,2-dimethoxyethane	Surface tension liquid-gas, N/m	uncertainty
298.15	0	.02986	.00005
298.15	.0995	.02905	.00005
298.15	.1998	.02828	.00005
298.15	.3003	.0276	.00005
298.15	.4004	.02708	.00005
298.15	.4998	.02663	.00005
298.15	.6001	.0262	.00005
298.15	.7008	.02578	.00005
298.15	.7996	.02537	.00005
298.15	.8992	.02496	.00005
298.15	.95	.02464	.00005
298.15	1	.02427	.00005
303.15	0	.02918	.00005
303.15	.0996	.02845	.00005
303.15	.1997	.02773	.00005
303.15	.3007	.02708	.00005
303.15	.3997	.02661	.00005
303.15	.5001	.02619	.00005
303.15	.6012	.02578	.00005
303.15	.7009	.02537	.00005
303.15	.7988	.025	.00005
303.15	.8998	.02453	.00005
303.15	.9498	.02417	.00005
303.15	1	.02373	.00005
308.15	0	.02861	.00005
308.15	.0998	.02792	.00005
308.15	.2005	.02723	.00005
308.15	.3003	.02661	.00005
308.15	.4009	.02617	.00005
308.15	.4991	.02577	.00005
308.15	.5995	.02539	.00005
308.15	.7013	.02499	.00005
308.15	.7991	.02458	.00005
308.15	.9008	.02407	.00005
308.15	.9503	.02366	.00005
308.15	1	.02316	.00005
