Measured thermophysical data. Bubble-point measurement for the binary mixture of propargyl acrylate and propargyl methacrylate in supercritical carbon dioxide
Source: J. Chem. Thermodyn., 2016, 10.1016/j.jct.2015.09.014
Compound 1: carbon dioxide, CO2, purity 99.9%
Compound 2: propargyl acrylate, C6H6O2, purity 98.0%
Compound 3: propargyl methacrylate, C7H8O2, purity 98.0%

System: carbon dioxide + propargyl acrylate; phases: Liquid, Gas
Property: Vapor or sublimation pressure, kPa (Liquid); method: Closed cell (Static) method
Temperature, K	Mole fraction of propargyl acrylate	Vapor or sublimation pressure, kPa	uncertainty
313.2	.069	8440	100
313.2	.073	8410	100
313.2	.109	8210	100
313.2	.164	7640	100
313.2	.196	7450	100
313.2	.211	7320	100
313.2	.28	6980	100
313.2	.33	6620	100
313.2	.345	6510	100
313.2	.496	5560	100
313.2	.606	4780	100
333.2	.069	11410	100
333.2	.073	11350	100
333.2	.109	11080	100
333.2	.164	10560	100
333.2	.196	10160	100
333.2	.211	10010	100
333.2	.28	9310	100
333.2	.33	8900	100
333.2	.345	8830	100
333.2	.496	7110	100
333.2	.606	5930	100
353.2	.069	15040	100
353.2	.073	14930	100
353.2	.109	14520	100
353.2	.164	13610	100
353.2	.196	12990	100
353.2	.211	12800	100
353.2	.28	11550	100
353.2	.33	11070	100
353.2	.345	10860	100
353.2	.496	8650	100
353.2	.606	7140	100
373.2	.109	16790	100
373.2	.164	15640	100
373.2	.196	15070	100
373.2	.211	14970	100
373.2	.28	13680	100
373.2	.33	13020	100
373.2	.345	12740	100
373.2	.496	10050	100
373.2	.606	8350	100
393.2	.164	17070	100
393.2	.196	16860	100
393.2	.211	16700	100
393.2	.28	15620	100
393.2	.33	14660	100
393.2	.345	14310	100
393.2	.496	11330	100
393.2	.606	9540	100

System: carbon dioxide + propargyl acrylate; phases: Gas, Liquid
Property: Vapor or sublimation pressure, kPa (Gas); method: Closed cell (Static) method
Temperature, K	Mole fraction of propargyl acrylate	Vapor or sublimation pressure, kPa	uncertainty
373.2	.069	16970	100
393.2	.069	16550	100
393.2	.073	16700	100

System: carbon dioxide + propargyl acrylate; phases: Liquid, Gas
Property: Critical temperature, K (Liquid); method: Visual observation in an unstirred cell
Mole fraction of propargyl acrylate	Critical temperature, K	uncertainty
.073	373.2	.2
.109	393.2	.2

System: carbon dioxide + propargyl acrylate; phases: Liquid, Gas
Property: Critical pressure, kPa (Liquid); method: Direct measurement
Mole fraction of propargyl acrylate	Critical pressure, kPa	uncertainty
.073	17010	100
.109	17200	100

System: carbon dioxide + propargyl methacrylate; phases: Liquid, Gas
Property: Vapor or sublimation pressure, kPa (Liquid); method: Closed cell (Static) method
Temperature, K	Mole fraction of propargyl methacrylate	Vapor or sublimation pressure, kPa	uncertainty
313.2	.037	8520	100
313.2	.052	8460	100
313.2	.053	8410	100
313.2	.063	8310	100
313.2	.074	8310	100
313.2	.092	8240	100
313.2	.116	8070	100
313.2	.126	7970	100
313.2	.164	7720	100
313.2	.197	7410	100
313.2	.205	7350	100
313.2	.27	7010	100
313.2	.37	6420	100
313.2	.447	5930	100
313.2	.533	5490	100
333.2	.037	11550	100
333.2	.052	11430	100
333.2	.053	11370	100
333.2	.063	11340	100
333.2	.074	11210	100
333.2	.092	11180	100
333.2	.116	10930	100
333.2	.126	10860	100
333.2	.164	10550	100
333.2	.197	10330	100
333.2	.205	10180	100
333.2	.27	9350	100
333.2	.37	8310	100
333.2	.447	7410	100
333.2	.533	6720	100
353.2	.053	14660	100
353.2	.063	14560	100
353.2	.074	14510	100
353.2	.092	14330	100
353.2	.116	14020	100
353.2	.126	13860	100
353.2	.164	13350	100
353.2	.197	12930	100
353.2	.205	12860	100
353.2	.27	11620	100
353.2	.37	10030	100
353.2	.447	8860	100
353.2	.533	7760	100
373.2	.074	17000	100
373.2	.092	16930	100
373.2	.116	16720	100
373.2	.126	16530	100
373.2	.164	15760	100
373.2	.197	15370	100
373.2	.205	15240	100
373.2	.27	13970	100
373.2	.37	11520	100
373.2	.447	10310	100
373.2	.533	8450	100
393.2	.116	19140	100
393.2	.126	18990	100
393.2	.164	18000	100
393.2	.197	17270	100
393.2	.205	17070	100
393.2	.27	15620	100
393.2	.37	13210	100
393.2	.447	11480	100
393.2	.533	9480	100

System: carbon dioxide + propargyl methacrylate; phases: Gas, Liquid
Property: Vapor or sublimation pressure, kPa (Gas); method: Closed cell (Static) method
Temperature, K	Mole fraction of propargyl methacrylate	Vapor or sublimation pressure, kPa	uncertainty
353.2	.037	14550	100
373.2	.037	16240	100
373.2	.052	16810	100
373.2	.053	16820	100
393.2	.037	17800	100
393.2	.052	18320	100
393.2	.053	18350	100
393.2	.063	18660	100
393.2	.074	18860	100

System: carbon dioxide + propargyl methacrylate; phases: Liquid, Gas
Property: Critical temperature, K (Liquid); method: Visual observation in an unstirred cell
Mole fraction of propargyl methacrylate	Critical temperature, K	uncertainty
.052	353.2	.2
.063	373.2	.2
.092	393.2	.2

System: carbon dioxide + propargyl methacrylate; phases: Liquid, Gas
Property: Critical pressure, kPa (Liquid); method: Direct measurement
Mole fraction of propargyl methacrylate	Critical pressure, kPa	uncertainty
.052	14700	100
.063	17040	100
.092	19140	100
