Measured thermophysical data. Thermodynamic and topological investigations of molecular interactions in binary and ternary mixtures containing 1-methyl pyrrolidin-2-one at T = 308.15 K
Source: J. Chem. Thermodyn., 2011, 10.1016/j.jct.2010.12.016
Compound 1: N-methyl-2-pyrrolidone, C5H9NO, purity 98%
Compound 2: benzene, C6H6, purity 98%
Compound 3: toluene, C7H8, purity 98%
Compound 4: cyclohexane, C6H12, purity 98%

System: N-methyl-2-pyrrolidone; phases: Liquid
Fixed: Pressure, kPa = 101.325
Property: Mass density, kg/m3 (Liquid); method: Pycnometric method
Temperature, K	Mass density, kg/m3	uncertainty
298.15	1028.33	.514165
308.15	1019.7	.50985

System: N-methyl-2-pyrrolidone; phases: Liquid
Fixed: Pressure, kPa = 101.325
Property: Speed of sound, m/s (Liquid); method: Linear variable-path acoustic interferometer
Temperature, K	Speed of sound, m/s	uncertainty
298.15	1546	1
308.15	1508	1

System: benzene; phases: Liquid
Fixed: Pressure, kPa = 101.325
Property: Mass density, kg/m3 (Liquid); method: Pycnometric method
Temperature, K	Mass density, kg/m3	uncertainty
298.15	873.63	.436815
308.15	862.99	.431495

System: benzene; phases: Liquid
Fixed: Pressure, kPa = 101.325
Property: Speed of sound, m/s (Liquid); method: Linear variable-path acoustic interferometer
Temperature, K	Speed of sound, m/s	uncertainty
298.15	1298	1
308.15	1259	1

System: toluene; phases: Liquid
Fixed: Pressure, kPa = 101.325
Property: Mass density, kg/m3 (Liquid); method: Pycnometric method
Temperature, K	Mass density, kg/m3	uncertainty
298.15	862.21	.431105
308.15	852.89	.426445

System: toluene; phases: Liquid
Fixed: Pressure, kPa = 101.325
Property: Speed of sound, m/s (Liquid); method: Linear variable-path acoustic interferometer
Temperature, K	Speed of sound, m/s	uncertainty
298.15	1303	1
308.15	1262	1

System: cyclohexane; phases: Liquid
Fixed: Pressure, kPa = 101.325
Property: Mass density, kg/m3 (Liquid); method: Pycnometric method
Temperature, K	Mass density, kg/m3	uncertainty
298.15	773.93	.386965
308.15	764.68	.38234

System: cyclohexane; phases: Liquid
Fixed: Pressure, kPa = 101.325
Property: Speed of sound, m/s (Liquid); method: Linear variable-path acoustic interferometer
Temperature, K	Speed of sound, m/s	uncertainty
298.15	1255	1
308.15	1212	1

System: benzene + toluene + N-methyl-2-pyrrolidone; phases: Liquid
Fixed: Temperature, K = 308.15
Fixed: Pressure, kPa = 101
Property: Excess molar volume, m3/mol (Liquid); method: Direct dilatometry
Mole fraction of N-methyl-2-pyrrolidone	Mole fraction of benzene	Excess molar volume, m3/mol	uncertainty
.065	.612	-.000000096	-.00000000048
.089	.588	-.000000161	-.000000000805
.113	.569	-.000000227	-.000000001135
.1457	.632	-.000000351	-.000000001755
.1764	.401	-.000000337	-.000000001685
.1921	.4749	-.000000412	-.00000000206
.2166	.3992	-.000000431	-.000000002155
.2356	.442	-.000000506	-.00000000253
.2657	.5012	-.000000637	-.000000003185
.2841	.2991	-.000000512	-.00000000256
.3011	.3759	-.000000605	-.000000003025
.3357	.342	-.000000638	-.00000000319
.3612	.3057	-.00000065	-.00000000325
.3811	.2937	-.000000673	-.000000003365
.4011	.2012	-.000000644	-.00000000322
.442	.2356	-.000000703	-.000000003515
.4733	.2876	-.000000799	-.000000003995
.5012	.1771	-.000000724	-.00000000362
.5367	.1412	-.000000745	-.000000003725
.5512	.086	-.000000786	-.00000000393
.5848	.1288	-.000000748	-.00000000374
.61	.093	-.000000765	-.000000003825
.6341	.112	-.000000739	-.000000003695
.6636	.1191	-.000000725	-.000000003625
.6842	.067	-.00000073	-.00000000365
.712	.1011	-.000000688	-.00000000344
.7412	.07	-.000000655	-.000000003275
.7601	.056	-.000000632	-.00000000316

System: benzene + toluene + N-methyl-2-pyrrolidone; phases: Liquid
Fixed: Temperature, K = 308.15
Fixed: Pressure, kPa = 101
Property: Speed of sound, m/s (Liquid); method: Linear variable-path acoustic interferometer
Mole fraction of N-methyl-2-pyrrolidone	Mole fraction of benzene	Speed of sound, m/s	uncertainty
.0742	.6128	1282	1
.0921	.5944	1290	1
.1164	.5762	1301	1
.1231	.5697	1304	1
.1542	.5332	1318	1
.1791	.5121	1329	1
.192	.4997	1334	1
.212	.4851	1343	1
.2349	.446	1353	1
.2562	.4317	1361	1
.2781	.4082	1370	1
.2921	.3941	1376	1
.3125	.354	1383	1
.334	.3621	1391	1
.352	.3357	1397	1
.3789	.2081	1392	1
.3926	.2942	1409	1
.4145	.2771	1415	1
.4396	.2469	1420	1
.4556	.2216	1421	1
.4782	.2374	1431	1
.4961	.1866	1427	1
.5211	.1671	1431	1
.5341	.152	1431	1
.5562	.1307	1433	1
.5929	.0862	1450	1
.6204	.132	1452	1
.6439	.1011	1451	1
.7124	.075	1439	1

System: benzene + cyclohexane + N-methyl-2-pyrrolidone; phases: Liquid
Fixed: Temperature, K = 308.15
Fixed: Pressure, kPa = 101
Property: Excess molar volume, m3/mol (Liquid); method: Direct dilatometry
Mole fraction of N-methyl-2-pyrrolidone	Mole fraction of benzene	Excess molar volume, m3/mol	uncertainty
.1099	.63	.000000172	.00000000086
.1254	.5464	.000000211	.000000001055
.1478	.6021	.000000064	.00000000032
.1789	.588	-.000000033	-.000000000165
.1851	.5699	-.00000003	-.00000000015
.2011	.5513	-.00000006	-.0000000003
.2265	.523	-.000000108	-.00000000054
.2445	.4945	-.000000125	-.000000000625
.2698	.4541	-.00000014	-.0000000007
.289	.431	-.000000158	-.00000000079
.2978	.4215	-.000000167	-.000000000835
.3145	.3891	-.000000153	-.000000000765
.339	.391	-.000000224	-.00000000112
.351	.372	-.000000219	-.000000001095
.3642	.3458	-.000000194	-.00000000097
.3864	.3216	-.000000189	-.000000000945
.4001	.3011	-.000000167	-.000000000835
.4256	.289	-.000000197	-.000000000985
.4401	.2791	-.000000203	-.000000001015
.4511	.26	-.000000165	-.000000000825
.462	.251	-.000000161	-.000000000805
.4716	.2484	-.000000177	-.000000000885
.5225	.225	-.000000213	-.000000001065
.5621	.187	-.000000152	-.00000000076
.5881	.1702	-.000000138	-.00000000069
.6001	.1655	-.000000144	-.00000000072
.6431	.1431	-.000000139	-.000000000695
.6667	.1311	-.000000134	-.00000000067

System: benzene + cyclohexane + N-methyl-2-pyrrolidone; phases: Liquid
Fixed: Temperature, K = 308.15
Fixed: Pressure, kPa = 101
Property: Speed of sound, m/s (Liquid); method: Linear variable-path acoustic interferometer
Mole fraction of N-methyl-2-pyrrolidone	Mole fraction of benzene	Speed of sound, m/s	uncertainty
.0674	.2569	1218	1
.0736	.6264	1241	1
.0833	.2899	1222	1
.1002	.512	1239	1
.1181	.5721	1249	1
.1397	.5617	1255	1
.1572	.5512	1260	1
.1774	.5309	1264	1
.1841	.516	1265	1
.2211	.4621	1272	1
.2541	.4408	1281	1
.2769	.4132	1286	1
.2939	.4011	1290	1
.3142	.3866	1296	1
.3341	.3416	1298	1
.3509	.2907	1300	1
.3711	.3167	1309	1
.4101	.2866	1320	1
.4316	.2684	1327	1
.4517	.2417	1332	1
.4898	.2113	1343	1
.5012	.1977	1346	1
.5222	.1762	1352	1
.5416	.1489	1357	1
.5771	.1321	1368	1
.6547	.1109	1395	1
.6874	.1001	1406	1
.7191	.0771	1415	1

System: toluene + cyclohexane + N-methyl-2-pyrrolidone; phases: Liquid
Fixed: Temperature, K = 308.15
Fixed: Pressure, kPa = 101
Property: Excess molar volume, m3/mol (Liquid); method: Direct dilatometry
Mole fraction of N-methyl-2-pyrrolidone	Mole fraction of toluene	Excess molar volume, m3/mol	uncertainty
.1012	.2011	.000000155	.000000000775
.1129	.4866	.000000011	.000000000055
.1357	.5642	-.000000132	-.00000000066
.1578	.5411	-.000000214	-.00000000107
.1764	.5128	-.000000272	-.00000000136
.2021	.492	-.000000354	-.00000000177
.2314	.4661	-.000000435	-.000000002175
.2461	.4517	-.000000468	-.00000000234
.2591	.4387	-.000000497	-.000000002485
.2881	.3986	-.000000534	-.00000000267
.3041	.3847	-.000000557	-.000000002785
.3326	.4012	-.000000647	-.000000003235
.3767	.3214	-.00000061	-.00000000305
.4067	.2614	-.000000496	-.00000000248
.4249	.2739	-.00000058	-.0000000029
.4416	.21	-.000000357	-.000000001785
.4721	.2271	-.000000496	-.00000000248
.4917	.2064	-.000000441	-.000000002205
.5066	.1903	-.00000039	-.00000000195
.5124	.1844	-.000000369	-.000000001845
.5314	.1674	-.000000316	-.00000000158
.5521	.1488	-.000000253	-.000000001265
.5714	.1361	-.000000216	-.00000000108
.5921	.1405	-.000000281	-.000000001405
.6079	.134	-.000000271	-.000000001355
.6566	.1167	-.000000253	-.000000001265
.6981	.0978	-.000000208	-.00000000104
.7607	.0771	-.000000174	-.00000000087

System: toluene + cyclohexane + N-methyl-2-pyrrolidone; phases: Liquid
Fixed: Temperature, K = 308.15
Fixed: Pressure, kPa = 101
Property: Speed of sound, m/s (Liquid); method: Linear variable-path acoustic interferometer
Mole fraction of N-methyl-2-pyrrolidone	Mole fraction of toluene	Speed of sound, m/s	uncertainty
.1002	.3001	1243	1
.1142	.356	1249	1
.1391	.4511	1257	1
.1546	.5126	1263	1
.1781	.5069	1269	1
.192	.4861	1272	1
.2121	.4409	1277	1
.2231	.4691	1279	1
.2462	.4514	1285	1
.2661	.4312	1291	1
.2838	.4014	1296	1
.3096	.376	1305	1
.3211	.3912	1305	1
.3417	.3421	1317	1
.3691	.3153	1329	1
.381	.2996	1336	1
.4122	.2712	1352	1
.431	.2516	1363	1
.4499	.2309	1376	1
.462	.223	1381	1
.4814	.2024	1395	1
.5061	.1862	1406	1
.5261	.1561	1426	1
.5433	.1944	1401	1
.5626	.1788	1410	1
.5881	.1505	1427	1
.6221	.1456	1419	1
.7154	.1299	1423	1

System: benzene + N-methyl-2-pyrrolidone; phases: Liquid
Fixed: Temperature, K = 308.15
Fixed: Pressure, kPa = 101
Property: Excess molar volume, m3/mol (Liquid); method: Direct dilatometry
Mole fraction of N-methyl-2-pyrrolidone	Excess molar volume, m3/mol	uncertainty
.0647	-.000000146	-.00000000073
.1821	-.000000382	-.00000000191
.2175	-.000000445	-.000000002225
.2866	-.000000559	-.000000002795
.3428	-.000000633	-.000000003165
.4219	-.000000716	-.00000000358
.5141	-.000000773	-.000000003865

System: benzene + N-methyl-2-pyrrolidone; phases: Liquid
Fixed: Temperature, K = 308.15
Fixed: Pressure, kPa = 101
Property: Excess molar enthalpy (molar enthalpy of mixing), kJ/mol (Liquid); method: 2-drop calorimeter
Mole fraction of N-methyl-2-pyrrolidone	Excess molar enthalpy (molar enthalpy of mixing), kJ/mol	uncertainty
.0625	-.1259	-.001259
.1788	-.3044	-.003044
.2356	-.3684	-.003684
.2736	-.4029	-.004029
.3462	-.4526	-.004526
.4362	-.4858	-.004858
.5467	-.4943	-.004943
.5541	-.4923	-.004923
.6243	-.4672	-.004672
.6681	-.4421	-.004421
.7411	-.3841	-.003841
.8163	-.2982	-.002982
.8719	-.2226	-.002226
.9311	-.1293	-.001293

System: toluene + N-methyl-2-pyrrolidone; phases: Liquid
Fixed: Temperature, K = 308.15
Fixed: Pressure, kPa = 101
Property: Excess molar volume, m3/mol (Liquid); method: Direct dilatometry
Mole fraction of N-methyl-2-pyrrolidone	Excess molar volume, m3/mol	uncertainty
.0566	-.000000156	-.00000000078
.1324	-.000000345	-.000000001725
.1843	-.000000461	-.000000002305
.2521	-.000000591	-.000000002955
.341	-.000000725	-.000000003625
.435	-.00000082	-.0000000041
.4876	-.000000852	-.00000000426

System: toluene + N-methyl-2-pyrrolidone; phases: Liquid
Fixed: Temperature, K = 308.15
Fixed: Pressure, kPa = 101
Property: Excess molar enthalpy (molar enthalpy of mixing), kJ/mol (Liquid); method: 2-drop calorimeter
Mole fraction of N-methyl-2-pyrrolidone	Excess molar enthalpy (molar enthalpy of mixing), kJ/mol	uncertainty
.0891	-.0804	-.000804
.1621	-.1421	-.001421
.2231	-.1889	-.001889
.2862	-.234	-.00234
.3211	-.253	-.00253
.3844	-.2797	-.002797
.441	-.2939	-.002939
.4821	-.2985	-.002985
.5411	-.2972	-.002972
.6274	-.2751	-.002751
.6929	-.2451	-.002451
.7418	-.2141	-.002141
.8588	-.1269	-.001269
.9311	-.0633	-.000633

System: cyclohexane + N-methyl-2-pyrrolidone; phases: Liquid
Fixed: Temperature, K = 308.15
Fixed: Pressure, kPa = 101
Property: Excess molar volume, m3/mol (Liquid); method: Direct dilatometry
Mole fraction of N-methyl-2-pyrrolidone	Excess molar volume, m3/mol	uncertainty
.0531	-.000000082	-.00000000041
.1413	-.000000182	-.00000000091
.1845	-.000000217	-.000000001085
.2536	-.000000259	-.000000001295
.3419	-.000000286	-.00000000143
.4371	-.000000295	-.000000001475
.4975	-.000000289	-.000000001445

System: cyclohexane + N-methyl-2-pyrrolidone; phases: Liquid
Fixed: Temperature, K = 308.15
Fixed: Pressure, kPa = 101
Property: Excess molar enthalpy (molar enthalpy of mixing), kJ/mol (Liquid); method: 2-drop calorimeter
Mole fraction of N-methyl-2-pyrrolidone	Excess molar enthalpy (molar enthalpy of mixing), kJ/mol	uncertainty
.0712	.5025	.005025
.1455	.8732	.008732
.1944	1.0506	.010506
.2482	1.1998	.011998
.3282	1.3519	.013519
.3711	1.4071	.014071
.4033	1.4391	.014391
.4245	1.4562	.014562
.5266	1.4691	.014691
.5823	1.4612	.014612
.6732	1.4051	.014051
.7211	1.2061	.012061
.8566	.9501	.009501
.9422	.4688	.004688
