Measured thermophysical data. Excess molar volume, viscosity, and refractive index study for the ternary mixture {2-methyl-2-butanol (1) + tetrahydrofuran (2) + propylamine (3)} at different temperatures. Application of the ERAS-model and Peng Robinson Stryjek Vera equation of state
Source: J. Chem. Thermodyn., 2010, 10.1016/j.jct.2010.05.009
Compound 1: 2-methyl-2-butanol, C5H12O, purity 99%
Compound 2: tetrahydrofuran, C4H8O, purity 99%
Compound 3: n-propylamine, C3H9N, purity 99%

System: n-propylamine + tetrahydrofuran; phases: Liquid
Fixed: Pressure, kPa = 101
Property: Mass density, kg/m3 (Liquid); method: Vibrating tube method
Temperature, K	Mole fraction of tetrahydrofuran	Mass density, kg/m3	uncertainty
288.15	0	721.57	.01
288.15	.0542	730.55	.01
288.15	.1599	748.15	.01
288.15	.1934	753.76	.01
288.15	.3199	775.03	.01
288.15	.4	788.58	.01
288.15	.4789	802.01	.01
288.15	.56	815.87	.01
288.15	.6402	829.71	.01
288.15	.7201	843.56	.01
288.15	.8791	871.41	.01
288.15	.9585	885.46	.01
288.15	1	892.92	.01
298.15	0	711.08	.01
298.15	.0542	719.96	.01
298.15	.1599	737.23	.01
298.15	.1934	742.73	.01
298.15	.3199	763.65	.01
298.15	.4	777.02	.01
298.15	.4789	790.28	.01
298.15	.56	804.04	.01
298.15	.651	819.66	.01
298.15	.7201	831.66	.01
298.15	.8791	859.85	.01
298.15	.9585	874.29	.01
298.15	1	882.03	.01
308.15	0	700.4	.01
308.15	.0542	709.15	.01
308.15	.1599	726.3	.01
308.15	.1934	731.73	.01
308.15	.3199	752.47	.01
308.15	.4	765.73	.01
308.15	.4789	778.88	.01
308.15	.56	792.57	.01
308.15	.651	806.31	.01
308.15	.7201	820.22	.01
308.15	.8791	848.66	.01
308.15	.9585	863.3	.01
308.15	1	871.01	.01

System: n-propylamine + tetrahydrofuran; phases: Liquid
Fixed: Pressure, kPa = 101
Property: Excess molar volume, m3/mol (Liquid); method: Calculated with densities of this investigation
Temperature, K	Mole fraction of tetrahydrofuran	Excess molar volume, m3/mol	uncertainty
288.15	0	0	0
288.15	.0542	.0000000205	.0000000001025
288.15	.1599	.0000000537	.0000000002685
288.15	.1934	.0000000617	.0000000003085
288.15	.3199	.0000000867	.0000000004335
288.15	.4	.0000000975	.0000000004875
288.15	.4789	.0000001024	.000000000512
288.15	.56	.0000001049	.0000000005245
288.15	.6402	.0000000972	.000000000486
288.15	.7201	.0000000869	.0000000004345
288.15	.8791	.0000000494	.000000000247
288.15	.9585	.0000000229	.0000000001145
288.15	1	0	0
298.15	0	0	0
298.15	.0542	.0000000283	.0000000001415
298.15	.1599	.00000009	.00000000045
298.15	.1934	.0000001085	.0000000005425
298.15	.3199	.000000162	.00000000081
298.15	.4	.0000001866	.000000000933
298.15	.4789	.000000204	.00000000102
298.15	.56	.0000002123	.0000000010615
298.15	.651	.0000002068	.000000001034
298.15	.7201	.000000192	.00000000096
298.15	.8791	.000000115	.000000000575
298.15	.9585	.00000005	.00000000025
298.15	1	0	0
308.15	0	0	0
308.15	.0542	.0000000393	.0000000001965
308.15	.1599	.0000001093	.0000000005465
308.15	.1934	.000000133	.000000000665
308.15	.3199	.0000002004	.000000001002
308.15	.4	.0000002329	.0000000011645
308.15	.4789	.0000002585	.0000000012925
308.15	.56	.00000027	.00000000135
308.15	.651	.0000002644	.000000001322
308.15	.7201	.0000002408	.000000001204
308.15	.8791	.0000001342	.000000000671
308.15	.9585	.0000000478	.000000000239
308.15	1	0	0

System: n-propylamine + tetrahydrofuran; phases: Liquid
Fixed: Pressure, kPa = 101
Property: Viscosity, Pa*s (Liquid); method: Capillary tube (Ostwald; Ubbelohde) method
Temperature, K	Mole fraction of tetrahydrofuran	Viscosity, Pa*s	uncertainty
288.15	0	.0003851	.0000002
288.15	.0542	.0003898	.0000002
288.15	.1599	.0003991	.0000002
288.15	.1934	.0004021	.0000002
288.15	.3199	.0004138	.0000002
288.15	.4	.0004211	.0000002
288.15	.4789	.0004289	.0000002
288.15	.56	.0004371	.0000002
288.15	.6402	.0004455	.0000002
288.15	.7201	.0004546	.0000002
288.15	.8791	.0004765	.0000002
288.15	.9585	.0004902	.0000002
288.15	1	.0004991	.0000002
298.15	0	.0003585	.0000002
298.15	.0542	.0003632	.0000002
298.15	.1599	.000372	.0000002
298.15	.1934	.0003747	.0000002
298.15	.3199	.0003856	.0000002
298.15	.4	.0003926	.0000002
298.15	.4789	.0003996	.0000002
298.15	.56	.0004071	.0000002
298.15	.651	.0004149	.0000002
298.15	.7201	.0004229	.0000002
298.15	.8791	.0004396	.0000002
298.15	.9585	.0004489	.0000002
298.15	1	.000454	.0000002
308.15	0	.0003222	.0000002
308.15	.0542	.0003269	.0000002
308.15	.1599	.0003363	.0000002
308.15	.1934	.0003393	.0000002
308.15	.3199	.0003509	.0000002
308.15	.4	.0003584	.0000002
308.15	.4789	.0003659	.0000002
308.15	.56	.0003736	.0000002
308.15	.651	.0003813	.0000002
308.15	.7201	.0003891	.0000002
308.15	.8791	.0004049	.0000002
308.15	.9585	.0004129	.0000002
308.15	1	.0004172	.0000002

System: 2-methyl-2-butanol + tetrahydrofuran; phases: Liquid
Fixed: Pressure, kPa = 101
Property: Mass density, kg/m3 (Liquid); method: Vibrating tube method
Temperature, K	Mole fraction of 2-methyl-2-butanol	Mass density, kg/m3	uncertainty
288.15	0	892.92	.01
288.15	.1028	881.2	.01
288.15	.1791	873.29	.01
288.15	.2676	865.01	.01
288.15	.3601	857.15	.01
288.15	.45	850.2	.01
288.15	.5402	843.79	.01
288.15	.6295	837.94	.01
288.15	.7058	833.16	.01
288.15	.8097	826.96	.01
288.15	.8903	821.89	.01
288.15	.9629	816.9	.01
288.15	1	814.01	.01
298.15	0	882.03	.01
298.15	.1028	870.63	.01
298.15	.1791	862.93	.01
298.15	.2676	854.87	.01
298.15	.3601	847.22	.01
298.15	.45	840.46	.01
298.15	.5402	834.19	.01
298.15	.6295	828.48	.01
298.15	.7058	823.78	.01
298.15	.8097	817.62	.01
298.15	.8903	812.56	.01
298.15	.9629	807.57	.01
298.15	1	804.88	.01
308.15	0	871.01	.01
308.15	.1028	859.92	.01
308.15	.1791	852.42	.01
308.15	.2676	844.57	.01
308.15	.3601	837.11	.01
308.15	.45	830.51	.01
308.15	.5402	824.37	.01
308.15	.6295	818.76	.01
308.15	.7058	814.12	.01
308.15	.8097	808.01	.01
308.15	.8903	802.98	.01
308.15	.9629	798.22	.01
308.15	1	795.52	.01

System: 2-methyl-2-butanol + tetrahydrofuran; phases: Liquid
Fixed: Pressure, kPa = 101
Property: Excess molar volume, m3/mol (Liquid); method: Calculated with densities of this investigation
Temperature, K	Mole fraction of 2-methyl-2-butanol	Excess molar volume, m3/mol	uncertainty
288.15	0	0	0
288.15	.1028	.0000001148	.000000000574
288.15	.1791	.0000001736	.000000000868
288.15	.2676	.0000001999	.0000000009995
288.15	.3601	.0000001939	.0000000009695
288.15	.45	.0000001575	.0000000007875
288.15	.5402	.0000000974	.000000000487
288.15	.6295	.0000000164	.000000000082
288.15	.7058	-.0000000526	-.000000000263
288.15	.8097	-.0000001473	-.0000000007365
288.15	.8903	-.0000001587	-.0000000007935
288.15	.9629	-.0000000901	-.0000000004505
288.15	1	0	0
298.15	0	0	0
298.15	.1028	.0000001102	.000000000551
298.15	.1791	.0000001659	.0000000008295
298.15	.2676	.0000001885	.0000000009425
298.15	.3601	.0000001786	.000000000893
298.15	.45	.0000001376	.000000000688
298.15	.5402	.0000000771	.0000000003855
298.15	.6295	-.000000006	-.00000000003
298.15	.7058	-.0000000727	-.0000000003635
298.15	.8097	-.0000001562	-.000000000781
298.15	.8903	-.0000001548	-.000000000774
298.15	.9629	-.0000000716	-.000000000358
298.15	1	0	0
308.15	0	0	0
308.15	.1028	.0000001048	.000000000524
308.15	.1791	.0000001574	.000000000787
308.15	.2676	.0000001761	.0000000008805
308.15	.3601	.0000001629	.0000000008145
308.15	.45	.0000001197	.0000000005985
308.15	.5402	.0000000588	.000000000294
308.15	.6295	-.0000000225	-.0000000001125
308.15	.7058	-.0000000848	-.000000000424
308.15	.8097	-.0000001585	-.0000000007925
308.15	.8903	-.0000001471	-.0000000007355
308.15	.9629	-.000000081	-.000000000405
308.15	1	0	0

System: 2-methyl-2-butanol + tetrahydrofuran; phases: Liquid
Fixed: Pressure, kPa = 101
Property: Viscosity, Pa*s (Liquid); method: Capillary tube (Ostwald; Ubbelohde) method
Temperature, K	Mole fraction of 2-methyl-2-butanol	Viscosity, Pa*s	uncertainty
288.15	0	.0004991	.0000002
288.15	.1028	.0007142	.0000002
288.15	.1791	.000895	.0000002
288.15	.2676	.0011302	.0000002
288.15	.3601	.0013647	.0000002
288.15	.45	.0016303	.0000002
288.15	.5402	.0019684	.0000002
288.15	.6295	.0023986	.0000002
288.15	.7058	.0028495	.0000002
288.15	.8097	.0036232	.0000002
288.15	.8903	.0043808	.0000002
288.15	.9629	.0052449	.0000002
288.15	1	.0058667	.0000002
298.15	0	.000454	.0000002
298.15	.1028	.0005079	.0000002
298.15	.1791	.0005724	.0000002
298.15	.2676	.0006232	.0000002
298.15	.3601	.0007532	.0000002
298.15	.45	.0008859	.0000002
298.15	.5402	.0010636	.0000002
298.15	.6295	.0012881	.0000002
298.15	.7058	.0015484	.0000002
298.15	.8097	.0020076	.0000002
298.15	.8903	.0025174	.0000002
298.15	.9629	.0030519	.0000002
298.15	1	.0034781	.0000002
308.15	0	.0004172	.0000002
308.15	.1028	.0004359	.0000002
308.15	.1791	.0004592	.0000002
308.15	.2676	.0005449	.0000002
308.15	.3601	.0006428	.0000002
308.15	.45	.000747	.0000002
308.15	.5402	.0008887	.0000002
308.15	.6295	.0010546	.0000002
308.15	.7058	.0012315	.0000002
308.15	.8097	.0015477	.0000002
308.15	.8903	.0019075	.0000002
308.15	.9629	.0022341	.0000002
308.15	1	.0025042	.0000002

System: 2-methyl-2-butanol + n-propylamine; phases: Liquid
Fixed: Pressure, kPa = 101
Property: Mass density, kg/m3 (Liquid); method: Vibrating tube method
Temperature, K	Mole fraction of 2-methyl-2-butanol	Mass density, kg/m3	uncertainty
288.15	0	721.57	.01
288.15	.0733	731.65	.01
288.15	.1528	742.12	.01
288.15	.2327	752	.01
288.15	.3155	761.54	.01
288.15	.398	770.38	.01
288.15	.4888	779.41	.01
288.15	.5804	787.76	.01
288.15	.6697	795.11	.01
288.15	.7769	802.69	.01
288.15	.8741	808.3	.01
288.15	.9498	811.88	.01
288.15	1	814.01	.01
298.15	0	711.08	.01
298.15	.0733	721.43	.01
298.15	.1528	732.03	.01
298.15	.2327	742.1	.01
298.15	.3155	751.82	.01
298.15	.398	760.84	.01
298.15	.4888	770.02	.01
298.15	.5804	778.45	.01
298.15	.6697	785.88	.01
298.15	.7769	793.82	.01
298.15	.8741	799.58	.01
298.15	.9498	803.1	.01
298.15	1	804.88	.01
308.15	0	700.4	.01
308.15	.0733	710.97	.01
308.15	.1528	721.79	.01
308.15	.2327	732.07	.01
308.15	.3155	741.93	.01
308.15	.398	751.09	.01
308.15	.4888	760.39	.01
308.15	.5804	768.97	.01
308.15	.6697	776.64	.01
308.15	.7769	784.6	.01
308.15	.8741	790.43	.01
308.15	.9498	793.93	.01
308.15	1	795.52	.01

System: 2-methyl-2-butanol + n-propylamine; phases: Liquid
Fixed: Pressure, kPa = 101
Property: Excess molar volume, m3/mol (Liquid); method: Calculated with densities of this investigation
Temperature, K	Mole fraction of 2-methyl-2-butanol	Excess molar volume, m3/mol	uncertainty
288.15	0	0	0
288.15	.0733	-.0000001518	-.000000000759
288.15	.1528	-.0000003186	-.000000001593
288.15	.2327	-.0000004658	-.000000002329
288.15	.3155	-.0000005892	-.000000002946
288.15	.398	-.0000006839	-.0000000034195
288.15	.4888	-.0000007576	-.000000003788
288.15	.5804	-.0000007942	-.000000003971
288.15	.6697	-.0000007782	-.000000003891
288.15	.7769	-.0000006611	-.0000000033055
288.15	.8741	-.0000004379	-.0000000021895
288.15	.9498	-.0000001879	-.0000000009395
288.15	1	0	0
298.15	0	0	0
298.15	.0733	-.0000001769	-.0000000008845
298.15	.1528	-.0000003506	-.000000001753
298.15	.2327	-.0000005101	-.0000000025505
298.15	.3155	-.0000006443	-.0000000032215
298.15	.398	-.0000007498	-.000000003749
298.15	.4888	-.0000008291	-.0000000041455
298.15	.5804	-.0000008608	-.000000004304
298.15	.6697	-.000000853	-.000000004265
298.15	.7769	-.000000764	-.00000000382
298.15	.8741	-.000000534	-.00000000267
298.15	.9498	-.000000247	-.000000001235
298.15	1	0	0
308.15	0	0	0
308.15	.0733	-.000000235	-.000000001175
308.15	.1528	-.000000428	-.00000000214
308.15	.2327	-.000000607	-.000000003035
308.15	.3155	-.000000747	-.000000003735
308.15	.398	-.000000853	-.000000004265
308.15	.4888	-.000000923	-.000000004615
308.15	.5804	-.000000947	-.000000004735
308.15	.6697	-.00000094	-.0000000047
308.15	.7769	-.000000822	-.00000000411
308.15	.8741	-.000000586	-.00000000293
308.15	.9498	-.000000288	-.00000000144
308.15	1	0	0

System: 2-methyl-2-butanol + n-propylamine; phases: Liquid
Fixed: Pressure, kPa = 101
Property: Viscosity, Pa*s (Liquid); method: Capillary tube (Ostwald; Ubbelohde) method
Temperature, K	Mole fraction of 2-methyl-2-butanol	Viscosity, Pa*s	uncertainty
288.15	0	.0003851	.0000002
288.15	.0733	.0004625	.0000002
288.15	.1528	.0005521	.0000002
288.15	.2327	.0006938	.0000002
288.15	.3155	.0008513	.0000002
288.15	.398	.0010408	.0000002
288.15	.4888	.0013541	.0000002
288.15	.5804	.001827	.0000002
288.15	.6697	.0023898	.0000002
288.15	.7769	.0032881	.0000002
288.15	.8741	.004258	.0000002
288.15	.9498	.00517	.0000002
288.15	1	.0058667	.0000002
298.15	0	.0003585	.0000002
298.15	.0733	.0004161	.0000002
298.15	.1528	.0004813	.0000002
298.15	.2327	.0005258	.0000002
298.15	.3155	.0006157	.0000002
298.15	.398	.0007142	.0000002
298.15	.4888	.0008835	.0000002
298.15	.5804	.0011291	.0000002
298.15	.6697	.0014676	.0000002
298.15	.7769	.001974	.0000002
298.15	.8741	.0025654	.0000002
298.15	.9498	.0030678	.0000002
298.15	1	.0034781	.0000002
308.15	0	.0003222	.0000002
308.15	.0733	.0003822	.0000002
308.15	.1528	.0004437	.0000002
308.15	.2327	.000501	.0000002
308.15	.3155	.0005725	.0000002
308.15	.398	.0006756	.0000002
308.15	.4888	.0008338	.0000002
308.15	.5804	.0010295	.0000002
308.15	.6697	.0012835	.0000002
308.15	.7769	.0016645	.0000002
308.15	.8741	.0020295	.0000002
308.15	.9498	.0023045	.0000002
308.15	1	.0025042	.0000002

System: 2-methyl-2-butanol + n-propylamine + tetrahydrofuran; phases: Liquid
Fixed: Pressure, kPa = 101
Fixed: Temperature, K = 298.15
Property: Viscosity, Pa*s (Liquid); method: Capillary tube (Ostwald; Ubbelohde) method
Mole fraction of 2-methyl-2-butanol	Mole fraction of tetrahydrofuran	Viscosity, Pa*s	uncertainty
.7689	.1341	.0020403	.0000002
.6705	.2344	.0015478	.0000002
.5969	.3037	.0012622	.0000002
.5002	.3992	.0010427	.0000002
.4062	.4953	.0008711	.0000002
.2991	.5996	.0007152	.0000002
.1995	.6991	.0005849	.0000002
.1033	.7953	.0005439	.0000002
.6968	.1008	.0017282	.0000002
.5993	.1997	.0013576	.0000002
.4998	.2998	.0010578	.0000002
.4006	.3992	.0008692	.0000002
.3007	.4992	.0007153	.0000002
.1984	.5947	.0005862	.0000002
.1022	.6982	.0005321	.0000002
.5911	.1024	.0013313	.0000002
.4998	.2002	.0010634	.0000002
.3994	.3005	.0008709	.0000002
.3007	.4002	.0007129	.0000002
.2004	.4994	.000576	.0000002
.1003	.5994	.0005218	.0000002
.4692	.1559	.0010205	.0000002
.3996	.2003	.0008662	.0000002
.2998	.2998	.0007049	.0000002
.2003	.3996	.000565	.0000002
.1004	.5001	.0005099	.0000002
.4001	.1001	.0008946	.0000002
.3005	.2003	.0006968	.0000002
.2	.3006	.0005567	.0000002
.1008	.4001	.0005411	.0000002
.2991	.0996	.0006871	.0000002
.1999	.1985	.0005462	.0000002
.1262	.1233	.0004757	.0000002
.1676	.2572	.0005521	.0000002
.1235	.1254	.0004804	.0000002
.0913	.1819	.0004805	.0000002

System: 2-methyl-2-butanol + n-propylamine + tetrahydrofuran; phases: Liquid
Fixed: Pressure, kPa = 101
Fixed: Temperature, K = 298.15
Property: Mass density, kg/m3 (Liquid); method: Vibrating tube method
Mole fraction of 2-methyl-2-butanol	Mole fraction of tetrahydrofuran	Mass density, kg/m3	uncertainty
.7689	.1341	808.86	.01
.6705	.2344	814.16	.01
.5969	.3037	818.48	.01
.5002	.3992	824.28	.01
.4062	.4953	830.73	.01
.2991	.5996	838.18	.01
.1995	.6991	845.91	.01
.1033	.7953	854.19	.01
.6968	.1008	800.36	.01
.5993	.1997	805.76	.01
.4998	.2998	811.98	.01
.4006	.3992	817.4	.01
.3007	.4992	824.09	.01
.1984	.5947	830.2	.01
.1022	.6982	838.37	.01
.5911	.1024	793.1	.01
.4998	.2002	798.28	.01
.3994	.3005	804.69	.01
.3007	.4002	809.6	.01
.2004	.4994	815.77	.01
.1003	.5994	822.2	.01
.4692	.1559	789.72	.01
.3996	.2003	789.67	.01
.2998	.2998	794.78	.01
.2003	.3996	800.18	.01
.1004	.5001	806.09	.01
.4001	.1001	775.48	.01
.3005	.2003	780.12	.01
.2	.3006	786.09	.01
.1008	.4001	789.83	.01
.2991	.0996	764.91	.01
.1999	.1985	768.97	.01
.1262	.1233	751.09	.01
.1676	.2572	776.61	.01
.1235	.1254	751.39	.01
.0913	.1819	756.93	.01

System: 2-methyl-2-butanol + n-propylamine + tetrahydrofuran; phases: Liquid
Fixed: Pressure, kPa = 101
Fixed: Temperature, K = 298.15
Property: Excess molar volume, m3/mol (Liquid); method: Calculated with densities of this investigation
Mole fraction of 2-methyl-2-butanol	Mole fraction of tetrahydrofuran	Excess molar volume, m3/mol	uncertainty
.7689	.1341	-.0000003973	-.0000000019865
.6705	.2344	-.0000002412	-.000000001206
.5969	.3037	-.0000002434	-.000000001217
.5002	.3992	-.0000001512	-.000000000756
.4062	.4953	-.0000000641	-.0000000003205
.2991	.5996	-.0000000143	-.0000000000715
.1995	.6991	.0000000375	.0000000001875
.1033	.7953	.0000000531	.0000000002655
.6968	.1008	-.0000006048	-.000000003024
.5993	.1997	-.0000004892	-.000000002446
.4998	.2998	-.0000004348	-.000000002174
.4006	.3992	-.0000002566	-.000000001283
.3007	.4992	-.0000001786	-.000000000893
.1984	.5947	-.000000096	-.00000000048
.1022	.6982	.0000000054	.000000000027
.5911	.1024	-.000000734	-.00000000367
.4998	.2002	-.0000005547	-.0000000027735
.3994	.3005	-.0000005315	-.0000000026575
.3007	.4002	-.0000002899	-.0000000014495
.2004	.4994	-.000000179	-.000000000895
.1003	.5994	-.0000000399	-.0000000001995
.4692	.1559	-.0000006268	-.000000003134
.3996	.2003	-.0000005522	-.000000002761
.2998	.2998	-.0000003981	-.0000000019905
.2003	.3996	-.0000002332	-.000000001166
.1004	.5001	-.0000000796	-.000000000398
.4001	.1001	-.0000006657	-.0000000033285
.3005	.2003	-.0000004903	-.0000000024515
.2	.3006	-.0000004386	-.000000002193
.1008	.4001	-.0000001084	-.000000000542
.2991	.0996	-.0000005596	-.000000002798
.1999	.1985	-.0000003566	-.000000001783
.1262	.1233	-.0000005762	-.000000002881
.1676	.2572	-.0000005135	-.0000000025675
.1235	.1254	-.0000006052	-.000000003026
.0913	.1819	-.0000005688	-.000000002844
