Measured thermophysical data. Thermodynamic properties of 3,3-dinitroazetidinium nitrate
Source: J. Chem. Thermodyn., 2016, 10.1016/j.jct.2016.08.018
Compound 1: 3,3-dinitroazetidinium nitrate, C3H6N4O7

System: 3,3-dinitroazetidinium nitrate; phases: Crystal
Fixed: Pressure, kPa = 101.325
Property: Molar heat capacity at constant pressure, J/K/mol (Crystal); method: Small sample (50 mg) scanning calorimetry
Temperature, K	Molar heat capacity at constant pressure, J/K/mol	uncertainty
283.15	230.33	
288.15	236.43	
293.15	242.43	
298.15	248.32	
303.15	254.12	
308.15	259.82	
313.15	265.42	
318.15	270.92	
323.15	276.32	
328.15	281.62	
333.15	286.82	
338.15	291.92	
343.15	296.92	
348.15	301.82	
353.15	306.63	
