Measured thermophysical data. Activity coefficients at infinite dilution measurements for organic solutes and water in the ionic liquid 1-ethyl-3-methylimidazolium tetracyanoborate
Source: J. Chem. Thermodyn., 2011, 10.1016/j.jct.2011.02.012
Compound 1: 1-ethyl-3-methylimidazolium tetracyanoborate, C10H11BN6, purity 99%
Compound 2: pentane, C5H12, purity 99%
Compound 3: n-hexane, C6H14, purity 99%
Compound 4: heptane, C7H16, purity 99%
Compound 5: octane, C8H18, purity 99%
Compound 6: pentane, 2,2,4-trimethyl-, C8H18, purity 99%
Compound 7: nonane, C9H20, purity 99%
Compound 8: decane, C10H22, purity 99%
Compound 9: cyclopentane, C5H10, purity 99%
Compound 10: cyclohexane, C6H12, purity 99%
Compound 11: methylcyclohexane, C7H14, purity 99%
Compound 12: cycloheptane, C7H14, purity 99%
Compound 13: cyclooctane, C8H16, purity 99%
Compound 14: 1-pentene, C5H10, purity 99%
Compound 15: 1-hexene, C6H12, purity 99%
Compound 16: 1,2,3,4-tetrahydrobenzene, C6H10, purity 99%
Compound 17: 1-heptene, C7H14, purity 99%
Compound 18: 1-octene, C8H16, purity 99%
Compound 19: 1-hexyne, C6H10, purity 99%
Compound 20: 1-heptyne, C7H12, purity 99%
Compound 21: 1-octyne, C8H14, purity 99%
Compound 22: benzene, C6H6, purity 99%
Compound 23: toluene, C7H8, purity 99%
Compound 24: ethylbenzene, C8H10, purity 99%
Compound 25: 1,2-dimethylbenzene, C8H10, purity 99%
Compound 26: 1,3-dimethylbenzene, C8H10, purity 99%
Compound 27: 1,4-dimethylbenzene, C8H10, purity 99%
Compound 28: methanol, CH4O, purity 99%
Compound 29: ethanol, C2H6O, purity 99%
Compound 30: propan-1-ol, C3H8O, purity 99%
Compound 31: butan-1-ol, C4H10O, purity 99%
Compound 32: water, H2O, purity 99%
Compound 33: thiophene, C4H4S, purity 99%
Compound 34: tetramethylene oxide, C4H8O, purity 99%
Compound 35: methyl tert-butyl ether, C5H12O, purity 99%
Compound 36: tert-amyl methyl ether, C6H14O, purity 99%
Compound 37: ethane, 1,1'-oxybis-, C4H10O, purity 99%
Compound 38: dipropyl ether, C6H14O, purity 99%
Compound 39: dibutyl ether, C8H18O, purity 99%
Compound 40: propanone, C3H6O, purity 99%
Compound 41: propyl methyl ketone, C5H10O, purity 99%
Compound 42: 3-pentanone, C5H10O, purity 99%
Compound 43: 2-hexanone, C6H12O, purity 99%
Compound 44: ethyl propyl ketone, C6H12O, purity 99%

System: 1-ethyl-3-methylimidazolium tetracyanoborate; phases: Liquid
Fixed: Pressure, kPa = 101.325
Property: Mass density, kg/m3 (Liquid); method: Vibrating tube method
Temperature, K	Mass density, kg/m3	uncertainty
298.15	1036.27	.05
308.15	1028.4	.05
318.15	1020.64	.05
328.15	1012.97	.05
338.15	1005.4	.05
348.15	997.91	.05
358.15	990.51	.05

System: pentane + 1-ethyl-3-methylimidazolium tetracyanoborate; phases: Liquid, Gas
Fixed: Mole fraction of pentane = 0
Property: Activity coefficient of pentane (Liquid); method: Chromatography
Temperature, K	Activity coefficient of pentane	uncertainty
298.15	22	.66
308.15	20.1	.603
318.15	19.1	.573
328.15	17.6	.528
338.15	16.6	.498
348.15	15.8	.474
358.15	14.9	.447

System: n-hexane + 1-ethyl-3-methylimidazolium tetracyanoborate; phases: Liquid, Gas
Fixed: Mole fraction of n-hexane = 0
Property: Activity coefficient of n-hexane (Liquid); method: Chromatography
Temperature, K	Activity coefficient of n-hexane	uncertainty
298.15	33.8	1.014
308.15	30.7	.921
318.15	28.9	.867
328.15	26.3	.789
338.15	24.5	.735
348.15	23.1	.693
358.15	21.8	.654

System: heptane + 1-ethyl-3-methylimidazolium tetracyanoborate; phases: Liquid, Gas
Fixed: Mole fraction of heptane = 0
Property: Activity coefficient of heptane (Liquid); method: Chromatography
Temperature, K	Activity coefficient of heptane	uncertainty
298.15	53.4	1.602
308.15	47.9	1.437
318.15	44.1	1.323
328.15	39.9	1.197
338.15	36.7	1.101
348.15	34.3	1.029
358.15	31.7	.951

System: octane + 1-ethyl-3-methylimidazolium tetracyanoborate; phases: Liquid, Gas
Fixed: Mole fraction of octane = 0
Property: Activity coefficient of octane (Liquid); method: Chromatography
Temperature, K	Activity coefficient of octane	uncertainty
298.15	83.2	2.496
308.15	73.6	2.208
318.15	67.4	2.022
328.15	60.2	1.806
338.15	54.8	1.644
348.15	50.2	1.506
358.15	46	1.38

System: pentane, 2,2,4-trimethyl- + 1-ethyl-3-methylimidazolium tetracyanoborate; phases: Liquid, Gas
Fixed: Mole fraction of pentane, 2,2,4-trimethyl- = 0
Property: Activity coefficient of pentane, 2,2,4-trimethyl- (Liquid); method: Chromatography
Temperature, K	Activity coefficient of pentane, 2,2,4-trimethyl-	uncertainty
298.15	60.3	1.809
308.15	54.3	1.629
318.15	50.4	1.512
328.15	46.4	1.392
338.15	42.3	1.269
348.15	39.5	1.185
358.15	36.7	1.101

System: nonane + 1-ethyl-3-methylimidazolium tetracyanoborate; phases: Liquid, Gas
Fixed: Mole fraction of nonane = 0
Property: Activity coefficient of nonane (Liquid); method: Chromatography
Temperature, K	Activity coefficient of nonane	uncertainty
298.15	131	3.93
308.15	114	3.42
318.15	102	3.06
328.15	90.2	2.706
338.15	81.1	2.433
348.15	73.2	2.196
358.15	66.3	1.989

System: decane + 1-ethyl-3-methylimidazolium tetracyanoborate; phases: Liquid, Gas
Fixed: Mole fraction of decane = 0
Property: Activity coefficient of decane (Liquid); method: Chromatography
Temperature, K	Activity coefficient of decane	uncertainty
298.15	203	6.09
308.15	177	5.31
318.15	156	4.68
328.15	137	4.11
338.15	122	3.66
348.15	108	3.24
358.15	96.7	2.901

System: cyclopentane + 1-ethyl-3-methylimidazolium tetracyanoborate; phases: Liquid, Gas
Fixed: Mole fraction of cyclopentane = 0
Property: Activity coefficient of cyclopentane (Liquid); method: Chromatography
Temperature, K	Activity coefficient of cyclopentane	uncertainty
298.15	10.7	.321
308.15	9.9	.297
318.15	9.5	.285
328.15	8.8	.264
338.15	8.4	.252
348.15	8	.24
358.15	7.6	.228

System: cyclohexane + 1-ethyl-3-methylimidazolium tetracyanoborate; phases: Liquid, Gas
Fixed: Mole fraction of cyclohexane = 0
Property: Activity coefficient of cyclohexane (Liquid); method: Chromatography
Temperature, K	Activity coefficient of cyclohexane	uncertainty
298.15	16.7	.501
308.15	15.2	.456
318.15	14.3	.429
328.15	13.2	.396
338.15	12.3	.369
348.15	11.6	.348
358.15	10.9	.327

System: methylcyclohexane + 1-ethyl-3-methylimidazolium tetracyanoborate; phases: Liquid, Gas
Fixed: Mole fraction of methylcyclohexane = 0
Property: Activity coefficient of methylcyclohexane (Liquid); method: Chromatography
Temperature, K	Activity coefficient of methylcyclohexane	uncertainty
298.15	24.9	.747
308.15	22.7	.681
318.15	21.1	.633
328.15	19.4	.582
338.15	18	.54
348.15	16.9	.507
358.15	15.9	.477

System: cycloheptane + 1-ethyl-3-methylimidazolium tetracyanoborate; phases: Liquid, Gas
Fixed: Mole fraction of cycloheptane = 0
Property: Activity coefficient of cycloheptane (Liquid); method: Chromatography
Temperature, K	Activity coefficient of cycloheptane	uncertainty
298.15	21.9	.657
308.15	19.9	.597
318.15	18.6	.558
328.15	17	.51
338.15	15.8	.474
348.15	14.8	.444
358.15	13.9	.417

System: cyclooctane + 1-ethyl-3-methylimidazolium tetracyanoborate; phases: Liquid, Gas
Fixed: Mole fraction of cyclooctane = 0
Property: Activity coefficient of cyclooctane (Liquid); method: Chromatography
Temperature, K	Activity coefficient of cyclooctane	uncertainty
298.15	29.7	.891
308.15	26.6	.798
318.15	24.7	.741
328.15	22.5	.675
338.15	20.8	.624
348.15	19.2	.576
358.15	17.9	.537

System: 1-pentene + 1-ethyl-3-methylimidazolium tetracyanoborate; phases: Liquid, Gas
Fixed: Mole fraction of 1-pentene = 0
Property: Activity coefficient of 1-pentene (Liquid); method: Chromatography
Temperature, K	Activity coefficient of 1-pentene	uncertainty
298.15	9.24	.2772
308.15	8.83	.2649
318.15	8.56	.2568
328.15	8.24	.2472
338.15	7.97	.2391
348.15	7.71	.2313
358.15	7.52	.2256

System: 1-hexene + 1-ethyl-3-methylimidazolium tetracyanoborate; phases: Liquid, Gas
Fixed: Mole fraction of 1-hexene = 0
Property: Activity coefficient of 1-hexene (Liquid); method: Chromatography
Temperature, K	Activity coefficient of 1-hexene	uncertainty
298.15	14.4	.432
308.15	13.5	.405
318.15	12.9	.387
328.15	12.2	.366
338.15	11.6	.348
348.15	11.2	.336
358.15	10.6	.318

System: 1,2,3,4-tetrahydrobenzene + 1-ethyl-3-methylimidazolium tetracyanoborate; phases: Liquid, Gas
Fixed: Mole fraction of 1,2,3,4-tetrahydrobenzene = 0
Property: Activity coefficient of 1,2,3,4-tetrahydrobenzene (Liquid); method: Chromatography
Temperature, K	Activity coefficient of 1,2,3,4-tetrahydrobenzene	uncertainty
298.15	7.25	.2175
308.15	6.92	.2076
318.15	6.67	.2001
328.15	6.44	.1932
338.15	6.17	.1851
348.15	6.01	.1803
358.15	5.81	.1743

System: 1-heptene + 1-ethyl-3-methylimidazolium tetracyanoborate; phases: Liquid, Gas
Fixed: Mole fraction of 1-heptene = 0
Property: Activity coefficient of 1-heptene (Liquid); method: Chromatography
Temperature, K	Activity coefficient of 1-heptene	uncertainty
298.15	22	.66
308.15	20.4	.612
318.15	19.3	.579
328.15	18.3	.549
338.15	17.3	.519
348.15	16.6	.498
358.15	15.7	.471

System: 1-octene + 1-ethyl-3-methylimidazolium tetracyanoborate; phases: Liquid, Gas
Fixed: Mole fraction of 1-octene = 0
Property: Activity coefficient of 1-octene (Liquid); method: Chromatography
Temperature, K	Activity coefficient of 1-octene	uncertainty
298.15	35	1.05
308.15	32	.96
318.15	29.9	.897
328.15	27.8	.834
338.15	25.9	.777
348.15	24.5	.735
358.15	23.1	.693

System: 1-hexyne + 1-ethyl-3-methylimidazolium tetracyanoborate; phases: Liquid, Gas
Fixed: Mole fraction of 1-hexyne = 0
Property: Activity coefficient of 1-hexyne (Liquid); method: Chromatography
Temperature, K	Activity coefficient of 1-hexyne	uncertainty
298.15	3.77	.1131
308.15	3.76	.1128
318.15	3.76	.1128
328.15	3.75	.1125
338.15	3.74	.1122
348.15	3.74	.1122
358.15	3.73	.1119

System: 1-heptyne + 1-ethyl-3-methylimidazolium tetracyanoborate; phases: Liquid, Gas
Fixed: Mole fraction of 1-heptyne = 0
Property: Activity coefficient of 1-heptyne (Liquid); method: Chromatography
Temperature, K	Activity coefficient of 1-heptyne	uncertainty
298.15	5.74	.1722
308.15	5.66	.1698
318.15	5.58	.1674
328.15	5.51	.1653
338.15	5.45	.1635
348.15	5.39	.1617
358.15	5.33	.1599

System: 1-octyne + 1-ethyl-3-methylimidazolium tetracyanoborate; phases: Liquid, Gas
Fixed: Mole fraction of 1-octyne = 0
Property: Activity coefficient of 1-octyne (Liquid); method: Chromatography
Temperature, K	Activity coefficient of 1-octyne	uncertainty
298.15	8.66	.2598
308.15	8.48	.2544
318.15	8.31	.2493
328.15	8.15	.2445
338.15	7.99	.2397
348.15	7.86	.2358
358.15	7.73	.2319

System: benzene + 1-ethyl-3-methylimidazolium tetracyanoborate; phases: Liquid, Gas
Fixed: Mole fraction of benzene = 0
Property: Activity coefficient of benzene (Liquid); method: Chromatography
Temperature, K	Activity coefficient of benzene	uncertainty
298.15	1.13	.0339
308.15	1.15	.0345
318.15	1.17	.0351
328.15	1.18	.0354
338.15	1.19	.0357
348.15	1.2	.036
358.15	1.21	.0363

System: toluene + 1-ethyl-3-methylimidazolium tetracyanoborate; phases: Liquid, Gas
Fixed: Mole fraction of toluene = 0
Property: Activity coefficient of toluene (Liquid); method: Chromatography
Temperature, K	Activity coefficient of toluene	uncertainty
298.15	1.65	.0495
308.15	1.67	.0501
318.15	1.69	.0507
328.15	1.71	.0513
338.15	1.73	.0519
348.15	1.75	.0525
358.15	1.76	.0528

System: ethylbenzene + 1-ethyl-3-methylimidazolium tetracyanoborate; phases: Liquid, Gas
Fixed: Mole fraction of ethylbenzene = 0
Property: Activity coefficient of ethylbenzene (Liquid); method: Chromatography
Temperature, K	Activity coefficient of ethylbenzene	uncertainty
298.15	2.6	.078
308.15	2.6	.078
318.15	2.61	.0783
328.15	2.61	.0783
338.15	2.61	.0783
348.15	2.61	.0783
358.15	2.61	.0783

System: 1,2-dimethylbenzene + 1-ethyl-3-methylimidazolium tetracyanoborate; phases: Liquid, Gas
Fixed: Mole fraction of 1,2-dimethylbenzene = 0
Property: Activity coefficient of 1,2-dimethylbenzene (Liquid); method: Chromatography
Temperature, K	Activity coefficient of 1,2-dimethylbenzene	uncertainty
298.15	2.17	.0651
308.15	2.18	.0654
318.15	2.2	.066
328.15	2.21	.0663
338.15	2.22	.0666
348.15	2.24	.0672
358.15	2.25	.0675

System: 1,3-dimethylbenzene + 1-ethyl-3-methylimidazolium tetracyanoborate; phases: Liquid, Gas
Fixed: Mole fraction of 1,3-dimethylbenzene = 0
Property: Activity coefficient of 1,3-dimethylbenzene (Liquid); method: Chromatography
Temperature, K	Activity coefficient of 1,3-dimethylbenzene	uncertainty
308.15	2.56	.0768
318.15	2.58	.0774
328.15	2.6	.078
338.15	2.61	.0783
348.15	2.63	.0789
358.15	2.64	.0792

System: 1,4-dimethylbenzene + 1-ethyl-3-methylimidazolium tetracyanoborate; phases: Liquid, Gas
Fixed: Mole fraction of 1,4-dimethylbenzene = 0
Property: Activity coefficient of 1,4-dimethylbenzene (Liquid); method: Chromatography
Temperature, K	Activity coefficient of 1,4-dimethylbenzene	uncertainty
318.15	2.45	.0735
328.15	2.48	.0744
338.15	2.5	.075
348.15	2.52	.0756
358.15	2.54	.0762

System: methanol + 1-ethyl-3-methylimidazolium tetracyanoborate; phases: Liquid, Gas
Fixed: Mole fraction of methanol = 0
Property: Activity coefficient of methanol (Liquid); method: Chromatography
Temperature, K	Activity coefficient of methanol	uncertainty
298.15	1.1	.033
308.15	1.02	.0306
318.15	.948	.02844
328.15	.886	.02658
338.15	.835	.02505
348.15	.788	.02364
358.15	.748	.02244

System: ethanol + 1-ethyl-3-methylimidazolium tetracyanoborate; phases: Liquid, Gas
Fixed: Mole fraction of ethanol = 0
Property: Activity coefficient of ethanol (Liquid); method: Chromatography
Temperature, K	Activity coefficient of ethanol	uncertainty
298.15	1.58	.0474
308.15	1.43	.0429
318.15	1.32	.0396
328.15	1.21	.0363
338.15	1.13	.0339
348.15	1.05	.0315
358.15	.986	.02958

System: propan-1-ol + 1-ethyl-3-methylimidazolium tetracyanoborate; phases: Liquid, Gas
Fixed: Mole fraction of propan-1-ol = 0
Property: Activity coefficient of propan-1-ol (Liquid); method: Chromatography
Temperature, K	Activity coefficient of propan-1-ol	uncertainty
298.15	2.01	.0603
308.15	1.81	.0543
318.15	1.65	.0495
328.15	1.5	.045
338.15	1.39	.0417
348.15	1.3	.039
358.15	1.21	.0363

System: butan-1-ol + 1-ethyl-3-methylimidazolium tetracyanoborate; phases: Liquid, Gas
Fixed: Mole fraction of butan-1-ol = 0
Property: Activity coefficient of butan-1-ol (Liquid); method: Chromatography
Temperature, K	Activity coefficient of butan-1-ol	uncertainty
298.15	2.72	.0816
308.15	2.41	.0723
318.15	2.16	.0648
328.15	1.95	.0585
338.15	1.79	.0537
348.15	1.65	.0495
358.15	1.53	.0459

System: water + 1-ethyl-3-methylimidazolium tetracyanoborate; phases: Liquid, Gas
Fixed: Mole fraction of water = 0
Property: Activity coefficient of water (Liquid); method: Chromatography
Temperature, K	Activity coefficient of water	uncertainty
298.15	2.24	.0672
308.15	1.99	.0597
318.15	1.82	.0546
328.15	1.66	.0498
338.15	1.51	.0453
348.15	1.38	.0414
358.15	1.29	.0387

System: thiophene + 1-ethyl-3-methylimidazolium tetracyanoborate; phases: Liquid, Gas
Fixed: Mole fraction of thiophene = 0
Property: Activity coefficient of thiophene (Liquid); method: Chromatography
Temperature, K	Activity coefficient of thiophene	uncertainty
298.15	.938	.02814
308.15	.949	.02847
318.15	.958	.02874
328.15	.966	.02898
338.15	.976	.02928
348.15	.983	.02949
358.15	.992	.02976

System: tetramethylene oxide + 1-ethyl-3-methylimidazolium tetracyanoborate; phases: Liquid, Gas
Fixed: Mole fraction of tetramethylene oxide = 0
Property: Activity coefficient of tetramethylene oxide (Liquid); method: Chromatography
Temperature, K	Activity coefficient of tetramethylene oxide	uncertainty
298.15	.686	.02058
308.15	.707	.02121
318.15	.726	.02178
328.15	.737	.02211
338.15	.753	.02259
348.15	.775	.02325
358.15	.789	.02367

System: methyl tert-butyl ether + 1-ethyl-3-methylimidazolium tetracyanoborate; phases: Liquid, Gas
Fixed: Mole fraction of methyl tert-butyl ether = 0
Property: Activity coefficient of methyl tert-butyl ether (Liquid); method: Chromatography
Temperature, K	Activity coefficient of methyl tert-butyl ether	uncertainty
298.15	2.82	.0846
308.15	2.86	.0858
318.15	2.9	.087
328.15	2.94	.0882
338.15	2.97	.0891
348.15	3.01	.0903
358.15	3.04	.0912

System: tert-amyl methyl ether + 1-ethyl-3-methylimidazolium tetracyanoborate; phases: Liquid, Gas
Fixed: Mole fraction of tert-amyl methyl ether = 0
Property: Activity coefficient of tert-amyl methyl ether (Liquid); method: Chromatography
Temperature, K	Activity coefficient of tert-amyl methyl ether	uncertainty
298.15	4.15	.1245
308.15	4.19	.1257
318.15	4.22	.1266
328.15	4.25	.1275
338.15	4.28	.1284
348.15	4.3	.129
358.15	4.32	.1296

System: ethane, 1,1'-oxybis- + 1-ethyl-3-methylimidazolium tetracyanoborate; phases: Liquid, Gas
Fixed: Mole fraction of ethane, 1,1'-oxybis- = 0
Property: Activity coefficient of ethane, 1,1'-oxybis- (Liquid); method: Chromatography
Temperature, K	Activity coefficient of ethane, 1,1'-oxybis-	uncertainty
298.15	2.71	.0813
308.15	2.72	.0816
318.15	2.73	.0819
328.15	2.74	.0822
338.15	2.75	.0825
348.15	2.76	.0828
358.15	2.77	.0831

System: dipropyl ether + 1-ethyl-3-methylimidazolium tetracyanoborate; phases: Liquid, Gas
Fixed: Mole fraction of dipropyl ether = 0
Property: Activity coefficient of dipropyl ether (Liquid); method: Chromatography
Temperature, K	Activity coefficient of dipropyl ether	uncertainty
298.15	8.54	.2562
308.15	8.32	.2496
318.15	8.07	.2421
328.15	7.79	.2337
338.15	7.6	.228
348.15	7.43	.2229
358.15	7.24	.2172

System: dibutyl ether + 1-ethyl-3-methylimidazolium tetracyanoborate; phases: Liquid, Gas
Fixed: Mole fraction of dibutyl ether = 0
Property: Activity coefficient of dibutyl ether (Liquid); method: Chromatography
Temperature, K	Activity coefficient of dibutyl ether	uncertainty
298.15	20.6	.618
308.15	19.2	.576
318.15	18.4	.552
328.15	17.2	.516
338.15	16.4	.492
348.15	15.7	.471
358.15	14.9	.447

System: propanone + 1-ethyl-3-methylimidazolium tetracyanoborate; phases: Liquid, Gas
Fixed: Mole fraction of propanone = 0
Property: Activity coefficient of propanone (Liquid); method: Chromatography
Temperature, K	Activity coefficient of propanone	uncertainty
308.15	.443	.01329
318.15	.454	.01362
328.15	.466	.01398
338.15	.475	.01425
348.15	.488	.01464
358.15	.43	.0129

System: propyl methyl ketone + 1-ethyl-3-methylimidazolium tetracyanoborate; phases: Liquid, Gas
Fixed: Mole fraction of propyl methyl ketone = 0
Property: Activity coefficient of propyl methyl ketone (Liquid); method: Chromatography
Temperature, K	Activity coefficient of propyl methyl ketone	uncertainty
308.15	.816	.02448
318.15	.833	.02499
328.15	.847	.02541
338.15	.861	.02583
348.15	.879	.02637
358.15	.796	.02388

System: 3-pentanone + 1-ethyl-3-methylimidazolium tetracyanoborate; phases: Liquid, Gas
Fixed: Mole fraction of 3-pentanone = 0
Property: Activity coefficient of 3-pentanone (Liquid); method: Chromatography
Temperature, K	Activity coefficient of 3-pentanone	uncertainty
308.15	.798	.02394
318.15	.821	.02463
328.15	.842	.02526
338.15	.861	.02583
348.15	.883	.02649
358.15	.771	.02313

System: 2-hexanone + 1-ethyl-3-methylimidazolium tetracyanoborate; phases: Liquid, Gas
Fixed: Mole fraction of 2-hexanone = 0
Property: Activity coefficient of 2-hexanone (Liquid); method: Chromatography
Temperature, K	Activity coefficient of 2-hexanone	uncertainty
308.15	1.11	.0333
318.15	1.12	.0336
328.15	1.14	.0342
338.15	1.16	.0348
348.15	1.17	.0351
358.15	1.09	.0327

System: ethyl propyl ketone + 1-ethyl-3-methylimidazolium tetracyanoborate; phases: Liquid, Gas
Fixed: Mole fraction of ethyl propyl ketone = 0
Property: Activity coefficient of ethyl propyl ketone (Liquid); method: Chromatography
Temperature, K	Activity coefficient of ethyl propyl ketone	uncertainty
308.15	1.2	.036
318.15	1.22	.0366
328.15	1.24	.0372
338.15	1.25	.0375
348.15	1.28	.0384
358.15	1.17	.0351
