Measured thermophysical data. Thermodynamics of the solubility of reserpine in {{2-(2-ethoxyethoxy)ethanol + water}} mixed solvent systems at different temperatures
Source: J. Chem. Thermodyn., 2015, 10.1016/j.jct.2014.12.032
Compound 1: Reserpine, C33H40N2O9, purity 99%
Compound 2: 2-(2-ethoxyethoxy)ethanol, C6H14O3, purity 99.9%
Compound 3: water, H2O, purity 99.8%

System: Reserpine + 2-(2-ethoxyethoxy)ethanol + water; phases: Liquid, Crystal
Fixed: Pressure, kPa = 100
Property: Mole fraction of Reserpine (Liquid); method: UV-visible spectrophotometry
Temperature, K	Solvent: Mass fraction of 2-(2-ethoxyethoxy)ethanol	Mole fraction of Reserpine	uncertainty
298.15	0	.000000971	.0000000082535
298.15	.1	.00000197	.000000016745
298.15	.2	.00000376	.00000003196
298.15	.3	.00000732	.00000006222
298.15	.4	.0000144	.0000001224
298.15	.5	.0000276	.0000002346
298.15	.6	.0000536	.0000004556
298.15	.7	.000109	.0000009265
298.15	.8	.000212	.000001802
298.15	.9	.000402	.000003417
298.15	1	.000769	.0000065365
308.15	0	.00000125	.000000010625
308.15	.1	.00000251	.000000021335
308.15	.2	.00000476	.00000004046
308.15	.3	.00000912	.00000007752
308.15	.4	.0000181	.00000015385
308.15	.5	.0000343	.00000029155
308.15	.6	.0000659	.00000056015
308.15	.7	.000131	.0000011135
308.15	.8	.000251	.0000021335
308.15	.9	.000474	.000004029
308.15	1	.000906	.000007701
318.15	0	.00000157	.000000013345
318.15	.1	.00000313	.000000026605
318.15	.2	.00000587	.000000049895
318.15	.3	.0000115	.00000009775
318.15	.4	.0000224	.0000001904
318.15	.5	.0000417	.00000035445
318.15	.6	.0000813	.00000069105
318.15	.7	.000157	.0000013345
318.15	.8	.000302	.000002567
318.15	.9	.000573	.0000048705
318.15	1	.0011	.00000935
328.15	0	.0000019	.00000001615
328.15	.1	.00000376	.00000003196
328.15	.2	.00000716	.00000006086
328.15	.3	.0000142	.0000001207
328.15	.4	.0000268	.0000002278
328.15	.5	.0000517	.00000043945
328.15	.6	.0000998	.0000008483
328.15	.7	.000192	.000001632
328.15	.8	.00037	.000003145
328.15	.9	.000711	.0000060435
328.15	1	.00137	.000011645
338.15	0	.00000225	.000000019125
338.15	.1	.00000445	.000000037825
338.15	.2	.00000845	.000000071825
338.15	.3	.0000175	.00000014875
338.15	.4	.0000314	.0000002669
338.15	.5	.0000605	.00000051425
338.15	.6	.000121	.0000010285
338.15	.7	.00023	.000001955
338.15	.8	.000443	.0000037655
338.15	.9	.000844	.000007174
338.15	1	.00161	.000013685

System: Reserpine + water; phases: Liquid, Crystal
Property: Mole fraction of Reserpine (Liquid); method: UV-visible spectrophotometry
Temperature, K	Pressure, kPa	Mole fraction of Reserpine	uncertainty
298.15	100	.000000971	.0000000082535
308.15	100	.00000125	.000000010625
318.15	100	.00000157	.000000013345
328.15	100	.0000019	.00000001615
338.15	100	.00000225	.000000019125

System: Reserpine + 2-(2-ethoxyethoxy)ethanol; phases: Liquid, Crystal
Property: Mole fraction of Reserpine (Liquid); method: UV-visible spectrophotometry
Temperature, K	Pressure, kPa	Mole fraction of Reserpine	uncertainty
298.15	100	.000769	.0000065365
308.15	100	.000906	.000007701
318.15	100	.0011	.00000935
328.15	100	.00137	.000011645
338.15	100	.00161	.000013685
