Measured thermophysical data. Thermochemistry of some methoxypyridines
Source: J. Chem. Thermodyn., 2012, 10.1016/j.jct.2011.11.032
Compound 1: 2-methoxypyridine, C6H7NO, purity 98%
Compound 2: pyridine, 4-methoxy-, C6H7NO, purity 97%
Compound 3: 2,6-dimethoxypyridine, C7H9NO2, purity 98%
Compound 4: carbon dioxide, CO2
Compound 5: nitrogen, diatomic, N2
Compound 6: water, H2O
Compound 7: oxygen, O2
Compound 8: hydrogen, H2
Compound 9: carbon, graphite, C

System: 2-methoxypyridine; phases: Gas
Fixed: Pressure, kPa = 101.325
Property: Molar enthalpy, kJ/mol (Gas); method: Drop calorimetry
Temperature, K	Molar enthalpy, kJ/mol	uncertainty
365	53.6	.3

System: pyridine, 4-methoxy-; phases: Gas
Fixed: Pressure, kPa = 101.325
Property: Molar enthalpy, kJ/mol (Gas); method: Drop calorimetry
Temperature, K	Molar enthalpy, kJ/mol	uncertainty
365	65.9	.2

System: 2,6-dimethoxypyridine; phases: Gas
Fixed: Pressure, kPa = 101.325
Property: Molar enthalpy, kJ/mol (Gas); method: Drop calorimetry
Temperature, K	Molar enthalpy, kJ/mol	uncertainty
358	63.5	.3

Reaction: -1 2-methoxypyridine + 6 carbon dioxide + 0.5 nitrogen, diatomic + 3.5 water + -7.25 oxygen
Property: Specific internal energy of reaction at constant volume, J/g
-29981.2

Reaction: -1 pyridine, 4-methoxy- + 6 carbon dioxide + 0.5 nitrogen, diatomic + 3.5 water + -7.25 oxygen
Property: Specific internal energy of reaction at constant volume, J/g
-30093.5

Reaction: -1 2,6-dimethoxypyridine + 7 carbon dioxide + 0.5 nitrogen, diatomic + 4.5 water + -8.25 oxygen
Property: Specific internal energy of reaction at constant volume, J/g
-26959.5

Reaction: 1 2-methoxypyridine + -3.5 hydrogen + -0.5 nitrogen, diatomic + -6 carbon, graphite + -0.5 oxygen
Property: Molar internal energy of reaction at constant volume, kJ/mol
-87.8

Reaction: 1 2-methoxypyridine + -3.5 hydrogen + -0.5 nitrogen, diatomic + -6 carbon, graphite + -0.5 oxygen
Property: Molar internal energy of reaction at constant volume, kJ/mol
-42.7

Reaction: 1 pyridine, 4-methoxy- + -3.5 hydrogen + -0.5 nitrogen, diatomic + -6 carbon, graphite + -0.5 oxygen
Property: Molar internal energy of reaction at constant volume, kJ/mol
-75.6

Reaction: 1 pyridine, 4-methoxy- + -3.5 hydrogen + -0.5 nitrogen, diatomic + -6 carbon, graphite + -0.5 oxygen
Property: Molar internal energy of reaction at constant volume, kJ/mol
-17.2

Reaction: 1 2,6-dimethoxypyridine + -4.5 hydrogen + -0.5 nitrogen, diatomic + -7 carbon, graphite + -1 oxygen
Property: Molar internal energy of reaction at constant volume, kJ/mol
-287.4

Reaction: 1 2,6-dimethoxypyridine + -4.5 hydrogen + -0.5 nitrogen, diatomic + -7 carbon, graphite + -1 oxygen
Property: Molar internal energy of reaction at constant volume, kJ/mol
-233.5
