Measured thermophysical data. Phase transitions on (liquid + liquid) equilibria for (water + 1-methylnaphthalene + light aromatic hydrocarbon) ternary systems at T = (563, 573, and 583) K
Source: J. Chem. Thermodyn., 2012, 10.1016/j.jct.2012.06.008
Compound 1: water, H2O, purity 99.8%
Compound 2: benzene, 1,2-dimethyl-, C8H10, purity 98%
Compound 3: 1,3-xylene, C8H10, purity 98%
Compound 4: 1,4-dimethylbenzene, C8H10, purity 98%
Compound 5: ethylbenzene, C8H10, purity 98%
Compound 6: alpha-methyl naphthalene, C11H10, purity 97%
Compound 7: benzene, 1,3,5-trimethyl-, C9H12, purity 97%

System: alpha-methyl naphthalene + 1,4-dimethylbenzene + water; phases: Liquid mixture 1, Liquid mixture 2
Property: Phase boundary pressure, kPa (Liquid mixture 1); method: visual
Temperature, K	Solvent: Mole fraction of alpha-methyl naphthalene	Mole fraction of water	Phase boundary pressure, kPa	uncertainty
563	.8	.8	23400	100
563	.82	.76	16700	100
563	.85	.81	14900	100
563	.87	.79	12900	100
563	.9	.79	8900	100
563	.8	.9	23300	100
563	.82	.92	16300	100
563	.85	.91	14000	100
563	.87	.91	12400	100
563	.9	.91	9200	100
563	.8	.94	23100	100
563	.82	.95	15600	100
563	.85	.95	13900	100
563	.87	.96	12300	100
563	.9	.96	9600	100
573	.75	.77	24300	100
573	.78	.78	22000	100
573	.8	.78	19800	100
573	.85	.77	14600	100
573	.9	.79	11500	100
573	.93	.79	9500	100
573	.75	.91	24400	100
573	.78	.92	22500	100
573	.8	.92	19800	100
573	.85	.91	15800	100
573	.9	.91	11800	100
573	.93	.92	9400	100
573	.75	.95	24400	100
573	.78	.95	22500	100
573	.8	.94	19800	100
573	.85	.94	15900	100
573	.9	.96	12300	100
573	.93	.96	9400	100
583	.75	.79	23200	100
583	.78	.77	21100	100
583	.8	.81	19300	100
583	.85	.76	16800	100
583	.9	.76	13800	100
583	.93	.79	12000	100
583	.75	.9	23300	100
583	.78	.92	21200	100
583	.8	.91	19600	100
583	.85	.89	16700	100
583	.9	.92	14100	100
583	.93	.93	11900	100
583	.75	.96	23300	100
583	.78	.95	21100	100
583	.8	.95	19400	100
583	.85	.94	17200	100
583	.9	.94	13900	100
583	.93	.94	11900	100

System: alpha-methyl naphthalene + benzene, 1,2-dimethyl- + water; phases: Liquid mixture 1, Liquid mixture 2
Property: Phase boundary pressure, kPa (Liquid mixture 1); method: visual
Temperature, K	Solvent: Mole fraction of alpha-methyl naphthalene	Mole fraction of water	Phase boundary pressure, kPa	uncertainty
563	.75	.92	19400	100
563	.78	.93	17500	100
563	.8	.92	14500	100
563	.82	.89	12900	100
563	.85	.89	10600	100
563	.87	.93	9400	100
573	.75	.8	19900	100
573	.78	.78	17700	100
573	.8	.78	16100	100
573	.82	.77	14500	100
573	.85	.76	12500	100
573	.87	.79	11100	100
573	.9	.79	9700	100
573	.75	.9	20000	100
573	.78	.9	17700	100
573	.8	.92	14900	100
573	.82	.92	14500	100
573	.85	.93	12500	100
573	.87	.91	11100	100
573	.9	.91	9800	100
573	.75	.95	20000	100
573	.78	.96	17400	100
573	.8	.94	16100	100
573	.82	.95	14700	100
573	.85	.96	12700	100
573	.87	.94	11300	100
573	.9	.95	9700	100
583	.75	.89	20600	100
583	.78	.91	19000	100
583	.8	.91	17400	100
583	.82	.91	16400	100
583	.85	.9	15100	100
583	.87	.91	14000	100
583	.9	.93	12500	100

System: alpha-methyl naphthalene + 1,3-xylene + water; phases: Liquid mixture 1, Liquid mixture 2
Property: Phase boundary pressure, kPa (Liquid mixture 1); method: visual
Temperature, K	Solvent: Mole fraction of alpha-methyl naphthalene	Mole fraction of water	Phase boundary pressure, kPa	uncertainty
573	.75	.92	22900	100
573	.78	.91	19300	100
573	.8	.92	18100	100
573	.82	.9	15800	100
573	.85	.92	14300	100
573	.87	.91	12400	100

System: alpha-methyl naphthalene + ethylbenzene + water; phases: Liquid mixture 1, Liquid mixture 2
Property: Phase boundary pressure, kPa (Liquid mixture 1); method: visual
Temperature, K	Solvent: Mole fraction of alpha-methyl naphthalene	Mole fraction of water	Phase boundary pressure, kPa	uncertainty
573	.75	.92	21500	100
573	.78	.91	19200	100
573	.8	.91	17100	100
573	.82	.9	16000	100
573	.85	.9	14200	100
573	.87	.91	12200	100

System: alpha-methyl naphthalene + benzene, 1,3,5-trimethyl- + water; phases: Liquid mixture 1, Liquid mixture 2
Property: Phase boundary pressure, kPa (Liquid mixture 1); method: visual
Temperature, K	Solvent: Mole fraction of alpha-methyl naphthalene	Mole fraction of water	Phase boundary pressure, kPa	uncertainty
563	.8	.93	18100	100
563	.82	.93	15800	100
563	.85	.9	13100	100
563	.87	.9	11900	100
563	.9	.91	8600	100
573	.78	.81	21200	100
573	.8	.78	18600	100
573	.82	.78	17500	100
573	.85	.77	14800	100
573	.9	.78	11200	100
573	.78	.92	21400	100
573	.8	.92	19900	100
573	.82	.91	17500	100
573	.85	.92	15300	100
573	.9	.91	11200	100
573	.78	.95	21500	100
573	.8	.96	19900	100
573	.82	.96	17500	100
573	.85	.95	15300	100
573	.9	.96	11400	100
583	.78	.89	21500	100
583	.8	.91	20200	100
583	.82	.91	19000	100
583	.85	.92	16900	100
583	.88	.93	15000	100
583	.9	.9	13800	100
