Measured thermophysical data. A thermodynamic study of solute solvent interactions through dielectric properties of the mixtures consisting of 1,4-butanediol, 1-octanol, and 1,4-dioxane at different temperatures
Source: J. Chem. Thermodyn., 2012, 10.1016/j.jct.2012.05.032
Compound 1: 1,4-butanediol, C4H10O2, purity 98%
Compound 2: octyl alcohol, C8H18O, purity 98%
Compound 3: 1,4-dioxane, C4H8O2, purity 98%

System: 1,4-butanediol; phases: Liquid
Fixed: Pressure, kPa = 101.325
Property: Mass density, kg/m3 (Liquid); method: Vibrating tube method
Temperature, K	Mass density, kg/m3	uncertainty
298.2	1013.42	.01
308.2	1006.42	.01
318.2	1000.74	.01

System: 1,4-butanediol; phases: Liquid
Fixed: Pressure, kPa = 101.325
Property: Refractive index (Na D-line) (Liquid); method: Standard Abbe refractometry
Temperature, K	Refractive index (Na D-line)	uncertainty
298.2	1.4457	.0002
308.2	1.4422	.0002
318.2	1.4386	.0002
308.2	1.4417	.0002

System: octyl alcohol; phases: Liquid
Fixed: Pressure, kPa = 101.325
Property: Mass density, kg/m3 (Liquid); method: Vibrating tube method
Temperature, K	Mass density, kg/m3	uncertainty
298.2	821.69	.01
308.2	814.64	.01
318.2	805.55	.01

System: octyl alcohol; phases: Liquid
Fixed: Pressure, kPa = 101.325
Property: Refractive index (Na D-line) (Liquid); method: Standard Abbe refractometry
Temperature, K	Refractive index (Na D-line)	uncertainty
298.2	1.4276	.0002
308.2	1.4228	.0002
318.2	1.418	.0002
318.2	1.4185	.0002

System: 1,4-dioxane; phases: Liquid
Fixed: Pressure, kPa = 101.325
Property: Mass density, kg/m3 (Liquid); method: Vibrating tube method
Temperature, K	Mass density, kg/m3	uncertainty
298.2	1027.9	.01
308.2	1016.11	.01
318.2	1004.99	.01

System: 1,4-dioxane; phases: Liquid
Fixed: Pressure, kPa = 101.325
Property: Refractive index (Na D-line) (Liquid); method: Standard Abbe refractometry
Temperature, K	Refractive index (Na D-line)	uncertainty
298.2	1.42	.0002
308.2	1.4144	.0002
318.2	1.4092	.0002
308.2	1.4143	.0002
318.2	1.4084	.0002

System: 1,4-butanediol + 1,4-dioxane; phases: Liquid
Fixed: Pressure, kPa = 101.3
Property: Refractive index (Na D-line) (Liquid); method: Standard Abbe refractometry
Temperature, K	Mole fraction of 1,4-butanediol	Refractive index (Na D-line)	uncertainty
298.2	0	1.42	.0002
298.2	.1	1.4228	.0002
298.2	.2	1.4257	.0002
298.2	.3	1.4289	.0002
298.2	.4	1.4315	.0002
298.2	.45	1.4327	.0002
298.2	.5	1.4341	.0002
298.2	.549	1.4354	.0002
298.2	.6	1.4368	.0002
298.2	.7	1.439	.0002
298.2	.799	1.4412	.0002
298.2	.9	1.4437	.0002
298.2	.951	1.4448	.0002
298.2	1	1.4457	.0002
308.2	0	1.4144	.0002
308.2	.1	1.4177	.0002
308.2	.2	1.4207	.0002
308.2	.3	1.4233	.0002
308.2	.4	1.4262	.0002
308.2	.45	1.428	.0002
308.2	.5	1.4294	.0002
308.2	.549	1.4306	.0002
308.2	.6	1.4323	.0002
308.2	.7	1.4349	.0002
308.2	.799	1.4372	.0002
308.2	.9	1.4396	.0002
308.2	.951	1.441	.0002
308.2	1	1.4422	.0002
318.2	0	1.4092	.0002
318.2	.1	1.4125	.0002
318.2	.2	1.4157	.0002
318.2	.3	1.4181	.0002
318.2	.4	1.4212	.0002
318.2	.45	1.4231	.0002
318.2	.5	1.4248	.0002
318.2	.549	1.4262	.0002
318.2	.6	1.4275	.0002
318.2	.7	1.4303	.0002
318.2	.799	1.4332	.0002
318.2	.9	1.4356	.0002
318.2	.951	1.4369	.0002
318.2	1	1.4386	.0002

System: octyl alcohol + 1,4-dioxane; phases: Liquid
Fixed: Pressure, kPa = 101.3
Property: Refractive index (Na D-line) (Liquid); method: Standard Abbe refractometry
Temperature, K	Mole fraction of octyl alcohol	Refractive index (Na D-line)	uncertainty
298.2	0	1.42	.0002
298.2	.101	1.4203	.0002
298.2	.2	1.4208	.0002
298.2	.3	1.4215	.0002
298.2	.401	1.422	.0002
298.2	.451	1.4223	.0002
298.2	.5	1.4229	.0002
298.2	.549	1.4232	.0002
298.2	.601	1.4238	.0002
298.2	.7	1.4247	.0002
298.2	.799	1.4256	.0002
298.2	.901	1.4267	.0002
298.2	.951	1.4273	.0002
298.2	1	1.4276	.0002
308.2	0	1.4143	.0002
308.2	.101	1.4145	.0002
308.2	.2	1.4148	.0002
308.2	.3	1.4157	.0002
308.2	.401	1.4163	.0002
308.2	.451	1.4168	.0002
308.2	.5	1.4174	.0002
308.2	.549	1.4177	.0002
308.2	.601	1.4183	.0002
308.2	.7	1.4195	.0002
308.2	.799	1.4206	.0002
308.2	.901	1.4218	.0002
308.2	.951	1.4224	.0002
308.2	1	1.4228	.0002
318.2	0	1.4084	.0002
318.2	.101	1.4089	.0002
318.2	.2	1.4095	.0002
318.2	.3	1.4102	.0002
318.2	.401	1.411	.0002
318.2	.451	1.4119	.0002
318.2	.5	1.4122	.0002
318.2	.549	1.4128	.0002
318.2	.601	1.4134	.0002
318.2	.7	1.4143	.0002
318.2	.799	1.4154	.0002
318.2	.901	1.4166	.0002
318.2	.951	1.4169	.0002
318.2	1	1.418	.0002

System: 1,4-butanediol + octyl alcohol; phases: Liquid
Fixed: Pressure, kPa = 101.3
Property: Refractive index (Na D-line) (Liquid); method: Standard Abbe refractometry
Temperature, K	Mole fraction of 1,4-butanediol	Refractive index (Na D-line)	uncertainty
298.2	0	1.4276	.0002
298.2	.101	1.4281	.0002
298.2	.2	1.4292	.0002
298.2	.299	1.4304	.0002
298.2	.399	1.4315	.0002
298.2	.45	1.4324	.0002
298.2	.499	1.4336	.0002
298.2	.551	1.4344	.0002
298.2	.6	1.4353	.0002
298.2	.7	1.437	.0002
298.2	.799	1.439	.0002
298.2	.9	1.4416	.0002
298.2	.95	1.4429	.0002
298.2	1	1.4457	.0002
308.2	0	1.4228	.0002
308.2	.101	1.4237	.0002
308.2	.2	1.4249	.0002
308.2	.299	1.4266	.0002
308.2	.399	1.4281	.0002
308.2	.45	1.4289	.0002
308.2	.499	1.4298	.0002
308.2	.551	1.4309	.0002
308.2	.6	1.4315	.0002
308.2	.7	1.4338	.0002
308.2	.799	1.4362	.0002
308.2	.9	1.4385	.0002
308.2	.95	1.4399	.0002
308.2	1	1.4417	.0002
318.2	0	1.4185	.0002
318.2	.101	1.4205	.0002
318.2	.2	1.4216	.0002
318.2	.299	1.4226	.0002
318.2	.399	1.4243	.0002
318.2	.45	1.4252	.0002
318.2	.499	1.4263	.0002
318.2	.551	1.4278	.0002
318.2	.6	1.4284	.0002
318.2	.7	1.4306	.0002
318.2	.799	1.4333	.0002
318.2	.9	1.4365	.0002
318.2	.95	1.4373	.0002
318.2	1	1.4386	.0002
