Measured thermophysical data. Liquid-liquid equilibrium measurements and correlation for phase behaviors of alcohols + heptane + ILs ternary systems
Source: J. Chem. Thermodyn., 2017, 10.1016/j.jct.2016.11.026
Compound 1: ethanol, C2H6O, purity 99.5%
Compound 2: 1-propanol, C3H8O, purity 99.5%
Compound 3: 2-propanol, C3H8O, purity 99.5%
Compound 4: n-heptane, C7H16, purity 99.5%
Compound 5: 1-hexyl-3-methylimidazolium tetrafluoroborate, C10H19BF4N2, purity 99.0%
Compound 6: 1-hexyl-3-methylimidazolium bis(trifluoromethylsulfonyl)imide, C12H19F6N3O4S2, purity 99.0%

System: ethanol + n-heptane + 1-hexyl-3-methylimidazolium tetrafluoroborate; phases: Liquid mixture 2, Liquid mixture 1
Fixed: Pressure, kPa = 100
Property: Mole fraction of n-heptane (Liquid mixture 2); method: Chromatography
Property: Mole fraction of ethanol (Liquid mixture 1); method: Chromatography
Property: Mole fraction of n-heptane (Liquid mixture 1); method: Chromatography
Temperature, K	Mole fraction of ethanol	Mole fraction of n-heptane	uncertainty	Mole fraction of ethanol	uncertainty	Mole fraction of n-heptane	uncertainty
298.15	.233	.031	.003	.014	.003	.986	.003
298.15	.45	.031	.003	.034	.003	.966	.003
298.15	.516	.032	.003	.052	.003	.948	.003
298.15	.539	.044	.003	.123	.003	.877	.003
298.15	.624	.053	.003	.258	.003	.742	.003
298.15	.683	.06	.003	.473	.003	.526	.003
298.15	.698	.07	.003	.558	.003	.438	.003
298.15	.73	.077	.003	.603	.003	.392	.003
298.15	.741	.087	.003	.661	.003	.33	.003

System: 1-propanol + n-heptane + 1-hexyl-3-methylimidazolium tetrafluoroborate; phases: Liquid mixture 2, Liquid mixture 1
Fixed: Pressure, kPa = 100
Property: Mole fraction of n-heptane (Liquid mixture 2); method: Chromatography
Property: Mole fraction of 1-propanol (Liquid mixture 1); method: Chromatography
Property: Mole fraction of n-heptane (Liquid mixture 1); method: Chromatography
Temperature, K	Mole fraction of 1-propanol	Mole fraction of n-heptane	uncertainty	Mole fraction of 1-propanol	uncertainty	Mole fraction of n-heptane	uncertainty
298.15	.123	.046	.003	.012	.003	.988	.003
298.15	.206	.048	.003	.103	.003	.896	.003
298.15	.283	.051	.003	.168	.003	.832	.003
298.15	.333	.055	.003	.245	.003	.755	.003
298.15	.473	.066	.003	.378	.003	.622	.003
298.15	.532	.074	.003	.452	.003	.548	.003
298.15	.586	.089	.003	.502	.003	.495	.003
298.15	.611	.107	.003	.566	.003	.426	.003
298.15	.641	.125	.003	.61	.003	.374	.003

System: 2-propanol + n-heptane + 1-hexyl-3-methylimidazolium tetrafluoroborate; phases: Liquid mixture 2, Liquid mixture 1
Fixed: Pressure, kPa = 100
Property: Mole fraction of n-heptane (Liquid mixture 2); method: Chromatography
Property: Mole fraction of 2-propanol (Liquid mixture 1); method: Chromatography
Property: Mole fraction of n-heptane (Liquid mixture 1); method: Chromatography
Temperature, K	Mole fraction of 2-propanol	Mole fraction of n-heptane	uncertainty	Mole fraction of 2-propanol	uncertainty	Mole fraction of n-heptane	uncertainty
298.15	.147	.075	.003	.01	.003	.99	.003
298.15	.267	.08	.003	.091	.003	.909	.003
298.15	.346	.089	.003	.181	.003	.819	.003
298.15	.389	.095	.003	.241	.003	.759	.003
298.15	.43	.094	.003	.293	.003	.706	.003
298.15	.48	.098	.003	.344	.003	.655	.003

System: 2-propanol + n-heptane + 1-hexyl-3-methylimidazolium bis(trifluoromethylsulfonyl)imide; phases: Liquid mixture 2, Liquid mixture 1
Fixed: Pressure, kPa = 100
Property: Mole fraction of n-heptane (Liquid mixture 2); method: Chromatography
Property: Mole fraction of 2-propanol (Liquid mixture 1); method: Chromatography
Property: Mole fraction of n-heptane (Liquid mixture 1); method: Chromatography
Temperature, K	Mole fraction of 2-propanol	Mole fraction of n-heptane	uncertainty	Mole fraction of 2-propanol	uncertainty	Mole fraction of n-heptane	uncertainty
298.15	.193	.079	.003	.061	.003	.939	.003
298.15	.305	.089	.003	.1	.003	.9	.003
298.15	.4	.094	.003	.172	.003	.827	.003
298.15	.513	.094	.003	.226	.003	.771	.003
298.15	.616	.097	.003	.296	.003	.704	.003
