Measured thermophysical data. Assessment, measurement and correlation of (vapour + liquid) equilibrium of (carbon dioxide + butyl, isobutyl, and amyl formate) systems
Source: J. Chem. Thermodyn., 2013, 10.1016/j.jct.2013.05.017
Compound 1: carbon dioxide, CO2, purity 99.9%
Compound 2: ethanol, C2H6O, purity 99.9%
Compound 3: butyl methanoate, C5H10O2, purity 97%
Compound 4: isobutyl formate, C5H10O2, purity 95%
Compound 5: amyl formate, C6H12O2, purity 95%

System: ethanol + carbon dioxide; phases: Liquid, Gas
Property: Mole fraction of carbon dioxide (Liquid); method: Chromatography
Temperature, K	Pressure, kPa	Mole fraction of carbon dioxide	uncertainty
293.15	716.3	.053	.015
293.15	1642.9	.1273	.015
293.15	2169	.1848	.015
303.15	930.6	.0622	.015
303.15	1970.3	.1282	.015
303.15	2903.5	.2061	.015

System: carbon dioxide + butyl methanoate; phases: Liquid, Gas
Property: Vapor or sublimation pressure, kPa (Liquid); method: Closed cell (Static) method
Mole fraction of carbon dioxide	Temperature, K	Vapor or sublimation pressure, kPa	uncertainty
.1028	283.15	219.6	.9
.2147	283.15	516.3	.9
.3213	283.15	859	.9
.3988	283.15	1148.6	.9
.5051	283.15	1622.5	.9
.6156	283.15	2145.8	.9
.7187	283.15	2770.8	.9
.8421	283.15	3618.8	.9
.1112	293.15	329.4	.9
.1988	293.15	635	.9
.3077	293.15	1101	.9
.3998	293.15	1552	.9
.5122	293.15	2111	.9
.6111	293.15	2681.3	.9
.7122	293.15	3384	.9
.811	293.15	4151	.9
.8864	293.15	4755	.9
.1131	303.15	403.2	.9
.1998	303.15	781.2	.9
.3101	303.15	1312	.9
.3741	303.15	1662	.9
.4021	303.15	1822	.9
.4875	303.15	2303	.9
.6012	303.15	3064	.9
.7231	303.15	3989	.9
.8144	303.15	4728	.9
.8533	303.15	5112.6	.9
.0879	313.15	336.1	.9
.1998	313.15	931.1	.9
.3178	313.15	1604	.9
.4011	313.15	2114	.9
.4897	313.15	2746	.9
.0877	323.15	421.3	.9
.1871	323.15	1007.4	.9
.2614	323.15	1450.6	.9
.3669	323.15	2207.8	.9
.4635	323.15	2950.5	.9
.5533	323.15	3760.2	.9
.6455	323.15	4702.5	.9
.711	323.15	5350.1	.9
.0911	333.15	531	.9
.2121	333.15	1360.5	.9
.2988	333.15	2035	.9
.3877	333.15	2833.5	.9
.4679	333.15	3565	.9
.5011	333.15	3928.1	.9
.589	333.15	4852	.9
.6383	333.15	5451	.9
.0425	343.15	325.2	.9
.1212	343.15	961.6	.9
.2019	343.15	1680.1	.9
.2788	343.15	2411	.9
.355	343.15	3218	.9
.4287	343.15	4042.1	.9
.4995	343.15	4731.8	.9
.558	343.15	5447	.9
.5788	313.15	3423.8	.9
.6991	313.15	4440.8	.9
.7877	313.15	5272	.9

System: carbon dioxide + butyl methanoate; phases: Gas, Liquid
Property: Mole fraction of carbon dioxide (Gas); method: Chromatography
Mole fraction of carbon dioxide	Temperature, K	Mole fraction of carbon dioxide	uncertainty
.1028	283.15	.9968	.015
.2147	283.15	.9969	.015
.3213	283.15	.9969	.015
.3988	283.15	.9972	.015
.5051	283.15	.9971	.015
.6156	283.15	.997	.015
.7187	283.15	.9976	.015
.8421	283.15	.9979	.015
.1112	293.15	.9959	.015
.1988	293.15	.9959	.015
.3077	293.15	.9958	.015
.3998	293.15	.996	.015
.5122	293.15	.9965	.015
.6111	293.15	.9962	.015
.7122	293.15	.9966	.015
.811	293.15	.9966	.015
.8864	293.15	.9969	.015
.1131	303.15	.995	.015
.1998	303.15	.9952	.015
.3101	303.15	.9949	.015
.3741	303.15	.9953	.015
.4021	303.15	.9958	.015
.4875	303.15	.9958	.015
.6012	303.15	.9957	.015
.7231	303.15	.9959	.015
.8144	303.15	.9959	.015
.8533	303.15	.9962	.015
.0879	313.15	.9939	.015
.1998	313.15	.9943	.015
.3178	313.15	.9943	.015
.4011	313.15	.9941	.015
.4897	313.15	.9946	.015
.0877	323.15	.9912	.015
.1871	323.15	.9913	.015
.2614	323.15	.9915	.015
.3669	323.15	.9913	.015
.4635	323.15	.9916	.015
.5533	323.15	.9917	.015
.6455	323.15	.9918	.015
.711	323.15	.992	.015
.0911	333.15	.99	.015
.2121	333.15	.99	.015
.2988	333.15	.99	.015
.3877	333.15	.989	.015
.4679	333.15	.991	.015
.5011	333.15	.9911	.015
.589	333.15	.9912	.015
.6383	333.15	.99	.015
.0425	343.15	.986	.015
.1212	343.15	.986	.015
.2019	343.15	.985	.015
.2788	343.15	.986	.015
.355	343.15	.987	.015
.4287	343.15	.985	.015
.4995	343.15	.988	.015
.558	343.15	.988	.015
.5788	313.15	.9946	.015
.6991	313.15	.9947	.015
.7877	313.15	.9948	.015

System: carbon dioxide + isobutyl formate; phases: Liquid, Gas
Property: Vapor or sublimation pressure, kPa (Liquid); method: Closed cell (Static) method
Mole fraction of carbon dioxide	Temperature, K	Vapor or sublimation pressure, kPa	uncertainty
.0825	283.15	201.2	.9
.1812	283.15	425.2	.9
.2658	283.15	662.1	.9
.3566	283.15	962.3	.9
.4468	283.15	1328	.9
.5619	283.15	1852.3	.9
.6799	283.15	2552	.9
.7879	283.15	3285	.9
.8712	283.15	3954	.9
.0891	293.15	325.2	.9
.1711	293.15	585.5	.9
.2817	293.15	1012	.9
.3681	293.15	1428	.9
.4877	293.15	2061	.9
.5919	293.15	2692	.9
.7562	293.15	3903	.9
.7888	293.15	4192	.9
.8563	293.15	4859	.9
.1011	303.15	412.5	.9
.1722	303.15	701	.9
.2619	303.15	1118	.9
.3255	303.15	1484	.9
.4077	303.15	1941	.9
.4907	303.15	2477	.9
.5699	303.15	3092	.9
.6744	303.15	3985	.9
.7509	303.15	4738	.9
.0822	313.15	400.5	.9
.1528	313.15	732.6	.9
.2343	313.15	1190.1	.9
.3155	313.15	1725	.9
.3892	313.15	2222	.9
.4799	313.15	2938	.9
.5577	313.15	3618	.9
.6422	313.15	4483	.9
.7028	313.15	5082	.9
.0555	323.15	329.8	.9
.1448	323.15	852.8	.9
.2111	323.15	1285.5	.9
.2728	323.15	1755	.9
.3652	323.15	2485	.9
.4568	323.15	3283	.9
.5322	323.15	3982	.9
.6121	323.15	4795	.9
.6675	323.15	5458	.9
.0616	333.15	434.4	.9
.1451	333.15	1025	.9
.2218	333.15	1598	.9
.2772	333.15	2089.5	.9
.3578	333.15	2801	.9
.4025	333.15	3208	.9
.4621	333.15	3802	.9
.5368	333.15	4582	.9
.602	333.15	5499	.9
.081	343.15	649.8	.9
.1722	343.15	1462	.9
.2488	343.15	2185	.9
.3025	343.15	2755	.9
.3882	343.15	3627	.9
.4521	343.15	4312	.9
.5234	343.15	5161	.9
.5513	343.15	5523	.9

System: carbon dioxide + isobutyl formate; phases: Gas, Liquid
Property: Mole fraction of carbon dioxide (Gas); method: Chromatography
Mole fraction of carbon dioxide	Temperature, K	Mole fraction of carbon dioxide	uncertainty
.0825	283.15	.9942	.015
.1812	283.15	.9943	.015
.2658	283.15	.9945	.015
.3566	283.15	.9945	.015
.4468	283.15	.9948	.015
.5619	283.15	.9948	.015
.6799	283.15	.9949	.015
.7879	283.15	.9951	.015
.8712	283.15	.9951	.015
.0891	293.15	.993	.015
.1711	293.15	.993	.015
.2817	293.15	.9931	.015
.3681	293.15	.9933	.015
.4877	293.15	.9934	.015
.5919	293.15	.9935	.015
.7562	293.15	.9938	.015
.7888	293.15	.994	.015
.8563	293.15	.9942	.015
.1011	303.15	.9925	.015
.1722	303.15	.9924	.015
.2619	303.15	.9926	.015
.3255	303.15	.9928	.015
.4077	303.15	.9928	.015
.4907	303.15	.9926	.015
.5699	303.15	.9929	.015
.6744	303.15	.993	.015
.7509	303.15	.9933	.015
.0822	313.15	.9918	.015
.1528	313.15	.9918	.015
.2343	313.15	.9917	.015
.3155	313.15	.9919	.015
.3892	313.15	.992	.015
.4799	313.15	.992	.015
.5577	313.15	.992	.015
.6422	313.15	.9921	.015
.7028	313.15	.9919	.015
.0555	323.15	.991	.015
.1448	323.15	.9911	.015
.2111	323.15	.9911	.015
.2728	323.15	.991	.015
.3652	323.15	.9915	.015
.4568	323.15	.9915	.015
.5322	323.15	.9916	.015
.6121	323.15	.9916	.015
.6675	323.15	.9914	.015
.0616	333.15	.9882	.015
.1451	333.15	.9882	.015
.2218	333.15	.9882	.015
.2772	333.15	.9886	.015
.3578	333.15	.988	.015
.4025	333.15	.9895	.015
.4621	333.15	.989	.015
.5368	333.15	.9895	.015
.602	333.15	.9895	.015
.081	343.15	.9851	.015
.1722	343.15	.9852	.015
.2488	343.15	.9852	.015
.3025	343.15	.9855	.015
.3882	343.15	.9856	.015
.4521	343.15	.9856	.015
.5234	343.15	.9856	.015
.5513	343.15	.9857	.015

System: carbon dioxide + amyl formate; phases: Liquid, Gas
Property: Vapor or sublimation pressure, kPa (Liquid); method: Closed cell (Static) method
Mole fraction of carbon dioxide	Temperature, K	Vapor or sublimation pressure, kPa	uncertainty
.1126	283.15	206.6	.9
.1928	283.15	402.2	.9
.2798	283.15	661.1	.9
.3944	283.15	1053	.9
.5152	283.15	1558	.9
.6253	283.15	2133	.9
.7078	283.15	2529	.9
.8155	283.15	3208	.9
.9011	283.15	3799.2	.9
.0825	293.15	200.5	.9
.1639	293.15	441.5	.9
.2538	293.15	799.5	.9
.3654	293.15	1286.2	.9
.4255	293.15	1602.2	.9
.5011	293.15	1957	.9
.5846	293.15	2411	.9
.6637	293.15	2859	.9
.7025	293.15	3127	.9
.8115	293.15	3878	.9
.8922	293.15	4555	.9
.0606	303.15	200.8	.9
.1623	303.15	573.6	.9
.2587	303.15	1019	.9
.3499	303.15	1487.2	.9
.4533	303.15	2073	.9
.5371	303.15	2584	.9
.6793	303.15	3535.4	.9
.7671	303.15	4218	.9
.8355	303.15	4750.1	.9
.9022	303.15	5433.1	.9
.0811	313.15	352.5	.9
.1555	313.15	699.2	.9
.2359	313.15	1141.9	.9
.3297	313.15	1654	.9
.4093	313.15	2146	.9
.4913	313.15	2677	.9
.5766	313.15	3267	.9
.6622	313.15	3967	.9
.7534	313.15	4793	.9
.8209	313.15	5493	.9
.0907	323.15	492.1	.9
.1681	323.15	927	.9
.2534	323.15	1469.2	.9
.3305	323.15	1988.8	.9
.4118	323.15	2552.6	.9
.5247	323.15	3467	.9
.6121	323.15	4252.5	.9
.684	323.15	4915.3	.9
.7207	323.15	5281	.9
.0722	333.15	456.6	.9
.1512	333.15	964.1	.9
.229	333.15	1526	.9
.2942	333.15	2052	.9
.3823	333.15	2801.5	.9
.4627	333.15	3556.4	.9
.5505	333.15	4469	.9
.6392	333.15	5428	.9
.0722	343.15	535.8	.9
.1512	343.15	1108	.9
.229	343.15	1798	.9
.2942	343.15	2512	.9
.3823	343.15	3303	.9
.4627	343.15	3955	.9
.5505	343.15	4947	.9
.6392	343.15	5511	.9

System: carbon dioxide + amyl formate; phases: Gas, Liquid
Property: Mole fraction of carbon dioxide (Gas); method: Chromatography
Mole fraction of carbon dioxide	Temperature, K	Mole fraction of carbon dioxide	uncertainty
.1126	283.15	.9985	.015
.1928	283.15	.9986	.015
.2798	283.15	.9986	.015
.3944	283.15	.9985	.015
.5152	283.15	.9988	.015
.6253	283.15	.9989	.015
.7078	283.15	.999	.015
.8155	283.15	.9991	.015
.9011	283.15	.9992	.015
.0825	293.15	.9978	.015
.1639	293.15	.9979	.015
.2538	293.15	.9978	.015
.3654	293.15	.9978	.015
.4255	293.15	.9979	.015
.5011	293.15	.998	.015
.5846	293.15	.9983	.015
.6637	293.15	.9985	.015
.7025	293.15	.9988	.015
.8115	293.15	.9989	.015
.8922	293.15	.9989	.015
.0606	303.15	.9969	.015
.1623	303.15	.9969	.015
.2587	303.15	.9969	.015
.3499	303.15	.997	.015
.4533	303.15	.9968	.015
.5371	303.15	.9973	.015
.6793	303.15	.9975	.015
.7671	303.15	.9975	.015
.8355	303.15	.9976	.015
.9022	303.15	.9977	.015
.0811	313.15	.9952	.015
.1555	313.15	.9956	.015
.2359	313.15	.9956	.015
.3297	313.15	.9958	.015
.4093	313.15	.996	.015
.4913	313.15	.9961	.015
.5766	313.15	.9962	.015
.6622	313.15	.9962	.015
.7534	313.15	.9963	.015
.8209	313.15	.9963	.015
.0907	323.15	.9943	.015
.1681	323.15	.9943	.015
.2534	323.15	.9943	.015
.3305	323.15	.9945	.015
.4118	323.15	.9946	.015
.5247	323.15	.9947	.015
.6121	323.15	.9949	.015
.684	323.15	.995	.015
.7207	323.15	.9952	.015
.0722	333.15	.9936	.015
.1512	333.15	.9936	.015
.229	333.15	.9935	.015
.2942	333.15	.9934	.015
.3823	333.15	.9938	.015
.4627	333.15	.9942	.015
.5505	333.15	.9941	.015
.6392	333.15	.9941	.015
.0722	343.15	.9936	.015
.1512	343.15	.9936	.015
.229	343.15	.9935	.015
.2942	343.15	.9934	.015
.3823	343.15	.9938	.015
.4627	343.15	.9942	.015
.5505	343.15	.9941	.015
.6392	343.15	.9941	.015
