Measured thermophysical data. (p, rho, T, x) properties for CO2/n-butane binary mixtures at T = (280 to 440) K and (3 to 200) MPa
Source: J. Chem. Thermodyn., 2011, 10.1016/j.jct.2010.11.012
Compound 1: carbon dioxide, CO2
Compound 2: n-butane, C4H10

System: n-butane + carbon dioxide; phases: Liquid
Property: Mass density, kg/m3 (Liquid); method: Bellows volumetry
Mole fraction of carbon dioxide	Temperature, K	Pressure, kPa	Mass density, kg/m3	uncertainty
.2322	280	200000	770.7	.22
.2322	280	180000	762.53	.22
.2322	280	160000	754.11	.22
.2322	280	140000	744.8	.22
.2322	280	120000	734.32	.22
.2322	280	100000	723.23	.22
.2322	280	90000	716.71	.1
.2322	280	80000	710.1	.1
.2322	280	70000	703.24	.1
.2322	280	60000	695.74	.1
.2322	280	50000	687.34	.1
.2322	280	40000	678.47	.1
.2322	280	30000	667.86	.1
.2322	280	20000	656.07	.1
.2322	280	10000	642.11	.1
.2322	280	5000	633.96	.1
.2322	280	3000	630.31	.1
.2322	320	200000	748.41	.22
.2322	320	180000	739.97	.22
.2322	320	160000	730.08	.22
.2322	320	140000	719.63	.22
.2322	320	120000	707.88	.22
.2322	320	100000	694.73	.22
.2322	320	90000	687.47	.1
.2322	320	80000	679.91	.1
.2322	320	70000	671.53	.1
.2322	320	60000	662.33	.1
.2322	320	50000	652.04	.1
.2322	320	40000	640.44	.1
.2322	320	30000	627.12	.1
.2322	320	20000	611.12	.1
.2322	320	10000	589.62	.1
.2322	320	5000	575.82	.1
.2322	360	200000	727.81	.22
.2322	360	180000	718.38	.22
.2322	360	160000	707.43	.22
.2322	360	140000	695.82	.22
.2322	360	120000	683.01	.22
.2322	360	100000	667.72	.22
.2322	360	90000	659.56	.1
.2322	360	80000	650.47	.1
.2322	360	70000	640.64	.1
.2322	360	60000	629.59	.1
.2322	360	50000	616.98	.1
.2322	360	40000	602.48	.1
.2322	360	30000	584.81	.1
.2322	360	20000	561.64	.1
.2322	360	10000	527.83	.1
.2322	400	200000	706.63	.22
.2322	400	180000	696.37	.22
.2322	400	160000	684.45	.22
.2322	400	140000	671.62	.22
.2322	400	120000	657.01	.22
.2322	400	100000	640.36	.22
.2322	400	90000	631	.1
.2322	400	80000	620.59	.1
.2322	400	70000	609.35	.1
.2322	400	60000	596.43	.1
.2322	400	50000	581.4	.1
.2322	400	40000	563.25	.1
.2322	400	30000	540.33	.1
.2322	400	20000	507.96	.1
.2322	400	10000	446.86	.1
.2322	440	200000	688.15	.22
.2322	440	180000	676.7	.22
.2322	440	160000	664.25	.22
.2322	440	140000	650.31	.22
.2322	440	120000	634.32	.22
.2322	440	100000	615.81	.22
.2322	440	90000	605.1	.1
.2322	440	80000	593.42	.1
.2322	440	70000	580.32	.1
.2322	440	60000	565.31	.1
.2322	440	50000	547.37	.1
.2322	440	40000	525.21	.1
.2322	440	30000	495.88	.1
.2322	440	20000	450.53	.1
.4794	280	200000	856.48	.22
.4794	280	180000	847.4	.22
.4794	280	160000	836.77	.22
.4794	280	140000	825.4	.22
.4794	280	120000	812.9	.22
.4794	280	100000	798.9	.22
.4794	280	90000	791.49	.1
.4794	280	80000	783.23	.1
.4794	280	70000	774.33	.1
.4794	280	60000	764.81	.1
.4794	280	50000	754.67	.1
.4794	280	40000	742.52	.1
.4794	280	30000	728.81	.1
.4794	280	20000	712.84	.1
.4794	280	10000	692.87	.1
.4794	280	5000	680.75	.1
.4794	300	200000	842.22	.22
.4794	300	180000	832.12	.22
.4794	300	160000	820.91	.22
.4794	300	140000	809.12	.22
.4794	300	120000	795.54	.22
.4794	300	100000	780.58	.22
.4794	300	90000	772.13	.1
.4794	300	80000	763.35	.1
.4794	300	70000	753.65	.1
.4794	300	60000	742.9	.1
.4794	300	50000	731.07	.1
.4794	300	40000	717.56	.1
.4794	300	30000	701.65	.1
.4794	300	20000	682.52	.1
.4794	300	10000	657.02	.1
.4794	300	5000	639.52	.1
.4794	320	200000	828.26	.22
.4794	320	180000	817.41	.22
.4794	320	160000	805.87	.22
.4794	320	140000	793	.22
.4794	320	120000	778.9	.22
.4794	320	100000	762.74	.22
.4794	320	90000	753.75	.1
.4794	320	80000	744.07	.1
.4794	320	70000	733.06	.1
.4794	320	60000	721.35	.1
.4794	320	50000	708.18	.1
.4794	320	40000	692.66	.1
.4794	320	30000	674.04	.1
.4794	320	20000	650.15	.1
.4794	320	10000	616.31	.1
.4794	340	200000	815.1	.22
.4794	340	180000	803.57	.22
.4794	340	160000	791.24	.22
.4794	340	140000	777.74	.22
.4794	340	120000	762.5	.22
.4794	340	100000	745.33	.22
.4794	340	90000	735.81	.1
.4794	340	80000	724.94	.1
.4794	340	70000	713.41	.1
.4794	340	60000	700	.1
.4794	340	50000	685.08	.1
.4794	340	40000	667.35	.1
.4794	340	30000	645.49	.1
.4794	340	20000	616.43	.1
.4794	340	10000	569.54	.1
.4794	360	200000	802.28	.22
.4794	360	180000	790.57	.22
.4794	360	160000	777.86	.22
.4794	360	140000	763.38	.22
.4794	360	120000	747.06	.22
.4794	360	100000	728.39	.22
.4794	360	90000	717.86	.1
.4794	360	80000	706.48	.1
.4794	360	70000	693.75	.1
.4794	360	60000	679.22	.1
.4794	360	50000	662.49	.1
.4794	360	40000	642.35	.1
.4794	360	30000	616.95	.1
.4794	360	20000	580.87	.1
.4794	360	10000	511.93	.1
.4794	380	200000	789.44	.22
.4794	380	180000	776.93	.22
.4794	380	160000	763.43	.22
.4794	380	140000	748.2	.22
.4794	380	120000	731.12	.22
.4794	380	100000	711.49	.22
.4794	380	90000	700.34	.1
.4794	380	80000	687.97	.1
.4794	380	70000	674.23	.1
.4794	380	60000	658.27	.1
.4794	380	50000	639.71	.1
.4794	380	40000	616.84	.1
.4794	380	30000	587.13	.1
.4794	380	20000	542.77	.1
.4794	400	200000	777.01	.22
.4794	400	180000	764.27	.22
.4794	400	160000	749.98	.22
.4794	400	140000	734.23	.22
.4794	400	120000	716.06	.22
.4794	400	100000	695.05	.22
.4794	400	90000	682.95	.1
.4794	400	80000	669.8	.1
.4794	400	70000	654.78	.1
.4794	400	60000	637.36	.1
.4794	400	50000	616.85	.1
.4794	400	40000	591.24	.1
.4794	400	30000	556.87	.1
.4794	400	20000	502.33	.1
.4794	420	200000	764.81	.22
.4794	420	180000	751.63	.22
.4794	420	160000	736.74	.22
.4794	420	140000	719.99	.22
.4794	420	120000	701.1	.22
.4794	420	100000	678.91	.22
.4794	420	90000	666.23	.1
.4794	420	80000	652.07	.1
.4794	420	70000	635.97	.1
.4794	420	60000	617.32	.1
.4794	420	50000	595.02	.1
.4794	420	40000	566.28	.1
.4794	420	30000	526.92	.1
.4794	440	200000	754.38	.22
.4794	440	180000	740.16	.22
.4794	440	160000	724.96	.22
.4794	440	140000	707.66	.22
.4794	440	120000	687.84	.22
.4794	440	100000	664.29	.22
.4794	440	90000	651.02	.1
.4794	440	80000	635.67	.1
.4794	440	70000	618.26	.1
.4794	440	60000	597.98	.1
.4794	440	50000	573.48	.1
.4794	440	40000	541.84	.1
.4794	440	30000	497.45	.1
.715	280	200000	983.53	.22
.715	280	180000	971.36	.22
.715	280	160000	958.48	.22
.715	280	140000	944.48	.22
.715	280	120000	928.62	.22
.715	280	100000	910.69	.22
.715	280	90000	901.14	.1
.715	280	80000	890.87	.1
.715	280	70000	878.47	.1
.715	280	60000	866.13	.1
.715	280	50000	852	.1
.715	280	40000	836.27	.1
.715	280	30000	817.62	.1
.715	280	20000	794.78	.1
.715	280	10000	764.37	.1
.715	280	5000	743.91	.1
.715	320	200000	945.52	.22
.715	320	180000	931.83	.22
.715	320	160000	917.22	.22
.715	320	140000	900.69	.22
.715	320	120000	882.45	.22
.715	320	100000	861.47	.22
.715	320	90000	849.86	.1
.715	320	80000	836.62	.1
.715	320	70000	822.63	.1
.715	320	60000	806.49	.1
.715	320	50000	787.84	.1
.715	320	40000	765.65	.1
.715	320	30000	738.09	.1
.715	320	20000	700.42	.1
.715	320	10000	634.09	.1
.715	360	200000	910.63	.22
.715	360	180000	895.71	.22
.715	360	160000	878.95	.22
.715	360	140000	861.07	.22
.715	360	120000	839.59	.22
.715	360	100000	815.17	.22
.715	360	90000	801.06	.1
.715	360	80000	785.74	.1
.715	360	70000	768.11	.1
.715	360	60000	747.95	.1
.715	360	50000	724.09	.1
.715	360	40000	694.03	.1
.715	360	30000	653.81	.1
.715	360	20000	589.3	.1
.715	400	200000	876.67	.22
.715	400	180000	860.22	.22
.715	400	160000	841.99	.22
.715	400	140000	821.54	.22
.715	400	120000	797.97	.22
.715	400	100000	770.02	.22
.715	400	90000	753.9	.1
.715	400	80000	735.73	.1
.715	400	70000	714.95	.1
.715	400	60000	690.23	.1
.715	400	50000	660.78	.1
.715	400	40000	621.7	.1
.715	400	30000	566.01	.1
.715	440	200000	846.42	.22
.715	440	180000	828.38	.22
.715	440	160000	808.63	.22
.715	440	140000	786.09	.22
.715	440	120000	759.95	.22
.715	440	100000	728.79	.22
.715	440	90000	710.59	.1
.715	440	80000	689.85	.1
.715	440	70000	665.83	.1
.715	440	60000	637.06	.1
.715	440	50000	601.28	.1
.715	440	40000	554.08	.1
