Measured thermophysical data. Experimental and theoretical thermochemistry of b-tetralone
Source: J. Chem. Thermodyn., 2008, 10.1016/j.jct.2008.06.019
Compound 1: .beta.-tetralone, C10H10O, purity 99.7%
Compound 2: carbon dioxide, CO2
Compound 3: water, H2O
Compound 4: oxygen, O2

System: .beta.-tetralone; phases: Liquid, Gas
Property: Molar enthalpy of vaporization or sublimation, kJ/mol (Liquid); method: Static calorimetry
Temperature, K	Molar enthalpy of vaporization or sublimation, kJ/mol	uncertainty
298.15	73	1.1

System: .beta.-tetralone; phases: Gas
Property: Molar enthalpy, kJ/mol (Gas); method: Calvet microcalorimetry
Temperature, K	Pressure, kPa	Molar enthalpy, kJ/mol	uncertainty
363	101	79.9	1.3

Reaction: -1 .beta.-tetralone + 10 carbon dioxide + 5 water + -12 oxygen
Property: Specific internal energy of reaction at constant volume, J/g
-35646.3
