Measured thermophysical data. Excess molar volumes and excess isentropic compressibilities of binary and ternary mixtures of o-chlorotoluene with cyclic ether and amides or cyclohexane at different temperatures
Source: J. Chem. Thermodyn., 2014, 10.1016/j.jct.2014.06.030
Compound 1: o-chlorotoluene, C7H7Cl
Compound 2: tetrahydropyran, C5H10O
Compound 3: N-methylformamide, C2H5NO
Compound 4: N,N-dimethylformamide, C3H7NO
Compound 5: cyclohexane, C6H12

System: o-chlorotoluene; phases: Liquid
Fixed: Pressure, kPa = 101.325
Property: Mass density, kg/m3 (Liquid); method: Vibrating tube method
Temperature, K	Mass density, kg/m3	uncertainty
298.15	1077.3	.5
303.15	1072.5	.5
308.15	1067.6	.5

System: o-chlorotoluene; phases: Liquid
Fixed: Pressure, kPa = 101.325
Property: Speed of sound, m/s (Liquid); method: Sing-around technique in a fixed-path interferometer
Temperature, K	Speed of sound, m/s	uncertainty
298.15	1298.7	.5
303.15	1280.7	.5
308.15	1262.7	.5

System: tetrahydropyran; phases: Liquid
Fixed: Pressure, kPa = 101.325
Property: Mass density, kg/m3 (Liquid); method: Vibrating tube method
Temperature, K	Mass density, kg/m3	uncertainty
298.15	879.13	.5
303.15	873.99	.5
308.15	868.83	.5

System: tetrahydropyran; phases: Liquid
Fixed: Pressure, kPa = 101.325
Property: Speed of sound, m/s (Liquid); method: Sing-around technique in a fixed-path interferometer
Temperature, K	Speed of sound, m/s	uncertainty
298.15	1269.8	.5
303.15	1246.8	.5
308.15	1224.4	.5

System: N-methylformamide; phases: Liquid
Fixed: Pressure, kPa = 101.325
Property: Mass density, kg/m3 (Liquid); method: Vibrating tube method
Temperature, K	Mass density, kg/m3	uncertainty
298.15	999	.5
303.15	994.65	.5
308.15	990.3	.5

System: N-methylformamide; phases: Liquid
Fixed: Pressure, kPa = 101.325
Property: Speed of sound, m/s (Liquid); method: Sing-around technique in a fixed-path interferometer
Temperature, K	Speed of sound, m/s	uncertainty
298.15	1431.6	.5
303.15	1417.4	.5
308.15	1402.2	.5

System: N,N-dimethylformamide; phases: Liquid
Fixed: Pressure, kPa = 101.325
Property: Mass density, kg/m3 (Liquid); method: Vibrating tube method
Temperature, K	Mass density, kg/m3	uncertainty
298.15	944.6	.5
303.15	939.83	.5
308.15	935.05	.5

System: N,N-dimethylformamide; phases: Liquid
Fixed: Pressure, kPa = 101.325
Property: Speed of sound, m/s (Liquid); method: Sing-around technique in a fixed-path interferometer
Temperature, K	Speed of sound, m/s	uncertainty
298.15	1458.5	.5
303.15	1440.2	.5
308.15	1420.8	.5

System: cyclohexane; phases: Liquid
Fixed: Pressure, kPa = 101.325
Property: Mass density, kg/m3 (Liquid); method: Vibrating tube method
Temperature, K	Mass density, kg/m3	uncertainty
298.15	773.94	.5
303.15	769.21	.5
308.15	764.45	.5

System: cyclohexane; phases: Liquid
Fixed: Pressure, kPa = 101.325
Property: Speed of sound, m/s (Liquid); method: Sing-around technique in a fixed-path interferometer
Temperature, K	Speed of sound, m/s	uncertainty
298.15	1253.6	.5
303.15	1229.1	.5
308.15	1205.1	.5

System: o-chlorotoluene + N-methylformamide + tetrahydropyran; phases: Liquid
Fixed: Pressure, kPa = 100
Property: Mass density, kg/m3 (Liquid); method: Vibrating tube method
Temperature, K	Mole fraction of o-chlorotoluene	Mole fraction of tetrahydropyran	Mass density, kg/m3	uncertainty
298.15	.0988	.8213	910.15	5
298.15	.1132	.7961	914.59	5
298.15	.1334	.7621	920.7	5
298.15	.1508	.7327	925.96	5
298.15	.1713	.7004	931.94	5
298.15	.1905	.6712	937.44	5
298.15	.2105	.6428	942.94	5
298.15	.2358	.6118	949.34	5
298.15	.2509	.5936	953.12	5
298.15	.2816	.5655	959.74	5
298.15	.3296	.5387	968.08	5
298.15	.3608	.5267	972.87	5
298.15	.4018	.5187	978.32	5
298.15	.4506	.2646	1020.2	5
298.15	.4815	.2418	1026.2	5
298.15	.5106	.2204	1031.6	5
298.15	.5307	.2078	1034.7	5
298.15	.5568	.1864	1039.8	5
298.15	.5781	.1717	1043.2	5
298.15	.6018	.1565	1046.5	5
298.15	.6238	.1423	1049.5	5
298.15	.6426	.1313	1051.7	5
298.15	.6928	.1012	1057.2	5
298.15	.7113	.0925	1058.6	5
298.15	.7324	.0812	1060.5	5
298.15	.7534	.0711	1062	5
298.15	.7762	.0618	1063.5	5
298.15	.8078	.0508	1065.3	5
303.15	.0988	.8213	905.08	5
303.15	.1132	.7961	909.53	5
303.15	.1334	.7621	915.65	5
303.15	.1508	.7327	920.93	5
303.15	.1713	.7004	926.92	5
303.15	.1905	.6712	932.42	5
303.15	.2105	.6428	937.94	5
303.15	.2358	.6118	944.35	5
303.15	.2509	.5936	948.13	5
303.15	.2816	.5655	954.76	5
303.15	.3296	.5387	963.1	5
303.15	.3608	.5267	967.89	5
303.15	.4018	.5187	973.35	5
303.15	.4506	.2646	1015.9	5
303.15	.4815	.2418	1021.9	5
303.15	.5106	.2204	1027.4	5
303.15	.5307	.2078	1030.5	5
303.15	.5568	.1864	1035.7	5
303.15	.5781	.1717	1039.1	5
303.15	.6018	.1565	1042.4	5
303.15	.6238	.1423	1045.3	5
303.15	.6426	.1313	1047.5	5
303.15	.6928	.1012	1052.9	5
303.15	.7113	.0925	1054.2	5
303.15	.7324	.0812	1056	5
303.15	.7534	.0711	1057.5	5
303.15	.7762	.0618	1058.9	5
303.15	.8078	.0508	1060.6	5
308.15	.0988	.8213	899.97	5
308.15	.1132	.7961	904.44	5
308.15	.1334	.7621	910.57	5
308.15	.1508	.7327	915.87	5
308.15	.1713	.7004	921.89	5
308.15	.1905	.6712	927.41	5
308.15	.2105	.6428	932.93	5
308.15	.2358	.6118	939.36	5
308.15	.2509	.5936	943.15	5
308.15	.2816	.5655	949.78	5
308.15	.3296	.5387	958.04	5
308.15	.3608	.5267	962.76	5
308.15	.4018	.5187	968.11	5
308.15	.4506	.2646	1011.2	5
308.15	.4815	.2418	1017.2	5
308.15	.5106	.2204	1022.6	5
308.15	.5307	.2078	1025.7	5
308.15	.5568	.1864	1030.8	5
308.15	.5781	.1717	1034.1	5
308.15	.6018	.1565	1037.4	5
308.15	.6238	.1423	1040.3	5
308.15	.6426	.1313	1042.5	5
308.15	.6928	.1012	1047.9	5
308.15	.7113	.0925	1049.2	5
308.15	.7324	.0812	1051	5
308.15	.7534	.0711	1052.5	5
308.15	.7762	.0618	1053.9	5
308.15	.8078	.0508	1055.7	5

System: o-chlorotoluene + N-methylformamide + tetrahydropyran; phases: Liquid
Fixed: Pressure, kPa = 100
Property: Speed of sound, m/s (Liquid); method: Sing-around technique in a fixed-path interferometer
Temperature, K	Mole fraction of o-chlorotoluene	Mole fraction of tetrahydropyran	Speed of sound, m/s	uncertainty
298.15	.0988	.8213	1283	.5
298.15	.1132	.7961	1284.9	.5
298.15	.1334	.7621	1287.4	.5
298.15	.1508	.7327	1289.6	.5
298.15	.1713	.7004	1291.9	.5
298.15	.1905	.6712	1293.9	.5
298.15	.2105	.6428	1295.8	.5
298.15	.2358	.6118	1297.5	.5
298.15	.2509	.5936	1298.4	.5
298.15	.2816	.5655	1299.2	.5
298.15	.3296	.5387	1298.1	.5
298.15	.3608	.5267	1296.5	.5
298.15	.4018	.5187	1293.5	.5
298.15	.4506	.2646	1315.2	.5
298.15	.4815	.2418	1314.2	.5
298.15	.5106	.2204	1313.3	.5
298.15	.5307	.2078	1312.5	.5
298.15	.5568	.1864	1311.5	.5
298.15	.5781	.1717	1310.7	.5
298.15	.6018	.1565	1309.8	.5
298.15	.6238	.1423	1308.9	.5
298.15	.6426	.1313	1308.3	.5
298.15	.6928	.1012	1306.6	.5
298.15	.7113	.0925	1306	.5
298.15	.7324	.0812	1305.4	.5
298.15	.7534	.0711	1304.8	.5
298.15	.7762	.0618	1304.1	.5
298.15	.8078	.0508	1303.2	.5
303.15	.0988	.8213	1261.7	.5
303.15	.1132	.7961	1263.7	.5
303.15	.1334	.7621	1266.4	.5
303.15	.1508	.7327	1268.8	.5
303.15	.1713	.7004	1271.1	.5
303.15	.1905	.6712	1273.3	.5
303.15	.2105	.6428	1275.2	.5
303.15	.2358	.6118	1277	.5
303.15	.2509	.5936	1278	.5
303.15	.2816	.5655	1277.6	.5
303.15	.3296	.5387	1278.1	.5
303.15	.3608	.5267	1276.8	.5
303.15	.4018	.5187	1274.1	.5
303.15	.4506	.2646	1297.2	.5
303.15	.4815	.2418	1296.5	.5
303.15	.5106	.2204	1295.9	.5
303.15	.5307	.2078	1295.2	.5
303.15	.5568	.1864	1294.6	.5
303.15	.5781	.1717	1294	.5
303.15	.6018	.1565	1293.2	.5
303.15	.6238	.1423	1292.4	.5
303.15	.6426	.1313	1291.7	.5
303.15	.6928	.1012	1289.9	.5
303.15	.7113	.0925	1289.2	.5
303.15	.7324	.0812	1288.3	.5
303.15	.7534	.0711	1287.6	.5
303.15	.7762	.0618	1286.6	.5
303.15	.8078	.0508	1285.3	.5
308.15	.0988	.8213	1240.5	.5
308.15	.1132	.7961	1242.7	.5
308.15	.1334	.7621	1245.6	.5
308.15	.1508	.7327	1248.1	.5
308.15	.1713	.7004	1250.8	.5
308.15	.1905	.6712	1253	.5
308.15	.2105	.6428	1255.1	.5
308.15	.2358	.6118	1257.1	.5
308.15	.2509	.5936	1258.1	.5
308.15	.2816	.5655	1259.1	.5
308.15	.3296	.5387	1258.2	.5
308.15	.3608	.5267	1256.8	.5
308.15	.4018	.5187	1254.1	.5
308.15	.4506	.2646	1282.3	.5
308.15	.4815	.2418	1281.7	.5
308.15	.5106	.2204	1281.2	.5
308.15	.5307	.2078	1280.5	.5
308.15	.5568	.1864	1280.1	.5
308.15	.5781	.1717	1279.4	.5
308.15	.6018	.1565	1278.5	.5
308.15	.6238	.1423	1277.5	.5
308.15	.6426	.1313	1276.6	.5
308.15	.6928	.1012	1274.2	.5
308.15	.7113	.0925	1273.1	.5
308.15	.7324	.0812	1272	.5
308.15	.7534	.0711	1270.8	.5
308.15	.7762	.0618	1269.5	.5
308.15	.8078	.0508	1267.7	.5

System: N,N-dimethylformamide + o-chlorotoluene + tetrahydropyran; phases: Liquid
Fixed: Pressure, kPa = 100
Property: Mass density, kg/m3 (Liquid); method: Vibrating tube method
Temperature, K	Mole fraction of o-chlorotoluene	Mole fraction of tetrahydropyran	Mass density, kg/m3	uncertainty
298.15	.0782	.8613	901.71	.5
298.15	.1132	.7961	912.01	.5
298.15	.1305	.7706	916.65	.5
298.15	.1717	.7134	927.42	.5
298.15	.1908	.6871	932.34	.5
298.15	.2115	.6602	937.54	.5
298.15	.2606	.6112	948.67	.5
298.15	.2841	.5829	954.23	.5
298.15	.3121	.5514	960.63	.5
298.15	.3413	.5207	967.05	.5
298.15	.3648	.5064	971.39	.5
298.15	.4098	.4642	980.6	.5
298.15	.4349	.4438	985.39	.5
298.15	.4687	.4203	991.45	.5
298.15	.4932	.4125	995.07	.5
298.15	.5327	.3709	1003	.5
298.15	.5409	.3508	1005.4	.5
298.15	.5666	.3272	1010.2	.5
298.15	.5922	.2946	1015.5	.5
298.15	.6123	.2705	1019.6	.5
298.15	.6323	.2504	1023.3	.5
298.15	.6578	.2337	1027.3	.5
298.15	.6906	.2138	1032.3	.5
298.15	.7021	.2067	1034	.5
298.15	.7212	.1898	1037.2	.5
298.15	.7587	.1687	1042.6	.5
298.15	.7885	.1483	1047	.5
298.15	.8199	.1298	1051.4	.5
303.15	.0782	.8613	896.6	.5
303.15	.1132	.7961	906.88	.5
303.15	.1305	.7706	911.51	.5
303.15	.1717	.7134	922.24	.5
303.15	.1908	.6871	927.15	.5
303.15	.2115	.6602	932.32	.5
303.15	.2606	.6112	943.42	.5
303.15	.2841	.5829	948.97	.5
303.15	.3121	.5514	955.36	.5
303.15	.3413	.5207	961.77	.5
303.15	.3648	.5064	966.11	.5
303.15	.4098	.4642	975.33	.5
303.15	.4349	.4438	980.13	.5
303.15	.4687	.4203	986.21	.5
303.15	.4932	.4125	989.86	.5
303.15	.5327	.3709	997.75	.5
303.15	.5409	.3508	1000.2	.5
303.15	.5666	.3272	1005	.5
303.15	.5922	.2946	1010.4	.5
303.15	.6123	.2705	1014.4	.5
303.15	.6323	.2504	1018.1	.5
303.15	.6578	.2337	1022.2	.5
303.15	.6906	.2138	1027.2	.5
303.15	.7021	.2067	1028.9	.5
303.15	.7212	.1898	1032.2	.5
303.15	.7587	.1687	1037.6	.5
303.15	.7885	.1483	1042.1	.5
303.15	.8199	.1298	1046.5	.5
308.15	.0782	.8613	891.49	.5
308.15	.1132	.7961	901.74	.5
308.15	.1305	.7706	906.36	.5
308.15	.1717	.7134	917.03	.5
308.15	.1908	.6871	921.91	.5
308.15	.2115	.6602	927.07	.5
308.15	.2606	.6112	938.12	.5
308.15	.2841	.5829	943.65	.5
308.15	.3121	.5514	950.01	.5
308.15	.3413	.5207	956.41	.5
308.15	.3648	.5064	960.76	.5
308.15	.4098	.4642	969.98	.5
308.15	.4349	.4438	974.79	.5
308.15	.4687	.4203	980.9	.5
308.15	.4932	.4125	984.58	.5
308.15	.5327	.3709	992.49	.5
308.15	.5409	.3508	994.94	.5
308.15	.5666	.3272	999.75	.5
308.15	.5922	.2946	1005.1	.5
308.15	.6123	.2705	1009.2	.5
308.15	.6323	.2504	1013	.5
308.15	.6578	.2337	1017	.5
308.15	.6906	.2138	1022.1	.5
308.15	.7021	.2067	1023.8	.5
308.15	.7212	.1898	1027.1	.5
308.15	.7587	.1687	1032.6	.5
308.15	.7885	.1483	1037.1	.5
308.15	.8199	.1298	1041.5	.5

System: N,N-dimethylformamide + o-chlorotoluene + tetrahydropyran; phases: Liquid
Fixed: Pressure, kPa = 100
Property: Speed of sound, m/s (Liquid); method: Sing-around technique in a fixed-path interferometer
Temperature, K	Mole fraction of o-chlorotoluene	Mole fraction of tetrahydropyran	Speed of sound, m/s	uncertainty
298.15	.0782	.8613	1279.8	.5
298.15	.1132	.7961	1283.7	.5
298.15	.1305	.7706	1285.1	.5
298.15	.1717	.7134	1288.5	.5
298.15	.1908	.6871	1290.2	.5
298.15	.2115	.6602	1292	.5
298.15	.2606	.6112	1295.8	.5
298.15	.2841	.5829	1297.7	.5
298.15	.3121	.5514	1299.6	.5
298.15	.3413	.5207	1301.2	.5
298.15	.3648	.5064	1303	.5
298.15	.4098	.4642	1304.7	.5
298.15	.4349	.4438	1305.5	.5
298.15	.4687	.4203	1306.7	.5
298.15	.4932	.4125	1308.3	.5
298.15	.5327	.3709	1307	.5
298.15	.5409	.3508	1305.3	.5
298.15	.5666	.3272	1304.6	.5
298.15	.5922	.2946	1303.1	.5
298.15	.6123	.2705	1302.5	.5
298.15	.6323	.2504	1302.5	.5
298.15	.6578	.2337	1302.8	.5
298.15	.6906	.2138	1303.1	.5
298.15	.7021	.2067	1303.2	.5
298.15	.7212	.1898	1303.6	.5
298.15	.7587	.1687	1303.6	.5
298.15	.7885	.1483	1303.7	.5
298.15	.8199	.1298	1303.4	.5
303.15	.0782	.8613	1258.1	.5
303.15	.1132	.7961	1262.5	.5
303.15	.1305	.7706	1264	.5
303.15	.1717	.7134	1267.6	.5
303.15	.1908	.6871	1269.4	.5
303.15	.2115	.6602	1271.3	.5
303.15	.2606	.6112	1275.3	.5
303.15	.2841	.5829	1277.2	.5
303.15	.3121	.5514	1279.2	.5
303.15	.3413	.5207	1280.9	.5
303.15	.3648	.5064	1282.6	.5
303.15	.4098	.4642	1284.4	.5
303.15	.4349	.4438	1285.3	.5
303.15	.4687	.4203	1286.5	.5
303.15	.4932	.4125	1288.1	.5
303.15	.5327	.3709	1287.1	.5
303.15	.5409	.3508	1285.4	.5
303.15	.5666	.3272	1284.9	.5
303.15	.5922	.2946	1283.5	.5
303.15	.6123	.2705	1283	.5
303.15	.6323	.2504	1283.1	.5
303.15	.6578	.2337	1283.5	.5
303.15	.6906	.2138	1284	.5
303.15	.7021	.2067	1284.1	.5
303.15	.7212	.1898	1284.6	.5
303.15	.7587	.1687	1284.8	.5
303.15	.7885	.1483	1285.1	.5
303.15	.8199	.1298	1284.9	.5
308.15	.0782	.8613	1236.2	.5
308.15	.1132	.7961	1240.9	.5
308.15	.1305	.7706	1242.5	.5
308.15	.1717	.7134	1246.4	.5
308.15	.1908	.6871	1248.4	.5
308.15	.2115	.6602	1250.4	.5
308.15	.2606	.6112	1254.6	.5
308.15	.2841	.5829	1256.7	.5
308.15	.3121	.5514	1258.8	.5
308.15	.3413	.5207	1260.7	.5
308.15	.3648	.5064	1262.5	.5
308.15	.4098	.4642	1264.5	.5
308.15	.4349	.4438	1265.5	.5
308.15	.4687	.4203	1266.8	.5
308.15	.4932	.4125	1268.4	.5
308.15	.5327	.3709	1267.6	.5
308.15	.5409	.3508	1266.1	.5
308.15	.5666	.3272	1265.7	.5
308.15	.5922	.2946	1264.5	.5
308.15	.6123	.2705	1264.2	.5
308.15	.6323	.2504	1264.4	.5
308.15	.6578	.2337	1264.9	.5
308.15	.6906	.2138	1265.5	.5
308.15	.7021	.2067	1265.6	.5
308.15	.7212	.1898	1266.2	.5
308.15	.7587	.1687	1266.5	.5
308.15	.7885	.1483	1266.8	.5
308.15	.8199	.1298	1266.6	.5

System: o-chlorotoluene + cyclohexane + tetrahydropyran; phases: Liquid
Fixed: Pressure, kPa = 100
Property: Mass density, kg/m3 (Liquid); method: Vibrating tube method
Temperature, K	Mole fraction of o-chlorotoluene	Mole fraction of tetrahydropyran	Mass density, kg/m3	uncertainty
298.15	.0823	.8445	889.62	.5
298.15	.0907	.8302	890.87	.5
298.15	.1098	.7956	893.42	.5
298.15	.1278	.7651	896.04	.5
298.15	.1424	.7406	898.17	.5
298.15	.1601	.7168	901.43	.5
298.15	.1701	.7002	902.87	.5
298.15	.1813	.6812	904.44	.5
298.15	.2001	.6601	908.3	.5
298.15	.2154	.6354	910.54	.5
298.15	.231	.6172	913.62	.5
298.15	.2501	.5932	917.18	.5
298.15	.2704	.5712	921.32	.5
298.15	.3309	.5022	933.19	.5
298.15	.3556	.4802	938.66	.5
298.15	.3703	.4673	941.92	.5
298.15	.3872	.4534	945.75	.5
298.15	.4005	.4409	948.59	.5
298.15	.4203	.4219	952.76	.5
298.15	.4404	.4065	957.39	.5
298.15	.4627	.3865	962.19	.5
298.15	.4943	.3642	969.58	.5
298.15	.5232	.3421	976.1	.5
298.15	.6357	.2684	1002.3	.5
298.15	.6673	.2471	1009.5	.5
298.15	.6981	.229	1016.7	.5
298.15	.7195	.2198	1022	.5
298.15	.7465	.199	1027.7	.5
303.15	.0823	.8445	884.57	.5
303.15	.0907	.8302	885.81	.5
303.15	.1098	.7956	888.35	.5
303.15	.1278	.7651	890.96	.5
303.15	.1424	.7406	893.09	.5
303.15	.1601	.7168	896.36	.5
303.15	.1701	.7002	897.81	.5
303.15	.1813	.6812	899.38	.5
303.15	.2001	.6601	903.28	.5
303.15	.2154	.6354	905.52	.5
303.15	.231	.6172	908.63	.5
303.15	.2501	.5932	912.2	.5
303.15	.2704	.5712	916.38	.5
303.15	.3309	.5022	928.23	.5
303.15	.3556	.4802	933.71	.5
303.15	.3703	.4673	936.98	.5
303.15	.3872	.4534	940.83	.5
303.15	.4005	.4409	943.66	.5
303.15	.4203	.4219	947.79	.5
303.15	.4404	.4065	952.43	.5
303.15	.4627	.3865	957.18	.5
303.15	.4943	.3642	964.59	.5
303.15	.5232	.3421	971.09	.5
303.15	.6357	.2684	997.33	.5
303.15	.6673	.2471	1004.48	.5
303.15	.6981	.229	1011.7	.5
303.15	.7195	.2198	1017.12	.5
303.15	.7465	.199	1022.74	.5
308.15	.0823	.8445	879.49	.5
308.15	.0907	.8302	880.73	.5
308.15	.1098	.7956	883.25	.5
308.15	.1278	.7651	885.87	.5
308.15	.1424	.7406	887.99	.5
308.15	.1601	.7168	891.28	.5
308.15	.1701	.7002	892.74	.5
308.15	.1813	.6812	894.3	.5
308.15	.2001	.6601	898.25	.5
308.15	.2154	.6354	900.48	.5
308.15	.231	.6172	903.62	.5
308.15	.2501	.5932	907.2	.5
308.15	.2704	.5712	911.41	.5
308.15	.3309	.5022	923.24	.5
308.15	.3556	.4802	928.75	.5
308.15	.3703	.4673	932.02	.5
308.15	.3872	.4534	935.89	.5
308.15	.4005	.4409	938.7	.5
308.15	.4203	.4219	942.8	.5
308.15	.4404	.4065	947.44	.5
308.15	.4627	.3865	952.15	.5
308.15	.4943	.3642	959.58	.5
308.15	.5232	.3421	966.06	.5
308.15	.6357	.2684	992.35	.5
308.15	.6673	.2471	999.49	.5
308.15	.6981	.229	1006.7	.5
308.15	.7195	.2198	1012.2	.5
308.15	.7465	.199	1017.8	.5

System: o-chlorotoluene + cyclohexane + tetrahydropyran; phases: Liquid
Fixed: Pressure, kPa = 100
Property: Speed of sound, m/s (Liquid); method: Sing-around technique in a fixed-path interferometer
Temperature, K	Mole fraction of o-chlorotoluene	Mole fraction of tetrahydropyran	Speed of sound, m/s	uncertainty
298.15	.0823	.8445	1269.3	.5
298.15	.0907	.8302	1269.3	.5
298.15	.1098	.7956	1269.1	.5
298.15	.1278	.7651	1269	.5
298.15	.1424	.7406	1268.9	.5
298.15	.1601	.7168	1269.1	.5
298.15	.1701	.7002	1269.1	.5
298.15	.1813	.6812	1268.9	.5
298.15	.2001	.6601	1269.4	.5
298.15	.2154	.6354	1269.3	.5
298.15	.231	.6172	1269.7	.5
298.15	.2501	.5932	1270	.5
298.15	.2704	.5712	1270.5	.5
298.15	.3309	.5022	1271.9	.5
298.15	.3556	.4802	1272.8	.5
298.15	.3703	.4673	1273.4	.5
298.15	.3872	.4534	1274	.5
298.15	.4005	.4409	1274.5	.5
298.15	.4203	.4219	1275.1	.5
298.15	.4404	.4065	1276	.5
298.15	.4627	.3865	1276.8	.5
298.15	.4943	.3642	1278.3	.5
298.15	.5232	.3421	1279.5	.5
298.15	.6357	.2684	1285.1	.5
298.15	.6673	.2471	1286.6	.5
298.15	.6981	.229	1288.3	.5
298.15	.7195	.2198	1289.6	.5
298.15	.7465	.199	1290.7	.5
303.15	.0823	.8445	1246.9	.5
303.15	.0907	.8302	1246.9	.5
303.15	.1098	.7956	1246.8	.5
303.15	.1278	.7651	1246.8	.5
303.15	.1424	.7406	1246.8	.5
303.15	.1601	.7168	1247.1	.5
303.15	.1701	.7002	1247.1	.5
303.15	.1813	.6812	1247.1	.5
303.15	.2001	.6601	1247.6	.5
303.15	.2154	.6354	1247.6	.5
303.15	.231	.6172	1247.9	.5
303.15	.2501	.5932	1248.3	.5
303.15	.2704	.5712	1248.9	.5
303.15	.3309	.5022	1250.7	.5
303.15	.3556	.4802	1251.6	.5
303.15	.3703	.4673	1252.2	.5
303.15	.3872	.4534	1253	.5
303.15	.4005	.4409	1253.6	.5
303.15	.4203	.4219	1254.4	.5
303.15	.4404	.4065	1255.4	.5
303.15	.4627	.3865	1256.4	.5
303.15	.4943	.3642	1258.1	.5
303.15	.5232	.3421	1259.5	.5
303.15	.6357	.2684	1265.5	.5
303.15	.6673	.2471	1267.2	.5
303.15	.6981	.229	1269	.5
303.15	.7195	.2198	1270.3	.5
303.15	.7465	.199	1271.6	.5
308.15	.0823	.8445	1224.7	.5
308.15	.0907	.8302	1224.9	.5
308.15	.1098	.7956	1224.9	.5
308.15	.1278	.7651	1225	.5
308.15	.1424	.7406	1225.1	.5
308.15	.1601	.7168	1225.4	.5
308.15	.1701	.7002	1225.4	.5
308.15	.1813	.6812	1225.4	.5
308.15	.2001	.6601	1225.9	.5
308.15	.2154	.6354	1226	.5
308.15	.231	.6172	1226.3	.5
308.15	.2501	.5932	1226.8	.5
308.15	.2704	.5712	1227.4	.5
308.15	.3309	.5022	1229.5	.5
308.15	.3556	.4802	1230.6	.5
308.15	.3703	.4673	1231.3	.5
308.15	.3872	.4534	1232.1	.5
308.15	.4005	.4409	1232.8	.5
308.15	.4203	.4219	1233.9	.5
308.15	.4404	.4065	1234.9	.5
308.15	.4627	.3865	1236.3	.5
308.15	.4943	.3642	1238	.5
308.15	.5232	.3421	1239.7	.5
308.15	.6357	.2684	1246.2	.5
308.15	.6673	.2471	1248.1	.5
308.15	.6981	.229	1249.8	.5
308.15	.7195	.2198	1251.1	.5
308.15	.7465	.199	1252.6	.5

System: o-chlorotoluene + cyclohexane; phases: Liquid
Fixed: Pressure, kPa = 100
Property: Mass density, kg/m3 (Liquid); method: Vibrating tube method
Temperature, K	Mole fraction of o-chlorotoluene	Mass density, kg/m3	uncertainty
298.15	.1098	808.15	.5
298.15	.1437	818.67	.5
298.15	.1987	835.72	.5
298.15	.2356	847.14	.5
298.15	.2874	863.12	.5
298.15	.3256	874.88	.5
298.15	.3876	893.92	.5
298.15	.4135	901.85	.5
298.15	.4834	923.2	.5
298.15	.5243	935.64	.5
298.15	.5763	951.42	.5
298.15	.6143	962.9	.5
298.15	.6654	978.29	.5
298.15	.7154	993.29	.5
298.15	.7654	1008.2	.5
298.15	.8165	1023.4	.5
298.15	.8324	1028.1	.5
298.15	.8965	1047.1	.5
303.15	.1098	803.38	.5
303.15	.1437	813.9	.5
303.15	.1987	830.93	.5
303.15	.2356	842.33	.5
303.15	.2874	858.3	.5
303.15	.3256	870.06	.5
303.15	.3876	889.08	.5
303.15	.4135	897.01	.5
303.15	.4834	918.34	.5
303.15	.5243	930.78	.5
303.15	.5763	946.54	.5
303.15	.6143	958.02	.5
303.15	.6654	973.4	.5
303.15	.7154	988.4	.5
303.15	.7654	1003.3	.5
303.15	.8165	1018.5	.5
303.15	.8324	1023.2	.5
303.15	.8965	1042.2	.5
308.15	.1098	798.58	.5
308.15	.1437	809.09	.5
308.15	.1987	826.11	.5
308.15	.2356	837.5	.5
308.15	.2874	853.47	.5
308.15	.3256	865.22	.5
308.15	.3876	884.22	.5
308.15	.4135	892.15	.5
308.15	.4834	913.47	.5
308.15	.5243	925.9	.5
308.15	.5763	941.65	.5
308.15	.6143	953.13	.5
308.15	.6654	968.5	.5
308.15	.7154	983.48	.5
308.15	.7654	998.42	.5
308.15	.8165	1013.6	.5
308.15	.8324	1018.3	.5
308.15	.8965	1037.3	.5

System: o-chlorotoluene + cyclohexane; phases: Liquid
Fixed: Pressure, kPa = 100
Property: Speed of sound, m/s (Liquid); method: Sing-around technique in a fixed-path interferometer
Temperature, K	Mole fraction of o-chlorotoluene	Speed of sound, m/s	uncertainty
298.15	.1098	1251.3	.5
298.15	.1437	1251	.5
298.15	.1987	1251.1	.5
298.15	.2356	1251.5	.5
298.15	.2874	1252.4	.5
298.15	.3256	1253.4	.5
298.15	.3876	1255.3	.5
298.15	.4135	1256.2	.5
298.15	.4834	1259.3	.5
298.15	.5243	1261.4	.5
298.15	.5763	1264.3	.5
298.15	.6143	1266.5	.5
298.15	.6654	1269.9	.5
298.15	.7154	1273.4	.5
298.15	.7654	1277.2	.5
298.15	.8165	1281.3	.5
298.15	.8324	1282.6	.5
298.15	.8965	1288.4	.5
303.15	.1098	1227.6	.5
303.15	.1437	1227.7	.5
303.15	.1987	1228.2	.5
303.15	.2356	1228.8	.5
303.15	.2874	1230	.5
303.15	.3256	1231.2	.5
303.15	.3876	1233.6	.5
303.15	.4135	1234.8	.5
303.15	.4834	1238.4	.5
303.15	.5243	1240.7	.5
303.15	.5763	1244	.5
303.15	.6143	1246.6	.5
303.15	.6654	1250.3	.5
303.15	.7154	1254.3	.5
303.15	.7654	1258.4	.5
303.15	.8165	1262.9	.5
303.15	.8324	1264.3	.5
303.15	.8965	1270.3	.5
308.15	.1098	1204.7	.5
308.15	.1437	1205	.5
308.15	.1987	1205.9	.5
308.15	.2356	1206.7	.5
308.15	.2874	1208.1	.5
308.15	.3256	1209.5	.5
308.15	.3876	1212.2	.5
308.15	.4135	1213.4	.5
308.15	.4834	1217.4	.5
308.15	.5243	1220	.5
308.15	.5763	1223.6	.5
308.15	.6143	1226.5	.5
308.15	.6654	1230.7	.5
308.15	.7154	1235	.5
308.15	.7654	1239.6	.5
308.15	.8165	1244.4	.5
308.15	.8324	1246	.5
308.15	.8965	1252.3	.5

System: cyclohexane + tetrahydropyran; phases: Liquid
Fixed: Pressure, kPa = 100
Property: Mass density, kg/m3 (Liquid); method: Vibrating tube method
Temperature, K	Mole fraction of tetrahydropyran	Mass density, kg/m3	uncertainty
298.15	.0987	782.47	.5
298.15	.1432	786.46	.5
298.15	.1876	790.51	.5
298.15	.2378	795.2	.5
298.15	.2791	799.14	.5
298.15	.3165	802.76	.5
298.15	.3782	808.86	.5
298.15	.4237	813.45	.5
298.15	.4521	816.36	.5
298.15	.4982	821.15	.5
298.15	.5318	824.7	.5
298.15	.5643	828.18	.5
298.15	.5918	831.15	.5
298.15	.6236	834.62	.5
298.15	.6982	842.94	.5
298.15	.7341	847.03	.5
298.15	.7949	854.07	.5
298.15	.8632	862.2	.5
303.15	.0987	777.69	.5
303.15	.1432	781.65	.5
303.15	.1876	785.69	.5
303.15	.2378	790.36	.5
303.15	.2791	794.28	.5
303.15	.3165	797.88	.5
303.15	.3782	803.96	.5
303.15	.4237	808.53	.5
303.15	.4521	811.43	.5
303.15	.4982	816.2	.5
303.15	.5318	819.74	.5
303.15	.5643	823.2	.5
303.15	.5918	826.17	.5
303.15	.6236	829.63	.5
303.15	.6982	837.92	.5
303.15	.7341	841.99	.5
303.15	.7949	849.02	.5
303.15	.8632	857.11	.5
308.15	.0987	772.88	.5
308.15	.1432	776.83	.5
308.15	.1876	780.84	.5
308.15	.2378	785.49	.5
308.15	.2791	789.39	.5
308.15	.3165	792.98	.5
308.15	.3782	799.03	.5
308.15	.4237	803.59	.5
308.15	.4521	806.48	.5
308.15	.4982	811.24	.5
308.15	.5318	814.76	.5
308.15	.5643	818.21	.5
308.15	.5918	821.16	.5
308.15	.6236	824.61	.5
308.15	.6982	832.88	.5
308.15	.7341	836.93	.5
308.15	.7949	843.94	.5
308.15	.8632	852	.5

System: cyclohexane + tetrahydropyran; phases: Liquid
Fixed: Pressure, kPa = 100
Property: Speed of sound, m/s (Liquid); method: Sing-around technique in a fixed-path interferometer
Temperature, K	Mole fraction of tetrahydropyran	Speed of sound, m/s	uncertainty
298.15	.0987	1251.6	.5
298.15	.1432	1250.7	.5
298.15	.1876	1249.8	.5
298.15	.2378	1249	.5
298.15	.2791	1248.5	.5
298.15	.3165	1248.1	.5
298.15	.3782	1247.9	.5
298.15	.4237	1248	.5
298.15	.4521	1248.3	.5
298.15	.4982	1248.8	.5
298.15	.5318	1249.5	.5
298.15	.5643	1250.2	.5
298.15	.5918	1251	.5
298.15	.6236	1252	.5
298.15	.6982	1254.8	.5
298.15	.7341	1256.4	.5
298.15	.7949	1259.3	.5
298.15	.8632	1262.9	.5
303.15	.0987	1226.7	.5
303.15	.1432	1225.6	.5
303.15	.1876	1224.6	.5
303.15	.2378	1223.6	.5
303.15	.2791	1223	.5
303.15	.3165	1222.6	.5
303.15	.3782	1222.4	.5
303.15	.4237	1222.5	.5
303.15	.4521	1222.7	.5
303.15	.4982	1223.3	.5
303.15	.5318	1224	.5
303.15	.5643	1224.9	.5
303.15	.5918	1225.7	.5
303.15	.6236	1226.8	.5
303.15	.6982	1230	.5
303.15	.7341	1231.7	.5
303.15	.7949	1235	.5
303.15	.8632	1238.9	.5
308.15	.0987	1202.3	.5
308.15	.1432	1201	.5
308.15	.1876	1199.8	.5
308.15	.2378	1198.7	.5
308.15	.2791	1197.8	.5
308.15	.3165	1197.3	.5
308.15	.3782	1197	.5
308.15	.4237	1197.1	.5
308.15	.4521	1197.4	.5
308.15	.4982	1198.1	.5
308.15	.5318	1198.9	.5
308.15	.5643	1199.9	.5
308.15	.5918	1200.8	.5
308.15	.6236	1202.1	.5
308.15	.6982	1205.6	.5
308.15	.7341	1207.7	.5
308.15	.7949	1211.4	.5
308.15	.8632	1215.8	.5
