Measured thermophysical data. Ultrasonic velocity for an equimolar mixture of molten AgI and NaCl in the  biphasic region
Source: J. Chem. Thermodyn., 2013, 10.1016/j.jct.2012.12.015
Compound 1: silver iodide, AgI, purity 99%
Compound 2: sodium chloride, ClNa, purity 99.5%

System: silver iodide; phases: Crystal, Liquid, Air at 1 atmosphere
Property: Normal melting temperature, K (Crystal); method: Visual observation
Normal melting temperature, K	uncertainty
832	.5

System: sodium chloride; phases: Crystal, Liquid, Air at 1 atmosphere
Property: Normal melting temperature, K (Crystal); method: Visual observation
Normal melting temperature, K	uncertainty
1074	.5

System: sodium chloride + silver iodide; phases: Liquid
Fixed: Pressure, kPa = 101
Fixed: Mole fraction of sodium chloride = .5
Property: Speed of sound, m/s (Liquid); method: Pulse-echo method
Temperature, K	Speed of sound, m/s	uncertainty
1065	1360	4.08
1071	1357	4.071
1075	1354	4.062

System: sodium chloride + silver iodide; phases: Liquid mixture 1, Liquid mixture 2
Fixed: Pressure, kPa = 101
Property: Speed of sound, m/s (Liquid mixture 1); method: Pulse-echo method
Temperature, K	Speed of sound, m/s	uncertainty
1035	1440	4.32
1039	1430	4.29
1046	1412	4.236
1050	1398	4.194
1053	1392	4.176
1059	1372	4.116
1062	1368	4.104
1038	1435	4.305
1043	1420	4.26
1050	1400	4.2
1056	1383	4.149
1063	1365	4.095

System: sodium chloride + silver iodide; phases: Liquid mixture 2, Liquid mixture 1
Fixed: Pressure, kPa = 101
Property: Speed of sound, m/s (Liquid mixture 2); method: Pulse-echo method
Temperature, K	Speed of sound, m/s	uncertainty
1035	1274	3.822
1039	1290	3.87
1046	1307	3.921
1050	1319	3.957
1053	1324	3.972
1059	1340	4.02
1062	1353	4.059
1038	1283	3.849
1043	1295	3.885
1050	1320	3.96
1056	1330	3.99
1063	1357	4.071

System: sodium chloride + silver iodide; phases: Liquid mixture 1, Liquid mixture 2
Fixed: Pressure, kPa = 101
Property: Liquid-liquid equilibrium temperature, K (Liquid mixture 1); method: From speed of sound
Mole fraction of sodium chloride	Liquid-liquid equilibrium temperature, K	uncertainty
.5	1064	
