Measured thermophysical data. A joint experimental and computational investigation on the thermochemistry of (nitrophenyl)pyrroles
Source: J. Chem. Thermodyn., 2010, 10.1016/j.jct.2010.03.021
Compound 1: 1-(2-nitrophenyl)pyrrole, C10H8N2O2, purity 97%
Compound 2: 1-(4-nitrophenyl)pyrrole, C10H8N2O2, purity 97%
Compound 3: carbon, C
Compound 4: carbon dioxide, CO2
Compound 5: nitrogen, N2
Compound 6: water, H2O
Compound 7: oxygen, O2
Compound 8: hydrogen, H2

System: 1-(2-nitrophenyl)pyrrole; phases: Crystal, Gas
Property: Molar enthalpy of vaporization or sublimation, kJ/mol (Crystal); method: Clausius-Clapeyron Equation
Temperature, K	Molar enthalpy of vaporization or sublimation, kJ/mol	uncertainty
316.16	100.4	.4

System: 1-(2-nitrophenyl)pyrrole; phases: Crystal, Gas
Property: Molar enthalpy of vaporization or sublimation, kJ/mol (Crystal); method: Clausius-Clapeyron Equation
Temperature, K	Molar enthalpy of vaporization or sublimation, kJ/mol	uncertainty
298.15	101.3	.4

System: 1-(2-nitrophenyl)pyrrole; phases: Crystal, Gas
Property: Vapor or sublimation pressure, kPa (Crystal); method: Knudsen effusion method
Temperature, K	Vapor or sublimation pressure, kPa	uncertainty
306.11	.000106	
308.2	.000141	
310.18	.000181	
312.12	.000228	
314.19	.000291	
316.18	.000368	
318.11	.000464	
320.18	.0006	
322.18	.000764	
324.12	.000955	
326.2	.001224	
306.11	.000108	
308.2	.000138	
310.18	.000173	
312.12	.000226	
314.19	.000284	
316.18	.000355	
318.11	.000466	
320.18	.000587	
322.18	.000733	
324.12	.000965	
326.2	.001209	
306.11	.000109	
308.2	.000139	
310.18	.000174	
312.12	.000227	
314.19	.00029	
316.18	.000358	
318.11	.000466	
320.18	.000594	
322.18	.00074	
324.12	.000963	
326.2	.001238	

System: 1-(4-nitrophenyl)pyrrole; phases: Crystal, Gas
Property: Molar enthalpy of vaporization or sublimation, kJ/mol (Crystal); method: Clausius-Clapeyron Equation
Temperature, K	Molar enthalpy of vaporization or sublimation, kJ/mol	uncertainty
355.13	109.6	.4

System: 1-(4-nitrophenyl)pyrrole; phases: Crystal, Gas
Property: Molar enthalpy of vaporization or sublimation, kJ/mol (Crystal); method: Derived by Second law from precise ebulliometry
Temperature, K	Molar enthalpy of vaporization or sublimation, kJ/mol	uncertainty
298.15	112.4	.4

System: 1-(4-nitrophenyl)pyrrole; phases: Crystal, Gas
Property: Vapor or sublimation pressure, kPa (Crystal); method: Knudsen effusion method
Temperature, K	Vapor or sublimation pressure, kPa	uncertainty
344.09	.0000959	
346.13	.000118	
348.17	.000145	
350.09	.000182	
352.13	.000219	
354.18	.00027	
356.13	.000344	
358.2	.00043	
360.16	.000505	
362.07	.000642	
364.09	.000766	
366.16	.000934	
344.09	.0000952	
346.13	.000118	
348.17	.000144	
350.09	.000181	
352.13	.00022	
354.18	.000272	
356.13	.000343	
358.2	.000417	
360.16	.000505	
362.07	.000638	
364.09	.000762	
366.16	.000933	
344.09	.0000941	
346.13	.000117	
350.09	.000179	
352.13	.000227	
354.18	.000284	
356.13	.00034	
358.2	.000427	
360.16	.000525	
362.07	.000641	
364.09	.000783	

Reaction: -1 1-(2-nitrophenyl)pyrrole + 10 carbon dioxide + 1 nitrogen + 4 water + -11 oxygen
Property: Specific internal energy of reaction at constant volume, J/g
-27700.9

Reaction: -1 1-(4-nitrophenyl)pyrrole + 10 carbon dioxide + 1 nitrogen + 4 water + -11 oxygen
Property: Specific internal energy of reaction at constant volume, J/g
-27481.5

Reaction: -10 carbon + 1 1-(2-nitrophenyl)pyrrole + -4 hydrogen + -1 nitrogen + -1 oxygen
Property: Molar enthalpy of reaction, kJ/mol
235.7

Reaction: 1 1-(4-nitrophenyl)pyrrole + -10 carbon + -4 hydrogen + -1 nitrogen + -1 oxygen
Property: Molar enthalpy of reaction, kJ/mol
205.5
