Measured thermophysical data. Effect of temperature on solvation behaviour of diclofenac sodium salt in aqueous glycine and L-proline solutions
Source: J. Chem. Thermodyn., 2015, 10.1016/j.jct.2014.11.007
Compound 1: water, H2O
Compound 2: sodium diclofenac, C14H10Cl2NNaO2, purity 98%
Compound 3: glycine, C2H5NO2, purity 99.5%
Compound 4: L-proline, C5H9NO2, purity 99%

System: water; phases: Liquid
Property: Mass density, kg/m3 (Liquid); method: Vibrating tube method
Temperature, K	Pressure, kPa	Mass density, kg/m3	uncertainty
293.15	100	998.272	.05
298.15	100	997.117	.05
303.15	100	995.721	.05
308.15	100	994.108	.05
313.15	100	992.29	.05

System: water; phases: Liquid
Fixed: Frequency, MHz = 3
Property: Speed of sound, m/s (Liquid); method: Sing-around technique in a fixed-path interferometer
Temperature, K	Pressure, kPa	Speed of sound, m/s	uncertainty
293.15	100	1483.33	.5
298.15	100	1497.43	.5
303.15	100	1509.77	.5
308.15	100	1520.43	.5
313.15	100	1529.48	.5

System: glycine + water + sodium diclofenac; phases: Liquid
Fixed: Pressure, kPa = 100
Property: Mass density, kg/m3 (Liquid); method: Vibrating tube method
Temperature, K	Molality, mol/kg of sodium diclofenac	Solvent: Molality, mol/kg of glycine	Mass density, kg/m3	uncertainty
293.15	0	0	998.272	.05
293.15	.00165	0	998.454	.05
293.15	.00255	0	998.563	.05
293.15	.0027	0	998.582	.05
293.15	.00314	0	998.638	.05
293.15	.00352	0	998.687	.05
293.15	.00413	0	998.769	.05
293.15	.00504	0	998.896	.05
293.15	.00604	0	999.044	.05
293.15	.00698	0	999.192	.05
293.15	.00742	0	999.257	.05
298.15	0	0	997.117	.05
298.15	.00165	0	997.297	.05
298.15	.00255	0	997.404	.05
298.15	.0027	0	997.423	.05
298.15	.00314	0	997.477	.05
298.15	.00352	0	997.527	.05
298.15	.00413	0	997.607	.05
298.15	.00504	0	997.733	.05
298.15	.00604	0	997.88	.05
298.15	.00698	0	998.027	.05
298.15	.00742	0	998.095	.05
303.15	0	0	995.721	.05
303.15	.00165	0	995.899	.05
303.15	.00255	0	996.005	.05
303.15	.0027	0	996.023	.05
303.15	.00314	0	996.078	.05
303.15	.00352	0	996.125	.05
303.15	.00413	0	996.205	.05
303.15	.00504	0	996.33	.05
303.15	.00604	0	996.477	.05
303.15	.00698	0	996.618	.05
303.15	.00742	0	996.689	.05
308.15	0	0	994.108	.05
308.15	.00165	0	994.285	.05
308.15	.00255	0	994.389	.05
308.15	.0027	0	994.407	.05
308.15	.00314	0	994.461	.05
308.15	.00352	0	994.508	.05
308.15	.00413	0	994.588	.05
308.15	.00504	0	994.71	.05
308.15	.00604	0	994.853	.05
308.15	.00698	0	994.995	.05
308.15	.00742	0	995.064	.05
313.15	0	0	992.29	.05
313.15	.00165	0	992.465	.05
313.15	.00255	0	992.569	.05
313.15	.0027	0	992.587	.05
313.15	.00314	0	992.64	.05
313.15	.00352	0	992.687	.05
313.15	.00413	0	992.767	.05
313.15	.00504	0	992.886	.05
313.15	.00604	0	993.027	.05
313.15	.00698	0	993.169	.05
313.15	.00742	0	993.238	.05
293.15	0	.01	998.638	.05
293.15	.00202	.01	998.883	.05
293.15	.00211	.01	998.894	.05
293.15	.00295	.01	998.997	.05
293.15	.00333	.01	999.044	.05
293.15	.00396	.01	999.123	.05
293.15	.00455	.01	999.197	.05
293.15	.005	.01	999.254	.05
293.15	.00534	.01	999.297	.05
293.15	.00627	.01	999.415	.05
298.15	0	.01	997.478	.05
298.15	.00202	.01	997.718	.05
298.15	.00211	.01	997.729	.05
298.15	.00295	.01	997.831	.05
298.15	.00333	.01	997.877	.05
298.15	.00396	.01	997.955	.05
298.15	.00455	.01	998.028	.05
298.15	.005	.01	998.085	.05
298.15	.00534	.01	998.127	.05
298.15	.00627	.01	998.244	.05
303.15	0	.01	996.083	.05
303.15	.00202	.01	996.318	.05
303.15	.00211	.01	996.329	.05
303.15	.00295	.01	996.43	.05
303.15	.00333	.01	996.476	.05
303.15	.00396	.01	996.553	.05
303.15	.00455	.01	996.626	.05
303.15	.005	.01	996.681	.05
303.15	.00534	.01	996.723	.05
303.15	.00627	.01	996.838	.05
308.15	0	.01	994.464	.05
308.15	.00202	.01	994.697	.05
308.15	.00211	.01	994.708	.05
308.15	.00295	.01	994.808	.05
308.15	.00333	.01	994.854	.05
308.15	.00396	.01	994.931	.05
308.15	.00455	.01	995.004	.05
308.15	.005	.01	995.059	.05
308.15	.00534	.01	995.101	.05
308.15	.00627	.01	995.216	.05
313.15	0	.01	992.644	.05
313.15	.00202	.01	992.874	.05
313.15	.00211	.01	992.885	.05
313.15	.00295	.01	992.984	.05
313.15	.00333	.01	993.03	.05
313.15	.00396	.01	993.107	.05
313.15	.00455	.01	993.179	.05
313.15	.005	.01	993.234	.05
313.15	.00534	.01	993.276	.05
313.15	.00627	.01	993.392	.05
293.15	0	.03	999.313	.05
293.15	.00232	.03	999.603	.05
293.15	.00278	.03	999.659	.05
293.15	.00338	.03	999.731	.05
293.15	.00452	.03	999.864	.05
293.15	.005	.03	999.919	.05
293.15	.00554	.03	999.981	.05
293.15	.0058	.03	1000.01	.05
293.15	.0066	.03	1000.099	.05
293.15	.0071	.03	1000.155	.05
298.15	0	.03	998.145	.05
298.15	.00232	.03	998.431	.05
298.15	.00278	.03	998.487	.05
298.15	.00338	.03	998.558	.05
298.15	.00452	.03	998.691	.05
298.15	.005	.03	998.747	.05
298.15	.00554	.03	998.809	.05
298.15	.0058	.03	998.839	.05
298.15	.0066	.03	998.929	.05
298.15	.0071	.03	998.985	.05
303.15	0	.03	996.744	.05
303.15	.00232	.03	997.024	.05
303.15	.00278	.03	997.08	.05
303.15	.00338	.03	997.151	.05
303.15	.00452	.03	997.283	.05
303.15	.005	.03	997.338	.05
303.15	.00554	.03	997.398	.05
303.15	.0058	.03	997.427	.05
303.15	.0066	.03	997.516	.05
303.15	.0071	.03	997.571	.05
308.15	0	.03	995.118	.05
308.15	.00232	.03	995.395	.05
308.15	.00278	.03	995.45	.05
308.15	.00338	.03	995.521	.05
308.15	.00452	.03	995.651	.05
308.15	.005	.03	995.706	.05
308.15	.00554	.03	995.767	.05
308.15	.0058	.03	995.796	.05
308.15	.0066	.03	995.884	.05
308.15	.0071	.03	995.937	.05
313.15	0	.03	993.306	.05
313.15	.00232	.03	993.577	.05
313.15	.00278	.03	993.632	.05
313.15	.00338	.03	993.703	.05
313.15	.00452	.03	993.831	.05
313.15	.005	.03	993.884	.05
313.15	.00554	.03	993.943	.05
313.15	.0058	.03	993.971	.05
313.15	.0066	.03	994.056	.05
313.15	.0071	.03	994.108	.05
293.15	0	.05	999.93	.05
293.15	.00163	.05	1000.125	.05
293.15	.00173	.05	1000.137	.05
293.15	.00251	.05	1000.231	.05
293.15	.00311	.05	1000.305	.05
293.15	.00368	.05	1000.375	.05
293.15	.00429	.05	1000.45	.05
293.15	.00505	.05	1000.545	.05
293.15	.00531	.05	1000.577	.05
293.15	.00638	.05	1000.712	.05
298.15	0	.05	998.761	.05
298.15	.00163	.05	998.951	.05
298.15	.00173	.05	998.963	.05
298.15	.00251	.05	999.055	.05
298.15	.00311	.05	999.127	.05
298.15	.00368	.05	999.196	.05
298.15	.00429	.05	999.27	.05
298.15	.00505	.05	999.363	.05
298.15	.00531	.05	999.395	.05
298.15	.00638	.05	999.529	.05
303.15	0	.05	997.353	.05
303.15	.00163	.05	997.54	.05
303.15	.00173	.05	997.552	.05
303.15	.00251	.05	997.643	.05
303.15	.00311	.05	997.714	.05
303.15	.00368	.05	997.783	.05
303.15	.00429	.05	997.856	.05
303.15	.00505	.05	997.948	.05
303.15	.00531	.05	997.979	.05
303.15	.00638	.05	998.111	.05
308.15	0	.05	995.726	.05
308.15	.00163	.05	995.91	.05
308.15	.00173	.05	995.922	.05
308.15	.00251	.05	996.012	.05
308.15	.00311	.05	996.082	.05
308.15	.00368	.05	996.15	.05
308.15	.00429	.05	996.222	.05
308.15	.00505	.05	996.313	.05
308.15	.00531	.05	996.344	.05
308.15	.00638	.05	996.474	.05
313.15	0	.05	993.898	.05
313.15	.00163	.05	994.079	.05
313.15	.00173	.05	994.09	.05
313.15	.00251	.05	994.179	.05
313.15	.00311	.05	994.249	.05
313.15	.00368	.05	994.316	.05
313.15	.00429	.05	994.388	.05
313.15	.00505	.05	994.479	.05
313.15	.00531	.05	994.51	.05
313.15	.00638	.05	994.643	.05

System: glycine + water + sodium diclofenac; phases: Liquid
Fixed: Pressure, kPa = 100
Fixed: Frequency, MHz = 3
Property: Speed of sound, m/s (Liquid); method: Sing-around technique in a fixed-path interferometer
Temperature, K	Molality, mol/kg of sodium diclofenac	Solvent: Molality, mol/kg of glycine	Speed of sound, m/s	uncertainty
293.15	0	0	1483.33	.5
293.15	.00165	0	1483.54	.5
293.15	.00255	0	1483.66	.5
293.15	.0027	0	1483.68	.5
293.15	.00314	0	1483.73	.5
293.15	.00352	0	1483.78	.5
293.15	.00413	0	1483.86	.5
293.15	.00504	0	1483.98	.5
293.15	.00604	0	1484.09	.5
293.15	.00698	0	1484.21	.5
293.15	.00742	0	1484.27	.5
298.15	0	0	1497.43	.5
298.15	.00165	0	1497.62	.5
298.15	.00255	0	1497.72	.5
298.15	.0027	0	1497.74	.5
298.15	.00314	0	1497.79	.5
298.15	.00352	0	1497.84	.5
298.15	.00413	0	1497.9	.5
298.15	.00504	0	1498	.5
298.15	.00604	0	1498.11	.5
298.15	.00698	0	1498.22	.5
298.15	.00742	0	1498.27	.5
303.15	0	0	1509.77	.5
303.15	.00165	0	1509.94	.5
303.15	.00255	0	1510.03	.5
303.15	.0027	0	1510.05	.5
303.15	.00314	0	1510.09	.5
303.15	.00352	0	1510.13	.5
303.15	.00413	0	1510.2	.5
303.15	.00504	0	1510.3	.5
303.15	.00604	0	1510.41	.5
303.15	.00698	0	1510.52	.5
303.15	.00742	0	1510.57	.5
308.15	0	0	1520.43	.5
308.15	.00165	0	1520.58	.5
308.15	.00255	0	1520.67	.5
308.15	.0027	0	1520.68	.5
308.15	.00314	0	1520.72	.5
308.15	.00352	0	1520.76	.5
308.15	.00413	0	1520.82	.5
308.15	.00504	0	1520.9	.5
308.15	.00604	0	1520.99	.5
308.15	.00698	0	1521.09	.5
308.15	.00742	0	1521.14	.5
313.15	0	0	1529.48	.5
313.15	.00165	0	1529.62	.5
313.15	.00255	0	1529.7	.5
313.15	.0027	0	1529.71	.5
313.15	.00314	0	1529.75	.5
313.15	.00352	0	1529.78	.5
313.15	.00413	0	1529.84	.5
313.15	.00504	0	1529.91	.5
313.15	.00604	0	1530.01	.5
313.15	.00698	0	1530.09	.5
313.15	.00742	0	1530.13	.5
293.15	0	.01	1483.68	.5
293.15	.00202	.01	1484.03	.5
293.15	.00211	.01	1484.05	.5
293.15	.00295	.01	1484.2	.5
293.15	.00333	.01	1484.26	.5
293.15	.00396	.01	1484.38	.5
293.15	.00455	.01	1484.49	.5
293.15	.005	.01	1484.57	.5
293.15	.00534	.01	1484.63	.5
293.15	.00627	.01	1484.81	.5
298.15	0	.01	1497.82	.5
298.15	.00202	.01	1498.11	.5
298.15	.00211	.01	1498.13	.5
298.15	.00295	.01	1498.27	.5
298.15	.00333	.01	1498.32	.5
298.15	.00396	.01	1498.42	.5
298.15	.00455	.01	1498.52	.5
298.15	.005	.01	1498.59	.5
298.15	.00534	.01	1498.65	.5
298.15	.00627	.01	1498.79	.5
303.15	0	.01	1510.17	.5
303.15	.00202	.01	1510.43	.5
303.15	.00211	.01	1510.44	.5
303.15	.00295	.01	1510.56	.5
303.15	.00333	.01	1510.61	.5
303.15	.00396	.01	1510.71	.5
303.15	.00455	.01	1510.79	.5
303.15	.005	.01	1510.86	.5
303.15	.00534	.01	1510.91	.5
303.15	.00627	.01	1511.05	.5
308.15	0	.01	1520.8	.5
308.15	.00202	.01	1521.05	.5
308.15	.00211	.01	1521.06	.5
308.15	.00295	.01	1521.18	.5
308.15	.00333	.01	1521.22	.5
308.15	.00396	.01	1521.31	.5
308.15	.00455	.01	1521.38	.5
308.15	.005	.01	1521.44	.5
308.15	.00534	.01	1521.48	.5
308.15	.00627	.01	1521.6	.5
313.15	0	.01	1529.84	.5
313.15	.00202	.01	1530.05	.5
313.15	.00211	.01	1530.07	.5
313.15	.00295	.01	1530.18	.5
313.15	.00333	.01	1530.22	.5
313.15	.00396	.01	1530.3	.5
313.15	.00455	.01	1530.37	.5
313.15	.005	.01	1530.42	.5
313.15	.00534	.01	1530.46	.5
313.15	.00627	.01	1530.57	.5
293.15	0	.03	1484.52	.5
293.15	.00232	.03	1484.96	.5
293.15	.00278	.03	1485.05	.5
293.15	.00338	.03	1485.16	.5
293.15	.00452	.03	1485.37	.5
293.15	.005	.03	1485.46	.5
293.15	.00554	.03	1485.55	.5
293.15	.0058	.03	1485.6	.5
293.15	.0066	.03	1485.74	.5
293.15	.0071	.03	1485.83	.5
298.15	0	.03	1498.54	.5
298.15	.00232	.03	1498.96	.5
298.15	.00278	.03	1499.03	.5
298.15	.00338	.03	1499.14	.5
298.15	.00452	.03	1499.34	.5
298.15	.005	.03	1499.42	.5
298.15	.00554	.03	1499.52	.5
298.15	.0058	.03	1499.56	.5
298.15	.0066	.03	1499.7	.5
298.15	.0071	.03	1499.78	.5
303.15	0	.03	1510.86	.5
303.15	.00232	.03	1511.23	.5
303.15	.00278	.03	1511.31	.5
303.15	.00338	.03	1511.41	.5
303.15	.00452	.03	1511.59	.5
303.15	.005	.03	1511.67	.5
303.15	.00554	.03	1511.76	.5
303.15	.0058	.03	1511.8	.5
303.15	.0066	.03	1511.92	.5
303.15	.0071	.03	1512	.5
308.15	0	.03	1521.47	.5
308.15	.00232	.03	1521.82	.5
308.15	.00278	.03	1521.89	.5
308.15	.00338	.03	1521.98	.5
308.15	.00452	.03	1522.16	.5
308.15	.005	.03	1522.23	.5
308.15	.00554	.03	1522.31	.5
308.15	.0058	.03	1522.35	.5
308.15	.0066	.03	1522.47	.5
308.15	.0071	.03	1522.54	.5
313.15	0	.03	1530.54	.5
313.15	.00232	.03	1530.85	.5
313.15	.00278	.03	1530.91	.5
313.15	.00338	.03	1530.98	.5
313.15	.00452	.03	1531.13	.5
313.15	.005	.03	1531.2	.5
313.15	.00554	.03	1531.25	.5
313.15	.0058	.03	1531.28	.5
313.15	.0066	.03	1531.38	.5
313.15	.0071	.03	1531.42	.5
293.15	0	.05	1485.72	.5
293.15	.00163	.05	1486.05	.5
293.15	.00173	.05	1486.07	.5
293.15	.00251	.05	1486.22	.5
293.15	.00311	.05	1486.34	.5
293.15	.00368	.05	1486.46	.5
293.15	.00429	.05	1486.58	.5
293.15	.00505	.05	1486.73	.5
293.15	.00531	.05	1486.78	.5
293.15	.00638	.05	1487	.5
298.15	0	.05	1499.64	.5
298.15	.00163	.05	1499.95	.5
298.15	.00173	.05	1499.97	.5
298.15	.00251	.05	1500.13	.5
298.15	.00311	.05	1500.25	.5
298.15	.00368	.05	1500.36	.5
298.15	.00429	.05	1500.49	.5
298.15	.00505	.05	1500.64	.5
298.15	.00531	.05	1500.69	.5
298.15	.00638	.05	1500.91	.5
303.15	0	.05	1511.89	.5
303.15	.00163	.05	1512.17	.5
303.15	.00173	.05	1512.19	.5
303.15	.00251	.05	1512.34	.5
303.15	.00311	.05	1512.46	.5
303.15	.00368	.05	1512.57	.5
303.15	.00429	.05	1512.69	.5
303.15	.00505	.05	1512.84	.5
303.15	.00531	.05	1512.9	.5
303.15	.00638	.05	1513.12	.5
308.15	0	.05	1522.48	.5
308.15	.00163	.05	1522.75	.5
308.15	.00173	.05	1522.77	.5
308.15	.00251	.05	1522.91	.5
308.15	.00311	.05	1523.02	.5
308.15	.00368	.05	1523.12	.5
308.15	.00429	.05	1523.23	.5
308.15	.00505	.05	1523.37	.5
308.15	.00531	.05	1523.42	.5
308.15	.00638	.05	1523.62	.5
313.15	0	.05	1531.47	.5
313.15	.00163	.05	1531.72	.5
313.15	.00173	.05	1531.74	.5
313.15	.00251	.05	1531.87	.5
313.15	.00311	.05	1531.97	.5
313.15	.00368	.05	1532.07	.5
313.15	.00429	.05	1532.17	.5
313.15	.00505	.05	1532.3	.5
313.15	.00531	.05	1532.35	.5
313.15	.00638	.05	1532.53	.5

System: L-proline + water + sodium diclofenac; phases: Liquid
Fixed: Pressure, kPa = 100
Property: Mass density, kg/m3 (Liquid); method: Vibrating tube method
Temperature, K	Molality, mol/kg of sodium diclofenac	Solvent: Molality, mol/kg of L-proline	Mass density, kg/m3	uncertainty
293.15	0	0	998.272	.05
293.15	.00165	0	998.454	.05
293.15	.00255	0	998.563	.05
293.15	.0027	0	998.582	.05
293.15	.00314	0	998.638	.05
293.15	.00352	0	998.687	.05
293.15	.00413	0	998.769	.05
293.15	.00504	0	998.896	.05
293.15	.00604	0	999.044	.05
293.15	.00698	0	999.192	.05
293.15	.00742	0	999.257	.05
298.15	0	0	997.117	.05
298.15	.00165	0	997.297	.05
298.15	.00255	0	997.404	.05
298.15	.0027	0	997.423	.05
298.15	.00314	0	997.477	.05
298.15	.00352	0	997.527	.05
298.15	.00413	0	997.607	.05
298.15	.00504	0	997.733	.05
298.15	.00604	0	997.88	.05
298.15	.00698	0	998.027	.05
298.15	.00742	0	998.095	.05
303.15	0	0	995.721	.05
303.15	.00165	0	995.899	.05
303.15	.00255	0	996.005	.05
303.15	.0027	0	996.023	.05
303.15	.00314	0	996.078	.05
303.15	.00352	0	996.125	.05
303.15	.00413	0	996.205	.05
303.15	.00504	0	996.33	.05
303.15	.00604	0	996.477	.05
303.15	.00698	0	996.618	.05
303.15	.00742	0	996.689	.05
308.15	0	0	994.108	.05
308.15	.00165	0	994.285	.05
308.15	.00255	0	994.389	.05
308.15	.0027	0	994.407	.05
308.15	.00314	0	994.461	.05
308.15	.00352	0	994.508	.05
308.15	.00413	0	994.588	.05
308.15	.00504	0	994.71	.05
308.15	.00604	0	994.853	.05
308.15	.00698	0	994.995	.05
308.15	.00742	0	995.064	.05
313.15	0	0	992.29	.05
313.15	.00165	0	992.465	.05
313.15	.00255	0	992.569	.05
313.15	.0027	0	992.587	.05
313.15	.00314	0	992.64	.05
313.15	.00352	0	992.687	.05
313.15	.00413	0	992.767	.05
313.15	.00504	0	992.886	.05
313.15	.00604	0	993.027	.05
313.15	.00698	0	993.169	.05
313.15	.00742	0	993.238	.05
293.15	0	.01	998.631	.05
293.15	.00187	.01	998.853	.05
293.15	.00263	.01	998.945	.05
293.15	.00351	.01	999.053	.05
293.15	.00423	.01	999.144	.05
293.15	.00486	.01	999.224	.05
293.15	.00535	.01	999.287	.05
293.15	.00593	.01	999.364	.05
293.15	.00671	.01	999.467	.05
293.15	.00729	.01	999.545	.05
298.15	0	.01	997.474	.05
298.15	.00187	.01	997.69	.05
298.15	.00263	.01	997.781	.05
298.15	.00351	.01	997.887	.05
298.15	.00423	.01	997.977	.05
298.15	.00486	.01	998.056	.05
298.15	.00535	.01	998.119	.05
298.15	.00593	.01	998.195	.05
298.15	.00671	.01	998.298	.05
298.15	.00729	.01	998.375	.05
303.15	0	.01	996.082	.05
303.15	.00187	.01	996.294	.05
303.15	.00263	.01	996.384	.05
303.15	.00351	.01	996.489	.05
303.15	.00423	.01	996.577	.05
303.15	.00486	.01	996.654	.05
303.15	.00535	.01	996.715	.05
303.15	.00593	.01	996.789	.05
303.15	.00671	.01	996.889	.05
303.15	.00729	.01	996.965	.05
308.15	0	.01	994.462	.05
308.15	.00187	.01	994.671	.05
308.15	.00263	.01	994.759	.05
308.15	.00351	.01	994.863	.05
308.15	.00423	.01	994.95	.05
308.15	.00486	.01	995.026	.05
308.15	.00535	.01	995.087	.05
308.15	.00593	.01	995.16	.05
308.15	.00671	.01	995.261	.05
308.15	.00729	.01	995.338	.05
313.15	0	.01	992.639	.05
313.15	.00187	.01	992.845	.05
313.15	.00263	.01	992.933	.05
313.15	.00351	.01	993.036	.05
313.15	.00423	.01	993.123	.05
313.15	.00486	.01	993.199	.05
313.15	.00535	.01	993.26	.05
313.15	.00593	.01	993.334	.05
313.15	.00671	.01	993.433	.05
313.15	.00729	.01	993.508	.05
293.15	0	.03	999.275	.05
293.15	.00224	.03	999.568	.05
293.15	.00284	.03	999.643	.05
293.15	.00339	.03	999.71	.05
293.15	.00422	.03	999.809	.05
293.15	.00482	.03	999.878	.05
293.15	.00529	.03	999.931	.05
293.15	.00633	.03	1000.046	.05
293.15	.00686	.03	1000.102	.05
293.15	.00733	.03	1000.151	.05
298.15	0	.03	998.109	.05
298.15	.00224	.03	998.398	.05
298.15	.00284	.03	998.471	.05
298.15	.00339	.03	998.538	.05
298.15	.00422	.03	998.636	.05
298.15	.00482	.03	998.704	.05
298.15	.00529	.03	998.757	.05
298.15	.00633	.03	998.868	.05
298.15	.00686	.03	998.925	.05
298.15	.00733	.03	998.972	.05
303.15	0	.03	996.709	.05
303.15	.00224	.03	996.994	.05
303.15	.00284	.03	997.066	.05
303.15	.00339	.03	997.132	.05
303.15	.00422	.03	997.228	.05
303.15	.00482	.03	997.295	.05
303.15	.00529	.03	997.348	.05
303.15	.00633	.03	997.459	.05
303.15	.00686	.03	997.515	.05
303.15	.00733	.03	997.563	.05
308.15	0	.03	995.083	.05
308.15	.00224	.03	995.364	.05
308.15	.00284	.03	995.435	.05
308.15	.00339	.03	995.5	.05
308.15	.00422	.03	995.596	.05
308.15	.00482	.03	995.663	.05
308.15	.00529	.03	995.716	.05
308.15	.00633	.03	995.827	.05
308.15	.00686	.03	995.884	.05
308.15	.00733	.03	995.933	.05
313.15	0	.03	993.259	.05
313.15	.00224	.03	993.536	.05
313.15	.00284	.03	993.606	.05
313.15	.00339	.03	993.671	.05
313.15	.00422	.03	993.766	.05
313.15	.00482	.03	993.832	.05
313.15	.00529	.03	993.884	.05
313.15	.00633	.03	993.995	.05
313.15	.00686	.03	994.051	.05
313.15	.00733	.03	994.099	.05
293.15	0	.05	999.919	.05
293.15	.00144	.05	1000.089	.05
293.15	.00258	.05	1000.227	.05
293.15	.00368	.05	1000.363	.05
293.15	.00413	.05	1000.421	.05
293.15	.00486	.05	1000.514	.05
293.15	.00539	.05	1000.582	.05
293.15	.0061	.05	1000.676	.05
293.15	.00684	.05	1000.773	.05
293.15	.0071	.05	1000.809	.05
298.15	0	.05	998.747	.05
298.15	.00144	.05	998.912	.05
298.15	.00258	.05	999.046	.05
298.15	.00368	.05	999.181	.05
298.15	.00413	.05	999.238	.05
298.15	.00486	.05	999.331	.05
298.15	.00539	.05	999.399	.05
298.15	.0061	.05	999.491	.05
298.15	.00684	.05	999.59	.05
298.15	.0071	.05	999.626	.05
303.15	0	.05	997.338	.05
303.15	.00144	.05	997.5	.05
303.15	.00258	.05	997.633	.05
303.15	.00368	.05	997.766	.05
303.15	.00413	.05	997.823	.05
303.15	.00486	.05	997.914	.05
303.15	.00539	.05	997.981	.05
303.15	.0061	.05	998.072	.05
303.15	.00684	.05	998.168	.05
303.15	.0071	.05	998.203	.05
308.15	0	.05	995.708	.05
308.15	.00144	.05	995.868	.05
308.15	.00258	.05	995.999	.05
308.15	.00368	.05	996.131	.05
308.15	.00413	.05	996.187	.05
308.15	.00486	.05	996.278	.05
308.15	.00539	.05	996.344	.05
308.15	.0061	.05	996.436	.05
308.15	.00684	.05	996.532	.05
308.15	.0071	.05	996.567	.05
313.15	0	.05	993.88	.05
313.15	.00144	.05	994.038	.05
313.15	.00258	.05	994.168	.05
313.15	.00368	.05	994.298	.05
313.15	.00413	.05	994.353	.05
313.15	.00486	.05	994.444	.05
313.15	.00539	.05	994.51	.05
313.15	.0061	.05	994.599	.05
313.15	.00684	.05	994.695	.05
313.15	.0071	.05	994.729	.05

System: L-proline + water + sodium diclofenac; phases: Liquid
Fixed: Pressure, kPa = 100
Fixed: Frequency, MHz = 3
Property: Speed of sound, m/s (Liquid); method: Sing-around technique in a fixed-path interferometer
Temperature, K	Molality, mol/kg of sodium diclofenac	Solvent: Molality, mol/kg of L-proline	Speed of sound, m/s	uncertainty
293.15	0	0	1483.33	.5
293.15	.00165	0	1483.54	.5
293.15	.00255	0	1483.66	.5
293.15	.0027	0	1483.68	.5
293.15	.00314	0	1483.73	.5
293.15	.00352	0	1483.78	.5
293.15	.00413	0	1483.86	.5
293.15	.00504	0	1483.98	.5
293.15	.00604	0	1484.09	.5
293.15	.00698	0	1484.21	.5
293.15	.00742	0	1484.27	.5
298.15	0	0	1497.43	.5
298.15	.00165	0	1497.62	.5
298.15	.00255	0	1497.72	.5
298.15	.0027	0	1497.74	.5
298.15	.00314	0	1497.79	.5
298.15	.00352	0	1497.84	.5
298.15	.00413	0	1497.9	.5
298.15	.00504	0	1498	.5
298.15	.00604	0	1498.11	.5
298.15	.00698	0	1498.22	.5
298.15	.00742	0	1498.27	.5
303.15	0	0	1509.77	.5
303.15	.00165	0	1509.94	.5
303.15	.00255	0	1510.03	.5
303.15	.0027	0	1510.05	.5
303.15	.00314	0	1510.09	.5
303.15	.00352	0	1510.13	.5
303.15	.00413	0	1510.2	.5
303.15	.00504	0	1510.3	.5
303.15	.00604	0	1510.41	.5
303.15	.00698	0	1510.52	.5
303.15	.00742	0	1510.57	.5
308.15	0	0	1520.43	.5
308.15	.00165	0	1520.58	.5
308.15	.00255	0	1520.67	.5
308.15	.0027	0	1520.68	.5
308.15	.00314	0	1520.72	.5
308.15	.00352	0	1520.76	.5
308.15	.00413	0	1520.82	.5
308.15	.00504	0	1520.9	.5
308.15	.00604	0	1520.99	.5
308.15	.00698	0	1521.09	.5
308.15	.00742	0	1521.14	.5
313.15	0	0	1529.48	.5
313.15	.00165	0	1529.62	.5
313.15	.00255	0	1529.7	.5
313.15	.0027	0	1529.71	.5
313.15	.00314	0	1529.75	.5
313.15	.00352	0	1529.78	.5
313.15	.00413	0	1529.84	.5
313.15	.00504	0	1529.91	.5
313.15	.00604	0	1530.01	.5
313.15	.00698	0	1530.09	.5
313.15	.00742	0	1530.13	.5
293.15	0	.01	1483.81	.5
293.15	.00187	.01	1484.17	.5
293.15	.00263	.01	1484.31	.5
293.15	.00351	.01	1484.48	.5
293.15	.00423	.01	1484.62	.5
293.15	.00486	.01	1484.74	.5
293.15	.00535	.01	1484.85	.5
293.15	.00593	.01	1484.96	.5
293.15	.00671	.01	1485.11	.5
293.15	.00729	.01	1485.23	.5
298.15	0	.01	1497.76	.5
298.15	.00187	.01	1498.07	.5
298.15	.00263	.01	1498.22	.5
298.15	.00351	.01	1498.39	.5
298.15	.00423	.01	1498.52	.5
298.15	.00486	.01	1498.63	.5
298.15	.00535	.01	1498.72	.5
298.15	.00593	.01	1498.85	.5
298.15	.00671	.01	1499	.5
298.15	.00729	.01	1499.12	.5
303.15	0	.01	1510.06	.5
303.15	.00187	.01	1510.35	.5
303.15	.00263	.01	1510.48	.5
303.15	.00351	.01	1510.64	.5
303.15	.00423	.01	1510.78	.5
303.15	.00486	.01	1510.9	.5
303.15	.00535	.01	1511	.5
303.15	.00593	.01	1511.12	.5
303.15	.00671	.01	1511.28	.5
303.15	.00729	.01	1511.39	.5
308.15	0	.01	1520.67	.5
308.15	.00187	.01	1520.95	.5
308.15	.00263	.01	1521.08	.5
308.15	.00351	.01	1521.22	.5
308.15	.00423	.01	1521.34	.5
308.15	.00486	.01	1521.45	.5
308.15	.00535	.01	1521.55	.5
308.15	.00593	.01	1521.67	.5
308.15	.00671	.01	1521.83	.5
308.15	.00729	.01	1521.93	.5
313.15	0	.01	1529.75	.5
313.15	.00187	.01	1530	.5
313.15	.00263	.01	1530.12	.5
313.15	.00351	.01	1530.25	.5
313.15	.00423	.01	1530.37	.5
313.15	.00486	.01	1530.49	.5
313.15	.00535	.01	1530.58	.5
313.15	.00593	.01	1530.67	.5
313.15	.00671	.01	1530.79	.5
313.15	.00729	.01	1530.89	.5
293.15	0	.03	1485.85	.5
293.15	.00224	.03	1486.28	.5
293.15	.00284	.03	1486.39	.5
293.15	.00339	.03	1486.5	.5
293.15	.00422	.03	1486.67	.5
293.15	.00482	.03	1486.78	.5
293.15	.00529	.03	1486.88	.5
293.15	.00633	.03	1487.09	.5
293.15	.00686	.03	1487.2	.5
293.15	.00733	.03	1487.29	.5
298.15	0	.03	1499.82	.5
298.15	.00224	.03	1500.21	.5
298.15	.00284	.03	1500.32	.5
298.15	.00339	.03	1500.42	.5
298.15	.00422	.03	1500.57	.5
298.15	.00482	.03	1500.67	.5
298.15	.00529	.03	1500.75	.5
298.15	.00633	.03	1500.95	.5
298.15	.00686	.03	1501.05	.5
298.15	.00733	.03	1501.14	.5
303.15	0	.03	1511.82	.5
303.15	.00224	.03	1512.16	.5
303.15	.00284	.03	1512.25	.5
303.15	.00339	.03	1512.34	.5
303.15	.00422	.03	1512.47	.5
303.15	.00482	.03	1512.56	.5
303.15	.00529	.03	1512.63	.5
303.15	.00633	.03	1512.79	.5
303.15	.00686	.03	1512.88	.5
303.15	.00733	.03	1512.95	.5
308.15	0	.03	1522.39	.5
308.15	.00224	.03	1522.69	.5
308.15	.00284	.03	1522.77	.5
308.15	.00339	.03	1522.84	.5
308.15	.00422	.03	1522.95	.5
308.15	.00482	.03	1523.03	.5
308.15	.00529	.03	1523.09	.5
308.15	.00633	.03	1523.23	.5
308.15	.00686	.03	1523.3	.5
308.15	.00733	.03	1523.36	.5
313.15	0	.03	1531.44	.5
313.15	.00224	.03	1531.69	.5
313.15	.00284	.03	1531.76	.5
313.15	.00339	.03	1531.82	.5
313.15	.00422	.03	1531.91	.5
313.15	.00482	.03	1531.97	.5
313.15	.00529	.03	1532.01	.5
313.15	.00633	.03	1532.13	.5
313.15	.00686	.03	1532.19	.5
313.15	.00733	.03	1532.24	.5
293.15	0	.05	1487.41	.5
293.15	.00144	.05	1487.67	.5
293.15	.00258	.05	1487.86	.5
293.15	.00368	.05	1488.03	.5
293.15	.00413	.05	1488.1	.5
293.15	.00486	.05	1488.2	.5
293.15	.00539	.05	1488.27	.5
293.15	.0061	.05	1488.37	.5
293.15	.00684	.05	1488.46	.5
293.15	.0071	.05	1488.49	.5
298.15	0	.05	1501.04	.5
298.15	.00144	.05	1501.27	.5
298.15	.00258	.05	1501.44	.5
298.15	.00368	.05	1501.59	.5
298.15	.00413	.05	1501.65	.5
298.15	.00486	.05	1501.74	.5
298.15	.00539	.05	1501.8	.5
298.15	.0061	.05	1501.87	.5
298.15	.00684	.05	1501.94	.5
298.15	.0071	.05	1501.95	.5
303.15	0	.05	1512.88	.5
303.15	.00144	.05	1513.08	.5
303.15	.00258	.05	1513.23	.5
303.15	.00368	.05	1513.37	.5
303.15	.00413	.05	1513.41	.5
303.15	.00486	.05	1513.49	.5
303.15	.00539	.05	1513.54	.5
303.15	.0061	.05	1513.61	.5
303.15	.00684	.05	1513.67	.5
303.15	.0071	.05	1513.68	.5
308.15	0	.05	1523.54	.5
308.15	.00144	.05	1523.74	.5
308.15	.00258	.05	1523.88	.5
308.15	.00368	.05	1524.01	.5
308.15	.00413	.05	1524.06	.5
308.15	.00486	.05	1524.13	.5
308.15	.00539	.05	1524.18	.5
308.15	.0061	.05	1524.24	.5
308.15	.00684	.05	1524.3	.5
308.15	.0071	.05	1524.31	.5
313.15	0	.05	1532.26	.5
313.15	.00144	.05	1532.43	.5
313.15	.00258	.05	1532.55	.5
313.15	.00368	.05	1532.66	.5
313.15	.00413	.05	1532.7	.5
313.15	.00486	.05	1532.76	.5
313.15	.00539	.05	1532.81	.5
313.15	.0061	.05	1532.86	.5
313.15	.00684	.05	1532.9	.5
313.15	.0071	.05	1532.92	.5

System: water + sodium diclofenac; phases: Liquid
Property: Mass density, kg/m3 (Liquid); method: Vibrating tube method
Temperature, K	Molality, mol/kg of sodium diclofenac	Pressure, kPa	Mass density, kg/m3	uncertainty
293.15	.00165	100	998.454	.05
293.15	.00255	100	998.563	.05
293.15	.0027	100	998.582	.05
293.15	.00314	100	998.638	.05
293.15	.00352	100	998.687	.05
293.15	.00413	100	998.769	.05
293.15	.00504	100	998.896	.05
293.15	.00604	100	999.044	.05
293.15	.00698	100	999.192	.05
293.15	.00742	100	999.257	.05
298.15	.00165	100	997.297	.05
298.15	.00255	100	997.404	.05
298.15	.0027	100	997.423	.05
298.15	.00314	100	997.477	.05
298.15	.00352	100	997.527	.05
298.15	.00413	100	997.607	.05
298.15	.00504	100	997.733	.05
298.15	.00604	100	997.88	.05
298.15	.00698	100	998.027	.05
298.15	.00742	100	998.095	.05
303.15	.00165	100	995.899	.05
303.15	.00255	100	996.005	.05
303.15	.0027	100	996.023	.05
303.15	.00314	100	996.078	.05
303.15	.00352	100	996.125	.05
303.15	.00413	100	996.205	.05
303.15	.00504	100	996.33	.05
303.15	.00604	100	996.477	.05
303.15	.00698	100	996.618	.05
303.15	.00742	100	996.689	.05
308.15	.00165	100	994.285	.05
308.15	.00255	100	994.389	.05
308.15	.0027	100	994.407	.05
308.15	.00314	100	994.461	.05
308.15	.00352	100	994.508	.05
308.15	.00413	100	994.588	.05
308.15	.00504	100	994.71	.05
308.15	.00604	100	994.853	.05
308.15	.00698	100	994.995	.05
308.15	.00742	100	995.064	.05
313.15	.00165	100	992.465	.05
313.15	.00255	100	992.569	.05
313.15	.0027	100	992.587	.05
313.15	.00314	100	992.64	.05
313.15	.00352	100	992.687	.05
313.15	.00413	100	992.767	.05
313.15	.00504	100	992.886	.05
313.15	.00604	100	993.027	.05
313.15	.00698	100	993.169	.05
313.15	.00742	100	993.238	.05

System: water + sodium diclofenac; phases: Liquid
Fixed: Frequency, MHz = 3
Property: Speed of sound, m/s (Liquid); method: Sing-around technique in a fixed-path interferometer
Temperature, K	Molality, mol/kg of sodium diclofenac	Pressure, kPa	Speed of sound, m/s	uncertainty
293.15	.00165	100	1483.54	.5
293.15	.00255	100	1483.66	.5
293.15	.0027	100	1483.68	.5
293.15	.00314	100	1483.73	.5
293.15	.00352	100	1483.78	.5
293.15	.00413	100	1483.86	.5
293.15	.00504	100	1483.98	.5
293.15	.00604	100	1484.09	.5
293.15	.00698	100	1484.21	.5
293.15	.00742	100	1484.27	.5
298.15	.00165	100	1497.62	.5
298.15	.00255	100	1497.72	.5
298.15	.0027	100	1497.74	.5
298.15	.00314	100	1497.79	.5
298.15	.00352	100	1497.84	.5
298.15	.00413	100	1497.9	.5
298.15	.00504	100	1498	.5
298.15	.00604	100	1498.11	.5
298.15	.00698	100	1498.22	.5
298.15	.00742	100	1498.27	.5
303.15	.00165	100	1509.94	.5
303.15	.00255	100	1510.03	.5
303.15	.0027	100	1510.05	.5
303.15	.00314	100	1510.09	.5
303.15	.00352	100	1510.13	.5
303.15	.00413	100	1510.2	.5
303.15	.00504	100	1510.3	.5
303.15	.00604	100	1510.41	.5
303.15	.00698	100	1510.52	.5
303.15	.00742	100	1510.57	.5
308.15	.00165	100	1520.58	.5
308.15	.00255	100	1520.67	.5
308.15	.0027	100	1520.68	.5
308.15	.00314	100	1520.72	.5
308.15	.00352	100	1520.76	.5
308.15	.00413	100	1520.82	.5
308.15	.00504	100	1520.9	.5
308.15	.00604	100	1520.99	.5
308.15	.00698	100	1521.09	.5
308.15	.00742	100	1521.14	.5
313.15	.00165	100	1529.62	.5
313.15	.00255	100	1529.7	.5
313.15	.0027	100	1529.71	.5
313.15	.00314	100	1529.75	.5
313.15	.00352	100	1529.78	.5
313.15	.00413	100	1529.84	.5
313.15	.00504	100	1529.91	.5
313.15	.00604	100	1530.01	.5
313.15	.00698	100	1530.09	.5
313.15	.00742	100	1530.13	.5

System: glycine + water; phases: Liquid
Property: Mass density, kg/m3 (Liquid); method: Vibrating tube method
Temperature, K	Molality, mol/kg of glycine	Pressure, kPa	Mass density, kg/m3	uncertainty
293.15	.01	100	998.638	.05
298.15	.01	100	997.478	.05
303.15	.01	100	996.083	.05
308.15	.01	100	994.464	.05
313.15	.01	100	992.644	.05
293.15	.03	100	999.313	.05
298.15	.03	100	998.145	.05
303.15	.03	100	996.744	.05
308.15	.03	100	995.118	.05
313.15	.03	100	993.306	.05
293.15	.05	100	999.93	.05
298.15	.05	100	998.761	.05
303.15	.05	100	997.353	.05
308.15	.05	100	995.726	.05
313.15	.05	100	993.898	.05

System: glycine + water; phases: Liquid
Fixed: Frequency, MHz = 3
Property: Speed of sound, m/s (Liquid); method: Sing-around technique in a fixed-path interferometer
Temperature, K	Molality, mol/kg of glycine	Pressure, kPa	Speed of sound, m/s	uncertainty
293.15	.01	100	1483.68	.5
298.15	.01	100	1497.82	.5
303.15	.01	100	1510.17	.5
308.15	.01	100	1520.8	.5
313.15	.01	100	1529.84	.5
293.15	.03	100	1484.52	.5
298.15	.03	100	1498.54	.5
303.15	.03	100	1510.86	.5
308.15	.03	100	1521.47	.5
313.15	.03	100	1530.54	.5
293.15	.05	100	1485.72	.5
298.15	.05	100	1499.64	.5
303.15	.05	100	1511.89	.5
308.15	.05	100	1522.48	.5
313.15	.05	100	1531.47	.5

System: L-proline + water; phases: Liquid
Property: Mass density, kg/m3 (Liquid); method: Vibrating tube method
Temperature, K	Molality, mol/kg of L-proline	Pressure, kPa	Mass density, kg/m3	uncertainty
293.15	.01	100	998.631	.05
298.15	.01	100	997.474	.05
303.15	.01	100	996.082	.05
308.15	.01	100	994.462	.05
313.15	.01	100	992.639	.05
293.15	.03	100	999.275	.05
298.15	.03	100	998.109	.05
303.15	.03	100	996.709	.05
308.15	.03	100	995.083	.05
313.15	.03	100	993.259	.05
293.15	.05	100	999.919	.05
298.15	.05	100	998.747	.05
303.15	.05	100	997.338	.05
308.15	.05	100	995.708	.05
313.15	.05	100	993.88	.05

System: L-proline + water; phases: Liquid
Fixed: Frequency, MHz = 3
Property: Speed of sound, m/s (Liquid); method: Sing-around technique in a fixed-path interferometer
Temperature, K	Molality, mol/kg of L-proline	Pressure, kPa	Speed of sound, m/s	uncertainty
293.15	.01	100	1483.81	.5
298.15	.01	100	1497.76	.5
303.15	.01	100	1510.06	.5
308.15	.01	100	1520.67	.5
313.15	.01	100	1529.75	.5
293.15	.03	100	1485.85	.5
298.15	.03	100	1499.82	.5
303.15	.03	100	1511.82	.5
308.15	.03	100	1522.39	.5
313.15	.03	100	1531.44	.5
293.15	.05	100	1487.41	.5
298.15	.05	100	1501.04	.5
303.15	.05	100	1512.88	.5
308.15	.05	100	1523.54	.5
313.15	.05	100	1532.26	.5
