Measured thermophysical data. Aqueous two-phase systems of polyoxyethylene lauryl ether and potassium gluconate/potassium oxalate/potassium citrate at different temperature-experimental results and modeling of (liquid + liquid) equilibrium data
Source: J. Chem. Thermodyn., 2014, 10.1016/j.jct.2013.12.005
Compound 1: decaethylene glycol monododecyl ether, C32H66O11, purity 99.3%
Compound 2: potassium D-gluconate, C6H11KO7, purity 99%
Compound 3: potassium oxalate, C2K2O4, purity 99.8%
Compound 4: potassium citrate, C6H5K3O7, purity 99.5%
Compound 5: water, H2O

System: potassium D-gluconate + water + decaethylene glycol monododecyl ether; phases: Liquid mixture 1, Liquid mixture 2
Fixed: Pressure, kPa = 100
Property: Mass fraction of potassium D-gluconate (Liquid mixture 1); method: Titration method
Temperature, K	Mass fraction of decaethylene glycol monododecyl ether	Mass fraction of potassium D-gluconate	uncertainty
288.15	.0885	.234	.0001
288.15	.0855	.2349	.0001
288.15	.081	.2373	.0001
288.15	.0785	.2386	.0001
288.15	.0748	.2406	.0001
288.15	.0692	.2438	.0001
288.15	.0645	.2465	.0001
288.15	.0619	.2481	.0001
288.15	.0582	.2506	.0001
288.15	.0548	.2523	.0001
288.15	.0512	.2549	.0001
288.15	.0477	.2567	.0001
288.15	.044	.2591	.0001
288.15	.0399	.2621	.0001
288.15	.0359	.2646	.0001
288.15	.0318	.2679	.0001
288.15	.0272	.2716	.0001
288.15	.0227	.2751	.0001
288.15	.0188	.2783	.0001
288.15	.0154	.2815	.0001
288.15	.0128	.2848	.0001
288.15	.009	.2892	.0001
288.15	.0064	.2934	.0001
288.15	.0046	.2976	.0001
288.15	.0031	.3011	.0001
288.15	.0023	.3048	.0001
288.15	.0014	.3092	.0001
288.15	.001	.3135	.0001
288.15	.0006	.3169	.0001
288.15	.0003	.3207	.0001
298.15	.0991	.2244	.0001
298.15	.0907	.2276	.0001
298.15	.086	.2305	.0001
298.15	.0814	.2327	.0001
298.15	.0773	.2355	.0001
298.15	.074	.2371	.0001
298.15	.0706	.2394	.0001
298.15	.0653	.2424	.0001
298.15	.0609	.2453	.0001
298.15	.0564	.2485	.0001
298.15	.0519	.2514	.0001
298.15	.0488	.2537	.0001
298.15	.0445	.2565	.0001
298.15	.0399	.26	.0001
298.15	.036	.2634	.0001
298.15	.0312	.2674	.0001
298.15	.0285	.2697	.0001
298.15	.0251	.2729	.0001
298.15	.022	.2755	.0001
298.15	.0192	.2784	.0001
298.15	.0171	.2814	.0001
298.15	.0139	.2844	.0001
298.15	.0112	.2875	.0001
298.15	.009	.2909	.0001
298.15	.007	.2941	.0001
298.15	.004	.299	.0001
298.15	.0028	.3025	.0001
298.15	.0018	.3078	.0001
298.15	.001	.3131	.0001
298.15	.0006	.3174	.0001
298.15	.0005	.32	.0001
298.15	.0004	.3256	.0001
298.15	.0003	.3293	.0001
298.15	.0002	.3336	.0001
298.15	.0001	.3412	.0001
308.15	.1105	.1932	.0001
308.15	.1059	.1941	.0001
308.15	.102	.1953	.0001
308.15	.0979	.1972	.0001
308.15	.092	.1995	.0001
308.15	.0888	.2011	.0001
308.15	.083	.2038	.0001
308.15	.0779	.2061	.0001
308.15	.072	.209	.0001
308.15	.0678	.2113	.0001
308.15	.0633	.2146	.0001
308.15	.059	.217	.0001
308.15	.055	.219	.0001
308.15	.0498	.2226	.0001
308.15	.0442	.2266	.0001
308.15	.0389	.2303	.0001
308.15	.0328	.2349	.0001
308.15	.0273	.24	.0001
308.15	.0226	.2446	.0001
308.15	.0186	.248	.0001
308.15	.0155	.2513	.0001
308.15	.013	.2545	.0001
308.15	.0093	.259	.0001
308.15	.0067	.2635	.0001
308.15	.0044	.2669	.0001
308.15	.0029	.2702	.0001
308.15	.0015	.2753	.0001
308.15	.0011	.279	.0001
308.15	.0008	.2827	.0001
308.15	.0005	.2871	.0001
308.15	.0003	.2911	.0001
308.15	.0002	.297	.0001

System: potassium D-gluconate + water + decaethylene glycol monododecyl ether; phases: Liquid mixture 1, Liquid mixture 2
Property: Mass fraction of potassium D-gluconate (Liquid mixture 1); method: Flame photometry
Property: Mass fraction of potassium D-gluconate (Liquid mixture 2); method: Flame photometry
Property: Mass fraction of decaethylene glycol monododecyl ether (Liquid mixture 2); method: Flame photometry
Temperature, K	Pressure, kPa	Mass fraction of decaethylene glycol monododecyl ether	Mass fraction of potassium D-gluconate	uncertainty	Mass fraction of potassium D-gluconate	uncertainty	Mass fraction of decaethylene glycol monododecyl ether	uncertainty
288.15	100	.1799	.1897	.0003	.2547	.0003	.0508	.0004
298.15	100	.2931	.1538	.0003	.2973	.0003	.0061	.0004
308.15	100	.2894	.1384	.0003	.253	.0003	.0141	.0004
308.15	100	.3007	.1358	.0003	.2611	.0003	.0085	.0004
308.15	100	.3201	.1329	.0003	.2678	.0003	.0046	.0004
308.15	100	.1823	.1668	.0003	.2242	.0003	.047	.0004
308.15	100	.2277	.1538	.0003	.2351	.0003	.0321	.0004
308.15	100	.2563	.1464	.0003	.2452	.0003	.021	.0004
288.15	100	.2068	.1801	.0003	.2734	.0003	.0248	.0004
288.15	100	.2341	.1702	.0003	.2852	.0003	.0128	.0004
288.15	100	.2578	.1616	.0003	.2944	.0003	.0061	.0004
288.15	100	.2808	.1542	.0003	.3008	.0003	.0022	.0004
288.15	100	.3087	.1446	.0003	.3068	.0003	.0009	.0004
298.15	100	.2222	.1754	.0003	.2714	.0003	.0264	.0004
298.15	100	.2567	.1645	.0003	.2806	.0003	.0177	.0004
298.15	100	.2765	.1586	.0003	.2891	.0003	.0111	.0004

System: potassium oxalate + water + decaethylene glycol monododecyl ether; phases: Liquid mixture 1, Liquid mixture 2
Fixed: Pressure, kPa = 100
Property: Mass fraction of potassium oxalate (Liquid mixture 1); method: Titration method
Temperature, K	Mass fraction of decaethylene glycol monododecyl ether	Mass fraction of potassium oxalate	uncertainty
288.15	.1021	.1198	.0001
288.15	.0968	.1215	.0001
288.15	.0905	.1234	.0001
288.15	.0835	.1258	.0001
288.15	.0773	.1279	.0001
288.15	.072	.1299	.0001
288.15	.0672	.1317	.0001
288.15	.0628	.1334	.0001
288.15	.0555	.136	.0001
288.15	.0475	.1393	.0001
288.15	.0406	.1417	.0001
288.15	.0329	.1447	.0001
288.15	.0276	.1473	.0001
288.15	.0235	.1488	.0001
288.15	.0195	.1505	.0001
288.15	.0163	.1524	.0001
288.15	.0136	.1547	.0001
288.15	.0097	.1577	.0001
288.15	.006	.1621	.0001
288.15	.0048	.1662	.0001
288.15	.0042	.1695	.0001
288.15	.0034	.1735	.0001
288.15	.0026	.1771	.0001
288.15	.0018	.1804	.0001
288.15	.0014	.1832	.0001
288.15	.0009	.1872	.0001
288.15	.0005	.1914	.0001
288.15	.0003	.1944	.0001
288.15	.0002	.1977	.0001
298.15	.1284	.0996	.0001
298.15	.1224	.1011	.0001
298.15	.1173	.1021	.0001
298.15	.1129	.1028	.0001
298.15	.1088	.1038	.0001
298.15	.1039	.105	.0001
298.15	.0976	.1064	.0001
298.15	.091	.108	.0001
298.15	.0869	.1094	.0001
298.15	.0821	.1107	.0001
298.15	.0779	.112	.0001
298.15	.0735	.1132	.0001
298.15	.0694	.1142	.0001
298.15	.0642	.1158	.0001
298.15	.0579	.1179	.0001
298.15	.0532	.1196	.0001
298.15	.0489	.1208	.0001
298.15	.0449	.1221	.0001
298.15	.0386	.1241	.0001
298.15	.0338	.1262	.0001
298.15	.0277	.1287	.0001
298.15	.0218	.1319	.0001
298.15	.0185	.134	.0001
298.15	.0148	.1362	.0001
298.15	.0108	.1391	.0001
298.15	.0088	.1408	.0001
298.15	.0073	.1424	.0001
298.15	.0048	.1449	.0001
298.15	.0034	.1478	.0001
298.15	.0024	.1508	.0001
298.15	.0017	.1535	.0001
298.15	.0013	.1563	.0001
298.15	.0007	.159	.0001
298.15	.0003	.1613	.0001
298.15	.0002	.163	.0001
298.15	.0001	.1662	.0001
308.15	.1369	.0826	.0001
308.15	.1296	.0843	.0001
308.15	.1249	.0857	.0001
308.15	.115	.0888	.0001
308.15	.1099	.0902	.0001
308.15	.1026	.0923	.0001
308.15	.0986	.0937	.0001
308.15	.0937	.0952	.0001
308.15	.0868	.0972	.0001
308.15	.0831	.0983	.0001
308.15	.0777	.1002	.0001
308.15	.0721	.1017	.0001
308.15	.066	.1037	.0001
308.15	.0593	.1061	.0001
308.15	.0526	.1084	.0001
308.15	.0462	.1105	.0001
308.15	.0393	.1132	.0001
308.15	.0331	.1154	.0001
308.15	.0277	.118	.0001
308.15	.0232	.1201	.0001
308.15	.0195	.1218	.0001
308.15	.0164	.1235	.0001
308.15	.0121	.1261	.0001
308.15	.0088	.1287	.0001
308.15	.0064	.1314	.0001
308.15	.0041	.1341	.0001
308.15	.0015	.1376	.0001
308.15	.0007	.1408	.0001
308.15	.0004	.1442	.0001
308.15	.0002	.1484	.0001

System: potassium oxalate + water + decaethylene glycol monododecyl ether; phases: Liquid mixture 2, Liquid mixture 1
Property: Mass fraction of potassium oxalate (Liquid mixture 2); method: flame photometry
Property: Mass fraction of decaethylene glycol monododecyl ether (Liquid mixture 1); method: flame photometry
Property: Mass fraction of potassium oxalate (Liquid mixture 1); method: flame photometry
Temperature, K	Pressure, kPa	Mass fraction of decaethylene glycol monododecyl ether	Mass fraction of potassium oxalate	uncertainty	Mass fraction of decaethylene glycol monododecyl ether	uncertainty	Mass fraction of potassium oxalate	uncertainty
288.15	100	.0351	.1427	.0003	.1744	.0004	.1015	.0003
298.15	100	.0139	.1383	.0003	.2433	.0004	.0753	.0003
308.15	100	.0238	.1195	.0003	.2373	.0004	.0649	.0003
308.15	100	.0111	.1276	.0003	.2689	.0004	.0623	.0003
308.15	100	.0053	.134	.0003	.2949	.0004	.0606	.0003
308.15	100	.0027	.139	.0003	.325	.0004	.0576	.0003
308.15	100	.0009	.1443	.0003	.3507	.0004	.0556	.0003
308.15	100	.0592	.1054	.0003	.2059	.0004	.0676	.0003
288.15	100	.0092	.1612	.0003	.2318	.0004	.0947	.0003
288.15	100	.0038	.1681	.0003	.2578	.0004	.0908	.0003
288.15	100	.0007	.1749	.0003	.2789	.0004	.0883	.0003
288.15	100	.0005	.1801	.0003	.2998	.0004	.085	.0003
288.15	100	.0109	.1565	.0003	.2053	.0004	.0975	.0003
298.15	100	.0015	.1519	.0003	.2993	.0004	.0678	.0003
298.15	100	.0011	.1565	.0003	.3365	.0004	.0614	.0003
298.15	100	.0011	.1612	.0003	.3671	.0004	.0564	.0003

System: potassium citrate + water + decaethylene glycol monododecyl ether; phases: Liquid mixture 1, Liquid mixture 2
Fixed: Pressure, kPa = 100
Property: Mass fraction of potassium citrate (Liquid mixture 1); method: Titration method
Temperature, K	Mass fraction of decaethylene glycol monododecyl ether	Mass fraction of potassium citrate	uncertainty
288.15	.1697	.1131	.0001
288.15	.16	.1155	.0001
288.15	.1497	.1191	.0001
288.15	.1402	.1226	.0001
288.15	.1318	.1258	.0001
288.15	.1233	.1297	.0001
288.15	.115	.1337	.0001
288.15	.1087	.1365	.0001
288.15	.1028	.1388	.0001
288.15	.0986	.1406	.0001
288.15	.0935	.1431	.0001
288.15	.089	.1452	.0001
288.15	.0853	.1465	.0001
288.15	.0805	.1489	.0001
288.15	.0751	.1521	.0001
288.15	.0692	.1552	.0001
288.15	.0628	.1578	.0001
288.15	.0576	.161	.0001
288.15	.0528	.1632	.0001
288.15	.0473	.166	.0001
288.15	.0419	.1694	.0001
288.15	.0361	.1728	.0001
288.15	.0317	.1754	.0001
288.15	.0269	.1786	.0001
288.15	.0222	.182	.0001
288.15	.0177	.1846	.0001
288.15	.0135	.1884	.0001
288.15	.0102	.1911	.0001
288.15	.0064	.1944	.0001
288.15	.0034	.1988	.0001
288.15	.0025	.2016	.0001
288.15	.0012	.205	.0001
288.15	.0008	.2079	.0001
288.15	.0006	.2095	.0001
288.15	.0004	.213	.0001
288.15	.0002	.2263	.0001
298.15	.171	.0956	.0001
298.15	.1612	.0987	.0001
298.15	.1523	.1018	.0001
298.15	.1452	.1037	.0001
298.15	.1381	.1058	.0001
298.15	.1313	.108	.0001
298.15	.1237	.1103	.0001
298.15	.1162	.1128	.0001
298.15	.1106	.1146	.0001
298.15	.1046	.1171	.0001
298.15	.0967	.12	.0001
298.15	.0919	.1218	.0001
298.15	.0848	.1243	.0001
298.15	.0784	.1276	.0001
298.15	.0735	.1299	.0001
298.15	.069	.1321	.0001
298.15	.0621	.1353	.0001
298.15	.0585	.1374	.0001
298.15	.0547	.1392	.0001
298.15	.0495	.1415	.0001
298.15	.0431	.1455	.0001
298.15	.0375	.1488	.0001
298.15	.0316	.1532	.0001
298.15	.0265	.1567	.0001
298.15	.019	.1632	.0001
298.15	.0139	.1673	.0001
298.15	.0096	.1724	.0001
298.15	.0053	.1778	.0001
298.15	.004	.1802	.0001
298.15	.002	.1832	.0001
298.15	.0014	.1872	.0001
298.15	.0004	.1904	.0001
298.15	.0003	.1927	.0001
298.15	.0002	.1955	.0001
298.15	.0001	.1991	.0001
308.15	.1789	.0878	.0001
308.15	.1705	.0895	.0001
308.15	.1621	.0915	.0001
308.15	.155	.0932	.0001
308.15	.1471	.0954	.0001
308.15	.1413	.0974	.0001
308.15	.1337	.0998	.0001
308.15	.1265	.102	.0001
308.15	.1216	.1034	.0001
308.15	.1161	.105	.0001
308.15	.1106	.1068	.0001
308.15	.1046	.1089	.0001
308.15	.0978	.1111	.0001
308.15	.0934	.1128	.0001
308.15	.0867	.1152	.0001
308.15	.08	.118	.0001
308.15	.0733	.1202	.0001
308.15	.0647	.1238	.0001
308.15	.0579	.1266	.0001
308.15	.0522	.1291	.0001
308.15	.0473	.1308	.0001
308.15	.0419	.1335	.0001
308.15	.0356	.1367	.0001
308.15	.0304	.1396	.0001
308.15	.026	.1424	.0001
308.15	.02	.1458	.0001
308.15	.0149	.1484	.0001
308.15	.0116	.1512	.0001
308.15	.0075	.1534	.0001
308.15	.0044	.1568	.0001
308.15	.0018	.1597	.0001
308.15	.0013	.1622	.0001
308.15	.0008	.1661	.0001
308.15	.0004	.1693	.0001
308.15	.0002	.1763	.0001
308.15	.0001	.1832	.0001

System: potassium citrate + water + decaethylene glycol monododecyl ether; phases: Liquid mixture 2, Liquid mixture 1
Property: Mass fraction of potassium citrate (Liquid mixture 2); method: flame photometry
Property: Mass fraction of decaethylene glycol monododecyl ether (Liquid mixture 1); method: flame photometry
Property: Mass fraction of potassium citrate (Liquid mixture 1); method: flame photometry
Temperature, K	Pressure, kPa	Mass fraction of decaethylene glycol monododecyl ether	Mass fraction of potassium citrate	uncertainty	Mass fraction of decaethylene glycol monododecyl ether	uncertainty	Mass fraction of potassium citrate	uncertainty
288.15	100	.0611	.1584	.0003	.1448	.0004	.1215	.0003
298.15	100	.0101	.1735	.0003	.2489	.0004	.0763	.0003
308.15	100	.0098	.1542	.0003	.269	.0004	.0664	.0003
308.15	100	.0027	.1621	.0003	.2944	.0004	.0621	.0003
308.15	100	.0013	.1679	.0003	.3204	.0004	.058	.0003
308.15	100	.0006	.1733	.0003	.3506	.0004	.0532	.0003
308.15	100	.0474	.1316	.0003	.2024	.0004	.0799	.0003
308.15	100	.0247	.1431	.0003	.2398	.0004	.0728	.0003
288.15	100	.0236	.1809	.0003	.1846	.0004	.1084	.0003
288.15	100	.0092	.1926	.0003	.2164	.0004	.0989	.0003
288.15	100	.0016	.2003	.0003	.2479	.0004	.0899	.0003
288.15	100	.0008	.2066	.0003	.2798	.0004	.0796	.0003
288.15	100	.0005	.2119	.0003	.3105	.0004	.071	.0003
298.15	100	.0047	.1796	.0003	.2754	.0004	.0706	.0003
298.15	100	.0014	.1856	.0003	.3075	.0004	.0634	.0003
298.15	100	.0005	.1918	.0003	.3399	.0004	.0556	.0003
