Measured thermophysical data. Influence of the chain length on the dynamic viscosity at high pressure of some amines: Measurements and comparative study of some models
Source: J. Chem. Thermodyn., 2009, 10.1016/j.jct.2008.08.006
Compound 1: pentylamine, C5H13N
Compound 2: 1-hexanamine, C6H15N
Compound 3: heptylamine, C7H17N

System: pentylamine; phases: Liquid
Property: Viscosity, Pa*s (Liquid); method: Falling or rolling sphere viscometry
Pressure, kPa	Temperature, K	Viscosity, Pa*s	uncertainty
100	293.15	.000661	.00001322
20000	293.15	.00078	.0000156
40000	293.15	.000911	.00001822
60000	293.15	.001054	.00002108
80000	293.15	.001203	.00002406
100000	293.15	.001362	.00002724
100	313.15	.000501	.00001002
20000	313.15	.000577	.00001154
40000	313.15	.000678	.00001356
60000	313.15	.000779	.00001558
80000	313.15	.000879	.00001758
100000	313.15	.000974	.00001948
100	333.15	.000387	.00000774
20000	333.15	.000458	.00000916
40000	333.15	.000531	.00001062
60000	333.15	.000612	.00001224
80000	333.15	.000699	.00001398
100000	333.15	.000789	.00001578
100	353.15	.000316	.00000632
20000	353.15	.000378	.00000756
40000	353.15	.000437	.00000874
60000	353.15	.0005	.00001
80000	353.15	.000565	.0000113
100000	353.15	.00063	.0000126

System: 1-hexanamine; phases: Liquid
Property: Viscosity, Pa*s (Liquid); method: Falling or rolling sphere viscometry
Pressure, kPa	Temperature, K	Viscosity, Pa*s	uncertainty
100	293.15	.000838	.00001676
20000	293.15	.000993	.00001986
40000	293.15	.001165	.0000233
60000	293.15	.001356	.00002712
80000	293.15	.001561	.00003122
100000	293.15	.001788	.00003576
100	313.15	.000618	.00001236
20000	313.15	.000724	.00001448
40000	313.15	.000848	.00001696
60000	313.15	.000986	.00001972
80000	313.15	.001138	.00002276
100000	313.15	.001304	.00002608
100	333.15	.00048	.0000096
20000	333.15	.000564	.00001128
40000	333.15	.00066	.0000132
60000	333.15	.000764	.00001528
80000	333.15	.000877	.00001754
100000	333.15	.000996	.00001992
100	353.15	.000384	.00000768
20000	353.15	.000455	.0000091
40000	353.15	.000533	.00001066
60000	353.15	.000613	.00001226
80000	353.15	.000697	.00001394
100000	353.15	.000783	.00001566

System: heptylamine; phases: Liquid
Property: Viscosity, Pa*s (Liquid); method: Falling or rolling sphere viscometry
Pressure, kPa	Temperature, K	Viscosity, Pa*s	uncertainty
100	293.15	.001078	.00002156
20000	293.15	.001289	.00002578
40000	293.15	.001522	.00003044
60000	293.15	.001787	.00003574
80000	293.15	.002074	.00004148
100000	293.15	.002399	.00004798
100	313.15	.000787	.00001574
20000	313.15	.000905	.0000181
40000	313.15	.001065	.0000213
60000	313.15	.00125	.000025
80000	313.15	.00146	.0000292
100000	313.15	.001698	.00003396
100	333.15	.000605	.0000121
20000	333.15	.0007	.000014
40000	333.15	.000823	.00001646
60000	333.15	.000953	.00001906
80000	333.15	.001094	.00002188
100000	333.15	.001243	.00002486
100	353.15	.000464	.00000928
20000	353.15	.000552	.00001104
40000	353.15	.000651	.00001302
60000	353.15	.000754	.00001508
80000	353.15	.000862	.00001724
100000	353.15	.000976	.00001952
