Measured thermophysical data. (Solid + liquid) phase equilibria and heat capacity of (diphenyl ether + biphenyl) mixtures used as thermal energy storage materials
Source: J. Chem. Thermodyn., 2014, 10.1016/j.jct.2014.03.029
Compound 1: diphenyl ether, C12H10O, purity 99%
Compound 2: biphenyl, C12H10, purity 99%

System: diphenyl ether; phases: Crystal, Liquid, Air at 1 atmosphere
Property: Normal melting temperature, K (Crystal); method: DSC/DTA
Normal melting temperature, K	uncertainty
300.13	.3

System: diphenyl ether; phases: Crystal, Liquid, Air at 1 atmosphere
Property: Molar enthalpy of transition or fusion, kJ/mol (Crystal); method: DSC/DTA
Molar enthalpy of transition or fusion, kJ/mol	uncertainty
17.047953152	.20424864

System: diphenyl ether; phases: Liquid
Property: Molar heat capacity at constant pressure, J/K/mol (Liquid); method: Small sample (50 mg) DSC
Temperature, K	Pressure, kPa	Molar heat capacity at constant pressure, J/K/mol	uncertainty
313.15	100	261.6084664	7.848253992
333.15	100	272.33152	8.1699456
353.15	100	281.692916	8.45078748
373.15	100	290.8841048	8.726523144

System: biphenyl; phases: Crystal, Liquid, Air at 1 atmosphere
Property: Normal melting temperature, K (Crystal); method: DSC/DTA
Normal melting temperature, K	uncertainty
342.1	.3

System: biphenyl; phases: Crystal, Liquid, Air at 1 atmosphere
Property: Molar enthalpy of transition or fusion, kJ/mol (Crystal); method: DSC/DTA
Molar enthalpy of transition or fusion, kJ/mol	uncertainty
18.53577756	.18504936

System: biphenyl; phases: Liquid
Property: Molar heat capacity at constant pressure, J/K/mol (Liquid); method: Small sample (50 mg) DSC
Temperature, K	Pressure, kPa	Molar heat capacity at constant pressure, J/K/mol	uncertainty
353.15	100	271.5599358	8.146798074
373.15	100	280.8124038	8.424372114

System: biphenyl + diphenyl ether; phases: Crystal, Crystal, Liquid, Air at 1 atmosphere
Fixed: Pressure, kPa = 101.325
Property: Eutectic temperature, K (Crystal); method: DSC/DTA
Eutectic temperature, K	uncertainty
285.61	.3

System: biphenyl + diphenyl ether; phases: Crystal, Crystal, Liquid, Air at 1 atmosphere
Fixed: Pressure, kPa = 101.325
Property: Eutectic composition: mole fraction of diphenyl ether (Crystal); method: DSC
Eutectic composition: mole fraction of diphenyl ether	uncertainty
.705	.0006

System: biphenyl + diphenyl ether; phases: Liquid, Crystal
Fixed: Pressure, kPa = 100
Property: Solid-liquid equilibrium temperature, K (Liquid); method: DSC/DTA
Mole fraction of diphenyl ether	Solid-liquid equilibrium temperature, K	uncertainty
0	342.1	.3
.05	338.67	.3
.15	332.83	.3
.2499	327.12	.3
.4	315.13	.3
.55	302.52	.3
.705	285.61	.3

System: biphenyl + diphenyl ether; phases: Liquid, Crystal
Fixed: Pressure, kPa = 100
Property: Solid-liquid equilibrium temperature, K (Liquid); method: DSC/DTA
Mole fraction of diphenyl ether	Solid-liquid equilibrium temperature, K	uncertainty
.705	285.61	.3
.85	292.96	.3
.95	298.17	.3
1	300.13	.3

System: biphenyl + diphenyl ether; phases: Liquid
Fixed: Pressure, kPa = 100
Property: Molar heat capacity at constant pressure, J/K/mol (Liquid); method: Small sample (50 mg) DSC
Temperature, K	Mole fraction of diphenyl ether	Molar heat capacity at constant pressure, J/K/mol	uncertainty
353.15	0	271.5599358	8.146798074
373.15	0	280.8124038	8.424372114
353.15	.05	272.8136752	8.184410256
373.15	.05	282.42415694	8.4727247082
353.15	.15	277.1956467	8.315869401
373.15	.15	285.49585533	8.5648756599
333.15	.2499	270.37413955254	8.1112241865762
353.15	.2499	279.39188440596	8.3817565321788
373.15	.2499	286.98577480884	8.6095732442652
333.15	.4	273.51467468	8.2054402404
353.15	.4	282.34809048	8.4704427144
373.15	.4	290.37846848	8.7113540544
313.15	.55	271.57044502	8.1471133506
333.15	.55	278.25375129	8.3476125387
353.15	.55	285.58908744	8.5676726232
373.15	.55	292.43540118	8.7730620354
293.15	.705	263.621391561	7.90864174683
313.15	.705	271.39929828	8.1419789484
333.15	.705	279.177204999	8.37531614997
353.15	.705	286.127674833	8.58383024499
373.15	.705	293.243632044	8.79730896132
313.15	.85	267.65262755	8.0295788265
333.15	.85	276.54641392	8.2963924176
353.15	.85	285.60800758	8.5682402274
373.15	.85	294.50179395	8.8350538185
313.15	.95	262.24239204	7.8672717612
333.15	.95	272.23741861	8.1671225583
353.15	.95	281.72422349	8.4517267047
373.15	.95	290.87221391	8.7261664173
313.15	1	261.6084664	7.848253992
333.15	1	272.33152	8.1699456
353.15	1	281.692916	8.45078748
373.15	1	290.8841048	8.726523144
