Measured thermophysical data. Phenomenon of "negative partial molar expansibility" of water in  tetrahydrofuran: How plausible is it?  Discussion on the paper  "Volumetric properties on the (tetrahydrofuran + water)  and (tetra-n-butylammonium bromide + water) systems: Experimental measurements and correlations" by Veronica Belandria, Ammir H. Mohammadi and  Dominique Richon [J. Chem. Thermodyn. 41 (2009) 1382 1386]
Source: J. Chem. Thermodyn., 2011, 10.1016/j.jct.2010.08.006
Compound 1: tetramethylene oxide, C4H8O, purity 99.5%
Compound 2: water, H2O
Compound 3: water-d2, D2O, purity 99.8%

System: tetramethylene oxide; phases: Liquid
Fixed: Pressure, kPa = 101.325
Property: Mass density, kg/m3 (Liquid); method: Vibrating tube method
Temperature, K	Mass density, kg/m3	uncertainty
278.15	903.71	.03
288.15	892.94	.03
298.15	882.04	.03
308.15	871.01	.03
318.15	859.84	.03

System: tetramethylene oxide; phases: Liquid
Fixed: Pressure, kPa = 101.325
Property: Isobaric coefficient of expansion, 1/K (Liquid); method: Calculated from density
Temperature, K	Isobaric coefficient of expansion, 1/K	uncertainty
278.15	.0011846	
288.15	.0012134	
298.15	.0012431	
308.15	.0012738	
318.15	.0013055	

System: tetramethylene oxide + water; phases: Liquid
Fixed: Pressure, kPa = 101
Property: Mass density, kg/m3 (Liquid); method: Vibrating tube method
Temperature, K	Mole fraction of water	Mass density, kg/m3	uncertainty
278.15	.0017751	903.78	.03
278.15	.0038869	903.87	.03
278.15	.005362	903.93	.03
278.15	.0076771	904.02	.03
278.15	.010964	904.16	.03
278.15	.014203	904.29	.03
278.15	.017291	904.42	.03
278.15	.019705	904.52	.03
278.15	.025681	904.78	.03
278.15	.033926	905.13	.03
278.15	.042779	905.52	.03
288.15	.0017751	893.01	.03
288.15	.0038869	893.1	.03
288.15	.005362	893.16	.03
288.15	.0076771	893.25	.03
288.15	.010964	893.38	.03
288.15	.014203	893.52	.03
288.15	.017291	893.65	.03
288.15	.019705	893.75	.03
288.15	.025681	894	.03
288.15	.033926	894.35	.03
288.15	.042779	894.74	.03
298.15	.0017751	882.11	.03
298.15	.0038869	882.19	.03
298.15	.005362	882.25	.03
298.15	.0076771	882.35	.03
298.15	.010964	882.48	.03
298.15	.014203	882.61	.03
298.15	.017291	882.74	.03
298.15	.019705	882.84	.03
298.15	.025681	883.09	.03
298.15	.033926	883.44	.03
298.15	.042779	883.83	.03
308.15	.0017751	871.08	.03
308.15	.0038869	871.16	.03
308.15	.005362	871.23	.03
308.15	.0076771	871.32	.03
308.15	.010964	871.45	.03
308.15	.014203	871.58	.03
308.15	.017291	871.71	.03
308.15	.019705	871.81	.03
308.15	.025681	872.06	.03
308.15	.033926	872.41	.03
308.15	.042779	872.79	.03
318.15	.0017751	859.91	.03
318.15	.0038869	859.99	.03
318.15	.005362	860.05	.03
318.15	.0076771	860.15	.03
318.15	.010964	860.28	.03
318.15	.014203	860.41	.03
318.15	.017291	860.53	.03
318.15	.019705	860.63	.03
318.15	.025681	860.88	.03
318.15	.033926	861.22	.03
318.15	.042779	861.6	.03

System: tetramethylene oxide + water-d2; phases: Liquid
Fixed: Pressure, kPa = 101
Property: Mass density, kg/m3 (Liquid); method: Vibrating tube method
Temperature, K	Mole fraction of water-d2	Mass density, kg/m3	uncertainty
278.15	.0018478	903.83	.03
278.15	.0036888	903.96	.03
278.15	.0058663	904.1	.03
278.15	.0083394	904.27	.03
278.15	.010675	904.43	.03
278.15	.013955	904.65	.03
278.15	.017683	904.91	.03
278.15	.020295	905.09	.03
278.15	.02398	905.35	.03
278.15	.028821	905.69	.03
278.15	.034028	906.06	.03
278.15	.036682	906.25	.03
278.15	.042554	906.67	.03
288.15	.0018478	893.06	.03
288.15	.0036888	893.18	.03
288.15	.0058663	893.33	.03
288.15	.0083394	893.5	.03
288.15	.010675	893.65	.03
288.15	.013955	893.88	.03
288.15	.017683	894.13	.03
288.15	.020295	894.31	.03
288.15	.02398	894.57	.03
288.15	.028821	894.9	.03
288.15	.034028	895.27	.03
288.15	.036682	895.46	.03
288.15	.042554	895.88	.03
298.15	.0018478	882.16	.03
298.15	.0036888	882.28	.03
298.15	.0058663	882.43	.03
298.15	.0083394	882.59	.03
298.15	.010675	882.75	.03
298.15	.013955	882.97	.03
298.15	.017683	883.23	.03
298.15	.020295	883.4	.03
298.15	.02398	883.66	.03
298.15	.028821	883.99	.03
298.15	.034028	884.36	.03
298.15	.036682	884.55	.03
298.15	.042554	884.96	.03
308.15	.0018478	871.13	.03
308.15	.0036888	871.25	.03
308.15	.0058663	871.4	.03
308.15	.0083394	871.56	.03
308.15	.010675	871.72	.03
308.15	.013955	871.93	.03
308.15	.017683	872.19	.03
308.15	.020295	872.36	.03
308.15	.02398	872.62	.03
308.15	.028821	872.95	.03
308.15	.034028	873.31	.03
308.15	.036682	873.49	.03
308.15	.042554	873.91	.03
318.15	.0018478	859.96	.03
318.15	.0036888	860.08	.03
318.15	.0058663	860.22	.03
318.15	.0083394	860.38	.03
318.15	.010675	860.54	.03
318.15	.013955	860.76	.03
318.15	.017683	861	.03
318.15	.020295	861.18	.03
318.15	.02398	861.43	.03
318.15	.028821	861.76	.03
318.15	.034028	862.11	.03
318.15	.036682	862.3	.03
318.15	.042554	862.71	.03
