Measured thermophysical data. Melting behaviour of americium-doped uranium dioxide
Source: J. Chem. Thermodyn., 2016, 10.1016/j.jct.2016.02.003
Compound 1: uranium(IV) oxide, O2U, purity 99.78%
Compound 2: americium-241 dioxide, ^{241}AmO_{2}, purity 96.45%

System: uranium(IV) oxide + americium-241 dioxide; phases: Crystal, Liquid
Fixed: Pressure, kPa = 300
Property: Solid-liquid equilibrium temperature, K (Crystal); method: laser heating and fast multi-channel pyrometry
Mole fraction of americium-241 dioxide	Solid-liquid equilibrium temperature, K	uncertainty
.087	3070	
.189	3051	

System: uranium(IV) oxide + americium-241 dioxide; phases: Crystal, Liquid
Fixed: Pressure, kPa = 300
Property: Solid-liquid equilibrium temperature, K (Crystal); method: laser heating and fast multi-channel pyrometry
Mole fraction of americium-241 dioxide	Solid-liquid equilibrium temperature, K	uncertainty
.148	3071	
