Measured thermophysical data. A comparative study on the interactions of [bmim][NTf2] ionic liquid with selected four- to seven-membered-ring lactones
Source: J. Chem. Thermodyn., 2017, 10.1016/j.jct.2016.12.032
Compound 1: .beta.-butyrolactone, C4H6O2, purity 99%
Compound 2: .gamma.-valerolactone, C5H8O2, purity 99%
Compound 3: .delta.-valerolactone, C5H8O2, purity 99%
Compound 4: .epsilon.-caprolactone, C6H10O2, purity 99%
Compound 5: 1-butyl-3-methylimidazolium bis(trifluoromethylsulfonyl)imide, C10H15F6N3O4S2, purity 99%

System: .beta.-butyrolactone; phases: Liquid
Fixed: Frequency, MHz = 3
Property: Speed of sound, m/s (Liquid); method: Sing-around technique in a fixed-path interferometer
Pressure, kPa	Temperature, K	Speed of sound, m/s	uncertainty
100	293.15	1371.04	
100	298.15	1352.77	
100	303.15	1334.65	
100	308.15	1316.65	
100	313.15	1298.78	
100	318.15	1281.08	
100	323.15	1263.57	

System: .beta.-butyrolactone; phases: Liquid
Property: Refractive index (Na D-line) (Liquid); method: Standard Abbe refractometry
Pressure, kPa	Temperature, K	Refractive index (Na D-line)	uncertainty
100	293.15	1.414	
100	298.15	1.412	
100	303.15	1.41	
100	308.15	1.407	
100	313.15	1.405	
100	318.15	1.403	
100	323.15	1.401	

System: .beta.-butyrolactone; phases: Liquid
Property: Mass density, kg/m3 (Liquid); method: Vibrating tube method
Temperature, K	Pressure, kPa	Mass density, kg/m3	uncertainty
293.15	100	1055.933	
298.15	100	1050.682	
303.15	100	1045.305	
308.15	100	1039.853	
313.15	100	1034.331	
318.15	100	1028.792	
323.15	100	1023.194	

System: .beta.-butyrolactone; phases: Liquid
Property: Viscosity, Pa*s (Liquid); method: Capillary tube (Ostwald; Ubbelohde) method
Temperature, K	Pressure, kPa	Viscosity, Pa*s	uncertainty
293.15	100	.00168	
298.15	100	.00155	
303.15	100	.00148	
308.15	100	.0014	
313.15	100	.00133	
318.15	100	.00125	
323.15	100	.00118	

System: .gamma.-valerolactone; phases: Liquid
Fixed: Frequency, MHz = 3
Property: Speed of sound, m/s (Liquid); method: Sing-around technique in a fixed-path interferometer
Pressure, kPa	Temperature, K	Speed of sound, m/s	uncertainty
100	293.15	1447.3	
100	298.15	1429.2	
100	303.15	1411.3	
100	308.15	1393.5	
100	313.15	1375.9	
100	318.15	1358.4	
100	323.15	1341.2	

System: .gamma.-valerolactone; phases: Liquid
Property: Refractive index (Na D-line) (Liquid); method: Standard Abbe refractometry
Pressure, kPa	Temperature, K	Refractive index (Na D-line)	uncertainty
100	293.15	1.434	
100	298.15	1.432	
100	303.15	1.43	
100	308.15	1.427	
100	313.15	1.425	
100	318.15	1.423	
100	323.15	1.421	

System: .gamma.-valerolactone; phases: Liquid
Property: Mass density, kg/m3 (Liquid); method: Vibrating tube method
Temperature, K	Pressure, kPa	Mass density, kg/m3	uncertainty
293.15	100	1053.989	
298.15	100	1049.282	
303.15	100	1044.575	
308.15	100	1039.869	
313.15	100	1035.16	
318.15	100	1030.45	
323.15	100	1025.736	

System: .gamma.-valerolactone; phases: Liquid
Property: Viscosity, Pa*s (Liquid); method: Capillary tube (Ostwald; Ubbelohde) method
Temperature, K	Pressure, kPa	Viscosity, Pa*s	uncertainty
293.15	100	.00199	
298.15	100	.00182	
303.15	100	.00167	
308.15	100	.00153	
313.15	100	.00142	
318.15	100	.00132	
323.15	100	.00123	

System: .delta.-valerolactone; phases: Liquid
Fixed: Frequency, MHz = 3
Property: Speed of sound, m/s (Liquid); method: Sing-around technique in a fixed-path interferometer
Pressure, kPa	Temperature, K	Speed of sound, m/s	uncertainty
100	293.15	1587.22	
100	298.15	1569.16	
100	303.15	1551.27	
100	308.15	1533.45	
100	313.15	1516.01	
100	318.15	1498.63	
100	323.15	1481.5	

System: .delta.-valerolactone; phases: Liquid
Property: Mass density, kg/m3 (Liquid); method: Vibrating tube method
Temperature, K	Pressure, kPa	Mass density, kg/m3	uncertainty
293.15	100	1108.533	
298.15	100	1103.965	
303.15	100	1099.439	
308.15	100	1094.829	
313.15	100	1090.27	
318.15	100	1085.706	
323.15	100	1081.159	

System: .delta.-valerolactone; phases: Liquid
Property: Viscosity, Pa*s (Liquid); method: Capillary tube (Ostwald; Ubbelohde) method
Temperature, K	Pressure, kPa	Viscosity, Pa*s	uncertainty
293.15	100	.00368	
298.15	100	.0033	
303.15	100	.00298	
308.15	100	.0027	
313.15	100	.00247	
318.15	100	.00225	
323.15	100	.00209	

System: .epsilon.-caprolactone; phases: Liquid
Fixed: Frequency, MHz = 3
Property: Speed of sound, m/s (Liquid); method: Sing-around technique in a fixed-path interferometer
Pressure, kPa	Temperature, K	Speed of sound, m/s	uncertainty
100	293.15	1567.76	
100	298.15	1548.28	
100	303.15	1528.99	
100	308.15	1509.98	
100	313.15	1491.2	
100	318.15	1472.68	
100	323.15	1454.52	

System: .epsilon.-caprolactone; phases: Liquid
Property: Refractive index (Na D-line) (Liquid); method: Standard Abbe refractometry
Pressure, kPa	Temperature, K	Refractive index (Na D-line)	uncertainty
100	293.15	1.463	
100	298.15	1.461	
100	303.15	1.459	
100	308.15	1.457	
100	313.15	1.455	
100	318.15	1.454	
100	323.15	1.452	

System: .epsilon.-caprolactone; phases: Liquid
Property: Mass density, kg/m3 (Liquid); method: Vibrating tube method
Temperature, K	Pressure, kPa	Mass density, kg/m3	uncertainty
293.15	100	1075.92	
298.15	100	1071.669	
303.15	100	1067.409	
308.15	100	1063.153	
313.15	100	1058.9	
318.15	100	1054.649	
323.15	100	1050.403	

System: .epsilon.-caprolactone; phases: Liquid
Property: Viscosity, Pa*s (Liquid); method: Capillary tube (Ostwald; Ubbelohde) method
Temperature, K	Pressure, kPa	Viscosity, Pa*s	uncertainty
293.15	100	.00663	
298.15	100	.00576	
303.15	100	.00504	
308.15	100	.00444	
313.15	100	.00395	
318.15	100	.00353	
323.15	100	.00317	

System: 1-butyl-3-methylimidazolium bis(trifluoromethylsulfonyl)imide; phases: Liquid
Property: Mass density, kg/m3 (Liquid); method: Vibrating tube method
Temperature, K	Pressure, kPa	Mass density, kg/m3	uncertainty
293.15	100	1441.612	
298.15	100	1436.673	
303.15	100	1431.581	
308.15	100	1426.615	
313.15	100	1421.584	
318.15	100	1416.583	
323.15	100	1411.542	

System: .beta.-butyrolactone + 1-butyl-3-methylimidazolium bis(trifluoromethylsulfonyl)imide; phases: Liquid
Fixed: Pressure, kPa = 100
Property: Mass density, kg/m3 (Liquid); method: Vibrating tube method
Temperature, K	Mole fraction of 1-butyl-3-methylimidazolium bis(trifluoromethylsulfonyl)imide	Mass density, kg/m3	uncertainty
293.15	0	1055.933	
293.15	.0493	1119.771	
293.15	.1001	1167.523	
293.15	.1526	1207.484	
293.15	.2001	1240.414	
293.15	.3001	1291.505	
293.15	.4013	1329.172	
293.15	.5004	1358.851	
293.15	.5995	1382.954	
293.15	.6929	1401.023	
293.15	.814	1415.805	
293.15	.9001	1434.724	
293.15	1	1441.612	
298.15	0	1050.682	
298.15	.0493	1114.584	
298.15	.1001	1162.325	
298.15	.1526	1202.281	
298.15	.2001	1235.243	
298.15	.3001	1286.399	
298.15	.4013	1324.121	
298.15	.5004	1353.839	
298.15	.5995	1377.944	
298.15	.6929	1396.049	
298.15	.814	1410.842	
298.15	.9001	1429.792	
298.15	1	1436.673	
303.15	0	1045.305	
303.15	.0493	1109.249	
303.15	.1001	1157.054	
303.15	.1526	1197.004	
303.15	.2001	1229.972	
303.15	.3001	1281.211	
303.15	.4013	1318.982	
303.15	.5004	1348.709	
303.15	.5995	1372.858	
303.15	.6929	1390.949	
303.15	.814	1405.722	
303.15	.9001	1424.691	
303.15	1	1431.581	
308.15	0	1039.853	
308.15	.0493	1103.89	
308.15	.1001	1151.732	
308.15	.1526	1191.761	
308.15	.2001	1224.717	
308.15	.3001	1276.015	
308.15	.4013	1313.792	
308.15	.5004	1343.591	
308.15	.5995	1367.781	
308.15	.6929	1385.911	
308.15	.814	1400.701	
308.15	.9001	1419.711	
308.15	1	1426.615	
313.15	0	1034.331	
313.15	.0493	1098.482	
313.15	.1001	1146.34	
313.15	.1526	1186.341	
313.15	.2001	1219.404	
313.15	.3001	1270.762	
313.15	.4013	1308.609	
313.15	.5004	1338.44	
313.15	.5995	1362.651	
313.15	.6929	1380.831	
313.15	.814	1395.6	
313.15	.9001	1414.645	
313.15	1	1421.584	
318.15	0	1028.792	
318.15	.0493	1093.011	
318.15	.1001	1140.961	
318.15	.1526	1181.016	
318.15	.2001	1214.089	
318.15	.3001	1265.51	
318.15	.4013	1303.394	
318.15	.5004	1333.28	
318.15	.5995	1357.541	
318.15	.6929	1375.74	
318.15	.814	1390.551	
318.15	.9001	1409.632	
318.15	1	1416.583	
323.15	0	1023.194	
323.15	.0493	1087.482	
323.15	.1001	1135.512	
323.15	.1526	1175.612	
323.15	.2001	1208.719	
323.15	.3001	1260.231	
323.15	.4013	1298.207	
323.15	.5004	1328.11	
323.15	.5995	1352.41	
323.15	.6929	1370.641	
323.15	.814	1385.49	
323.15	.9001	1404.584	
323.15	1	1411.542	

System: .beta.-butyrolactone + 1-butyl-3-methylimidazolium bis(trifluoromethylsulfonyl)imide; phases: Liquid
Fixed: Pressure, kPa = 100
Property: Viscosity, Pa*s (Liquid); method: Capillary tube (Ostwald; Ubbelohde) method
Temperature, K	Mole fraction of 1-butyl-3-methylimidazolium bis(trifluoromethylsulfonyl)imide	Viscosity, Pa*s	uncertainty
293.15	0	.00168	
293.15	.0493	.00214	
293.15	.1001	.00275	
293.15	.1526	.00344	
293.15	.2001	.00475	
293.15	.3001	.00722	
293.15	.4013	.01069	
293.15	.5004	.01569	
293.15	.5995	.02226	
293.15	.6929	.02927	
293.15	.814	.04015	
293.15	.9001	.05031	
293.15	1	.06208	
298.15	0	.00155	
298.15	.0493	.00197	
298.15	.1001	.00252	
298.15	.1526	.00317	
298.15	.2001	.00438	
298.15	.3001	.00659	
298.15	.4013	.00961	
298.15	.5004	.01344	
298.15	.5995	.01855	
298.15	.6929	.02432	
298.15	.814	.03291	
298.15	.9001	.04125	
298.15	1	.05005	
303.15	0	.00148	
303.15	.0493	.00183	
303.15	.1001	.0023	
303.15	.1526	.00298	
303.15	.2001	.0039	
303.15	.3001	.00587	
303.15	.4013	.00814	
303.15	.5004	.01156	
303.15	.5995	.01574	
303.15	.6929	.02081	
303.15	.814	.02746	
303.15	.9001	.03424	
303.15	1	.04124	
308.15	0	.0014	
308.15	.0493	.00173	
308.15	.1001	.00213	
308.15	.1526	.00278	
308.15	.2001	.00351	
308.15	.3001	.00533	
308.15	.4013	.00728	
308.15	.5004	.01005	
308.15	.5995	.01361	
308.15	.6929	.01763	
308.15	.814	.02324	
308.15	.9001	.02809	
308.15	1	.03365	
313.15	0	.00133	
313.15	.0493	.00163	
313.15	.1001	.00199	
313.15	.1526	.00255	
313.15	.2001	.00321	
313.15	.3001	.00472	
313.15	.4013	.00641	
313.15	.5004	.00882	
313.15	.5995	.01175	
313.15	.6929	.01503	
313.15	.814	.01976	
313.15	.9001	.02376	
313.15	1	.02828	
318.15	0	.00125	
318.15	.0493	.00153	
318.15	.1001	.00186	
318.15	.1526	.00236	
318.15	.2001	.00294	
318.15	.3001	.00423	
318.15	.4013	.00576	
318.15	.5004	.00774	
318.15	.5995	.01026	
318.15	.6929	.01301	
318.15	.814	.01682	
318.15	.9001	.02035	
318.15	1	.02391	
323.15	0	.00118	
323.15	.0493	.00146	
323.15	.1001	.00172	
323.15	.1526	.00221	
323.15	.2001	.0027	
323.15	.3001	.00392	
323.15	.4013	.00518	
323.15	.5004	.00691	
323.15	.5995	.00902	
323.15	.6929	.0114	
323.15	.814	.01441	
323.15	.9001	.01727	
323.15	1	.02064	

System: .gamma.-valerolactone + 1-butyl-3-methylimidazolium bis(trifluoromethylsulfonyl)imide; phases: Liquid
Fixed: Pressure, kPa = 100
Property: Mass density, kg/m3 (Liquid); method: Vibrating tube method
Temperature, K	Mole fraction of 1-butyl-3-methylimidazolium bis(trifluoromethylsulfonyl)imide	Mass density, kg/m3	uncertainty
293.15	0	1053.989	
293.15	.0505	1108.435	
293.15	.1001	1153.24	
293.15	.1492	1191.446	
293.15	.1998	1223.25	
293.15	.3008	1274.043	
293.15	.4031	1317.286	
293.15	.5048	1347.031	
293.15	.6031	1373.157	
293.15	.6973	1393.956	
293.15	.7994	1413.303	
293.15	.8711	1426.6	
293.15	1	1441.612	
298.15	0	1049.282	
298.15	.0505	1103.664	
298.15	.1001	1148.418	
298.15	.1492	1186.577	
298.15	.1998	1218.361	
298.15	.3008	1269.117	
298.15	.4031	1312.353	
298.15	.5048	1342.098	
298.15	.6031	1368.219	
298.15	.6973	1389.013	
298.15	.7994	1408.364	
298.15	.8711	1421.669	
298.15	1	1436.673	
303.15	0	1044.575	
303.15	.0505	1098.863	
303.15	.1001	1143.543	
303.15	.1492	1181.67	
303.15	.1998	1213.417	
303.15	.3008	1264.123	
303.15	.4031	1307.332	
303.15	.5048	1337.066	
303.15	.6031	1363.162	
303.15	.6973	1383.94	
303.15	.7994	1403.286	
303.15	.8711	1416.593	
303.15	1	1431.581	
308.15	0	1039.869	
308.15	.0505	1094.085	
308.15	.1001	1138.712	
308.15	.1492	1176.803	
308.15	.1998	1208.522	
308.15	.3008	1259.203	
308.15	.4031	1302.39	
308.15	.5048	1332.109	
308.15	.6031	1358.201	
308.15	.6973	1378.985	
308.15	.7994	1398.335	
308.15	.8711	1411.63	
308.15	1	1426.615	
313.15	0	1035.16	
313.15	.0505	1089.308	
313.15	.1001	1133.866	
313.15	.1492	1171.928	
313.15	.1998	1203.61	
313.15	.3008	1254.26	
313.15	.4031	1297.418	
313.15	.5048	1327.123	
313.15	.6031	1353.205	
313.15	.6973	1373.982	
313.15	.7994	1393.329	
313.15	.8711	1406.617	
313.15	1	1421.584	
318.15	0	1030.45	
318.15	.0505	1084.534	
318.15	.1001	1129.046	
318.15	.1492	1167.057	
318.15	.1998	1198.73	
318.15	.3008	1249.349	
318.15	.4031	1292.486	
318.15	.5048	1322.167	
318.15	.6031	1348.239	
318.15	.6973	1369.019	
318.15	.7994	1388.353	
318.15	.8711	1401.625	
318.15	1	1416.583	
323.15	0	1025.736	
323.15	.0505	1079.757	
323.15	.1001	1124.224	
323.15	.1492	1162.18	
323.15	.1998	1193.829	
323.15	.3008	1244.4	
323.15	.4031	1287.508	
323.15	.5048	1317.181	
323.15	.6031	1343.248	
323.15	.6973	1364.021	
323.15	.7994	1383.348	
323.15	.8711	1396.604	
323.15	1	1411.542	

System: .gamma.-valerolactone + 1-butyl-3-methylimidazolium bis(trifluoromethylsulfonyl)imide; phases: Liquid
Fixed: Pressure, kPa = 100
Property: Viscosity, Pa*s (Liquid); method: Capillary tube (Ostwald; Ubbelohde) method
Temperature, K	Mole fraction of 1-butyl-3-methylimidazolium bis(trifluoromethylsulfonyl)imide	Viscosity, Pa*s	uncertainty
293.15	0	.00199	
293.15	.0505	.00251	
293.15	.1001	.00321	
293.15	.1492	.00428	
293.15	.1998	.0056	
293.15	.3008	.00884	
293.15	.4031	.01388	
293.15	.5048	.01918	
293.15	.6031	.02588	
293.15	.6973	.03312	
293.15	.7994	.04231	
293.15	.8711	.05045	
293.15	1	.06208	
298.15	0	.00182	
298.15	.0505	.00221	
298.15	.1001	.00276	
298.15	.1492	.00357	
298.15	.1998	.00471	
298.15	.3008	.0072	
298.15	.4031	.01111	
298.15	.5048	.01534	
298.15	.6031	.02069	
298.15	.6973	.02655	
298.15	.7994	.03416	
298.15	.8711	.04079	
298.15	1	.05005	
303.15	0	.00167	
303.15	.0505	.00198	
303.15	.1001	.00245	
303.15	.1492	.00313	
303.15	.1998	.00403	
303.15	.3008	.00601	
303.15	.4031	.00911	
303.15	.5048	.01252	
303.15	.6031	.01718	
303.15	.6973	.02162	
303.15	.7994	.02785	
303.15	.8711	.03315	
303.15	1	.04124	
308.15	0	.00153	
308.15	.0505	.00181	
308.15	.1001	.00222	
308.15	.1492	.00279	
308.15	.1998	.00353	
308.15	.3008	.00516	
308.15	.4031	.00778	
308.15	.5048	.0106	
308.15	.6031	.01412	
308.15	.6973	.01797	
308.15	.7994	.02282	
308.15	.8711	.02709	
308.15	1	.03365	
313.15	0	.00142	
313.15	.0505	.00165	
313.15	.1001	.002	
313.15	.1492	.00245	
313.15	.1998	.00317	
313.15	.3008	.0045	
313.15	.4031	.00665	
313.15	.5048	.00902	
313.15	.6031	.01205	
313.15	.6973	.01514	
313.15	.7994	.01914	
313.15	.8711	.0227	
313.15	1	.02828	
318.15	0	.00132	
318.15	.0505	.00152	
318.15	.1001	.00179	
318.15	.1492	.00222	
318.15	.1998	.0028	
318.15	.3008	.00403	
318.15	.4031	.00576	
318.15	.5048	.00784	
318.15	.6031	.01041	
318.15	.6973	.01296	
318.15	.7994	.01642	
318.15	.8711	.01925	
318.15	1	.02391	
323.15	0	.00123	
323.15	.0505	.00141	
323.15	.1001	.00166	
323.15	.1492	.00204	
323.15	.1998	.00249	
323.15	.3008	.00359	
323.15	.4031	.00519	
323.15	.5048	.00698	
323.15	.6031	.00922	
323.15	.6973	.01145	
323.15	.7994	.01432	
323.15	.8711	.01668	
323.15	1	.02064	

System: .delta.-valerolactone + 1-butyl-3-methylimidazolium bis(trifluoromethylsulfonyl)imide; phases: Liquid
Fixed: Pressure, kPa = 100
Property: Mass density, kg/m3 (Liquid); method: Vibrating tube method
Temperature, K	Mole fraction of 1-butyl-3-methylimidazolium bis(trifluoromethylsulfonyl)imide	Mass density, kg/m3	uncertainty
293.15	0	1108.533	
293.15	.0532	1156.676	
293.15	.1004	1196.303	
293.15	.1504	1229.634	
293.15	.1999	1257.203	
293.15	.2988	1300.904	
293.15	.4006	1337.767	
293.15	.5005	1362.898	
293.15	.5999	1384.823	
293.15	.7	1402.176	
293.15	.8013	1418.257	
293.15	.8986	1429.226	
293.15	1	1441.612	
298.15	0	1103.965	
298.15	.0532	1152.034	
298.15	.1004	1191.605	
298.15	.1504	1224.893	
298.15	.1999	1252.423	
298.15	.2988	1296.08	
298.15	.4006	1332.91	
298.15	.5005	1358.018	
298.15	.5999	1379.925	
298.15	.7	1397.265	
298.15	.8013	1413.334	
298.15	.8986	1424.293	
298.15	1	1436.673	
303.15	0	1099.439	
303.15	.0532	1147.366	
303.15	.1004	1186.863	
303.15	.1504	1220.093	
303.15	.1999	1247.579	
303.15	.2988	1291.172	
303.15	.4006	1327.956	
303.15	.5005	1353.028	
303.15	.5999	1374.903	
303.15	.7	1392.224	
303.15	.8013	1408.276	
303.15	.8986	1419.219	
303.15	1	1431.581	
308.15	0	1094.829	
308.15	.0532	1142.723	
308.15	.1004	1182.163	
308.15	.1504	1215.342	
308.15	.1999	1242.793	
308.15	.2988	1286.334	
308.15	.4006	1323.083	
308.15	.5005	1348.129	
308.15	.5999	1369.986	
308.15	.7	1387.287	
308.15	.8013	1403.328	
308.15	.8986	1414.263	
308.15	1	1426.615	
313.15	0	1090.27	
313.15	.0532	1138.1	
313.15	.1004	1177.467	
313.15	.1504	1210.596	
313.15	.1999	1238.009	
313.15	.2988	1281.496	
313.15	.4006	1318.197	
313.15	.5005	1343.214	
313.15	.5999	1365.029	
313.15	.7	1382.314	
313.15	.8013	1398.329	
313.15	.8986	1409.251	
313.15	1	1421.584	
318.15	0	1085.706	
318.15	.0532	1133.472	
318.15	.1004	1172.787	
318.15	.1504	1205.87	
318.15	.1999	1233.251	
318.15	.2988	1276.688	
318.15	.4006	1313.341	
318.15	.5005	1338.327	
318.15	.5999	1360.127	
318.15	.7	1377.379	
318.15	.8013	1393.369	
318.15	.8986	1404.27	
318.15	1	1416.583	
323.15	0	1081.159	
323.15	.0532	1128.86	
323.15	.1004	1168.118	
323.15	.1504	1201.157	
323.15	.1999	1228.595	
323.15	.2988	1271.854	
323.15	.4006	1308.45	
323.15	.5005	1333.405	
323.15	.5999	1355.177	
323.15	.7	1372.41	
323.15	.8013	1388.377	
323.15	.8986	1399.256	
323.15	1	1411.542	

System: .delta.-valerolactone + 1-butyl-3-methylimidazolium bis(trifluoromethylsulfonyl)imide; phases: Liquid
Fixed: Pressure, kPa = 100
Property: Viscosity, Pa*s (Liquid); method: Capillary tube (Ostwald; Ubbelohde) method
Temperature, K	Mole fraction of 1-butyl-3-methylimidazolium bis(trifluoromethylsulfonyl)imide	Viscosity, Pa*s	uncertainty
293.15	0	.00368	
293.15	.0532	.0046	
293.15	.1004	.00591	
293.15	.1504	.00747	
293.15	.1999	.00895	
293.15	.2988	.01308	
293.15	.4006	.01795	
293.15	.5005	.02377	
293.15	.5999	.03089	
293.15	.7	.03758	
293.15	.8013	.0448	
293.15	.8986	.05257	
293.15	1	.06208	
298.15	0	.0033	
298.15	.0532	.00409	
298.15	.1004	.00526	
298.15	.1504	.00647	
298.15	.1999	.00778	
298.15	.2988	.01115	
298.15	.4006	.01514	
298.15	.5005	.0198	
298.15	.5999	.02562	
298.15	.7	.03117	
298.15	.8013	.03732	
298.15	.8986	.04318	
298.15	1	.05005	
303.15	0	.00298	
303.15	.0532	.0037	
303.15	.1004	.00458	
303.15	.1504	.00564	
303.15	.1999	.00674	
303.15	.2988	.00963	
303.15	.4006	.01292	
303.15	.5005	.01677	
303.15	.5999	.02134	
303.15	.7	.02571	
303.15	.8013	.03093	
303.15	.8986	.03578	
303.15	1	.04124	
308.15	0	.0027	
308.15	.0532	.00321	
308.15	.1004	.00408	
308.15	.1504	.00509	
308.15	.1999	.00606	
308.15	.2988	.00842	
308.15	.4006	.01104	
308.15	.5005	.01416	
308.15	.5999	.01833	
308.15	.7	.0219	
308.15	.8013	.02549	
308.15	.8986	.02916	
308.15	1	.03365	
313.15	0	.00247	
313.15	.0532	.0029	
313.15	.1004	.00367	
313.15	.1504	.00449	
313.15	.1999	.00531	
313.15	.2988	.00736	
313.15	.4006	.00961	
313.15	.5005	.01224	
313.15	.5999	.01574	
313.15	.7	.01859	
313.15	.8013	.02165	
313.15	.8986	.0247	
313.15	1	.02828	
318.15	0	.00225	
318.15	.0532	.00263	
318.15	.1004	.00324	
318.15	.1504	.00402	
318.15	.1999	.00472	
318.15	.2988	.00655	
318.15	.4006	.00849	
318.15	.5005	.01065	
318.15	.5999	.0137	
318.15	.7	.01598	
318.15	.8013	.01879	
318.15	.8986	.02114	
318.15	1	.02391	
323.15	0	.00209	
323.15	.0532	.00244	
323.15	.1004	.00296	
323.15	.1504	.00363	
323.15	.1999	.00426	
323.15	.2988	.00582	
323.15	.4006	.00749	
323.15	.5005	.00929	
323.15	.5999	.0112	
323.15	.7	.01385	
323.15	.8013	.01568	
323.15	.8986	.01785	
323.15	1	.02064	

System: .epsilon.-caprolactone + 1-butyl-3-methylimidazolium bis(trifluoromethylsulfonyl)imide; phases: Liquid
Fixed: Pressure, kPa = 100
Property: Mass density, kg/m3 (Liquid); method: Vibrating tube method
Temperature, K	Mole fraction of 1-butyl-3-methylimidazolium bis(trifluoromethylsulfonyl)imide	Mass density, kg/m3	uncertainty
293.15	0	1075.92	
293.15	.05	1122.038	
293.15	.1002	1161.48	
293.15	.1505	1195.512	
293.15	.1985	1223.863	
293.15	.3001	1273.583	
293.15	.3987	1311.896	
293.15	.4903	1341.131	
293.15	.6309	1377.361	
293.15	.6988	1391.969	
293.15	.8042	1411.814	
293.15	.883	1424.764	
293.15	1	1441.612	
298.15	0	1071.669	
298.15	.05	1117.682	
298.15	.1002	1157.037	
298.15	.1505	1191.002	
298.15	.1985	1219.295	
298.15	.3001	1268.922	
298.15	.3987	1307.166	
298.15	.4903	1336.352	
298.15	.6309	1372.524	
298.15	.6988	1387.109	
298.15	.8042	1406.924	
298.15	.883	1419.854	
298.15	1	1436.673	
303.15	0	1067.409	
303.15	.05	1113.302	
303.15	.1002	1152.558	
303.15	.1505	1186.441	
303.15	.1985	1214.667	
303.15	.3001	1264.183	
303.15	.3987	1302.345	
303.15	.4903	1331.468	
303.15	.6309	1367.565	
303.15	.6988	1382.121	
303.15	.8042	1401.894	
303.15	.883	1414.798	
303.15	1	1431.581	
308.15	0	1063.153	
308.15	.05	1108.941	
308.15	.1002	1148.109	
308.15	.1505	1181.92	
308.15	.1985	1210.088	
308.15	.3001	1259.507	
308.15	.3987	1297.596	
308.15	.4903	1326.668	
308.15	.6309	1362.703	
308.15	.6988	1377.234	
308.15	.8042	1396.975	
308.15	.883	1409.856	
308.15	1	1426.615	
313.15	0	1058.9	
313.15	.05	1104.571	
313.15	.1002	1143.65	
313.15	.1505	1177.384	
313.15	.1985	1205.492	
313.15	.3001	1254.803	
313.15	.3987	1292.815	
313.15	.4903	1321.83	
313.15	.6309	1357.797	
313.15	.6988	1372.303	
313.15	.8042	1392.005	
313.15	.883	1404.862	
313.15	1	1421.584	
318.15	0	1054.649	
318.15	.05	1100.216	
318.15	.1002	1139.204	
318.15	.1505	1172.861	
318.15	.1985	1200.909	
318.15	.3001	1250.12	
318.15	.3987	1288.057	
318.15	.4903	1317.019	
318.15	.6309	1352.917	
318.15	.6988	1367.394	
318.15	.8042	1387.06	
318.15	.883	1399.893	
318.15	1	1416.583	
323.15	0	1050.403	
323.15	.05	1095.858	
323.15	.1002	1134.752	
323.15	.1505	1168.332	
323.15	.1985	1196.315	
323.15	.3001	1245.419	
323.15	.3987	1283.28	
323.15	.4903	1312.181	
323.15	.6309	1348.007	
323.15	.6988	1362.453	
323.15	.8042	1382.08	
323.15	.883	1394.889	
323.15	1	1411.542	

System: .epsilon.-caprolactone + 1-butyl-3-methylimidazolium bis(trifluoromethylsulfonyl)imide; phases: Liquid
Fixed: Pressure, kPa = 100
Property: Viscosity, Pa*s (Liquid); method: Capillary tube (Ostwald; Ubbelohde) method
Temperature, K	Mole fraction of 1-butyl-3-methylimidazolium bis(trifluoromethylsulfonyl)imide	Viscosity, Pa*s	uncertainty
293.15	0	.00663	
293.15	.05	.00797	
293.15	.1002	.00967	
293.15	.1505	.01148	
293.15	.1985	.0134	
293.15	.3001	.01805	
293.15	.3987	.02325	
293.15	.4903	.02859	
293.15	.6309	.03738	
293.15	.6988	.0418	
293.15	.8042	.0488	
293.15	.883	.05408	
293.15	1	.06208	
298.15	0	.00576	
298.15	.05	.00687	
298.15	.1002	.00829	
298.15	.1505	.00978	
298.15	.1985	.01134	
298.15	.3001	.01514	
298.15	.3987	.01936	
298.15	.4903	.02366	
298.15	.6309	.03061	
298.15	.6988	.03405	
298.15	.8042	.03948	
298.15	.883	.04358	
298.15	1	.05005	
303.15	0	.00504	
303.15	.05	.00597	
303.15	.1002	.00718	
303.15	.1505	.00842	
303.15	.1985	.00971	
303.15	.3001	.01278	
303.15	.3987	.01615	
303.15	.4903	.01954	
303.15	.6309	.0252	
303.15	.6988	.02807	
303.15	.8042	.03258	
303.15	.883	.03602	
303.15	1	.04124	
308.15	0	.00444	
308.15	.05	.00522	
308.15	.1002	.00625	
308.15	.1505	.00726	
308.15	.1985	.00836	
308.15	.3001	.01091	
308.15	.3987	.01367	
308.15	.4903	.01642	
308.15	.6309	.02093	
308.15	.6988	.02321	
308.15	.8042	.02677	
308.15	.883	.02949	
308.15	1	.03365	
313.15	0	.00395	
313.15	.05	.00461	
313.15	.1002	.0055	
313.15	.1505	.00641	
313.15	.1985	.00735	
313.15	.3001	.00943	
313.15	.3987	.01171	
313.15	.4903	.01407	
313.15	.6309	.01779	
313.15	.6988	.01967	
313.15	.8042	.02259	
313.15	.883	.02485	
313.15	1	.02828	
318.15	0	.00353	
318.15	.05	.00407	
318.15	.1002	.00487	
318.15	.1505	.00567	
318.15	.1985	.0065	
318.15	.3001	.00831	
318.15	.3987	.01027	
318.15	.4903	.01218	
318.15	.6309	.01524	
318.15	.6988	.01682	
318.15	.8042	.01924	
318.15	.883	.02107	
318.15	1	.02391	
323.15	0	.00317	
323.15	.05	.00369	
323.15	.1002	.00436	
323.15	.1505	.00503	
323.15	.1985	.00573	
323.15	.3001	.00726	
323.15	.3987	.0089	
323.15	.4903	.01053	
323.15	.6309	.01314	
323.15	.6988	.01449	
323.15	.8042	.01664	
323.15	.883	.01826	
323.15	1	.02064	
