Measured thermophysical data. Carbon dioxide solubility in 1-butyl-3-methylimidazolium-bis(trifluormethylsulfonyl)imide over a wide range of temperatures and pressures
Source: J. Chem. Thermodyn., 2013, 10.1016/j.jct.2013.08.008
Compound 1: 1-butyl-3-methylimidazolium bis(trifluoromethylsulfonyl)imide, C10H15F6N3O4S2, purity 98%
Compound 2: carbon dioxide, CO2, purity 99.9%

System: carbon dioxide + 1-butyl-3-methylimidazolium bis(trifluoromethylsulfonyl)imide; phases: Liquid, Gas
Property: Mole fraction of carbon dioxide (Liquid); method: Volumetric
Temperature, K	Pressure, kPa	Mole fraction of carbon dioxide	uncertainty
413.15	4849	.3143	.0003
393.15	4819	.3341	.0003
373.15	4774	.3759	.0003
353.15	4716	.4252	.0003
333.15	4635	.4875	.0003
313.15	4513	.5654	.0003
293.15	4301	.6642	.0003
413.15	3133	.2562	.0003
393.15	3106	.2758	.0003
373.15	3070	.3063	.0003
353.15	3012	.3645	.0003
333.15	2962	.3976	.0003
313.15	2876	.463	.0003
293.15	2742	.5491	.0003
273.15	2500	.6607	.0003
413.15	1273	.1198	.0003
393.15	1260	.1318	.0003
373.15	1243	.1505	.0003
353.15	1223	.1727	.0003
333.15	1196	.2052	.0003
313.15	1160	.2489	.0003
293.15	1108	.3101	.0003
273.15	1022	.4006	.0003
413.15	599	.0569	.0003
393.15	594	.0601	.0003
373.15	587	.0674	.0003
353.15	576	.0832	.0003
333.15	564	.0998	.0003
313.15	546	.1279	.0003
293.15	522	.1657	.0003
273.15	485	.223	.0003
