Measured thermophysical data. Solubility and solution thermodynamics of 2-methyl-4-nitroaniline in eleven organic solvents at elevated temperatures
Source: J. Chem. Thermodyn., 2017, 10.1016/j.jct.2016.10.037
Compound 1: 2-methyl-4-nitroaniline, C7H8N2O2, purity 97.9%
Compound 2: 2-butanone, C4H8O, purity 99.4%
Compound 3: n-propanol, C3H8O, purity 99.4%
Compound 4: n-butanol, C4H10O, purity 99.3%
Compound 5: isopropanol, C3H8O, purity 99.5%
Compound 6: ethanol, C2H6O, purity 99.5%
Compound 7: methanol, CH4O, purity 99.7%
Compound 8: toluene, C7H8, purity 99.6%
Compound 9: ethyl acetate, C4H8O2, purity 99.5%
Compound 10: acetonitrile, C2H3N, purity 99.4%
Compound 11: cyclohexane, C6H12, purity 99.6%
Compound 12: acetone, C3H6O, purity 99.6%

System: acetonitrile + 2-methyl-4-nitroaniline; phases: Liquid, Crystal
Fixed: Pressure, kPa = 101.2
Property: Mole fraction of 2-methyl-4-nitroaniline (Liquid); method: Chromatography
Temperature, K	Mole fraction of 2-methyl-4-nitroaniline	uncertainty
278.15	.03078	
280.65	.03351	
283.15	.0362	
285.65	.03898	
288.15	.04225	
290.65	.04555	
293.15	.04909	
295.65	.05278	
298.15	.0566	
300.65	.06066	
303.15	.06506	
305.65	.06986	
308.15	.07469	
310.65	.07971	
313.15	.0852	

System: 2-methyl-4-nitroaniline + ethyl acetate; phases: Liquid, Crystal
Fixed: Pressure, kPa = 101.2
Property: Mole fraction of 2-methyl-4-nitroaniline (Liquid); method: Chromatography
Temperature, K	Mole fraction of 2-methyl-4-nitroaniline	uncertainty
278.15	.06204	
280.65	.06689	
283.15	.07217	
285.65	.07763	
288.15	.08366	
290.65	.08971	
293.15	.09601	
295.65	.1026	
298.15	.11	
300.65	.1172	
303.15	.1251	
305.65	.1334	
308.15	.142	
310.65	.151	
313.15	.1602	

System: ethanol + 2-methyl-4-nitroaniline; phases: Liquid, Crystal
Fixed: Pressure, kPa = 101.2
Property: Mole fraction of 2-methyl-4-nitroaniline (Liquid); method: Chromatography
Temperature, K	Mole fraction of 2-methyl-4-nitroaniline	uncertainty
278.15	.00732	
280.65	.00807	
283.15	.00887	
285.65	.00974	
288.15	.01068	
290.65	.01167	
293.15	.01274	
295.65	.01391	
298.15	.01521	
300.65	.01652	
303.15	.01804	
305.65	.01965	
308.15	.02133	
310.65	.02314	
313.15	.02505	

System: n-propanol + 2-methyl-4-nitroaniline; phases: Liquid, Crystal
Fixed: Pressure, kPa = 101.2
Property: Mole fraction of 2-methyl-4-nitroaniline (Liquid); method: Chromatography
Temperature, K	Mole fraction of 2-methyl-4-nitroaniline	uncertainty
278.15	.006312	
280.65	.007006	
283.15	.007763	
285.65	.008531	
288.15	.00939	
290.65	.01033	
293.15	.01131	
295.65	.01241	
298.15	.01358	
300.65	.01484	
303.15	.0162	
305.65	.01762	
308.15	.01919	
310.65	.02094	
313.15	.02275	

System: isopropanol + 2-methyl-4-nitroaniline; phases: Liquid, Crystal
Fixed: Pressure, kPa = 101.2
Property: Mole fraction of 2-methyl-4-nitroaniline (Liquid); method: Chromatography
Temperature, K	Mole fraction of 2-methyl-4-nitroaniline	uncertainty
278.15	.00459	
280.65	.005107	
283.15	.005718	
285.65	.006352	
288.15	.007065	
290.65	.007811	
293.15	.008646	
295.65	.009608	
298.15	.01062	
300.65	.01175	
303.15	.01295	
305.65	.01424	
308.15	.01566	
310.65	.01723	
313.15	.01894	

System: acetone + 2-methyl-4-nitroaniline; phases: Liquid, Crystal
Fixed: Pressure, kPa = 101.2
Property: Mole fraction of 2-methyl-4-nitroaniline (Liquid); method: Chromatography
Temperature, K	Mole fraction of 2-methyl-4-nitroaniline	uncertainty
278.15	.07643	
280.65	.08153	
283.15	.08748	
285.65	.09328	
288.15	.0996	
290.65	.106	
293.15	.1129	
295.65	.1198	
298.15	.1266	
300.65	.1346	
303.15	.1422	
305.65	.1506	
308.15	.1592	
310.65	.1681	
313.15	.1774	

System: 2-methyl-4-nitroaniline + toluene; phases: Liquid, Crystal
Fixed: Pressure, kPa = 101.2
Property: Mole fraction of 2-methyl-4-nitroaniline (Liquid); method: Chromatography
Temperature, K	Mole fraction of 2-methyl-4-nitroaniline	uncertainty
278.15	.001592	
280.65	.001779	
283.15	.002042	
285.65	.002301	
288.15	.002575	
290.65	.002847	
293.15	.003172	
295.65	.003535	
298.15	.003912	
300.65	.004389	
303.15	.004796	
305.65	.005266	
308.15	.005841	
310.65	.006453	
313.15	.007139	

System: 2-methyl-4-nitroaniline + cyclohexane; phases: Liquid, Crystal
Fixed: Pressure, kPa = 101.2
Property: Mole fraction of 2-methyl-4-nitroaniline (Liquid); method: Chromatography
Temperature, K	Mole fraction of 2-methyl-4-nitroaniline	uncertainty
283.15	.00002498	
285.65	.00002873	
288.15	.00003368	
290.65	.0000387	
293.15	.00004472	
295.65	.00005271	
298.15	.00006127	
300.65	.0000699	
303.15	.0000808	
305.65	.00009261	
308.15	.0001076	
310.65	.0001222	
313.15	.0001394	

System: methanol + 2-methyl-4-nitroaniline; phases: Liquid, Crystal
Fixed: Pressure, kPa = 101.2
Property: Mole fraction of 2-methyl-4-nitroaniline (Liquid); method: Chromatography
Temperature, K	Mole fraction of 2-methyl-4-nitroaniline	uncertainty
278.15	.00834	
280.65	.00913	
283.15	.01011	
285.65	.01093	
288.15	.01192	
290.65	.01305	
293.15	.01419	
295.65	.01546	
298.15	.01676	
300.65	.01803	
303.15	.01977	
305.65	.02133	
308.15	.02312	
310.65	.02491	
313.15	.02698	

System: 2-butanone + 2-methyl-4-nitroaniline; phases: Liquid, Crystal
Fixed: Pressure, kPa = 101.2
Property: Mole fraction of 2-methyl-4-nitroaniline (Liquid); method: Chromatography
Temperature, K	Mole fraction of 2-methyl-4-nitroaniline	uncertainty
278.15	.08459	
280.65	.08986	
283.15	.09546	
285.65	.1011	
288.15	.1072	
290.65	.1135	
293.15	.1201	
295.65	.1266	
298.15	.1339	
300.65	.1412	
303.15	.1486	
305.65	.1566	
308.15	.1649	
310.65	.1737	
313.15	.183	

System: n-butanol + 2-methyl-4-nitroaniline; phases: Liquid, Crystal
Fixed: Pressure, kPa = 101.2
Property: Mole fraction of 2-methyl-4-nitroaniline (Liquid); method: Chromatography
Temperature, K	Mole fraction of 2-methyl-4-nitroaniline	uncertainty
278.15	.004922	
280.65	.00552	
283.15	.006182	
285.65	.006907	
288.15	.007782	
290.65	.008582	
293.15	.009508	
295.65	.01065	
298.15	.01183	
300.65	.01309	
303.15	.01448	
305.65	.01602	
308.15	.01774	
310.65	.01959	
313.15	.02165	
