Measured thermophysical data. Standard molar enthalpy of formation of methoxyacetophenone isomers
Source: J. Chem. Thermodyn., 2014, 10.1016/j.jct.2014.03.027
Compound 1: 2'-methoxyacetophenone, C9H10O2, purity 99%
Compound 2: 3'-methoxyacetophenone, C9H10O2, purity 97%
Compound 3: 4'-methoxyacetophenone, C9H10O2, purity 99%
Compound 4: carbon dioxide, CO2
Compound 5: water, H2O
Compound 6: oxygen, O2

System: 2'-methoxyacetophenone; phases: Liquid, Gas
Property: Molar enthalpy of vaporization or sublimation, kJ/mol (Liquid); method: Static calorimetry
Temperature, K	Molar enthalpy of vaporization or sublimation, kJ/mol	uncertainty
298.15	66.7	1.2

System: 3'-methoxyacetophenone; phases: Liquid, Gas
Property: Molar enthalpy of vaporization or sublimation, kJ/mol (Liquid); method: Static calorimetry
Temperature, K	Molar enthalpy of vaporization or sublimation, kJ/mol	uncertainty
298.15	67.8	1.2

System: 4'-methoxyacetophenone; phases: Crystal, Gas
Property: Molar enthalpy of vaporization or sublimation, kJ/mol (Crystal); method: Static calorimetry
Temperature, K	Molar enthalpy of vaporization or sublimation, kJ/mol	uncertainty
298.15	87.8	1.4

Reaction: -1 2'-methoxyacetophenone + 9 carbon dioxide + 5 water + -10.5 oxygen
Property: Specific internal energy of reaction at constant volume, J/g
-31085.3

Reaction: -1 3'-methoxyacetophenone + 9 carbon dioxide + 5 water + -10.5 oxygen
Property: Specific internal energy of reaction at constant volume, J/g
-31039.8

Reaction: -1 4'-methoxyacetophenone + 9 carbon dioxide + 5 water + -10.5 oxygen
Property: Specific internal energy of reaction at constant volume, J/g
-30884.1
