Measured thermophysical data. High pressure volumetric properties of 1-ethyl-3-methylimidazolium ethylsulfate and 1-(2-methoxyethyl)-1-methyl-pyrrolidinium bis(trifluoromethylsulfonyl)imide
Source: J. Chem. Thermodyn., 2012, 10.1016/j.jct.2011.12.030
Compound 1: 1-ethyl-3-methylimidazolium ethyl sulfate, C8H16N2O4S, purity 98.4%
Compound 2: 1-(2-methoxyethyl)-1-methyl-pyrrolidinium bis(trifluoromethylsulfonyl)imide, C10H18F6N2O5S2, purity 99.4%

System: 1-ethyl-3-methylimidazolium ethyl sulfate; phases: Liquid
Property: Mass density, kg/m3 (Liquid); method: Vibrating tube method
Temperature, K	Pressure, kPa	Mass density, kg/m3	uncertainty
278.15	100	1251.9	.0007
298.15	100	1237	.0007
313.15	100	1226.6	.0007
333.15	100	1213	.0007
348.15	100	1203.1	.0007
373.15	100	1187.3	.005
398.15	100	1171.4	.005
278.15	1000	1252.2	.0007
298.15	1000	1237.3	.0007
313.15	1000	1227	.0007
333.15	1000	1213.4	.0007
348.15	1000	1203.6	.0007
373.15	1000	1187.3	.003
398.15	1000	1171	.003
278.15	10000	1255.7	.0007
298.15	10000	1241	.0007
313.15	10000	1230.8	.0007
333.15	10000	1217.4	.0007
348.15	10000	1207.7	.0007
373.15	10000	1191.8	.003
398.15	10000	1175.9	.003
278.15	20000	1259.5	.0007
298.15	20000	1245	.0007
313.15	20000	1235	.0007
333.15	20000	1221.7	.0007
348.15	20000	1212.3	.0007
373.15	20000	1196.6	.003
398.15	20000	1181	.003
278.15	40000	1266.8	.0007
298.15	40000	1252.6	.0007
313.15	40000	1242.8	.0007
333.15	40000	1230	.0007
348.15	40000	1220.9	.0007
373.15	40000	1205.8	.003
398.15	40000	1190.7	.003
278.15	60000	1273.7	.0007
298.15	60000	1259.7	.0007
313.15	60000	1250.3	.0007
333.15	60000	1237.8	.0007
348.15	60000	1228.9	.0007
373.15	60000	1214.2	.003
398.15	60000	1199.7	.003
278.15	80000	1280.2	.0007
298.15	80000	1266.5	.0007
313.15	80000	1257.3	.0007
333.15	80000	1245.2	.0007
348.15	80000	1236.5	.0007
373.15	80000	1222.2	.003
398.15	80000	1208.1	.003
278.15	100000	1286.5	.0007
298.15	100000	1273.1	.0007
313.15	100000	1264.1	.0007
333.15	100000	1252.3	.0007
348.15	100000	1243.8	.0007
373.15	100000	1229.7	.003
398.15	100000	1216	.003
278.15	120000	1292.2	.0007
298.15	120000	1279.3	.0007
313.15	120000	1270.5	.0007
333.15	120000	1259.1	.0007
348.15	120000	1250.8	.0007
373.15	120000	1237	.003
398.15	120000	1223.4	.003

System: 1-(2-methoxyethyl)-1-methyl-pyrrolidinium bis(trifluoromethylsulfonyl)imide; phases: Liquid
Property: Mass density, kg/m3 (Liquid); method: Vibrating tube method
Temperature, K	Pressure, kPa	Mass density, kg/m3	uncertainty
278.15	100	1474.2	.0007
298.15	100	1453.5	.0007
313.15	100	1439.1	.0007
333.15	100	1420.8	.0007
348.15	100	1407.3	.0007
373.15	100	1385.3	.005
398.15	100	1363.2	.005
278.15	1000	1474.9	.0007
298.15	1000	1454.1	.0007
313.15	1000	1440.1	.0007
333.15	1000	1421.6	.0007
348.15	1000	1408	.0007
373.15	1000	1385.7	.003
398.15	1000	1363.3	.003
278.15	10000	1480.8	.0007
298.15	10000	1460.2	.0007
313.15	10000	1446.5	.0007
333.15	10000	1428.5	.0007
348.15	10000	1415.4	.0007
373.15	10000	1393.4	.003
398.15	10000	1372	.003
278.15	20000	1487	.0007
298.15	20000	1466.9	.0007
313.15	20000	1453.5	.0007
333.15	20000	1435.9	.0007
348.15	20000	1423.2	.0007
373.15	20000	1401.8	.003
398.15	20000	1381	.003
278.15	40000	1498.6	.0007
298.15	40000	1479.2	.0007
313.15	40000	1466.4	.0007
333.15	40000	1449.5	.0007
348.15	40000	1437.5	.0007
373.15	40000	1417.2	.003
398.15	40000	1397.4	.003
278.15	60000	1509.5	.0007
298.15	60000	1490.6	.0007
313.15	60000	1478.4	.0007
333.15	60000	1462.2	.0007
348.15	60000	1450.5	.0007
373.15	60000	1430.9	.003
398.15	60000	1412	.003
278.15	80000	1519.8	.0007
298.15	80000	1501.4	.0007
313.15	80000	1489.4	.0007
333.15	80000	1473.7	.0007
348.15	80000	1462.5	.0007
373.15	80000	1443.5	.003
398.15	80000	1425.4	.003
278.15	100000	1529.3	.0007
298.15	100000	1511.4	.0007
313.15	100000	1499.8	.0007
333.15	100000	1484.6	.0007
348.15	100000	1473.6	.0007
373.15	100000	1455.2	.003
398.15	100000	1437.9	.003
278.15	120000	1538.3	.0007
298.15	120000	1520.9	.0007
313.15	120000	1509.6	.0007
333.15	120000	1494.8	.0007
348.15	120000	1484.2	.0007
373.15	120000	1466.3	.003
398.15	120000	1449.6	.003
