Measured thermophysical data. Thermodynamics of solubility of isatin in (PEG 400 + water) mixed solvent systems at T = (298.15 to 338.15) K
Source: J. Chem. Thermodyn., 2015, 10.1016/j.jct.2014.11.008
Compound 1: isatin, C8H5NO2, purity 99.8%
Compound 2: water, H2O, purity 99%

System: isatin + water; phases: Liquid, Crystal
Fixed: Pressure, kPa = 100
Property: Mole fraction of isatin (Liquid); method: UV-Vis spectrophotometry
Temperature, K	Mole fraction of isatin	uncertainty
298.15	.0000514	.00000056026
308.15	.0000808	.00000088072
318.15	.000113	.0000012317
328.15	.000152	.0000016568
338.15	.000202	.0000022018
