Measured thermophysical data. Partial molar volumes of some drug and pro-drug substances in 1-octanol  at T = 298.15 K
Source: J. Chem. Thermodyn., 2010, 10.1016/j.jct.2009.10.002
Compound 1: 1-octanol, C8H18O, purity 99%
Compound 2: o-hydroxybenzamide, C7H7NO2, purity 98%
Compound 3: 3-hydroxy-benzamide, C7H7NO2, purity 98%
Compound 4: 4-Hydroxybenzamide, C7H7NO2, purity 98%
Compound 5: 2-acetamidobenzoic acid, C9H9NO3, purity 99%
Compound 6: benzoic acid, 3-(acetylamino)-, C9H9NO3, purity 98%
Compound 7: benzoic acid, 4-acetamido-, C9H9NO3, purity 98%
Compound 8: 2-acetamidophenol, C8H9NO2, purity 97%
Compound 9: 3-acetamidophenol, C8H9NO2, purity 97%
Compound 10: acetamide, N-(4-hydroxyphenyl)-, C8H9NO2, purity 98%
Compound 11: acetanilide, C8H9NO, purity 98%
Compound 12: N-(4-ethoxyphenyl)acetamide, C10H13NO2, purity 98%
Compound 13: benzamide, C7H7NO, purity 99%
Compound 14: phenylcarboxylic acid, C7H6O2, purity 99.9%
Compound 15: phenol, C6H6O

System: 1-octanol; phases: Liquid
Fixed: Pressure, kPa = 101.325
Property: Mass density, kg/m3 (Liquid); method: Vibrating tube method
Temperature, K	Mass density, kg/m3	uncertainty
298.15	822.11	.05

System: 2-acetamidobenzoic acid + 1-octanol; phases: Liquid
Fixed: Pressure, kPa = 101
Fixed: Temperature, K = 298.15
Property: Mass density, kg/m3 (Liquid); method: Vibrating tube method
Molality, mol/kg of 2-acetamidobenzoic acid	Mass density, kg/m3	uncertainty
.004871	.82231	.00001
.008993	.82247	.00001
.011894	.82258	.00001
.018182	.82282	.00001
.023579	.82302	.00001
.033922	.82342	.00001
.058367	.82435	.00001
.087298	.8254	.00001
.127326	.82683	.00001
.168205	.82843	.00001

System: 2-acetamidobenzoic acid + 1-octanol; phases: Liquid
Fixed: Pressure, kPa = 101
Fixed: Temperature, K = 298.15
Property: Molar volume, m3/mol (Liquid); method: Vibrating tube method
Molality, mol/kg of 2-acetamidobenzoic acid	Molar volume, m3/mol	uncertainty
.004871	.0001572	.0000005
.008993	.0001586	.0000005
.011894	.0001594	.0000005
.018182	.00016	.0000005
.023579	.0001607	.0000005
.033922	.0001605	.0000005
.058367	.0001607	.0000005
.087298	.0001615	.0000005
.127326	.0001622	.0000005
.168205	.0001611	.0000005

System: 2-acetamidobenzoic acid + 1-octanol; phases: Liquid
Fixed: Mole fraction of 2-acetamidobenzoic acid = 0
Fixed: Temperature, K = 298.15
Property: Partial molar volume, m3/mol of 2-acetamidobenzoic acid (Liquid); method: Derived analytically
Pressure, kPa	Partial molar volume, m3/mol of 2-acetamidobenzoic acid	uncertainty
101.325	.0001597	.0000004

System: 1-octanol + benzoic acid, 3-(acetylamino)-; phases: Liquid
Fixed: Pressure, kPa = 101
Fixed: Temperature, K = 298.15
Property: Mass density, kg/m3 (Liquid); method: Vibrating tube method
Molality, mol/kg of benzoic acid, 3-(acetylamino)-	Mass density, kg/m3	uncertainty
.000244	.82213	.00001
.000488	.82214	.00001
.000973	.82217	.00001
.001081	.82217	.00001
.001283	.82218	.00001
.001361	.82219	.00001
.001375	.82219	.00001
.001452	.82219	.00001
.001582	.8222	.00001
.002358	.82223	.00001
.003857	.82228	.00001
.006025	.82236	.00001
.007586	.82243	.00001
.009397	.82251	.00001
.010904	.82257	.00001
.011613	.8226	.00001
.013552	.82268	.00001
.014534	.82272	.00001

System: 1-octanol + benzoic acid, 3-(acetylamino)-; phases: Liquid
Fixed: Pressure, kPa = 101
Fixed: Temperature, K = 298.15
Property: Molar volume, m3/mol (Liquid); method: Vibrating tube method
Molality, mol/kg of benzoic acid, 3-(acetylamino)-	Molar volume, m3/mol	uncertainty
.000244	.0001149	.0000005
.000488	.000124	.0000005
.000973	.0001267	.0000005
.001081	.0001303	.0000005
.001283	.0001372	.0000005
.001361	.000131	.0000005
.001375	.0001318	.0000005
.001452	.0001364	.0000005
.001582	.0001338	.0000005
.002358	.0001426	.0000005
.003857	.0001523	.0000005
.006025	.0001558	.0000005
.007586	.0001555	.0000005
.009397	.0001549	.0000005
.010904	.0001554	.0000005
.011613	.0001554	.0000005
.013552	.0001556	.0000005
.014534	.0001557	.0000005

System: 1-octanol + benzoic acid, 3-(acetylamino)-; phases: Liquid
Fixed: Mole fraction of benzoic acid, 3-(acetylamino)- = 0
Fixed: Temperature, K = 298.15
Property: Partial molar volume, m3/mol of benzoic acid, 3-(acetylamino)- (Liquid); method: Derived analytically
Pressure, kPa	Partial molar volume, m3/mol of benzoic acid, 3-(acetylamino)-	uncertainty
101.325	.0001551	.0000004

System: 1-octanol + benzoic acid, 4-acetamido-; phases: Liquid
Fixed: Pressure, kPa = 101
Fixed: Temperature, K = 298.15
Property: Mass density, kg/m3 (Liquid); method: Vibrating tube method
Molality, mol/kg of benzoic acid, 4-acetamido-	Mass density, kg/m3	uncertainty
.000708	.82214	.00001
.00077	.82215	.00001
.000914	.82216	.00001
.001192	.82217	.00001
.001367	.82218	.00001
.002266	.82223	.00001
.002865	.82226	.00001
.002919	.82226	.00001
.003657	.8223	.00001
.005744	.82242	.00001
.012124	.82276	.00001
.018157	.82312	.00001
.024075	.82347	.00001
.028396	.82373	.00001
.036214	.82417	.00001

System: 1-octanol + benzoic acid, 4-acetamido-; phases: Liquid
Fixed: Pressure, kPa = 101
Fixed: Temperature, K = 298.15
Property: Molar volume, m3/mol (Liquid); method: Vibrating tube method
Molality, mol/kg of benzoic acid, 4-acetamido-	Molar volume, m3/mol	uncertainty
.000708	.0001469	.0000005
.00077	.0001449	.0000005
.000914	.0001435	.0000005
.001192	.0001434	.0000005
.001367	.0001422	.0000005
.002266	.0001428	.0000005
.002865	.0001425	.0000005
.002919	.0001419	.0000005
.003657	.000141	.0000005
.005744	.000138	.0000005
.012124	.0001385	.0000005
.018157	.0001355	.0000005
.024075	.0001341	.0000005
.028396	.0001333	.0000005
.036214	.0001334	.0000005

System: 1-octanol + benzoic acid, 4-acetamido-; phases: Liquid
Fixed: Mole fraction of benzoic acid, 4-acetamido- = 0
Fixed: Temperature, K = 298.15
Property: Partial molar volume, m3/mol of benzoic acid, 4-acetamido- (Liquid); method: Derived analytically
Pressure, kPa	Partial molar volume, m3/mol of benzoic acid, 4-acetamido-	uncertainty
101.325	.0001405	.0000009

System: 1-octanol + 2-acetamidophenol; phases: Liquid
Fixed: Pressure, kPa = 101
Fixed: Temperature, K = 298.15
Property: Mass density, kg/m3 (Liquid); method: Vibrating tube method
Molality, mol/kg of 2-acetamidophenol	Mass density, kg/m3	uncertainty
.001728	.82219	.00001
.002758	.82223	.00001
.003165	.82224	.00001
.003211	.82224	.00001
.004195	.82228	.00001
.005164	.82231	.00001
.006563	.82236	.00001
.011535	.82256	.00001
.016398	.82275	.00001
.019091	.82286	.00001
.023988	.82306	.00001
.033557	.82346	.00001

System: 1-octanol + 2-acetamidophenol; phases: Liquid
Fixed: Pressure, kPa = 101
Fixed: Temperature, K = 298.15
Property: Molar volume, m3/mol (Liquid); method: Vibrating tube method
Molality, mol/kg of 2-acetamidophenol	Molar volume, m3/mol	uncertainty
.001728	.0001154	.0000005
.002758	.0001195	.0000005
.003165	.0001217	.0000005
.003211	.0001226	.0000005
.004195	.0001239	.0000005
.005164	.0001265	.0000005
.006563	.0001263	.0000005
.011535	.0001261	.0000005
.016398	.000126	.0000005
.019091	.0001256	.0000005
.023988	.0001251	.0000005
.033557	.0001241	.0000005

System: 1-octanol + 2-acetamidophenol; phases: Liquid
Fixed: Mole fraction of 2-acetamidophenol = 0
Fixed: Temperature, K = 298.15
Property: Partial molar volume, m3/mol of 2-acetamidophenol (Liquid); method: Derived analytically
Pressure, kPa	Partial molar volume, m3/mol of 2-acetamidophenol	uncertainty
101.325	.0001273	.0000002

System: 1-octanol + 3-acetamidophenol; phases: Liquid
Fixed: Pressure, kPa = 101
Fixed: Temperature, K = 298.15
Property: Mass density, kg/m3 (Liquid); method: Vibrating tube method
Molality, mol/kg of 3-acetamidophenol	Mass density, kg/m3	uncertainty
.002796	.82221	.00001
.006909	.82237	.00001
.008394	.82243	.00001
.013561	.82262	.00001
.020565	.82289	.00001
.041263	.82367	.00001
.088918	.82548	.00001
.145053	.82761	.00001
.187531	.82924	.00001
.270781	.83245	.00001

System: 1-octanol + 3-acetamidophenol; phases: Liquid
Fixed: Pressure, kPa = 101
Fixed: Temperature, K = 298.15
Property: Molar volume, m3/mol (Liquid); method: Vibrating tube method
Molality, mol/kg of 3-acetamidophenol	Molar volume, m3/mol	uncertainty
.002796	.0001288	.0000005
.006909	.0001282	.0000005
.008394	.0001279	.0000005
.013561	.0001279	.0000005
.020565	.000128	.0000005
.041263	.0001277	.0000005
.088918	.0001273	.0000005
.145053	.0001269	.0000005
.187531	.0001265	.0000005
.270781	.0001258	.0000005

System: 1-octanol + 3-acetamidophenol; phases: Liquid
Fixed: Mole fraction of 3-acetamidophenol = 0
Fixed: Temperature, K = 298.15
Property: Partial molar volume, m3/mol of 3-acetamidophenol (Liquid); method: Derived analytically
Pressure, kPa	Partial molar volume, m3/mol of 3-acetamidophenol	uncertainty
101.325	.0001282	.0000001

System: acetamide, N-(4-hydroxyphenyl)- + 1-octanol; phases: Liquid
Fixed: Pressure, kPa = 101
Fixed: Temperature, K = 298.15
Property: Mass density, kg/m3 (Liquid); method: Vibrating tube method
Molality, mol/kg of acetamide, N-(4-hydroxyphenyl)-	Mass density, kg/m3	uncertainty
.006684	.82249	.00001
.009351	.82261	.00001
.012609	.82276	.00001
.014097	.82283	.00001
.016014	.82291	.00001
.018729	.82305	.00001
.021725	.82319	.00001
.024861	.82333	.00001
.030746	.82359	.00001
.035785	.8238	.00001
.040774	.82401	.00001
.045813	.82423	.00001
.051032	.82446	.00001
.058886	.82481	.00001
.066306	.8251	.00001
.076647	.8255	.00001
.086329	.82593	.00001
.137886	.82816	.00001

System: acetamide, N-(4-hydroxyphenyl)- + 1-octanol; phases: Liquid
Fixed: Pressure, kPa = 101
Fixed: Temperature, K = 298.15
Property: Molar volume, m3/mol (Liquid); method: Vibrating tube method
Molality, mol/kg of acetamide, N-(4-hydroxyphenyl)-	Molar volume, m3/mol	uncertainty
.006684	.0000997	.0000005
.009351	.0001047	.0000005
.012609	.0001075	.0000005
.014097	.0001082	.0000005
.016014	.0001098	.0000005
.018729	.0001095	.0000005
.021725	.0001102	.0000005
.024861	.0001111	.0000005
.030746	.0001124	.0000005
.035785	.0001138	.0000005
.040774	.0001147	.0000005
.045813	.0001151	.0000005
.051032	.0001154	.0000005
.058886	.0001156	.0000005
.066306	.0001167	.0000005
.076647	.0001179	.0000005
.086329	.0001178	.0000005
.137886	.0001181	.0000005

System: acetamide, N-(4-hydroxyphenyl)- + 1-octanol; phases: Liquid
Fixed: Mole fraction of acetamide, N-(4-hydroxyphenyl)- = 0
Fixed: Temperature, K = 298.15
Property: Partial molar volume, m3/mol of acetamide, N-(4-hydroxyphenyl)- (Liquid); method: Derived analytically
Pressure, kPa	Partial molar volume, m3/mol of acetamide, N-(4-hydroxyphenyl)-	uncertainty
101.325	.0001208	.0000005

System: o-hydroxybenzamide + 1-octanol; phases: Liquid
Fixed: Pressure, kPa = 101
Fixed: Temperature, K = 298.15
Property: Mass density, kg/m3 (Liquid); method: Vibrating tube method
Molality, mol/kg of o-hydroxybenzamide	Mass density, kg/m3	uncertainty
.002458	.82219	.00001
.003905	.82223	.00001
.0061	.82231	.00001
.007816	.82237	.00001
.011817	.82251	.00001
.023105	.82287	.00001
.030838	.82313	.00001
.038587	.82339	.00001
.05387	.82386	.00001
.089469	.82516	.00001

System: o-hydroxybenzamide + 1-octanol; phases: Liquid
Fixed: Pressure, kPa = 101
Fixed: Temperature, K = 298.15
Property: Molar volume, m3/mol (Liquid); method: Vibrating tube method
Molality, mol/kg of o-hydroxybenzamide	Molar volume, m3/mol	uncertainty
.002458	.0001216	.0000005
.003905	.0001213	.0000005
.0061	.0001183	.0000005
.007816	.0001176	.0000005
.011817	.0001167	.0000005
.023105	.000118	.0000005
.030838	.0001177	.0000005
.038587	.0001175	.0000005
.05387	.0001184	.0000005
.089469	.0001159	.0000005

System: o-hydroxybenzamide + 1-octanol; phases: Liquid
Fixed: Mole fraction of o-hydroxybenzamide = 0
Fixed: Temperature, K = 298.15
Property: Partial molar volume, m3/mol of o-hydroxybenzamide (Liquid); method: Derived analytically
Pressure, kPa	Partial molar volume, m3/mol of o-hydroxybenzamide	uncertainty
101.325	.0001185	.0000002

System: 1-octanol + 3-hydroxy-benzamide; phases: Liquid
Fixed: Pressure, kPa = 101
Fixed: Temperature, K = 298.15
Property: Mass density, kg/m3 (Liquid); method: Vibrating tube method
Molality, mol/kg of 3-hydroxy-benzamide	Mass density, kg/m3	uncertainty
.001492	.82216	.00001
.002531	.8222	.00001
.003737	.82225	.00001
.006435	.82238	.00001
.007522	.82243	.00001
.011629	.82262	.00001
.021561	.82303	.00001
.032387	.82351	.00001
.040914	.82388	.00001
.052847	.82443	.00001
.072082	.82526	.00001
.08749	.82595	.00001

System: 1-octanol + 3-hydroxy-benzamide; phases: Liquid
Fixed: Pressure, kPa = 101
Fixed: Temperature, K = 298.15
Property: Molar volume, m3/mol (Liquid); method: Vibrating tube method
Molality, mol/kg of 3-hydroxy-benzamide	Molar volume, m3/mol	uncertainty
.001492	.0001172	.0000005
.002531	.0001142	.0000005
.003737	.0001114	.0000005
.006435	.0001047	.0000005
.007522	.0001038	.0000005
.011629	.0001019	.0000005
.021561	.0001036	.0000005
.032387	.0001027	.0000005
.040914	.0001026	.0000005
.052847	.0001016	.0000005
.072082	.0001018	.0000005
.08749	.0001014	.0000005

System: 1-octanol + 3-hydroxy-benzamide; phases: Liquid
Fixed: Mole fraction of 3-hydroxy-benzamide = 0
Fixed: Temperature, K = 298.15
Property: Partial molar volume, m3/mol of 3-hydroxy-benzamide (Liquid); method: Derived analytically
Pressure, kPa	Partial molar volume, m3/mol of 3-hydroxy-benzamide	uncertainty
101.325	.0000001038	.0000000004

System: 1-octanol + 4-Hydroxybenzamide; phases: Liquid
Fixed: Pressure, kPa = 101
Fixed: Temperature, K = 298.15
Property: Mass density, kg/m3 (Liquid); method: Vibrating tube method
Molality, mol/kg of 4-Hydroxybenzamide	Mass density, kg/m3	uncertainty
.002127	.82218	.00001
.005332	.82231	.00001
.005725	.82234	.00001
.007571	.82243	.00001
.011153	.82259	.00001
.017224	.82285	.00001
.021312	.82299	.00001
.022665	.82306	.00001
.027336	.82325	.00001
.028741	.82332	.00001
.037995	.82371	.00001
.057332	.82452	.00001
.081904	.82553	.00001
.098246	.82623	.00001
.120894	.82718	.00001
.140751	.82801	.00001
.185646	.82993	.00001

System: 1-octanol + 4-Hydroxybenzamide; phases: Liquid
Fixed: Pressure, kPa = 101
Fixed: Temperature, K = 298.15
Property: Molar volume, m3/mol (Liquid); method: Vibrating tube method
Molality, mol/kg of 4-Hydroxybenzamide	Molar volume, m3/mol	uncertainty
.002127	.0001181	.0000005
.005332	.0001085	.0000005
.005725	.0001073	.0000005
.007571	.0001042	.0000005
.011153	.0001031	.0000005
.017224	.0001031	.0000005
.021312	.0001056	.0000005
.22665	.0001047	.0000005
.027336	.0001049	.0000005
.028741	.0001044	.0000005
.037995	.0001043	.0000005
.057332	.0001044	.0000005
.081904	.0001046	.0000005
.098246	.0001042	.0000005
.120894	.0001041	.0000005
.140751	.000104	.0000005
.185646	.0001035	.0000005

System: 1-octanol + 4-Hydroxybenzamide; phases: Liquid
Fixed: Mole fraction of 4-Hydroxybenzamide = 0
Fixed: Temperature, K = 298.15
Property: Partial molar volume, m3/mol of 4-Hydroxybenzamide (Liquid); method: Derived analytically
Pressure, kPa	Partial molar volume, m3/mol of 4-Hydroxybenzamide	uncertainty
101.325	.0000001044	.0000000003

System: N-(4-ethoxyphenyl)acetamide + 1-octanol; phases: Liquid
Fixed: Pressure, kPa = 101
Fixed: Temperature, K = 298.15
Property: Mass density, kg/m3 (Liquid); method: Vibrating tube method
Molality, mol/kg of N-(4-ethoxyphenyl)acetamide	Mass density, kg/m3	uncertainty
.00971	822.4	.01
.012629	822.48	.01
.019685	822.67	.01
.022904	822.75	.01
.024318	822.79	.01
.027057	822.86	.01
.036448	823.12	.01
.049624	823.48	.01
.062885	823.85	.01
.082142	824.37	.01
.105018	824.98	.01
.135085	825.83	.01
.159089	826.63	.01

System: N-(4-ethoxyphenyl)acetamide + 1-octanol; phases: Liquid
Fixed: Pressure, kPa = 101
Fixed: Temperature, K = 298.15
Property: Molar volume, m3/mol (Liquid); method: Vibrating tube method
Molality, mol/kg of N-(4-ethoxyphenyl)acetamide	Molar volume, m3/mol	uncertainty
.00971	.0001737	.0000005
.012629	.0001745	.0000005
.019685	.0001758	.0000005
.022904	.0001765	.0000005
.024318	.0001765	.0000005
.027057	.0001768	.0000005
.036448	.0001767	.0000005
.049624	.0001768	.0000005
.062885	.0001767	.0000005
.082142	.0001768	.0000005
.105018	.0001769	.0000005
.135085	.0001764	.0000005
.159089	.000175	.0000005

System: N-(4-ethoxyphenyl)acetamide + 1-octanol; phases: Liquid
Fixed: Mole fraction of N-(4-ethoxyphenyl)acetamide = 0
Fixed: Temperature, K = 298.15
Property: Partial molar volume, m3/mol of N-(4-ethoxyphenyl)acetamide (Liquid); method: Derived analytically
Pressure, kPa	Partial molar volume, m3/mol of N-(4-ethoxyphenyl)acetamide	uncertainty
101.325	.0001759	.0000005

System: acetanilide + 1-octanol; phases: Liquid
Fixed: Pressure, kPa = 101
Fixed: Temperature, K = 298.15
Property: Mass density, kg/m3 (Liquid); method: Vibrating tube method
Molality, mol/kg of acetanilide	Mass density, kg/m3	uncertainty
.002139	.82218	.00001
.00565	.82229	.00001
.011129	.82246	.00001
.014132	.82255	.00001
.024345	.82284	.00001
.02629	.8229	.00001
.052586	.82367	.00001
.081325	.82449	.00001
.105634	.82518	.00001
.148243	.82635	.00001
.184726	.82737	.00001
.285848	.8301	.00001
.366334	.83225	.00001

System: acetanilide + 1-octanol; phases: Liquid
Fixed: Pressure, kPa = 101
Fixed: Temperature, K = 298.15
Property: Molar volume, m3/mol (Liquid); method: Vibrating tube method
Molality, mol/kg of acetanilide	Molar volume, m3/mol	uncertainty
.002139	.000116	.0000005
.00565	.0001172	.0000005
.011129	.0001178	.0000005
.014132	.0001183	.0000005
.024345	.0001199	.0000005
.02629	.0001198	.0000005
.052586	.0001203	.0000005
.081325	.0001208	.0000005
.105634	.000121	.0000005
.148243	.0001215	.0000005
.184726	.0001215	.0000005
.285848	.0001219	.0000005
.366334	.0001219	.0000005

System: acetanilide + 1-octanol; phases: Liquid
Fixed: Mole fraction of acetanilide = 0
Fixed: Temperature, K = 298.15
Property: Partial molar volume, m3/mol of acetanilide (Liquid); method: Derived analytically
Pressure, kPa	Partial molar volume, m3/mol of acetanilide	uncertainty
101.325	.0001201	.0000002

System: phenylcarboxylic acid + 1-octanol; phases: Liquid
Fixed: Pressure, kPa = 101
Fixed: Temperature, K = 298.15
Property: Mass density, kg/m3 (Liquid); method: Vibrating tube method
Molality, mol/kg of phenylcarboxylic acid	Mass density, kg/m3	uncertainty
.002452	.82218	.00001
.005198	.82227	.00001
.012544	.82253	.00001
.013243	.82255	.00001
.035889	.82334	.00001
.066923	.82443	.00001
.197989	.82884	.00001
.32088	.83291	.00001
.422683	.83612	.00001
.509564	.83889	.00001

System: phenylcarboxylic acid + 1-octanol; phases: Liquid
Fixed: Pressure, kPa = 101
Fixed: Temperature, K = 298.15
Property: Molar volume, m3/mol (Liquid); method: Vibrating tube method
Molality, mol/kg of phenylcarboxylic acid	Molar volume, m3/mol	uncertainty
.002452	.0001063	.0000005
.005198	.000103	.0000005
.012544	.0000989	.0000005
.013243	.0000993	.0000005
.035889	.0000977	.0000005
.066923	.000097	.0000005
.197989	.0000974	.0000005
.32088	.0000975	.0000005
.422683	.0000978	.0000005
.509564	.0000978	.0000005

System: phenylcarboxylic acid + 1-octanol; phases: Liquid
Fixed: Mole fraction of phenylcarboxylic acid = 0
Fixed: Temperature, K = 298.15
Property: Partial molar volume, m3/mol of phenylcarboxylic acid (Liquid); method: Derived analytically
Pressure, kPa	Partial molar volume, m3/mol of phenylcarboxylic acid	uncertainty
101.325	.0000982	.0000004

System: benzamide + 1-octanol; phases: Liquid
Fixed: Pressure, kPa = 101
Fixed: Temperature, K = 298.15
Property: Mass density, kg/m3 (Liquid); method: Vibrating tube method
Molality, mol/kg of benzamide	Mass density, kg/m3	uncertainty
.004751	.82225	.00001
.009145	.8224	.00001
.011942	.82249	.00001
.018024	.82268	.00001
.024728	.8229	.00001
.039517	.82338	.00001
.075691	.82452	.00001
.108018	.82555	.00001
.13312	.82637	.00001
.179018	.82787	.00001

System: benzamide + 1-octanol; phases: Liquid
Fixed: Pressure, kPa = 101
Fixed: Temperature, K = 298.15
Property: Molar volume, m3/mol (Liquid); method: Vibrating tube method
Molality, mol/kg of benzamide	Molar volume, m3/mol	uncertainty
.004751	.0001037	.0000005
.009145	.0001004	.0000005
.011942	.0001002	.0000005
.018024	.0001005	.0000005
.024728	.0001	.0000005
.039517	.0000998	.0000005
.075691	.0000999	.0000005
.108018	.0000998	.0000005
.13312	.0000995	.0000005
.179018	.000099	.0000005

System: benzamide + 1-octanol; phases: Liquid
Fixed: Mole fraction of benzamide = 0
Fixed: Temperature, K = 298.15
Property: Partial molar volume, m3/mol of benzamide (Liquid); method: Derived analytically
Pressure, kPa	Partial molar volume, m3/mol of benzamide	uncertainty
101.325	.00010036	.00000009

System: phenol + 1-octanol; phases: Liquid
Fixed: Pressure, kPa = 101
Fixed: Temperature, K = 298.15
Property: Mass density, kg/m3 (Liquid); method: Vibrating tube method
Molality, mol/kg of phenol	Mass density, kg/m3	uncertainty
.012927	.82232	.00001
.023504	.82259	.00001
.032986	.82287	.00001
.047124	.82332	.00001
.065631	.82378	.00001
.117885	.82501	.00001
.235536	.82782	.00001
.269212	.82862	.00001
.356395	.83114	.00001
.478729	.83418	.00001

System: phenol + 1-octanol; phases: Liquid
Fixed: Pressure, kPa = 101
Fixed: Temperature, K = 298.15
Property: Molar volume, m3/mol (Liquid); method: Vibrating tube method
Molality, mol/kg of phenol	Molar volume, m3/mol	uncertainty
.012927	.0000904	.0000005
.023504	.0000845	.0000005
.032986	.0000805	.0000005
.047124	.0000765	.0000005
.065631	.0000768	.0000005
.117885	.0000779	.0000005
.235536	.0000781	.0000005
.269212	.0000781	.0000005
.356395	.0000761	.0000005
.478729	.0000761	.0000005

System: phenol + 1-octanol; phases: Liquid
Fixed: Mole fraction of phenol = 0
Fixed: Temperature, K = 298.15
Property: Partial molar volume, m3/mol of phenol (Liquid); method: Derived analytically
Pressure, kPa	Partial molar volume, m3/mol of phenol	uncertainty
101.325	.0000773	.0000007
