Measured thermophysical data. Low pressure methane solubility in lithium-ion batteries based solvents and electrolytes as a function of temperature. Measurement and prediction
Source: J. Chem. Thermodyn., 2014, 10.1016/j.jct.2014.07.004
Compound 1: ethylene carbonate, C3H4O3, purity 99.99%
Compound 2: propylene carbonate, C4H6O3, purity 99.99%
Compound 3: dimethyl carbonate, C3H6O3, purity 99.99%
Compound 4: ethyl methyl carbonate, C4H8O3, purity 99.99%
Compound 5: diethyl carbonate, C5H10O3, purity 99.99%
Compound 6: lithium hexafluorophosphate, F6LiP, purity 99.99%
Compound 7: lithium bis(trifluoromethylsulfonyl)imide, C2F6LiNO4S2, purity 99.99%
Compound 8: lithium tris(perfluoroethyl)trifluorophosphate, C6F18LiP, purity 99.99%
Compound 9: methane, CH4, purity 99.995%
Compound 10: water, H2O, purity 99.8%

System: ethylene carbonate; phases: Liquid, Gas
Property: Vapor or sublimation pressure, kPa (Liquid); method: Closed cell (Static) method
Temperature, K	Vapor or sublimation pressure, kPa	uncertainty
333.15	.045	.00225
338.15	.066	.0033
343.15	.087	.00435
348.15	.124	.0062
353.15	.175	.00875

System: propylene carbonate; phases: Liquid, Gas
Property: Vapor or sublimation pressure, kPa (Liquid); method: Closed cell (Static) method
Temperature, K	Vapor or sublimation pressure, kPa	uncertainty
327.12	.057	.00285
331.22	.078	.0039
338.15	.123	.00615
343.15	.185	.00925
348.15	.221	.01105
353.15	.287	.01435

System: dimethyl carbonate; phases: Liquid, Gas
Property: Vapor or sublimation pressure, kPa (Liquid); method: Closed cell (Static) method
Temperature, K	Vapor or sublimation pressure, kPa	uncertainty
277.96	2.298	.1149
282.06	3.121	.15605
286.15	4.019	.20095
290.25	4.863	.24315
294.35	6.311	.31555
298.15	6.982	.3491
302.54	9.72	.486
306.64	11.7	.585
310.74	14.017	.70085
318.15	19.822	.9911
323.15	23.065	1.15325

System: ethyl methyl carbonate; phases: Liquid, Gas
Property: Vapor or sublimation pressure, kPa (Liquid); method: Closed cell (Static) method
Temperature, K	Vapor or sublimation pressure, kPa	uncertainty
277.96	.958	.0479
282.06	1.285	.06425
283.15	1.516	.0758
288.15	2.008	.1004
293.15	2.439	.12195
298.15	3.658	.1829
303.15	4.534	.2267
308.15	5.801	.29005
310.74	6.739	.33695
314.83	7.885	.39425
323.15	12.281	.61405
328.15	15.258	.7629
333.15	18.284	.9142

System: diethyl carbonate; phases: Liquid, Gas
Property: Vapor or sublimation pressure, kPa (Liquid); method: Closed cell (Static) method
Temperature, K	Vapor or sublimation pressure, kPa	uncertainty
277.96	.401	.02005
282.06	.515	.02575
286.15	.666	.0333
288.15	.797	.03985
293.15	1.031	.05155
298.15	1.414	.0707
303.15	1.844	.0922
306.64	2.347	.11735
310.74	3.012	.1506
318.15	4.582	.2291
323.15	6.172	.3086
328.15	7.162	.3581
333.15	9.088	.4544
338.15	11.557	.57785
343.15	13.778	.6889
348.15	16.095	.80475
353.15	20.831	1.04155

System: water; phases: Liquid, Gas
Property: Vapor or sublimation pressure, kPa (Liquid); method: Closed cell (Static) method
Temperature, K	Vapor or sublimation pressure, kPa	uncertainty
277.96	.961	.04805
282.06	1.243	.06215
286.15	1.442	.0721
290.25	1.947	.09735
294.35	2.537	.12685
298.44	3.288	.1644
302.54	4.068	.2034
306.64	5.035	.25175
310.74	7.056	.3528
314.83	8.582	.4291
318.93	9.702	.4851
323.03	11.458	.5729
327.12	15.18	.759

System: ethylene carbonate + dimethyl carbonate + lithium hexafluorophosphate; phases: Liquid, Gas
Property: Vapor or sublimation pressure, kPa (Liquid); method: Closed cell (Static) method
Temperature, K	Solvent: Mass fraction of ethylene carbonate	Amount concentration (molarity), mol/dm3 of lithium hexafluorophosphate	Vapor or sublimation pressure, kPa	uncertainty
286.15	.5	1	1.628	.0814
298.44	.5	1	4.137	.20685
310.74	.5	1	7.678	.3839
327.12	.5	1	12.011	.60055

System: ethylene carbonate + dimethyl carbonate + lithium tris(perfluoroethyl)trifluorophosphate; phases: Liquid, Gas
Property: Vapor or sublimation pressure, kPa (Liquid); method: Closed cell (Static) method
Temperature, K	Solvent: Mass fraction of ethylene carbonate	Amount concentration (molarity), mol/dm3 of lithium tris(perfluoroethyl)trifluorophosphate	Vapor or sublimation pressure, kPa	uncertainty
286.15	.5	1	1.503	.07515
298.44	.5	1	3.499	.17495
310.74	.5	1	6.059	.30295
327.12	.5	1	9.156	.4578
343.51	.5	1	11.777	.58885

System: ethylene carbonate + dimethyl carbonate + lithium bis(trifluoromethylsulfonyl)imide; phases: Liquid, Gas
Property: Vapor or sublimation pressure, kPa (Liquid); method: Closed cell (Static) method
Temperature, K	Solvent: Mass fraction of ethylene carbonate	Amount concentration (molarity), mol/dm3 of lithium bis(trifluoromethylsulfonyl)imide	Vapor or sublimation pressure, kPa	uncertainty
277.96	.5	1	1.313	.06565
286.15	.5	1	3.028	.1514
298.44	.5	1	4.965	.24825
310.74	.5	1	7.343	.36715
327.12	.5	1	9.761	.48805

System: methane + ethylene carbonate; phases: Liquid, Gas
Property: Mole fraction of methane (Liquid); method: from PVT data
Pressure, kPa	Temperature, K	Mole fraction of methane	uncertainty
39.005	310.74	.0001881	.000005
31.719	310.74	.0001532	.000005
37.601	327.12	.0001532	.000005
32.561	327.12	.0001327	.000005
32.873	343.51	.0001096	.000005

System: methane + propylene carbonate; phases: Liquid, Gas
Property: Mole fraction of methane (Liquid); method: from PVT data
Pressure, kPa	Temperature, K	Mole fraction of methane	uncertainty
33.652	286.15	.000353	.000005
38.649	286.15	.0004058	.000005
39.292	298.44	.000361	.000005
31.617	298.44	.0002905	.000005
30.894	310.74	.0002571	.000005
31.725	327.12	.0002468	.000005

System: methane + dimethyl carbonate; phases: Liquid, Gas
Property: Mole fraction of methane (Liquid); method: from PVT data
Pressure, kPa	Temperature, K	Mole fraction of methane	uncertainty
31.659	286.15	.0005757	.000005
29.65	286.15	.0005394	.000005
35.619	298.44	.0005089	.000005
33.37	298.44	.0004772	.000005
43.996	310.74	.0004811	.000005
66.54	327.12	.0006541	.000005

System: methane + ethyl methyl carbonate; phases: Liquid, Gas
Property: Mole fraction of methane (Liquid); method: from PVT data
Pressure, kPa	Temperature, K	Mole fraction of methane	uncertainty
33.96	286.15	.0008384	.000005
27.94	286.15	.00069	.000005
30.074	298.44	.0005693	.000005
35.695	298.44	.0006737	.000005
40.623	310.74	.0006549	.000005
47.285	327.12	.0006393	.000005

System: methane + diethyl carbonate; phases: Liquid, Gas
Property: Mole fraction of methane (Liquid); method: from PVT data
Pressure, kPa	Temperature, K	Mole fraction of methane	uncertainty
27.79	286.15	.0007409	.000005
33.002	286.15	.0008868	.000005
33.433	298.44	.0007996	.000005
29.258	298.44	.0007	.000005
32.628	310.74	.0006688	.000005
38.878	327.12	.000646	.000005

System: ethylene carbonate + dimethyl carbonate; phases: Liquid, Gas
Fixed: Mass fraction of ethylene carbonate = .5
Property: Vapor or sublimation pressure, kPa (Liquid); method: Closed cell (Static) method
Temperature, K	Vapor or sublimation pressure, kPa	uncertainty
277.96	1.755	.08775
286.15	3.62	.181
298.44	6.034	.3017
310.73	8.531	.42655
327.12	10.735	.53675
343.51	13.897	.69485

System: methane + ethylene carbonate + dimethyl carbonate; phases: Liquid, Gas
Fixed: Solvent: Mass fraction of ethylene carbonate = .5
Property: Mole fraction of methane (Liquid); method: from PVT data
Pressure, kPa	Temperature, K	Mole fraction of methane	uncertainty
30.283	286.15	.000424	.000005
33.151	298.44	.000389	.000005
36.206	310.74	.000362	.000005
39.214	327.12	.000342	.000005
