Measured thermophysical data. Selective absorption of CO2 from H2, O2 and N2 by 1-hexyl-3-methylimidazolium tris(pentafluoroethyl)trifluorophosphate
Source: J. Chem. Thermodyn., 2016, 10.1016/j.jct.2016.01.013
Compound 1: 1-hexyl-3-methylimidazolium tris(pentafluoroethyl)trifluorophosphate, C16H19F18N2P, purity 99%
Compound 2: carbon dioxide, CO2, purity 99.999%
Compound 3: hydrogen, H2, purity 99.999%
Compound 4: nitrogen, N2, purity 99.999%
Compound 5: oxygen, O2, purity 99.999%

System: hydrogen + 1-hexyl-3-methylimidazolium tris(pentafluoroethyl)trifluorophosphate; phases: Liquid, Gas
Property: Mole fraction of hydrogen (Liquid); method: Volumetric method
Temperature, K	Pressure, kPa	Mole fraction of hydrogen	uncertainty
302.6	612	.0054	
304	1164	.0118	
302.7	1645	.018	
302.3	2470	.0283	
303.7	3201	.0412	
303.2	4033	.0519	
313.1	633	.0064	
312.4	1195	.0132	
313.2	1701	.0202	
312.8	2555	.0315	
312.7	3295	.0447	
312.3	4154	.0562	
323.2	653	.0075	
323.3	1237	.0149	
323.4	1756	.0224	
322.6	2634	.0348	
322.8	3402	.0483	
323.7	4306	.0611	
332.9	671	.0088	
332.4	1271	.0166	
333.6	1810	.0251	
332.6	2714	.0384	
332.7	3508	.051	
333.6	4441	.0639	
343.3	690	.0106	
343.3	1310	.0193	
343.4	1861	.028	
342.2	2789	.0425	
342.9	3615	.055	
342.3	4553	.0696	

System: oxygen + 1-hexyl-3-methylimidazolium tris(pentafluoroethyl)trifluorophosphate; phases: Liquid, Gas
Property: Mole fraction of oxygen (Liquid); method: Volumetric method
Temperature, K	Pressure, kPa	Mole fraction of oxygen	uncertainty
302.7	1050	.0261	
303.7	2260	.057	
303.6	3130	.0779	
303.6	4642	.1144	
303.4	5369	.1315	
303.9	6304	.149	
312.9	1085	.0278	
312.6	2330	.0587	
312.6	3229	.0808	
312.5	4798	.1166	
313.2	5569	.1349	
312.9	6526	.1522	
322.7	1119	.0291	
323.4	2415	.0609	
323.2	3350	.0832	
323	4980	.12	
323.9	5791	.1379	
323.3	6781	.1554	
333.2	1156	.0306	
332.6	2489	.0627	
332.8	3459	.0852	
333.4	5155	.125	
332.5	5965	.1407	
333.9	7045	.1583	
342.6	1187	.0326	
343.2	2569	.0658	
343.2	3573	.0886	
343.4	5331	.1273	
343.1	6189	.1425	
343.3	7279	.161	

System: nitrogen + 1-hexyl-3-methylimidazolium tris(pentafluoroethyl)trifluorophosphate; phases: Liquid, Gas
Property: Mole fraction of nitrogen (Liquid); method: Volumetric method
Temperature, K	Pressure, kPa	Mole fraction of nitrogen	uncertainty
302.9	1090	.0203	
303.6	2026	.0388	
303.5	3085	.0571	
303.3	4239	.0778	
303.6	5351	.0949	
303.5	6003	.1063	
312.7	1126	.0214	
312.9	2091	.0406	
312.5	3184	.0591	
312.5	4385	.0797	
312.5	5529	.098	
312.8	6212	.1104	
322.6	1161	.0231	
323.7	2167	.0424	
323.2	3303	.0618	
322.7	4544	.083	
322.8	5736	.1016	
322.4	6435	.1125	
333	1198	.0248	
333.9	2238	.0445	
332.9	3409	.0642	
333.9	4716	.0866	
333.6	5952	.1053	
333	6675	.1175	
342.9	1233	.0267	
342.9	2301	.0464	
343.5	3524	.0675	
342.6	4853	.089	
343	6144	.1082	
342.3	6891	.1203	

System: carbon dioxide + 1-hexyl-3-methylimidazolium tris(pentafluoroethyl)trifluorophosphate; phases: Liquid, Gas
Property: Mole fraction of carbon dioxide (Liquid); method: Volumetric method
Temperature, K	Pressure, kPa	Mole fraction of carbon dioxide	uncertainty
298	697	.231	
297.8	1336	.38	
298.2	1955	.4724	
298.1	2787	.5764	
298.2	3360	.6347	
302.8	732	.2233	
302.4	1409	.3712	
302.8	2066	.4652	
303	2944	.5599	
302.5	3587	.6222	
312.6	805	.2098	
312.9	1564	.3511	
313.3	2285	.4447	
312.6	3260	.5372	
313	4025	.5971	
322.9	878	.1974	
322.5	1702	.3342	
322.6	2484	.4261	
323.1	3546	.5208	
322.7	4415	.5756	
333.1	948	.1864	
332.9	1847	.3176	
333.1	2702	.4067	
332.6	3834	.5024	
333.3	4830	.5539	
342.9	1012	.1772	
342.5	1977	.3034	
343	2905	.3896	
342.8	4127	.4856	
343.2	5198	.5369	
