Measured thermophysical data. Measurements and correlations of isothermal (vapour + liquid) equilibrium for the {isobutane (R600a) + cis-1,3,3,3-tetrafluoropropene (R1234ze(Z))} system at temperatures from (303.150 to 353.150) K
Source: J. Chem. Thermodyn., 2016, 10.1016/j.jct.2016.08.031
Compound 1: isobutane, C4H10, purity 99.5%
Compound 2: R-1234ze(Z), C3H2F4, purity 99.5%

System: isobutane; phases: Liquid, Gas
Property: Vapor or sublimation pressure, kPa (Liquid); method: Closed cell (Static) method
Temperature, K	Vapor or sublimation pressure, kPa	uncertainty
353.15	1343.4	
343.15	1087.4	
333.15	869	
323.15	684.6	
313.15	530.9	
303.15	404.5	

System: R-1234ze(Z); phases: Liquid, Gas
Property: Vapor or sublimation pressure, kPa (Liquid); method: Closed cell (Static) method
Temperature, K	Vapor or sublimation pressure, kPa	uncertainty
353.15	859.2	
343.15	671.3	
333.15	517.4	
323.15	391.8	
313.15	290.7	
303.15	210.6	

System: isobutane + R-1234ze(Z); phases: Liquid, Gas
Property: Vapor or sublimation pressure, kPa (Liquid); method: Closed cell (Static) method
Mole fraction of isobutane	Temperature, K	Vapor or sublimation pressure, kPa	uncertainty
0	353.15	859.2	
.051	353.15	973.9	
.153	353.15	1166.4	
.255	353.15	1305.4	
.408	353.15	1440.2	
.646	353.15	1526	
.671	353.15	1526.7	
.73	353.15	1528.9	
.798	353.15	1513.9	
.921	353.15	1440.5	
1	353.15	1343.4	
0	343.15	671.3	
.158	343.15	949.8	
.266	343.15	1062.6	
.411	343.15	1165.1	
.621	343.15	1231.1	
.64	343.15	1232.1	
.682	343.15	1234.4	
.73	343.15	1237.1	
.797	343.15	1227	
.92	343.15	1170.2	
1	343.15	1087.4	
0	333.15	517.4	
.097	333.15	684.6	
.159	333.15	759.4	
.269	333.15	852.5	
.411	333.15	931.3	
.622	333.15	979.8	
.652	333.15	982.4	
.678	333.15	984.9	
.73	333.15	989.1	
.796	333.15	980.5	
.918	333.15	939	
1	333.15	869	
0	323.15	391.8	
.093	323.15	537.3	
.142	323.15	576.5	
.269	323.15	680.4	
.413	323.15	733.9	
.631	323.15	775	
.679	323.15	777.5	
.729	323.15	781.1	
.773	323.15	778.6	
.796	323.15	775	
.917	323.15	742.7	
1	323.15	684.6	
0	313.15	290.7	
.166	313.15	463	
.261	313.15	519.5	
.282	313.15	532.5	
.416	313.15	568.8	
.622	313.15	595.7	
.651	313.15	597.2	
.681	313.15	598.8	
.73	313.15	602.1	
.773	313.15	600.2	
.916	313.15	576	
1	313.15	530.9	
0	303.15	210.6	
.1	303.15	318.7	
.28	303.15	402.9	
.414	303.15	432.5	
.621	303.15	454.5	
.654	303.15	455.3	
.682	303.15	455.5	
.757	303.15	459.1	
.792	303.15	457.7	
.915	303.15	441.8	
1	303.15	404.5	

System: isobutane + R-1234ze(Z); phases: Gas, Liquid
Property: Mole fraction of isobutane (Gas); method: Chromatography
Mole fraction of isobutane	Temperature, K	Mole fraction of isobutane	uncertainty
0	353.15	0	
.051	353.15	.132	
.153	353.15	.302	
.255	353.15	.415	
.408	353.15	.53	
.646	353.15	.667	
.671	353.15	.689	
.73	353.15	.725	
.798	353.15	.771	
.921	353.15	.885	
1	353.15	1	
0	343.15	0	
.158	343.15	.34	
.266	343.15	.45	
.411	343.15	.551	
.621	343.15	.668	
.64	343.15	.682	
.682	343.15	.695	
.73	343.15	.729	
.797	343.15	.771	
.92	343.15	.88	
1	343.15	1	
0	333.15	0	
.097	333.15	.288	
.159	333.15	.376	
.269	333.15	.477	
.411	333.15	.568	
.622	333.15	.679	
.652	333.15	.694	
.678	333.15	.701	
.73	333.15	.73	
.796	333.15	.771	
.918	333.15	.875	
1	333.15	1	
0	323.15	0	
.093	323.15	.309	
.142	323.15	.378	
.269	323.15	.51	
.413	323.15	.585	
.631	323.15	.682	
.679	323.15	.71	
.729	323.15	.734	
.773	323.15	.761	
.796	323.15	.772	
.917	323.15	.871	
1	323.15	1	
0	313.15	0	
.166	313.15	.436	
.261	313.15	.524	
.282	313.15	.542	
.416	313.15	.604	
.622	313.15	.689	
.651	313.15	.702	
.681	313.15	.715	
.73	313.15	.739	
.773	313.15	.76	
.916	313.15	.868	
1	313.15	1	
0	303.15	0	
.1	303.15	.367	
.28	303.15	.555	
.414	303.15	.604	
.621	303.15	.691	
.654	303.15	.706	
.682	303.15	.715	
.757	303.15	.753	
.792	303.15	.77	
.915	303.15	.864	
1	303.15	1	
