Measured thermophysical data. Liquid liquid equilibria for ternary systems of (ethylene glycol + toluene + heptane)  at temperatures (303.15, 308.15, and 313.15) K and atmospheric pressure:  Experimental results and correlation with UNIQUAC and NRTL models
Source: J. Chem. Thermodyn., 2013, 10.1016/j.jct.2012.12.027
Compound 1: n-heptane, C7H16, purity 99.2%
Compound 2: methylbenzene, C7H8, purity 99.5%
Compound 3: 1,2-dihydroxyethane, C2H6O2, purity 99.2%

System: 1,2-dihydroxyethane + methylbenzene + n-heptane; phases: Liquid mixture 2, Liquid mixture 1
Fixed: Pressure, kPa = 101
Property: Mass fraction of 1,2-dihydroxyethane (Liquid mixture 2); method: Chromatography
Property: Mass fraction of methylbenzene (Liquid mixture 1); method: Chromatography
Property: Mass fraction of 1,2-dihydroxyethane (Liquid mixture 1); method: Chromatography
Temperature, K	Mass fraction of methylbenzene	Mass fraction of 1,2-dihydroxyethane	uncertainty	Mass fraction of methylbenzene	uncertainty	Mass fraction of 1,2-dihydroxyethane	uncertainty
303.15	.0343	.96512	.004	.7464	.004	.1632	.004
308.15	.01401	.98571	.004	.4903	.004	.0812	.004
313.15	.05134	.9481	.004	.7644	.004	.1335	.004
313.15	.03943	.9602	.004	.7561	.004	.1152	.004
313.15	.02713	.9724	.004	.6621	.004	.0952	.004
313.15	.02241	.9772	.004	.5821	.004	.0891	.004
313.15	.01723	.9824	.004	.4821	.004	.0447	.004
303.15	.02514	.9744	.004	.7421	.004	.1015	.004
303.15	.02084	.97874	.004	.7217	.004	.0441	.004
303.15	.01786	.98172	.004	.6327	.004	.0361	.004
303.15	.0155	.98409	.004	.5541	.004	.0337	.004
303.15	.011	.98861	.004	.4044	.004	.0237	.004
308.15	.03506	.96445	.004	.7323	.004	.1604	.004
308.15	.02732	.97233	.004	.7165	.004	.1507	.004
308.15	.01988	.97979	.004	.6518	.004	.1394	.004
308.15	.01782	.9819	.004	.5962	.004	.0952	.004
