Measured thermophysical data. Densities and viscosities of the mixtures (formamide + 2-alkanol): Experimental and theoretical approaches
Source: J. Chem. Thermodyn., 2014, 10.1016/j.jct.2013.09.043
Compound 1: formamide, CH3NO, purity 99.5%
Compound 2: 2-propanol, C3H8O, purity 99.8%
Compound 3: 2-butanol, C4H10O, purity 99%
Compound 4: 2-pentanol, C5H12O, purity 99%
Compound 5: 2-hexanol, C6H14O, purity 99%
Compound 6: 2-heptanol, C7H16O, purity 99.5%

System: formamide; phases: Liquid
Property: Mass density, kg/m3 (Liquid); method: Vibrating tube method
Temperature, K	Pressure, kPa	Mass density, kg/m3	uncertainty
298.15	101	1129	.5
303.15	101	1125.1	.5
308.15	101	1120.98	.5
313.15	101	1116.85	.5

System: formamide; phases: Liquid
Property: Viscosity, Pa*s (Liquid); method: Capillary tube (Ostwald; Ubbelohde) method
Temperature, K	Pressure, kPa	Viscosity, Pa*s	uncertainty
298.15	101	.003305	.0000661
303.15	101	.002975	.0000595
308.15	101	.00264	.0000528
313.15	101	.00242	.0000484

System: 2-propanol; phases: Liquid
Property: Mass density, kg/m3 (Liquid); method: Vibrating tube method
Temperature, K	Pressure, kPa	Mass density, kg/m3	uncertainty
298.15	101	780.95	.5
303.15	101	776.79	.5
308.15	101	772.39	.5
313.15	101	767.76	.5

System: 2-propanol; phases: Liquid
Property: Viscosity, Pa*s (Liquid); method: Capillary tube (Ostwald; Ubbelohde) method
Temperature, K	Pressure, kPa	Viscosity, Pa*s	uncertainty
298.15	101	.002077	.00004154
303.15	101	.001787	.00003574
308.15	101	.001558	.00003116
313.15	101	.001351	.00002702

System: 2-butanol; phases: Liquid
Property: Mass density, kg/m3 (Liquid); method: Vibrating tube method
Temperature, K	Pressure, kPa	Mass density, kg/m3	uncertainty
298.15	101	803.09	.5
303.15	101	798.89	.5
308.15	101	795.04	.5
313.15	101	790.15	.5

System: 2-butanol; phases: Liquid
Property: Viscosity, Pa*s (Liquid); method: Capillary tube (Ostwald; Ubbelohde) method
Temperature, K	Pressure, kPa	Viscosity, Pa*s	uncertainty
298.15	101	.003034	.00006068
303.15	101	.002527	.00005054
308.15	101	.002125	.0000425
313.15	101	.001798	.00003596

System: 2-pentanol; phases: Liquid
Property: Mass density, kg/m3 (Liquid); method: Vibrating tube method
Temperature, K	Pressure, kPa	Mass density, kg/m3	uncertainty
298.15	101	805.05	.5
303.15	101	800.88	.5
308.15	101	796.89	.5
313.15	101	792.62	.5

System: 2-pentanol; phases: Liquid
Property: Viscosity, Pa*s (Liquid); method: Capillary tube (Ostwald; Ubbelohde) method
Temperature, K	Pressure, kPa	Viscosity, Pa*s	uncertainty
298.15	101	.003423	.00006846
303.15	101	.002834	.00005668
308.15	101	.002348	.00004696
313.15	101	.001979	.00003958

System: 2-hexanol; phases: Liquid
Property: Mass density, kg/m3 (Liquid); method: Vibrating tube method
Temperature, K	Pressure, kPa	Mass density, kg/m3	uncertainty
298.15	101	810.14	.5
303.15	101	806.13	.5
308.15	101	802.06	.5
313.15	101	797.96	.5

System: 2-hexanol; phases: Liquid
Property: Viscosity, Pa*s (Liquid); method: Capillary tube (Ostwald; Ubbelohde) method
Temperature, K	Pressure, kPa	Viscosity, Pa*s	uncertainty
298.15	101	.004101	.00008202
303.15	101	.003411	.00006822
308.15	101	.002819	.00005638
313.15	101	.002219	.00004438

System: 2-heptanol; phases: Liquid
Property: Mass density, kg/m3 (Liquid); method: Vibrating tube method
Temperature, K	Pressure, kPa	Mass density, kg/m3	uncertainty
298.15	101	813.38	.5
303.15	101	809.5	.5
308.15	101	805.72	.5
313.15	101	801.46	.5

System: 2-heptanol; phases: Liquid
Property: Viscosity, Pa*s (Liquid); method: Capillary tube (Ostwald; Ubbelohde) method
Temperature, K	Pressure, kPa	Viscosity, Pa*s	uncertainty
298.15	101	.005296	.00010592
303.15	101	.004315	.0000863
308.15	101	.003535	.0000707
313.15	101	.00296	.0000592

System: 2-propanol + formamide; phases: Liquid
Fixed: Pressure, kPa = 101
Property: Mass density, kg/m3 (Liquid); method: Vibrating tube method
Temperature, K	Mole fraction of formamide	Mass density, kg/m3	uncertainty
298.15	0	780.95	.5
298.15	.0831	797.37	.5
298.15	.1563	813.03	.5
298.15	.2377	831.8	.5
298.15	.3518	860.85	.5
298.15	.4403	885.89	.5
298.15	.5371	916.34	.5
298.15	.6352	950.91	.5
298.15	.7388	992.47	.5
298.15	.8497	1043.91	.5
298.15	.94	1092.69	.5
298.15	1	1129	.5
303.15	0	776.79	.5
303.15	.0831	793.08	.5
303.15	.1563	808.66	.5
303.15	.2377	827.33	.5
303.15	.3518	856.24	.5
303.15	.4403	881.14	.5
303.15	.5371	911.48	.5
303.15	.6352	946.08	.5
303.15	.7388	987.75	.5
303.15	.8497	1039.54	.5
303.15	.94	1088.45	.5
303.15	1	1125.1	.5
308.15	0	772.39	.5
308.15	.0831	788.56	.5
308.15	.1563	803.98	.5
308.15	.2377	822.51	.5
308.15	.3518	851.26	.5
308.15	.4403	876.01	.5
308.15	.5371	906.38	.5
308.15	.6352	940.93	.5
308.15	.7388	982.64	.5
308.15	.8497	1034.66	.5
308.15	.94	1083.96	.5
308.15	1	1120.98	.5
313.15	0	767.76	.5
313.15	.0831	783.84	.5
313.15	.1563	799.2	.5
313.15	.2377	817.62	.5
313.15	.3518	846.25	.5
313.15	.4403	871.03	.5
313.15	.5371	901.3	.5
313.15	.6352	935.92	.5
313.15	.7388	977.69	.5
313.15	.8497	1029.87	.5
313.15	.94	1079.51	.5
313.15	1	1116.85	.5

System: 2-propanol + formamide; phases: Liquid
Fixed: Pressure, kPa = 101
Property: Viscosity, Pa*s (Liquid); method: Capillary tube (Ostwald; Ubbelohde) method
Temperature, K	Mole fraction of formamide	Viscosity, Pa*s	uncertainty
298.15	0	.002077	.00004154
298.15	.0831	.002167	.00004334
298.15	.1563	.002254	.00004508
298.15	.2377	.002382	.00004764
298.15	.3518	.002585	.0000517
298.15	.4403	.002739	.00005478
298.15	.5371	.002888	.00005776
298.15	.6352	.003015	.0000603
298.15	.7388	.003127	.00006254
298.15	.8497	.003218	.00006436
298.15	.94	.003277	.00006554
298.15	1	.003305	.0000661
303.15	0	.001787	.00003574
303.15	.0831	.001867	.00003734
303.15	.1563	.001948	.00003896
303.15	.2377	.002064	.00004128
303.15	.3518	.002259	.00004518
303.15	.4403	.002409	.00004818
303.15	.5371	.002556	.00005112
303.15	.6352	.002684	.00005368
303.15	.7388	.002789	.00005578
303.15	.8497	.002878	.00005756
303.15	.94	.002939	.00005878
303.15	1	.002975	.0000595
308.15	0	.001558	.00003116
308.15	.0831	.001623	.00003246
308.15	.1563	.001688	.00003376
308.15	.2377	.001791	.00003582
308.15	.3518	.001974	.00003948
308.15	.4403	.002115	.0000423
308.15	.5371	.002256	.00004512
308.15	.6352	.002371	.00004742
308.15	.7388	.002464	.00004928
308.15	.8497	.002541	.00005082
308.15	.94	.002601	.00005202
308.15	1	.00264	.0000528
313.15	0	.001351	.00002702
313.15	.0831	.001399	.00002798
313.15	.1563	.001464	.00002928
313.15	.2377	.001567	.00003134
313.15	.3518	.001745	.0000349
313.15	.4403	.001884	.00003768
313.15	.5371	.002026	.00004052
313.15	.6352	.002144	.00004288
313.15	.7388	.002233	.00004466
313.15	.8497	.002312	.00004624
313.15	.94	.002377	.00004754
313.15	1	.00242	.0000484

System: formamide + 2-butanol; phases: Liquid
Fixed: Pressure, kPa = 101
Property: Mass density, kg/m3 (Liquid); method: Vibrating tube method
Temperature, K	Mole fraction of formamide	Mass density, kg/m3	uncertainty
298.15	0	803.09	.5
298.15	.0871	815.72	.5
298.15	.1597	827.26	.5
298.15	.2462	842.51	.5
298.15	.3993	874.46	.5
298.15	.4397	884.15	.5
298.15	.5567	916.06	.5
298.15	.6516	947.04	.5
298.15	.7376	980.23	.5
298.15	.8512	1033.92	.5
298.15	.9309	1080.54	.5
298.15	1	1129	.5
303.15	0	798.89	.5
303.15	.0871	811.44	.5
303.15	.1597	822.99	.5
303.15	.2462	838.24	.5
303.15	.3993	870.19	.5
303.15	.4397	879.88	.5
303.15	.5567	911.78	.5
303.15	.6516	942.76	.5
303.15	.7376	975.94	.5
303.15	.8512	1029.63	.5
303.15	.9309	1076.36	.5
303.15	1	1125.1	.5
308.15	0	795.04	.5
308.15	.0871	807.59	.5
308.15	.1597	819.07	.5
308.15	.2462	834.28	.5
308.15	.3993	866.14	.5
308.15	.4397	875.81	.5
308.15	.5567	907.68	.5
308.15	.6516	938.6	.5
308.15	.7376	971.72	.5
308.15	.8512	1025.39	.5
308.15	.9309	1072.19	.5
308.15	1	1120.98	.5
313.15	0	790.15	.5
313.15	.0871	802.69	.5
313.15	.1597	814.17	.5
313.15	.2462	829.39	.5
313.15	.3993	861.25	.5
313.15	.4397	870.92	.5
313.15	.5567	902.82	.5
313.15	.6516	933.86	.5
313.15	.7376	967.08	.5
313.15	.8512	1020.93	.5
313.15	.9309	1067.81	.5
313.15	1	1116.85	.5

System: formamide + 2-butanol; phases: Liquid
Fixed: Pressure, kPa = 101
Property: Viscosity, Pa*s (Liquid); method: Capillary tube (Ostwald; Ubbelohde) method
Temperature, K	Mole fraction of formamide	Viscosity, Pa*s	uncertainty
298.15	0	.003034	.00006068
298.15	.0871	.003039	.00006078
298.15	.1597	.003048	.00006096
298.15	.2462	.003074	.00006148
298.15	.3993	.003178	.00006356
298.15	.4397	.003207	.00006414
298.15	.5567	.003279	.00006558
298.15	.6516	.003318	.00006636
298.15	.7376	.003336	.00006672
298.15	.8512	.00334	.0000668
298.15	.9309	.003329	.00006658
298.15	1	.003305	.0000661
303.15	0	.002527	.00005054
303.15	.0871	.002541	.00005082
303.15	.1597	.002561	.00005122
303.15	.2462	.002601	.00005202
303.15	.3993	.002729	.00005458
303.15	.4397	.002763	.00005526
303.15	.5567	.002855	.0000571
303.15	.6516	.002911	.00005822
303.15	.7376	.002945	.0000589
303.15	.8512	.002973	.00005946
303.15	.9309	.00298	.0000596
303.15	1	.002975	.0000595
308.15	0	.002125	.0000425
308.15	.0871	.002137	.00004274
308.15	.1597	.002158	.00004316
308.15	.2462	.002206	.00004412
308.15	.3993	.002337	.00004674
308.15	.4397	.002372	.00004744
308.15	.5567	.002477	.00004954
308.15	.6516	.00254	.0000508
308.15	.7376	.002582	.00005164
308.15	.8512	.002617	.00005234
308.15	.9309	.002631	.00005262
308.15	1	.00264	.0000528
313.15	0	.001798	.00003596
313.15	.0871	.00181	.0000362
313.15	.1597	.001836	.00003672
313.15	.2462	.001893	.00003786
313.15	.3993	.002037	.00004074
313.15	.4397	.002078	.00004156
313.15	.5567	.002195	.0000439
313.15	.6516	.002272	.00004544
313.15	.7376	.002324	.00004648
313.15	.8512	.002371	.00004742
313.15	.9309	.002398	.00004796
313.15	1	.00242	.0000484

System: formamide + 2-pentanol; phases: Liquid
Fixed: Pressure, kPa = 101
Property: Mass density, kg/m3 (Liquid); method: Vibrating tube method
Temperature, K	Mole fraction of formamide	Mass density, kg/m3	uncertainty
298.15	0	805.05	.5
298.15	.0823	814.65	.5
298.15	.1639	825.39	.5
298.15	.2393	836.58	.5
298.15	.3541	856.48	.5
298.15	.4444	875.19	.5
298.15	.5612	904.57	.5
298.15	.6497	932.05	.5
298.15	.7431	967.72	.5
298.15	.8502	1020.4	.5
298.15	.9398	1079.03	.5
298.15	1	1129	.5
303.15	0	800.88	.5
303.15	.0823	810.45	.5
303.15	.1639	821.13	.5
303.15	.2393	832.27	.5
303.15	.3541	852.09	.5
303.15	.4444	870.77	.5
303.15	.5612	900.13	.5
303.15	.6497	927.6	.5
303.15	.7431	963.24	.5
303.15	.8502	1016.03	.5
303.15	.9398	1074.66	.5
303.15	1	1125.1	.5
308.15	0	796.89	.5
308.15	.0823	806.51	.5
308.15	.1639	817.19	.5
308.15	.2393	828.29	.5
308.15	.3541	848.01	.5
308.15	.4444	866.59	.5
308.15	.5612	895.87	.5
308.15	.6497	923.33	.5
308.15	.7431	959	.5
308.15	.8502	1011.79	.5
308.15	.9398	1070.45	.5
308.15	1	1120.98	.5
313.15	0	792.62	.5
313.15	.0823	802.09	.5
313.15	.1639	812.73	.5
313.15	.2393	823.79	.5
313.15	.3541	843.52	.5
313.15	.4444	862.13	.5
313.15	.5612	891.4	.5
313.15	.6497	918.86	.5
313.15	.7431	954.54	.5
313.15	.8502	1007.32	.5
313.15	.9398	1066.08	.5
313.15	1	1116.85	.5

System: formamide + 2-pentanol; phases: Liquid
Fixed: Pressure, kPa = 101
Property: Viscosity, Pa*s (Liquid); method: Capillary tube (Ostwald; Ubbelohde) method
Temperature, K	Mole fraction of formamide	Viscosity, Pa*s	uncertainty
298.15	0	.003423	.00006846
298.15	.0823	.003386	.00006772
298.15	.1639	.003363	.00006726
298.15	.2393	.003353	.00006706
298.15	.3541	.003379	.00006758
298.15	.4444	.003402	.00006804
298.15	.5612	.003422	.00006844
298.15	.6497	.003431	.00006862
298.15	.7431	.00342	.0000684
298.15	.8502	.003384	.00006768
298.15	.9398	.003341	.00006682
298.15	1	.003305	.0000661
303.15	0	.002834	.00005668
303.15	.0823	.002811	.00005622
303.15	.1639	.002801	.00005602
303.15	.2393	.002811	.00005622
303.15	.3541	.002864	.00005728
303.15	.4444	.002911	.00005822
303.15	.5612	.002964	.00005928
303.15	.6497	.002989	.00005978
303.15	.7431	.003003	.00006006
303.15	.8502	.003001	.00006002
303.15	.9398	.002988	.00005976
303.15	1	.002975	.0000595
308.15	0	.002348	.00004696
308.15	.0823	.002328	.00004656
308.15	.1639	.002329	.00004658
308.15	.2393	.002348	.00004696
308.15	.3541	.002409	.00004818
308.15	.4444	.002468	.00004936
308.15	.5612	.002544	.00005088
308.15	.6497	.002587	.00005174
308.15	.7431	.002615	.0000523
308.15	.8502	.002628	.00005256
308.15	.9398	.002635	.0000527
308.15	1	.00264	.0000528
313.15	0	.001979	.00003958
313.15	.0823	.001959	.00003918
313.15	.1639	.001973	.00003946
313.15	.2393	.002004	.00004008
313.15	.3541	.002075	.0000415
313.15	.4444	.002144	.00004288
313.15	.5612	.002237	.00004474
313.15	.6497	.002298	.00004596
313.15	.7431	.002343	.00004686
313.15	.8502	.00238	.0000476
313.15	.9398	.002403	.00004806
313.15	1	.00242	.0000484

System: formamide + 2-hexanol; phases: Liquid
Fixed: Pressure, kPa = 101
Property: Mass density, kg/m3 (Liquid); method: Vibrating tube method
Temperature, K	Mole fraction of formamide	Mass density, kg/m3	uncertainty
298.15	0	810.14	.5
298.15	.0818	818.06	.5
298.15	.1638	827.12	.5
298.15	.2392	836.66	.5
298.15	.3529	853.7	.5
298.15	.4439	870.39	.5
298.15	.5613	897.25	.5
298.15	.6496	922.95	.5
298.15	.743	957.42	.5
298.15	.8502	1010.56	.5
298.15	.9398	1072.59	.5
298.15	1	1129	.5
303.15	0	806.13	.5
303.15	.0818	814.05	.5
303.15	.1638	823.03	.5
303.15	.2392	832.51	.5
303.15	.3529	849.5	.5
303.15	.4439	866.2	.5
303.15	.5613	893.04	.5
303.15	.6496	918.63	.5
303.15	.743	953.01	.5
303.15	.8502	1006.13	.5
303.15	.9398	1068.37	.5
303.15	1	1125.1	.5
308.15	0	802.06	.5
308.15	.0818	809.79	.5
308.15	.1638	818.79	.5
308.15	.2392	828.24	.5
308.15	.3529	845.26	.5
308.15	.4439	861.95	.5
308.15	.5613	888.76	.5
308.15	.6496	914.3	.5
308.15	.743	948.59	.5
308.15	.8502	1001.67	.5
308.15	.9398	1063.89	.5
308.15	1	1120.98	.5
313.15	0	797.96	.5
313.15	.0818	805.72	.5
313.15	.1638	814.58	.5
313.15	.2392	823.99	.5
313.15	.3529	841.01	.5
313.15	.4439	857.71	.5
313.15	.5613	884.48	.5
313.15	.6496	909.96	.5
313.15	.743	944.27	.5
313.15	.8502	997.41	.5
313.15	.9398	1059.71	.5
313.15	1	1116.85	.5

System: formamide + 2-hexanol; phases: Liquid
Fixed: Pressure, kPa = 101
Property: Viscosity, Pa*s (Liquid); method: Capillary tube (Ostwald; Ubbelohde) method
Temperature, K	Mole fraction of formamide	Viscosity, Pa*s	uncertainty
298.15	0	.004101	.00008202
298.15	.0818	.004008	.00008016
298.15	.1638	.003918	.00007836
298.15	.2392	.00385	.000077
298.15	.3529	.003778	.00007556
298.15	.4439	.003744	.00007488
298.15	.5613	.003695	.0000739
298.15	.6496	.003647	.00007294
298.15	.743	.003582	.00007164
298.15	.8502	.003479	.00006958
298.15	.9398	.003378	.00006756
298.15	1	.003305	.0000661
303.15	0	.003411	.00006822
303.15	.0818	.003334	.00006668
303.15	.1638	.003276	.00006552
303.15	.2392	.00323	.0000646
303.15	.3529	.003176	.00006352
303.15	.4439	.003187	.00006374
303.15	.5613	.003185	.0000637
303.15	.6496	.003169	.00006338
303.15	.743	.003144	.00006288
303.15	.8502	.003078	.00006156
303.15	.9398	.003021	.00006042
303.15	1	.002975	.0000595
308.15	0	.002819	.00005638
308.15	.0818	.002753	.00005506
308.15	.1638	.002711	.00005422
308.15	.2392	.00269	.0000538
308.15	.3529	.002679	.00005358
308.15	.4439	.002686	.00005372
308.15	.5613	.00271	.0000542
308.15	.6496	.002724	.00005448
308.15	.743	.002726	.00005452
308.15	.8502	.002695	.0000539
308.15	.9398	.002662	.00005324
308.15	1	.00264	.0000528
313.15	0	.002219	.00004438
313.15	.0818	.002171	.00004342
313.15	.1638	.00216	.0000432
313.15	.2392	.002169	.00004338
313.15	.3529	.002199	.00004398
313.15	.4439	.002235	.0000447
313.15	.5613	.0023	.000046
313.15	.6496	.00235	.000047
313.15	.743	.002392	.00004784
313.15	.8502	.002406	.00004812
313.15	.9398	.002413	.00004826
313.15	1	.00242	.0000484

System: formamide + 2-heptanol; phases: Liquid
Fixed: Pressure, kPa = 101
Property: Mass density, kg/m3 (Liquid); method: Vibrating tube method
Temperature, K	Mole fraction of formamide	Mass density, kg/m3	uncertainty
298.15	0	813.38	.5
298.15	.0819	821.08	.5
298.15	.1603	829.46	.5
298.15	.2402	839.28	.5
298.15	.3508	855.44	.5
298.15	.4402	871.35	.5
298.15	.567	900.02	.5
298.15	.6525	924.85	.5
298.15	.7403	957.01	.5
298.15	.8501	1010.97	.5
298.15	.94	1072.96	.5
298.15	1	1129	.5
303.15	0	809.5	.5
303.15	.0819	817.04	.5
303.15	.1603	825.3	.5
303.15	.2402	835.08	.5
303.15	.3508	851.28	.5
303.15	.4402	867.27	.5
303.15	.567	895.95	.5
303.15	.6525	920.66	.5
303.15	.7403	952.58	.5
303.15	.8501	1006.37	.5
303.15	.94	1068.47	.5
303.15	1	1125.1	.5
308.15	0	805.72	.5
308.15	.0819	813.18	.5
308.15	.1603	821.41	.5
308.15	.2402	831.16	.5
308.15	.3508	847.38	.5
308.15	.4402	863.34	.5
308.15	.567	891.92	.5
308.15	.6525	916.51	.5
308.15	.7403	948.4	.5
308.15	.8501	1002.12	.5
308.15	.94	1064.24	.5
308.15	1	1120.98	.5
313.15	0	801.46	.5
313.15	.0819	808.95	.5
313.15	.1603	817.16	.5
313.15	.2402	826.89	.5
313.15	.3508	843.03	.5
313.15	.4402	858.97	.5
313.15	.567	887.52	.5
313.15	.6525	912.11	.5
313.15	.7403	944.03	.5
313.15	.8501	997.89	.5
313.15	.94	1059.95	.5
313.15	1	1116.85	.5

System: formamide + 2-heptanol; phases: Liquid
Fixed: Pressure, kPa = 101
Property: Viscosity, Pa*s (Liquid); method: Capillary tube (Ostwald; Ubbelohde) method
Temperature, K	Mole fraction of formamide	Viscosity, Pa*s	uncertainty
298.15	0	.005296	.00010592
298.15	.0819	.005094	.00010188
298.15	.1603	.004915	.0000983
298.15	.2402	.004744	.00009488
298.15	.3508	.004541	.00009082
298.15	.4402	.004385	.0000877
298.15	.567	.004176	.00008352
298.15	.6525	.004035	.0000807
298.15	.7403	.003881	.00007762
298.15	.8501	.003647	.00007294
298.15	.94	.003446	.00006892
298.15	1	.003305	.0000661
303.15	0	.004315	.0000863
303.15	.0819	.004157	.00008314
303.15	.1603	.004021	.00008042
303.15	.2402	.003905	.0000781
303.15	.3508	.003773	.00007546
303.15	.4402	.003673	.00007346
303.15	.567	.003543	.00007086
303.15	.6525	.003459	.00006918
303.15	.7403	.003363	.00006726
303.15	.8501	.003204	.00006408
303.15	.94	.003069	.00006138
303.15	1	.002975	.0000595
308.15	0	.003535	.0000707
308.15	.0819	.003403	.00006806
308.15	.1603	.003299	.00006598
308.15	.2402	.003219	.00006438
308.15	.3508	.003131	.00006262
308.15	.4402	.00307	.0000614
308.15	.567	.002997	.00005994
308.15	.6525	.002952	.00005904
308.15	.7403	.002896	.00005792
308.15	.8501	.002792	.00005584
308.15	.94	.002701	.00005402
308.15	1	.00264	.0000528
313.15	0	.00296	.0000592
313.15	.0819	.002842	.00005684
313.15	.1603	.002767	.00005534
313.15	.2402	.002718	.00005436
313.15	.3508	.002669	.00005338
313.15	.4402	.002637	.00005274
313.15	.567	.002607	.00005214
313.15	.6525	.002593	.00005186
313.15	.7403	.002571	.00005142
313.15	.8501	.00251	.0000502
313.15	.94	.002455	.0000491
313.15	1	.00242	.0000484
