Measured thermophysical data. Measurements of activity coefficients at infinite dilution of aliphatic  and aromatic hydrocarbons, alcohols, thiophene, tetrahydrofuran,  MTBE, and water in ionic liquid [BMIM][SCN] using GLC
Source: J. Chem. Thermodyn., 2009, 10.1016/j.jct.2008.12.018
Compound 1: 1-butyl-3-methylimidazolium thiocyanate, C9H15N3S, purity 98%
Compound 2: hexane, C6H14
Compound 3: heptane, C7H16
Compound 4: octane, C8H18
Compound 5: nonane, C9H20
Compound 6: decane, C10H22
Compound 7: cyclopentane, C5H10
Compound 8: cyclohexane, C6H12
Compound 9: cyclooctane, C8H16
Compound 10: 1-pentene, C5H10
Compound 11: 1-hexene, C6H12
Compound 12: 1-heptene, C7H14
Compound 13: 1-octene, C8H16
Compound 14: 1-pentyne, C5H8
Compound 15: 1-hexyne, C6H10
Compound 16: 1-heptyne, C7H12
Compound 17: 1-octyne, C8H14
Compound 18: benzene, C6H6
Compound 19: toluene, C7H8
Compound 20: ethylbenzene, C8H10
Compound 21: 1,2-dimethylbenzene, C8H10
Compound 22: 1,3-dimethylbenzene, C8H10
Compound 23: 1,4-dimethylbenzene, C8H10
Compound 24: methanol, CH4O
Compound 25: ethanol, C2H6O
Compound 26: 1-propanol, C3H8O
Compound 27: 1-butanol, C4H10O
Compound 28: 1-pentanol, C5H12O
Compound 29: thiophene, C4H4S
Compound 30: tetrahydrofuran, C4H8O
Compound 31: methyl tert-butyl ether, C5H12O
Compound 32: water, H2O
Compound 33: cycloheptane, C7H14

System: hexane + 1-butyl-3-methylimidazolium thiocyanate; phases: Liquid, Gas
Fixed: Mole fraction of hexane = 0
Property: Activity coefficient of hexane (Liquid); method: Chromatography
Temperature, K	Activity coefficient of hexane	uncertainty
298.15	226	6.78
308.15	189	5.67
318.15	167	5.01
328.15	143	4.29
338.15	126	3.78
348.15	108	3.24
358.15	100	3

System: heptane + 1-butyl-3-methylimidazolium thiocyanate; phases: Liquid, Gas
Fixed: Mole fraction of heptane = 0
Property: Activity coefficient of heptane (Liquid); method: Chromatography
Temperature, K	Activity coefficient of heptane	uncertainty
298.15	281	8.43
308.15	245	7.35
318.15	213	6.39
328.15	183	5.49
338.15	162	4.86
348.15	146	4.38
358.15	132	3.96

System: octane + 1-butyl-3-methylimidazolium thiocyanate; phases: Liquid, Gas
Fixed: Mole fraction of octane = 0
Property: Activity coefficient of octane (Liquid); method: Chromatography
Temperature, K	Activity coefficient of octane	uncertainty
298.15	350	10.5
308.15	311	9.33
318.15	279	8.37
328.15	243	7.29
338.15	218	6.54
348.15	198	5.94
358.15	180	5.4

System: nonane + 1-butyl-3-methylimidazolium thiocyanate; phases: Liquid, Gas
Fixed: Mole fraction of nonane = 0
Property: Activity coefficient of nonane (Liquid); method: Chromatography
Temperature, K	Activity coefficient of nonane	uncertainty
298.15	459	13.77
308.15	414	12.42
318.15	376	11.28
328.15	332	9.96
338.15	298	8.94
348.15	272	8.16
358.15	252	7.56

System: decane + 1-butyl-3-methylimidazolium thiocyanate; phases: Liquid, Gas
Fixed: Mole fraction of decane = 0
Property: Activity coefficient of decane (Liquid); method: Chromatography
Temperature, K	Activity coefficient of decane	uncertainty
298.15	628	18.84
308.15	581	17.43
318.15	533	15.99
328.15	470	14.1
338.15	426	12.78
348.15	386	11.58
358.15	351	10.53

System: cyclopentane + 1-butyl-3-methylimidazolium thiocyanate; phases: Liquid, Gas
Fixed: Mole fraction of cyclopentane = 0
Property: Activity coefficient of cyclopentane (Liquid); method: Chromatography
Temperature, K	Activity coefficient of cyclopentane	uncertainty
298.15	46.9	1.407
308.15	39.7	1.191
318.15	34.9	1.047
328.15	30	.9
338.15	26.8	.804
348.15	24.2	.726
358.15	23.1	.693

System: cyclohexane + 1-butyl-3-methylimidazolium thiocyanate; phases: Liquid, Gas
Fixed: Mole fraction of cyclohexane = 0
Property: Activity coefficient of cyclohexane (Liquid); method: Chromatography
Temperature, K	Activity coefficient of cyclohexane	uncertainty
298.15	62.3	1.869
308.15	53.5	1.605
318.15	47.1	1.413
328.15	41.1	1.233
338.15	36.8	1.104
348.15	33.5	1.005
358.15	31.1	.933

System: cycloheptane + 1-butyl-3-methylimidazolium thiocyanate; phases: Liquid, Gas
Fixed: Mole fraction of cycloheptane = 0
Property: Activity coefficient of cycloheptane (Liquid); method: Chromatography
Temperature, K	Activity coefficient of cycloheptane	uncertainty
298.15	56.6	1.698
308.15	51	1.53
318.15	46.5	1.395
328.15	42	1.26
338.15	38.9	1.167
348.15	36.1	1.083
358.15	33.7	1.011

System: cyclooctane + 1-butyl-3-methylimidazolium thiocyanate; phases: Liquid, Gas
Fixed: Mole fraction of cyclooctane = 0
Property: Activity coefficient of cyclooctane (Liquid); method: Chromatography
Temperature, K	Activity coefficient of cyclooctane	uncertainty
298.15	70	2.1
308.15	63.1	1.893
318.15	57.8	1.734
328.15	53.2	1.596
338.15	48.6	1.458
348.15	45	1.35
358.15	41.9	1.257

System: 1-pentene + 1-butyl-3-methylimidazolium thiocyanate; phases: Liquid, Gas
Fixed: Mole fraction of 1-pentene = 0
Property: Activity coefficient of 1-pentene (Liquid); method: Chromatography
Temperature, K	Activity coefficient of 1-pentene	uncertainty
298.15	52.3	1.569
308.15	46.4	1.392
318.15	41.5	1.245
328.15	35.4	1.062
338.15	32.6	.978
348.15	30.6	.918
358.15	27.6	.828

System: 1-hexene + 1-butyl-3-methylimidazolium thiocyanate; phases: Liquid, Gas
Fixed: Mole fraction of 1-hexene = 0
Property: Activity coefficient of 1-hexene (Liquid); method: Chromatography
Temperature, K	Activity coefficient of 1-hexene	uncertainty
298.15	61.6	1.848
308.15	54.8	1.644
318.15	50.2	1.506
328.15	44.9	1.347
338.15	41.4	1.242
348.15	38.3	1.149
358.15	36.4	1.092

System: 1-heptene + 1-butyl-3-methylimidazolium thiocyanate; phases: Liquid, Gas
Fixed: Mole fraction of 1-heptene = 0
Property: Activity coefficient of 1-heptene (Liquid); method: Chromatography
Temperature, K	Activity coefficient of 1-heptene	uncertainty
298.15	81.1	2.433
308.15	73.7	2.211
318.15	68.5	2.055
328.15	62.3	1.869
338.15	58	1.74
348.15	54.8	1.644
358.15	52.4	1.572

System: 1-octene + 1-butyl-3-methylimidazolium thiocyanate; phases: Liquid, Gas
Fixed: Mole fraction of 1-octene = 0
Property: Activity coefficient of 1-octene (Liquid); method: Chromatography
Temperature, K	Activity coefficient of 1-octene	uncertainty
298.15	111	3.33
308.15	102	3.06
318.15	96.3	2.889
328.15	88.1	2.643
338.15	82.5	2.475
348.15	77.6	2.328
358.15	73.8	2.214

System: 1-pentyne + 1-butyl-3-methylimidazolium thiocyanate; phases: Liquid, Gas
Fixed: Mole fraction of 1-pentyne = 0
Property: Activity coefficient of 1-pentyne (Liquid); method: Chromatography
Temperature, K	Activity coefficient of 1-pentyne	uncertainty
298.15	4.6	.138
308.15	4.68	.1404
318.15	4.71	.1413
328.15	4.73	.1419
338.15	4.79	.1437
348.15	4.85	.1455
358.15	4.97	.1491

System: 1-hexyne + 1-butyl-3-methylimidazolium thiocyanate; phases: Liquid, Gas
Fixed: Mole fraction of 1-hexyne = 0
Property: Activity coefficient of 1-hexyne (Liquid); method: Chromatography
Temperature, K	Activity coefficient of 1-hexyne	uncertainty
298.15	6.42	.1926
308.15	6.45	.1935
318.15	6.59	.1977
328.15	6.65	.1995
338.15	6.76	.2028
348.15	6.87	.2061
358.15	6.95	.2085

System: 1-heptyne + 1-butyl-3-methylimidazolium thiocyanate; phases: Liquid, Gas
Fixed: Mole fraction of 1-heptyne = 0
Property: Activity coefficient of 1-heptyne (Liquid); method: Chromatography
Temperature, K	Activity coefficient of 1-heptyne	uncertainty
298.15	9.88	.2964
308.15	9.92	.2976
318.15	10.09	.3027
328.15	10.23	.3069
338.15	10.24	.3072
348.15	10.32	.3096
358.15	10.42	.3126

System: 1-octyne + 1-butyl-3-methylimidazolium thiocyanate; phases: Liquid, Gas
Fixed: Mole fraction of 1-octyne = 0
Property: Activity coefficient of 1-octyne (Liquid); method: Chromatography
Temperature, K	Activity coefficient of 1-octyne	uncertainty
298.15	15.2	.456
308.15	15.1	.453
318.15	15.4	.462
328.15	15.3	.459
338.15	15.3	.459
348.15	15.3	.459
358.15	15.3	.459

System: benzene + 1-butyl-3-methylimidazolium thiocyanate; phases: Liquid, Gas
Fixed: Mole fraction of benzene = 0
Property: Activity coefficient of benzene (Liquid); method: Chromatography
Temperature, K	Activity coefficient of benzene	uncertainty
298.15	2.13	.0639
308.15	2.15	.0645
318.15	2.17	.0651
328.15	2.18	.0654
338.15	2.2	.066
348.15	2.22	.0666
358.15	2.25	.0675
368.15	2.27	.0681

System: toluene + 1-butyl-3-methylimidazolium thiocyanate; phases: Liquid, Gas
Fixed: Mole fraction of toluene = 0
Property: Activity coefficient of toluene (Liquid); method: Chromatography
Temperature, K	Activity coefficient of toluene	uncertainty
298.15	3.4	.102
308.15	3.48	.1044
318.15	3.52	.1056
328.15	3.53	.1059
338.15	3.55	.1065
348.15	3.59	.1077
358.15	3.62	.1086
368.15	3.65	.1095

System: ethylbenzene + 1-butyl-3-methylimidazolium thiocyanate; phases: Liquid, Gas
Fixed: Mole fraction of ethylbenzene = 0
Property: Activity coefficient of ethylbenzene (Liquid); method: Chromatography
Temperature, K	Activity coefficient of ethylbenzene	uncertainty
298.15	5.86	.1758
308.15	5.9	.177
318.15	5.93	.1779
328.15	5.86	.1758
338.15	5.93	.1779
348.15	5.83	.1749
358.15	5.82	.1746
368.15	5.81	.1743

System: 1,2-dimethylbenzene + 1-butyl-3-methylimidazolium thiocyanate; phases: Liquid, Gas
Fixed: Mole fraction of 1,2-dimethylbenzene = 0
Property: Activity coefficient of 1,2-dimethylbenzene (Liquid); method: Chromatography
Temperature, K	Activity coefficient of 1,2-dimethylbenzene	uncertainty
298.15	4.58	.1374
308.15	4.64	.1392
318.15	4.71	.1413
328.15	4.69	.1407
338.15	4.71	.1413
348.15	4.75	.1425
358.15	4.78	.1434
368.15	4.81	.1443

System: 1,3-dimethylbenzene + 1-butyl-3-methylimidazolium thiocyanate; phases: Liquid, Gas
Fixed: Mole fraction of 1,3-dimethylbenzene = 0
Property: Activity coefficient of 1,3-dimethylbenzene (Liquid); method: Chromatography
Temperature, K	Activity coefficient of 1,3-dimethylbenzene	uncertainty
298.15	5.92	.1776
308.15	5.91	.1773
318.15	5.98	.1794
328.15	5.96	.1788
338.15	5.96	.1788
348.15	5.97	.1791
358.15	5.99	.1797
368.15	5.96	.1788

System: 1,4-dimethylbenzene + 1-butyl-3-methylimidazolium thiocyanate; phases: Liquid, Gas
Fixed: Mole fraction of 1,4-dimethylbenzene = 0
Property: Activity coefficient of 1,4-dimethylbenzene (Liquid); method: Chromatography
Temperature, K	Activity coefficient of 1,4-dimethylbenzene	uncertainty
298.15	5.51	.1653
308.15	5.54	.1662
318.15	5.59	.1677
328.15	5.6	.168
338.15	5.63	.1689
348.15	5.68	.1704
358.15	5.72	.1716
368.15	5.75	.1725

System: methanol + 1-butyl-3-methylimidazolium thiocyanate; phases: Liquid, Gas
Fixed: Mole fraction of methanol = 0
Property: Activity coefficient of methanol (Liquid); method: Chromatography
Temperature, K	Activity coefficient of methanol	uncertainty
298.15	.416	.01248
308.15	.396	.01188
318.15	.396	.01188
328.15	.391	.01173
338.15	.387	.01161
348.15	.386	.01158
358.15	.383	.01149
368.15	.382	.01146

System: ethanol + 1-butyl-3-methylimidazolium thiocyanate; phases: Liquid, Gas
Fixed: Mole fraction of ethanol = 0
Property: Activity coefficient of ethanol (Liquid); method: Chromatography
Temperature, K	Activity coefficient of ethanol	uncertainty
298.15	.743	.02229
308.15	.709	.02127
318.15	.69	.0207
328.15	.671	.02013
338.15	.655	.01965
348.15	.643	.01929
358.15	.631	.01893
368.15	.623	.01869

System: 1-propanol + 1-butyl-3-methylimidazolium thiocyanate; phases: Liquid, Gas
Fixed: Mole fraction of 1-propanol = 0
Property: Activity coefficient of 1-propanol (Liquid); method: Chromatography
Temperature, K	Activity coefficient of 1-propanol	uncertainty
308.15	.93	.0279
318.15	.9	.027
328.15	.87	.0261
338.15	.84	.0252
348.15	.83	.0249
358.15	.81	.0243
368.15	.8	.024

System: 1-butanol + 1-butyl-3-methylimidazolium thiocyanate; phases: Liquid, Fluid (supercritical or subcritical phases)
Fixed: Mole fraction of 1-butanol = 0
Property: Activity coefficient of 1-butanol (Liquid); method: Chromatography
Temperature, K	Activity coefficient of 1-butanol	uncertainty
308.15	1.32	.0396
318.15	1.25	.0375
328.15	1.21	.0363
338.15	1.16	.0348
348.15	1.13	.0339
358.15	1.1	.033
368.15	1.08	.0324

System: 1-pentanol + 1-butyl-3-methylimidazolium thiocyanate; phases: Liquid, Gas
Fixed: Mole fraction of 1-pentanol = 0
Property: Activity coefficient of 1-pentanol (Liquid); method: Chromatography
Temperature, K	Activity coefficient of 1-pentanol	uncertainty
318.15	1.62	.0486
328.15	1.54	.0462
338.15	1.5	.045
348.15	1.47	.0441
358.15	1.45	.0435
368.15	1.44	.0432

System: thiophene + 1-butyl-3-methylimidazolium thiocyanate; phases: Liquid, Gas
Fixed: Mole fraction of thiophene = 0
Property: Activity coefficient of thiophene (Liquid); method: Chromatography
Temperature, K	Activity coefficient of thiophene	uncertainty
298.15	1.214	.03642
308.15	1.241	.03723
318.15	1.256	.03768
328.15	1.269	.03807
338.15	1.294	.03882
348.15	1.317	.03951
358.15	1.331	.03993
368.15	1.361	.04083

System: tetrahydrofuran + 1-butyl-3-methylimidazolium thiocyanate; phases: Liquid, Gas
Fixed: Mole fraction of tetrahydrofuran = 0
Property: Activity coefficient of tetrahydrofuran (Liquid); method: Chromatography
Temperature, K	Activity coefficient of tetrahydrofuran	uncertainty
298.15	1.998	.05994
308.15	1.982	.05946
318.15	1.988	.05964
328.15	1.986	.05958
338.15	1.987	.05961
348.15	1.987	.05961
358.15	1.99	.0597
368.15	2.007	.06021

System: methyl tert-butyl ether + 1-butyl-3-methylimidazolium thiocyanate; phases: Liquid, Gas
Fixed: Mole fraction of methyl tert-butyl ether = 0
Property: Activity coefficient of methyl tert-butyl ether (Liquid); method: Chromatography
Temperature, K	Activity coefficient of methyl tert-butyl ether	uncertainty
298.15	12.841	.38523
308.15	12.385	.37155
318.15	11.926	.35778
328.15	11.391	.34173
338.15	11.095	.33285
348.15	10.748	.32244
358.15	10.593	.31779

System: water + 1-butyl-3-methylimidazolium thiocyanate; phases: Liquid, Gas
Fixed: Mole fraction of water = 0
Property: Activity coefficient of water (Liquid); method: Chromatography
Temperature, K	Activity coefficient of water	uncertainty
328.15	.273	.00819
338.15	.275	.00825
348.15	.277	.00831
358.15	.279	.00837
368.15	.281	.00843
