Measured thermophysical data. Revisiting dibenzothiophene thermochemical data: Experimental and  computational studies
Source: J. Chem. Thermodyn., 2009, 10.1016/j.jct.2009.05.019
Compound 1: dibenzothiophene, C12H8S, purity 99%
Compound 2: sulfuric acid, H2O4S
Compound 3: carbon dioxide, CO2
Compound 4: water, H2O
Compound 5: oxygen, O2

System: dibenzothiophene; phases: Crystal, Gas
Property: Molar enthalpy of vaporization or sublimation, kJ/mol (Crystal); method: Calvet microcalorimetry
Temperature, K	Molar enthalpy of vaporization or sublimation, kJ/mol	uncertainty
298.15	93.2	.5

System: dibenzothiophene; phases: Crystal, Gas
Property: Molar enthalpy, kJ/mol (Crystal); method: Drop calorimetry
Temperature, K	Molar enthalpy, kJ/mol	uncertainty
365.4	106.4	.4

Reaction: -1 dibenzothiophene + 1 sulfuric acid + 12 carbon dioxide + 3 water + -15.5 oxygen
Property: Specific internal energy of reaction at constant volume, J/g
-35694
