Measured thermophysical data. Thermodynamic models for determination of solid liquid equilibrium of the 6-benzyladenine in pure and binary organic solvents
Source: J. Chem. Thermodyn., 2017, 10.1016/j.jct.2016.12.002
Compound 1: 6-benzyladenine, C12H11N5, purity 99.0%
Compound 2: methanol, CH4O, purity 99.5%
Compound 3: ethanol, C2H6O, purity 99.7%
Compound 4: 1-butanol, C4H10O, purity 99.0%
Compound 5: acetone, C3H6O, purity 99.5%
Compound 6: acetonitrile, C2H3N, purity 99.9%
Compound 7: ethyl acetate, C4H8O2, purity 99.7%
Compound 8: dimethylformamide, C3H7NO, purity 99.5%
Compound 9: tetrahydrofuran, C4H8O, purity 99.0%

System: 6-benzyladenine; phases: Crystal, Liquid, Air at 1 atmosphere
Property: Normal melting temperature, K (Crystal); method: Visual observation
Normal melting temperature, K	uncertainty
503.15	

System: methanol + 6-benzyladenine; phases: Liquid, Crystal
Fixed: Pressure, kPa = 100
Property: Mole fraction of 6-benzyladenine (Liquid); method: gravimetric method
Temperature, K	Mole fraction of 6-benzyladenine	uncertainty
278.15	.0007326	
283.15	.0007955	
288.15	.0008685	
293.15	.0009413	
298.15	.001129	
303.15	.00128	
308.15	.001461	
313.15	.001661	
318.15	.00194	
323.15	.002284	
328.15	.002676	
333.15	.003189	

System: ethanol + 6-benzyladenine; phases: Liquid, Crystal
Fixed: Pressure, kPa = 100
Property: Mole fraction of 6-benzyladenine (Liquid); method: gravimetric method
Temperature, K	Mole fraction of 6-benzyladenine	uncertainty
278.15	.0006867	
283.15	.0007449	
288.15	.000833	
293.15	.0009388	
298.15	.001058	
303.15	.001193	
308.15	.001313	
313.15	.001441	
318.15	.001612	
323.15	.001832	
328.15	.002049	
333.15	.002327	

System: 1-butanol + 6-benzyladenine; phases: Liquid, Crystal
Fixed: Pressure, kPa = 100
Property: Mole fraction of 6-benzyladenine (Liquid); method: gravimetric method
Temperature, K	Mole fraction of 6-benzyladenine	uncertainty
278.15	.0001406	
283.15	.0001657	
288.15	.0001966	
293.15	.0002216	
298.15	.0002606	
303.15	.0003024	
308.15	.0003476	
313.15	.0004181	
318.15	.0004866	
323.15	.0005688	
328.15	.0006629	
333.15	.0007968	

System: acetone + 6-benzyladenine; phases: Liquid, Crystal
Fixed: Pressure, kPa = 100
Property: Mole fraction of 6-benzyladenine (Liquid); method: gravimetric method
Temperature, K	Mole fraction of 6-benzyladenine	uncertainty
278.15	.0006089	
283.15	.0006799	
288.15	.0007744	
293.15	.0008762	
298.15	.0009948	
303.15	.001133	
308.15	.001295	
313.15	.001497	
318.15	.001719	
323.15	.00197	
328.15	.002244	
333.15	.002544	

System: acetonitrile + 6-benzyladenine; phases: Liquid, Crystal
Fixed: Pressure, kPa = 100
Property: Mole fraction of 6-benzyladenine (Liquid); method: gravimetric method
Temperature, K	Mole fraction of 6-benzyladenine	uncertainty
278.15	.0004889	
283.15	.0005652	
288.15	.0006566	
293.15	.0007628	
298.15	.0008827	
303.15	.001014	
308.15	.001163	
313.15	.001325	
318.15	.001499	
323.15	.001703	
328.15	.001933	
333.15	.002194	

System: ethyl acetate + 6-benzyladenine; phases: Liquid, Crystal
Fixed: Pressure, kPa = 100
Property: Mole fraction of 6-benzyladenine (Liquid); method: gravimetric method
Temperature, K	Mole fraction of 6-benzyladenine	uncertainty
278.15	.0004547	
283.15	.0004995	
288.15	.0005508	
293.15	.0006158	
298.15	.0006932	
303.15	.0007889	
308.15	.0008863	
313.15	.001008	
318.15	.001156	
323.15	.00133	
328.15	.001562	
333.15	.001836	

System: dimethylformamide + 6-benzyladenine; phases: Liquid, Crystal
Fixed: Pressure, kPa = 100
Property: Mole fraction of 6-benzyladenine (Liquid); method: gravimetric method
Temperature, K	Mole fraction of 6-benzyladenine	uncertainty
278.15	.002417	
283.15	.002926	
288.15	.003513	
293.15	.004243	
298.15	.005011	
303.15	.006067	
308.15	.007241	
313.15	.008658	
318.15	.01024	
323.15	.01208	
328.15	.01418	
333.15	.01669	

System: tetrahydrofuran + 6-benzyladenine; phases: Liquid, Crystal
Fixed: Pressure, kPa = 100
Property: Mole fraction of 6-benzyladenine (Liquid); method: gravimetric method
Temperature, K	Mole fraction of 6-benzyladenine	uncertainty
278.15	.00088	
283.15	.001041	
288.15	.001234	
293.15	.001458	
298.15	.001783	
303.15	.002099	
308.15	.002446	
313.15	.002945	
318.15	.003527	
323.15	.004246	
328.15	.005056	
333.15	.005931	

System: acetone + dimethylformamide + 6-benzyladenine; phases: Liquid, Crystal
Fixed: Pressure, kPa = 100
Property: Mole fraction of 6-benzyladenine (Liquid); method: gravimetric method
Temperature, K	Solvent: Mole fraction of dimethylformamide	Mole fraction of 6-benzyladenine	uncertainty
278.15	0	.0006089	
278.15	.1436	.000844	
278.15	.2895	.001097	
278.15	.4375	.001386	
278.15	.5878	.001658	
278.15	.7404	.001947	
278.15	.8953	.002218	
278.15	1	.002417	
283.15	0	.0006799	
283.15	.1436	.0009719	
283.15	.2895	.001286	
283.15	.4375	.001646	
283.15	.5878	.001983	
283.15	.7404	.002342	
283.15	.8953	.002679	
283.15	1	.002926	
288.15	0	.0007744	
288.15	.1436	.00113	
288.15	.2895	.001514	
288.15	.4375	.001952	
288.15	.5878	.002363	
288.15	.7404	.002801	
288.15	.8953	.003212	
288.15	1	.003513	
293.15	0	.0008762	
293.15	.1436	.001314	
293.15	.2895	.001785	
293.15	.4375	.002324	
293.15	.5878	.002829	
293.15	.7404	.003368	
293.15	.8953	.003873	
293.15	1	.004243	
298.15	0	.0009948	
298.15	.1436	.001517	
298.15	.2895	.002079	
298.15	.4375	.002722	
298.15	.5878	.003324	
298.15	.7404	.003967	
298.15	.8953	.004569	
298.15	1	.005011	
303.15	0	.001133	
303.15	.1436	.001774	
303.15	.2895	.002465	
303.15	.4375	.003255	
303.15	.5878	.003995	
303.15	.7404	.004784	
303.15	.8953	.005524	
303.15	1	.006067	
308.15	0	.001295	
308.15	.1436	.002068	
308.15	.2895	.0029	
308.15	.4375	.003852	
308.15	.5878	.004743	
308.15	.7404	.005695	
308.15	.8953	.006587	
308.15	1	.007241	
313.15	0	.001497	
313.15	.1436	.002428	
313.15	.2895	.003431	
313.15	.4375	.004577	
313.15	.5878	.005651	
313.15	.7404	.006797	
313.15	.8953	.007871	
313.15	1	.008658	
318.15	0	.001719	
318.15	.1436	.002827	
318.15	.2895	.004021	
318.15	.4375	.005385	
318.15	.5878	.006664	
318.15	.7404	.008028	
318.15	.8953	.009307	
318.15	1	.01024	
323.15	0	.00197	
323.15	.1436	.003284	
323.15	.2895	.004699	
323.15	.4375	.006316	
323.15	.5878	.007833	
323.15	.7404	.00945	
323.15	.8953	.01097	
323.15	1	.01208	
328.15	0	.002244	
328.15	.1436	.003795	
328.15	.2895	.005466	
328.15	.4375	.007375	
328.15	.5878	.009165	
328.15	.7404	.01107	
328.15	.8953	.01286	
328.15	1	.01418	
333.15	0	.002544	
333.15	.1436	.004383	
333.15	.2895	.006363	
333.15	.4375	.008626	
333.15	.5878	.01075	
333.15	.7404	.01301	
333.15	.8953	.01513	
333.15	1	.01669	
