Measured thermophysical data. (Solid + liquid) phase equilibrium for the ternary system (NaCl + NaH2PO4 + H2O) at T = (298.15 and 313.15) K and atmospheric pressure
Source: J. Chem. Thermodyn., 2014, 10.1016/j.jct.2014.05.011
Compound 1: water, H2O, purity 99%
Compound 2: sodium chloride, ClNa, purity 99.5%
Compound 3: sodium dihydrogen phosphate anhydrous, H2NaO4P, purity 99%

System: sodium dihydrogen phosphate anhydrous + sodium chloride + water; phases: Liquid, Crystal
Fixed: Pressure, kPa = 101.32
Property: Mass fraction of sodium dihydrogen phosphate anhydrous (Liquid); method: quinoline phosphomolybdate gravimetric method
Temperature, K	Mass fraction of sodium chloride	Mass fraction of sodium dihydrogen phosphate anhydrous	uncertainty
298.15	.2626	0	0
298.15	.2344	.0293	.000293
298.15	.2296	.0562	.000562
298.15	.2079	.1001	.001001
298.15	.1854	.1498	.001498
313.15	.268	0	0
313.15	.2484	.0353	.000353
313.15	.208	.1248	.001248
313.15	.1832	.1963	.001963
313.15	.1483	.2608	.002608
313.15	.133	.3191	.003191
313.15	.1028	.3675	.003675

System: sodium dihydrogen phosphate anhydrous + sodium chloride + water; phases: Liquid, Crystal of intercomponent compound 1
Fixed: Pressure, kPa = 101.32
Property: Mass fraction of sodium dihydrogen phosphate anhydrous (Liquid); method: quinoline phosphomolybdate gravimetric method
Temperature, K	Mass fraction of sodium chloride	Mass fraction of sodium dihydrogen phosphate anhydrous	uncertainty
298.15	.0953	.3277	.003277
298.15	.0686	.3792	.003792
298.15	.0293	.4374	.004374
298.15	0	.4863	.004863
313.15	.0679	.4521	.004521
313.15	.0299	.515	.00515
313.15	.0126	.5454	.005454
313.15	0	.5892	.005892

System: sodium dihydrogen phosphate anhydrous + sodium chloride + water; phases: Liquid, Crystal of intercomponent compound 1, Crystal
Fixed: Pressure, kPa = 101.32
Property: Mass fraction of sodium chloride (Liquid); method: Titration method
Temperature, K	Mass fraction of sodium chloride	uncertainty
298.15	.1537	.007685
313.15	.0842	.00421

System: sodium dihydrogen phosphate anhydrous + sodium chloride + water; phases: Liquid, Crystal of intercomponent compound 1, Crystal
Fixed: Pressure, kPa = 101.32
Property: Mass fraction of sodium dihydrogen phosphate anhydrous (Liquid); method: quinoline phosphomolybdate gravimetric method
Temperature, K	Mass fraction of sodium dihydrogen phosphate anhydrous	uncertainty
298.15	.2577	.002577
313.15	.4163	.004163

System: sodium dihydrogen phosphate anhydrous + sodium chloride + water; phases: Liquid
Fixed: Pressure, kPa = 101.32
Property: Mass density, kg/m3 (Liquid); method: Pycnometric method
Temperature, K	Mass fraction of sodium chloride	Mass fraction of sodium dihydrogen phosphate anhydrous	Mass density, kg/m3	uncertainty
298.15	.2626	0	1197	5.985
298.15	.2344	.0293	1213.2	6.066
298.15	.2296	.0562	1225.1	6.1255
298.15	.2079	.1001	1253	6.265
298.15	.1854	.1498	1285.4	6.427
298.15	.1556	.2601	1339.7	6.6985
298.15	.1536	.258	1335.9	6.6795
298.15	.1519	.2549	1336	6.68
298.15	.0953	.3277	1362.3	6.8115
298.15	.0686	.3792	1383.2	6.916
298.15	.0293	.4374	1414.4	7.072
298.15	0	.4863	1446.2	7.231
313.15	.268	0	1189.1	5.9455
313.15	.2484	.0353	1209.5	6.0475
313.15	.208	.1248	1257.9	6.2895
313.15	.1832	.1963	1297	6.485
313.15	.1483	.2608	1334.9	6.6745
313.15	.133	.3191	1387.2	6.936
313.15	.1028	.3675	1397.8	6.989
313.15	.0864	.4151	1443.6	7.218
313.15	.0852	.4161	1444	7.22
313.15	.081	.4178	1443.4	7.217
313.15	.0679	.4521	1479.4	7.397
313.15	.0299	.515	1515.8	7.579
313.15	.0126	.5454	1535.2	7.676
313.15	0	.5892	1553	7.765

System: sodium dihydrogen phosphate anhydrous + sodium chloride + water; phases: Liquid
Fixed: Pressure, kPa = 101.32
Property: Viscosity, Pa*s (Liquid); method: Capillary tube (Ostwald; Ubbelohde) method
Temperature, K	Mass fraction of sodium chloride	Mass fraction of sodium dihydrogen phosphate anhydrous	Viscosity, Pa*s	uncertainty
298.15	.2626	0	.001633	.00008165
298.15	.2344	.0293	.0014937	.000074685
298.15	.2296	.0562	.0020798	.00010399
298.15	.2079	.1001	.0025043	.000125215
298.15	.1854	.1498	.0033475	.000167375
298.15	.1556	.2601	.005451	.00027255
298.15	.1536	.258	.0055979	.000279895
298.15	.1519	.2549	.0055219	.000276095
298.15	.0953	.3277	.0080536	.00040268
298.15	.0686	.3792	.0096295	.000481475
298.15	.0293	.4374	.0111468	.00055734
298.15	0	.4863	.020437	.00102185
313.15	.268	0	.0012807	.000064035
313.15	.2484	.0353	.0014661	.000073305
313.15	.208	.1248	.0019808	.00009904
313.15	.1832	.1963	.0023788	.00011894
313.15	.1483	.2608	.0035085	.000175425
313.15	.133	.3191	.0063421	.000317105
313.15	.1028	.3675	.0072281	.000361405
313.15	.0864	.4151	.0101977	.000509885
313.15	.0852	.4161	.0102159	.000510795
313.15	.081	.4178	.0102929	.000514645
313.15	.0679	.4521	.0123606	.00061803
313.15	.0299	.515	.0185452	.00092726
313.15	.0126	.5454	.0238325	.001191625
313.15	0	.5892	.0285933	.001429665

System: sodium dihydrogen phosphate anhydrous + sodium chloride + water; phases: Liquid
Fixed: Pressure, kPa = 101.32
Property: Refractive index (Na D-line) (Liquid); method: Standard Abbe refractometry
Temperature, K	Mass fraction of sodium chloride	Mass fraction of sodium dihydrogen phosphate anhydrous	Refractive index (Na D-line)	uncertainty
298.15	.2626	0	1.3794	.00027588
298.15	.2344	.0293	1.3811	.00027622
298.15	.2296	.0562	1.3824	.00027648
298.15	.2079	.1001	1.3855	.0002771
298.15	.1854	.1498	1.3884	.00027768
298.15	.1556	.2601	1.3922	.00027844
298.15	.1536	.258	1.3927	.00027854
298.15	.1519	.2549	1.3924	.00027848
298.15	.0953	.3277	1.394	.0002788
298.15	.0686	.3792	1.3952	.00027904
298.15	.0293	.4374	1.396	.0002792
298.15	0	.4863	1.3996	.00027992
313.15	.268	0	1.3782	.00027564
313.15	.2484	.0353	1.3812	.00027624
313.15	.208	.1248	1.3862	.00027724
313.15	.1832	.1963	1.3893	.00027786
313.15	.1483	.2608	1.3943	.00027886
313.15	.133	.3191	1.3958	.00027916
313.15	.1028	.3675	1.4004	.00028008
313.15	.0864	.4151	1.4048	.00028096
313.15	.0852	.4161	1.4052	.00028104
313.15	.081	.4178	1.4055	.0002811
313.15	.0679	.4521	1.408	.0002816
313.15	.0299	.515	1.4112	.00028224
313.15	.0126	.5454	1.4114	.00028228
313.15	0	.5892	1.4134	.00028268

System: sodium chloride + water; phases: Liquid, Crystal
Property: Mass fraction of sodium chloride (Liquid); method: Titration method
Temperature, K	Pressure, kPa	Mass fraction of sodium chloride	uncertainty
298.15	101.32	.2626	.01313
313.15	101.32	.268	.0134

System: sodium chloride + water; phases: Liquid
Property: Mass density, kg/m3 (Liquid); method: Pycnometric method
Temperature, K	Mass fraction of sodium chloride	Pressure, kPa	Mass density, kg/m3	uncertainty
298.15	.2626	101.32	1197	5.985
313.15	.268	101.32	1189.1	5.9455

System: sodium chloride + water; phases: Liquid
Property: Viscosity, Pa*s (Liquid); method: Capillary tube (Ostwald; Ubbelohde) method
Temperature, K	Mass fraction of sodium chloride	Pressure, kPa	Viscosity, Pa*s	uncertainty
298.15	.2626	101.32	.001633	.00008165
313.15	.268	101.32	.0012807	.000064035

System: sodium chloride + water; phases: Liquid
Property: Refractive index (Na D-line) (Liquid); method: Standard Abbe refractometry
Temperature, K	Mass fraction of sodium chloride	Pressure, kPa	Refractive index (Na D-line)	uncertainty
298.15	.2626	101.32	1.3794	.00027588
313.15	.268	101.32	1.3782	.00027564

System: sodium dihydrogen phosphate anhydrous + water; phases: Liquid, Crystal of intercomponent compound 1
Property: Mass fraction of sodium dihydrogen phosphate anhydrous (Liquid); method: quinoline phosphomolybdate gravimetric method
Temperature, K	Pressure, kPa	Mass fraction of sodium dihydrogen phosphate anhydrous	uncertainty
298.15	101.32	.4863	.004863
313.15	101.32	.5892	.005892

System: sodium dihydrogen phosphate anhydrous + water; phases: Liquid
Property: Mass density, kg/m3 (Liquid); method: Pycnometric method
Temperature, K	Mass fraction of sodium dihydrogen phosphate anhydrous	Pressure, kPa	Mass density, kg/m3	uncertainty
298.15	.4863	101.32	1446.2	7.231
313.15	.5892	101.32	1553	7.765

System: sodium dihydrogen phosphate anhydrous + water; phases: Liquid
Property: Viscosity, Pa*s (Liquid); method: Capillary tube (Ostwald; Ubbelohde) method
Temperature, K	Mass fraction of sodium dihydrogen phosphate anhydrous	Pressure, kPa	Viscosity, Pa*s	uncertainty
298.15	.4863	101.32	.020437	.00102185
313.15	.5892	101.32	.0285933	.001429665

System: sodium dihydrogen phosphate anhydrous + water; phases: Liquid
Property: Refractive index (Na D-line) (Liquid); method: Standard Abbe refractometry
Temperature, K	Mass fraction of sodium dihydrogen phosphate anhydrous	Pressure, kPa	Refractive index (Na D-line)	uncertainty
298.15	.4863	101.32	1.3996	.00027992
313.15	.5892	101.32	1.4134	.00028268
