Measured thermophysical data. Physicochemical study of solute-solute and solute-solvent interactions of aqueous binary mixtures of L-alanine methyl ester hydrochloride and L-valine methyl ester hydrochloride at different temperatures: Volumetric and compressional studies
Source: J. Chem. Thermodyn., 2017, 10.1016/j.jct.2016.10.016
Compound 1: methyl L-alaninate hydrochloride, C4H10ClNO2, purity 99%
Compound 2: methyl L-valinate hydrochloride, C6H14ClNO2, purity 99%
Compound 3: water, H2O

System: methyl L-alaninate hydrochloride + water; phases: Liquid
Fixed: Pressure, kPa = 101.3
Fixed: Temperature, K = 278.15
Property: Mass density, kg/m3 (Liquid); method: Pycnometric method
Molality, mol/kg of methyl L-alaninate hydrochloride	Mass density, kg/m3	uncertainty
0	999.96	
.0501	1001.79	
.0614	1002.2	
.0701	1002.52	
.082	1002.95	
.091	1003.28	
.1004	1003.62	
.1099	1003.97	
.1219	1004.4	
.1296	1004.68	
.1411	1005.1	
.1515	1005.48	
.1618	1005.86	

System: methyl L-alaninate hydrochloride + water; phases: Liquid
Fixed: Pressure, kPa = 101.3
Property: Mass density, kg/m3 (Liquid); method: Vibrating tube method
Temperature, K	Molality, mol/kg of methyl L-alaninate hydrochloride	Mass density, kg/m3	uncertainty
288.15	0	999.1	
288.15	.0502	1000.8	
288.15	.0601	1001.13	
288.15	.07	1001.47	
288.15	.0801	1001.8	
288.15	.0901	1002.14	
288.15	.1003	1002.49	
288.15	.1101	1002.82	
288.15	.1202	1003.16	
288.15	.13	1003.49	
288.15	.1401	1003.83	
288.15	.1504	1004.18	
288.15	.1603	1004.51	
298.15	0	997.05	
298.15	.0486	998.75	
298.15	.0601	999.01	
298.15	.0697	999.32	
298.15	.0819	999.68	
298.15	.0899	999.97	
298.15	.0963	1000.19	
298.15	.11	1000.61	
298.15	.1184	1000.89	
298.15	.1302	1001.2	
298.15	.1401	1001.54	
298.15	.1507	1001.93	
298.15	.1601	1002.17	

System: methyl L-alaninate hydrochloride + water; phases: Liquid
Fixed: Pressure, kPa = 101.3
Fixed: Temperature, K = 278.15
Fixed: Frequency, MHz = 2
Property: Speed of sound, m/s (Liquid); method: Linear variable-path acoustic interferometer
Molality, mol/kg of methyl L-alaninate hydrochloride	Speed of sound, m/s	uncertainty
0	1426.2	
.0501	1432	
.0614	1432.9	
.0701	1433.8	
.082	1435.4	
.091	1437.2	
.1004	1437.6	
.1099	1438.9	
.1219	1440	
.1296	1441.4	
.1411	1442.6	
.1515	1443.6	
.1618	1444.4	

System: methyl L-alaninate hydrochloride + water; phases: Liquid
Fixed: Pressure, kPa = 101.3
Fixed: Frequency, MHz = 3
Property: Speed of sound, m/s (Liquid); method: Sing-around technique in a fixed-path interferometer
Temperature, K	Molality, mol/kg of methyl L-alaninate hydrochloride	Speed of sound, m/s	uncertainty
288.15	0	1465.9	
288.15	.0502	1470.7	
288.15	.0601	1471.8	
288.15	.07	1473.1	
288.15	.0801	1474.1	
288.15	.0901	1475.2	
288.15	.1003	1476.3	
288.15	.1101	1477.1	
288.15	.1202	1477.8	
288.15	.13	1478.9	
288.15	.1401	1480	
288.15	.1504	1481.1	
288.15	.1603	1482.2	
298.15	0	1496.7	
298.15	.0486	1500.6	
298.15	.0601	1502.2	
298.15	.0697	1503	
298.15	.0819	1503.6	
298.15	.0899	1504.7	
298.15	.0963	1505.2	
298.15	.11	1506.4	
298.15	.1184	1507.1	
298.15	.1302	1508	
298.15	.1401	1508.9	
298.15	.1507	1509.8	
298.15	.1601	1510.3	

System: methyl L-valinate hydrochloride + water; phases: Liquid
Fixed: Pressure, kPa = 101.3
Fixed: Temperature, K = 278.15
Property: Mass density, kg/m3 (Liquid); method: Pycnometric method
Molality, mol/kg of methyl L-valinate hydrochloride	Mass density, kg/m3	uncertainty
0	999.96	
.0389	1001.17	
.0499	1001.51	
.0592	1001.8	
.0705	1002.15	
.0811	1002.48	
.0888	1002.72	
.1015	1003.1	
.1094	1003.35	
.1204	1003.7	
.1307	1004	
.1428	1004.38	
.1528	1004.7	

System: methyl L-valinate hydrochloride + water; phases: Liquid
Fixed: Pressure, kPa = 101.3
Property: Mass density, kg/m3 (Liquid); method: Vibrating tube method
Temperature, K	Molality, mol/kg of methyl L-valinate hydrochloride	Mass density, kg/m3	uncertainty
288.15	0	999.1	
288.15	.0507	1000.66	
288.15	.0607	1000.96	
288.15	.0699	1001.25	
288.15	.0798	1001.55	
288.15	.09	1001.87	
288.15	.0999	1002.17	
288.15	.1099	1002.46	
288.15	.1201	1002.78	
288.15	.1295	1003.07	
288.15	.1399	1003.4	
288.15	.1497	1003.7	
288.15	.16	1004	
298.15	0	997.05	
298.15	.0405	998.23	
298.15	.0504	998.52	
298.15	.06	998.78	
298.15	.0703	999.08	
298.15	.0804	999.37	
298.15	.0903	999.66	
298.15	.1001	999.92	
298.15	.1103	1000.24	
298.15	.12	1000.51	
298.15	.1305	1000.78	
298.15	.1401	1001.06	
298.15	.1514	1001.39	

System: methyl L-valinate hydrochloride + water; phases: Liquid
Fixed: Pressure, kPa = 101.3
Fixed: Temperature, K = 278.15
Fixed: Frequency, MHz = 2
Property: Speed of sound, m/s (Liquid); method: Linear variable-path acoustic interferometer
Molality, mol/kg of methyl L-valinate hydrochloride	Speed of sound, m/s	uncertainty
0	1426.2	
.0389	1431.7	
.0499	1433.3	
.0592	1434.2	
.0705	1436.3	
.0811	1437.4	
.0888	1438.7	
.1015	1441.1	
.1094	1441.3	
.1204	1443.8	
.1307	1445.3	
.1428	1446.5	
.1528	1448	

System: methyl L-valinate hydrochloride + water; phases: Liquid
Fixed: Pressure, kPa = 101.3
Fixed: Frequency, MHz = 3
Property: Speed of sound, m/s (Liquid); method: Sing-around technique in a fixed-path interferometer
Temperature, K	Molality, mol/kg of methyl L-valinate hydrochloride	Speed of sound, m/s	uncertainty
288.15	0	1465.9	
288.15	.0507	1472.3	
288.15	.0607	1473.5	
288.15	.0699	1474.5	
288.15	.0798	1475.7	
288.15	.09	1476.9	
288.15	.0999	1478.3	
288.15	.1099	1479.2	
288.15	.1201	1480.4	
288.15	.1295	1481.6	
288.15	.1399	1482.8	
288.15	.1497	1484.3	
288.15	.16	1485.9	
298.15	0	1496.7	
298.15	.0405	1501.4	
298.15	.0504	1502.5	
298.15	.06	1503.7	
298.15	.0703	1504.9	
298.15	.0804	1505.9	
298.15	.0903	1507.1	
298.15	.1001	1508.1	
298.15	.1103	1509.6	
298.15	.12	1510.3	
298.15	.1305	1511.4	
298.15	.1401	1513	
298.15	.1514	1513.8	
