Measured thermophysical data. Refractive indices and static permittivities of systems containing n-hexane or n-heptane and isomeric chlorobutanes
Source: J. Chem. Thermodyn., 2015, 10.1016/j.jct.2015.03.001
Compound 1: n-hexane, C6H14, purity 99%
Compound 2: n-heptane, C7H16, purity 99%
Compound 3: 1-chlorobutane, C4H9Cl, purity 99%
Compound 4: 2-chlorobutane, C4H9Cl, purity 99%
Compound 5: 1-chloro-2-methylpropane, C4H9Cl, purity 99%
Compound 6: 2-chloro-2-methylpropane, C4H9Cl, purity 99%

System: n-hexane; phases: Liquid
Fixed: Pressure, kPa = 101.325
Property: Refractive index (Na D-line) (Liquid); method: Standard Abbe refractometry
Temperature, K	Refractive index (Na D-line)	uncertainty
298.15	1.372227	.00002

System: n-hexane; phases: Liquid
Fixed: Frequency, MHz = 2
Property: Relative permittivity at various frequencies (Liquid); method: Parallel plate capacitor
Temperature, K	Pressure, kPa	Relative permittivity at various frequencies	uncertainty
283.15	99	1.905	.01905
298.15	99	1.892	.01892
313.15	99	1.873	.01873

System: n-heptane; phases: Liquid
Fixed: Frequency, MHz = 2
Property: Relative permittivity at various frequencies (Liquid); method: Parallel plate capacitor
Temperature, K	Pressure, kPa	Relative permittivity at various frequencies	uncertainty
283.15	99	1.943	.01943
298.15	99	1.923	.01923
313.15	99	1.902	.01902

System: 1-chlorobutane; phases: Liquid
Fixed: Frequency, MHz = 2
Property: Relative permittivity at various frequencies (Liquid); method: Parallel plate capacitor
Temperature, K	Pressure, kPa	Relative permittivity at various frequencies	uncertainty
283.15	99	7.552	.07552
298.15	99	7.157	.07157
313.15	99	6.757	.06757

System: 2-chlorobutane; phases: Liquid
Fixed: Frequency, MHz = 2
Property: Relative permittivity at various frequencies (Liquid); method: Parallel plate capacitor
Temperature, K	Pressure, kPa	Relative permittivity at various frequencies	uncertainty
283.15	99	9.323	.09323
298.15	99	8.652	.08652
313.15	99	8.07	.0807

System: 1-chloro-2-methylpropane; phases: Liquid
Fixed: Frequency, MHz = 2
Property: Relative permittivity at various frequencies (Liquid); method: Parallel plate capacitor
Temperature, K	Pressure, kPa	Relative permittivity at various frequencies	uncertainty
283.15	99	7.472	.07472
298.15	99	7.074	.07074
313.15	99	6.657	.06657

System: 2-chloro-2-methylpropane; phases: Liquid
Fixed: Frequency, MHz = 2
Property: Relative permittivity at various frequencies (Liquid); method: Parallel plate capacitor
Temperature, K	Pressure, kPa	Relative permittivity at various frequencies	uncertainty
283.15	99	10.429	.10429
298.15	99	9.67	.0967
313.15	99	8.952	.08952

System: 1-chlorobutane + n-hexane; phases: Liquid
Fixed: Pressure, kPa = 99
Property: Refractive index (Na D-line) (Liquid); method: Standard Abbe refractometry
Temperature, K	Mole fraction of n-hexane	Refractive index (Na D-line)	uncertainty
283.15	0	1.407504	.00002
283.15	.0534	1.405652	.00002
283.15	.1022	1.403997	.00002
283.15	.2056	1.400629	.00002
283.15	.3039	1.397553	.00002
283.15	.3985	1.394774	.00002
283.15	.5023	1.391872	.00002
283.15	.6042	1.389207	.00002
283.15	.7026	1.38679	.00002
283.15	.8041	1.384455	.00002
283.15	.9082	1.382271	.00002
283.15	.9471	1.381502	.00002
283.15	1	1.380496	.00002
298.15	0	1.3995	.00002
298.15	.0534	1.39762	.00002
298.15	.1022	1.39595	.00002
298.15	.2056	1.39253	.00002
298.15	.3039	1.389412	.00002
298.15	.3985	1.38661	.00002
298.15	.5023	1.383675	.00002
298.15	.6042	1.380986	.00002
298.15	.7026	1.37855	.00002
298.15	.8041	1.376208	.00002
298.15	.9082	1.374013	.00002
298.15	.9471	1.373237	.00002
298.15	1	1.372227	.00002
313.15	0	1.391309	.00002
313.15	.0534	1.389408	.00002
313.15	.1022	1.38772	.00002
313.15	.2056	1.384279	.00002
313.15	.3039	1.381152	.00002
313.15	.3985	1.378324	.00002
313.15	.5023	1.375366	.00002
313.15	.6042	1.372671	.00002
313.15	.7026	1.370235	.00002
313.15	.8041	1.367882	.00002
313.15	.9082	1.365695	.00002
313.15	.9471	1.364926	.00002
313.15	1	1.363914	.00002

System: 1-chlorobutane + n-hexane; phases: Liquid
Fixed: Pressure, kPa = 99
Fixed: Frequency, MHz = 2
Property: Relative permittivity at various frequencies (Liquid); method: Parallel plate capacitor
Temperature, K	Mole fraction of n-hexane	Relative permittivity at various frequencies	uncertainty
283.15	0	7.552	.07552
283.15	.0476	7.176	.07176
283.15	.0989	6.775	.06775
283.15	.1968	6.057	.06057
283.15	.3016	5.335	.05335
283.15	.3968	4.722	.04722
283.15	.5024	4.101	.04101
283.15	.6034	3.567	.03567
283.15	.6982	3.11	.0311
283.15	.808	2.63	.0263
283.15	.9029	2.259	.02259
283.15	.9447	2.103	.02103
283.15	1	1.905	.01905
298.15	0	7.157	.07157
298.15	.0476	6.821	.06821
298.15	.0989	6.461	.06461
298.15	.1968	5.8	.058
298.15	.3016	5.13	.0513
298.15	.3968	4.553	.04553
298.15	.5024	3.968	.03968
298.15	.6034	3.458	.03458
298.15	.6982	3.027	.03027
298.15	.808	2.567	.02567
298.15	.9029	2.217	.02217
298.15	.9447	2.07	.0207
298.15	1	1.892	.01892
313.15	0	6.757	.06757
313.15	.0476	6.456	.06456
313.15	.0989	6.13	.0613
313.15	.1968	5.526	.05526
313.15	.3016	4.901	.04901
313.15	.3968	4.37	.0437
313.15	.5024	3.824	.03824
313.15	.6034	3.348	.03348
313.15	.6982	2.94	.0294
313.15	.808	2.506	.02506
313.15	.9029	2.176	.02176
313.15	.9447	2.04	.0204
313.15	1	1.873	.01873

System: 2-chlorobutane + n-hexane; phases: Liquid
Fixed: Pressure, kPa = 99
Property: Refractive index (Na D-line) (Liquid); method: Standard Abbe refractometry
Temperature, K	Mole fraction of n-hexane	Refractive index (Na D-line)	uncertainty
283.15	0	1.402257	.00002
283.15	.0471	1.400828	.00002
283.15	.0973	1.399393	.00002
283.15	.1986	1.396579	.00002
283.15	.293	1.394123	.00002
283.15	.4036	1.391423	.00002
283.15	.5099	1.389026	.00002
283.15	.6202	1.386733	.00002
283.15	.708	1.385079	.00002
283.15	.8068	1.383379	.00002
283.15	.908	1.381825	.00002
283.15	.9555	1.381126	.00002
283.15	1	1.380496	.00002
298.15	0	1.394036	.00002
298.15	.0471	1.392601	.00002
298.15	.0973	1.391145	.00002
298.15	.1986	1.388334	.00002
298.15	.293	1.385843	.00002
298.15	.4036	1.383147	.00002
298.15	.5099	1.380712	.00002
298.15	.6202	1.378423	.00002
298.15	.708	1.376775	.00002
298.15	.8068	1.375099	.00002
298.15	.908	1.373557	.00002
298.15	.9555	1.372859	.00002
298.15	1	1.372227	.00002
313.15	0	1.385618	.00002
313.15	.0471	1.384183	.00002
313.15	.0973	1.382736	.00002
313.15	.1986	1.379935	.00002
313.15	.293	1.377417	.00002
313.15	.4036	1.374701	.00002
313.15	.5099	1.372286	.00002
313.15	.6202	1.370021	.00002
313.15	.708	1.368396	.00002
313.15	.8068	1.366741	.00002
313.15	.908	1.365231	.00002
313.15	.9555	1.364537	.00002
313.15	1	1.363914	.00002

System: 2-chlorobutane + n-hexane; phases: Liquid
Fixed: Pressure, kPa = 99
Fixed: Frequency, MHz = 2
Property: Relative permittivity at various frequencies (Liquid); method: Parallel plate capacitor
Temperature, K	Mole fraction of n-hexane	Relative permittivity at various frequencies	uncertainty
283.15	0	9.323	.09323
283.15	.0536	8.752	.08752
283.15	.0967	8.282	.08282
283.15	.1993	7.216	.07216
283.15	.2995	6.242	.06242
283.15	.3993	5.389	.05389
283.15	.4997	4.625	.04625
283.15	.5974	3.963	.03963
283.15	.7026	3.366	.03366
283.15	.8044	2.811	.02811
283.15	.9006	2.349	.02349
283.15	.9472	2.137	.02137
283.15	1	1.905	.01905
298.15	0	8.652	.08652
298.15	.0536	8.128	.08128
298.15	.0967	7.716	.07716
298.15	.1993	6.76	.0676
298.15	.2995	5.881	.05881
298.15	.3993	5.093	.05093
298.15	.4997	4.39	.0439
298.15	.5974	3.786	.03786
298.15	.7026	3.225	.03225
298.15	.8044	2.72	.0272
298.15	.9006	2.296	.02296
298.15	.9472	2.105	.02105
298.15	1	1.892	.01892
313.15	0	8.07	.0807
313.15	.0536	7.593	.07593
313.15	.0967	7.222	.07222
313.15	.1993	6.345	.06345
313.15	.2995	5.556	.05556
313.15	.3993	4.827	.04827
313.15	.4997	4.182	.04182
313.15	.5974	3.626	.03626
313.15	.7026	3.106	.03106
313.15	.8044	2.642	.02642
313.15	.9006	2.253	.02253
313.15	.9472	2.07	.0207
313.15	1	1.873	.01873

System: n-hexane + 1-chloro-2-methylpropane; phases: Liquid
Fixed: Pressure, kPa = 99
Property: Refractive index (Na D-line) (Liquid); method: Standard Abbe refractometry
Temperature, K	Mole fraction of n-hexane	Refractive index (Na D-line)	uncertainty
283.15	0	1.403542	.00002
283.15	.0484	1.401972	.00002
283.15	.0984	1.400394	.00002
283.15	.2052	1.397255	.00002
283.15	.3044	1.394521	.00002
283.15	.4034	1.391992	.00002
283.15	.5052	1.389612	.00002
283.15	.6134	1.38726	.00002
283.15	.7019	1.385514	.00002
283.15	.8082	1.383553	.00002
283.15	.908	1.381889	.00002
283.15	.9475	1.381291	.00002
283.15	1	1.380496	.00002
298.15	0	1.395285	.00002
298.15	.0484	1.393712	.00002
298.15	.0984	1.392124	.00002
298.15	.2052	1.38895	.00002
298.15	.3044	1.3862	.00002
298.15	.4034	1.383668	.00002
298.15	.5052	1.381299	.00002
298.15	.6134	1.37897	.00002
298.15	.7019	1.377219	.00002
298.15	.8082	1.375256	.00002
298.15	.908	1.373599	.00002
298.15	.9475	1.373005	.00002
298.15	1	1.372227	.00002
313.15	0	1.386827	.00002
313.15	.0484	1.38526	.00002
313.15	.0984	1.383665	.00002
313.15	.2052	1.380493	.00002
313.15	.3044	1.377751	.00002
313.15	.4034	1.375232	.00002
313.15	.5052	1.372866	.00002
313.15	.6134	1.370569	.00002
313.15	.7019	1.368831	.00002
313.15	.8082	1.366899	.00002
313.15	.908	1.36525	.00002
313.15	.9475	1.364675	.00002
313.15	1	1.363914	.00002

System: n-hexane + 1-chloro-2-methylpropane; phases: Liquid
Fixed: Pressure, kPa = 99
Fixed: Frequency, MHz = 2
Property: Relative permittivity at various frequencies (Liquid); method: Parallel plate capacitor
Temperature, K	Mole fraction of n-hexane	Relative permittivity at various frequencies	uncertainty
283.15	0	7.472	.07472
283.15	.0482	7.14	.0714
283.15	.1006	6.784	.06784
283.15	.1985	6.106	.06106
283.15	.2966	5.432	.05432
283.15	.3985	4.768	.04768
283.15	.5036	4.142	.04142
283.15	.5998	3.626	.03626
283.15	.6993	3.149	.03149
283.15	.8028	2.707	.02707
283.15	.9002	2.315	.02315
283.15	.9462	2.129	.02129
283.15	1	1.905	.01905
298.15	0	7.074	.07074
298.15	.0482	6.773	.06773
298.15	.1006	6.442	.06442
298.15	.1985	5.816	.05816
298.15	.2966	5.191	.05191
298.15	.3985	4.573	.04573
298.15	.5036	3.991	.03991
298.15	.5998	3.513	.03513
298.15	.6993	3.064	.03064
298.15	.8028	2.648	.02648
298.15	.9002	2.278	.02278
298.15	.9462	2.102	.02102
298.15	1	1.892	.01892
313.15	0	6.657	.06657
313.15	.0482	6.385	.06385
313.15	.1006	6.082	.06082
313.15	.1985	5.506	.05506
313.15	.2966	4.929	.04929
313.15	.3985	4.358	.04358
313.15	.5036	3.82	.0382
313.15	.5998	3.38	.0338
313.15	.6993	2.966	.02966
313.15	.8028	2.579	.02579
313.15	.9002	2.232	.02232
313.15	.9462	2.068	.02068
313.15	1	1.873	.01873

System: n-hexane + 2-chloro-2-methylpropane; phases: Liquid
Fixed: Pressure, kPa = 99
Property: Refractive index (Na D-line) (Liquid); method: Standard Abbe refractometry
Temperature, K	Mole fraction of n-hexane	Refractive index (Na D-line)	uncertainty
283.15	0	1.391153	.00002
283.15	.048	1.390051	.00002
283.15	.0978	1.389075	.00002
283.15	.1998	1.38741	.00002
283.15	.3018	1.385923	.00002
283.15	.405	1.384628	.00002
283.15	.5059	1.383536	.00002
283.15	.6043	1.382576	.00002
283.15	.7077	1.381806	.00002
283.15	.806	1.381222	.00002
283.15	.9095	1.380809	.00002
283.15	.95	1.380657	.00002
283.15	1	1.380496	.00002
298.15	0	1.382254	.00002
298.15	.048	1.381184	.00002
298.15	.0978	1.380219	.00002
298.15	.1998	1.378603	.00002
298.15	.3018	1.377219	.00002
298.15	.405	1.375977	.00002
298.15	.5059	1.374907	.00002
298.15	.6043	1.374068	.00002
298.15	.7077	1.373345	.00002
298.15	.806	1.372816	.00002
298.15	.9095	1.372487	.00002
298.15	.95	1.372362	.00002
298.15	1	1.372227	.00002
313.15	0	1.373115	.00002
313.15	.048	1.372093	.00002
313.15	.0978	1.371183	.00002
313.15	.1998	1.36961	.00002
313.15	.3018	1.36829	.00002
313.15	.405	1.367159	.00002
313.15	.5059	1.366163	.00002
313.15	.6043	1.365402	.00002
313.15	.7077	1.364768	.00002
313.15	.806	1.364334	.00002
313.15	.9095	1.364086	.00002
313.15	.95	1.364006	.00002
313.15	1	1.363914	.00002

System: n-hexane + 2-chloro-2-methylpropane; phases: Liquid
Fixed: Pressure, kPa = 99
Fixed: Frequency, MHz = 2
Property: Relative permittivity at various frequencies (Liquid); method: Parallel plate capacitor
Temperature, K	Mole fraction of n-hexane	Relative permittivity at various frequencies	uncertainty
283.15	0	10.429	.10429
283.15	.0467	9.841	.09841
283.15	.099	9.191	.09191
283.15	.2084	7.892	.07892
283.15	.2972	6.892	.06892
283.15	.399	5.897	.05897
283.15	.4982	5.016	.05016
283.15	.6015	4.212	.04212
283.15	.7009	3.543	.03543
283.15	.8046	2.928	.02928
283.15	.8999	2.417	.02417
283.15	.9502	2.149	.02149
283.15	1	1.905	.01905
298.15	0	9.67	.0967
298.15	.0467	9.132	.09132
298.15	.099	8.543	.08543
298.15	.2084	7.37	.0737
298.15	.2972	6.468	.06468
298.15	.399	5.552	.05552
298.15	.4982	4.749	.04749
298.15	.6015	4.01	.0401
298.15	.7009	3.398	.03398
298.15	.8046	2.833	.02833
298.15	.8999	2.362	.02362
298.15	.9502	2.116	.02116
298.15	1	1.892	.01892
313.15	0	8.952	.08952
313.15	.0467	8.468	.08468
313.15	.099	7.946	.07946
313.15	.2084	6.883	.06883
313.15	.2972	6.073	.06073
313.15	.399	5.239	.05239
313.15	.4982	4.514	.04514
313.15	.6015	3.842	.03842
313.15	.7009	3.283	.03283
313.15	.8046	2.749	.02749
313.15	.8999	2.308	.02308
313.15	.9502	2.08	.0208
313.15	1	1.873	.01873

System: 1-chlorobutane + n-heptane; phases: Liquid
Fixed: Pressure, kPa = 99
Property: Refractive index (Na D-line) (Liquid); method: Standard Abbe refractometry
Temperature, K	Mole fraction of n-heptane	Refractive index (Na D-line)	uncertainty
283.15	0	1.407504	.00002
283.15	.0503	1.406356	.00002
283.15	.1023	1.405221	.00002
283.15	.201	1.403183	.00002
283.15	.3012	1.401316	.00002
283.15	.4003	1.399659	.00002
283.15	.4985	1.398205	.00002
283.15	.5963	1.396936	.00002
283.15	.7037	1.39573	.00002
283.15	.82	1.394579	.00002
283.15	.9094	1.393726	.00002
283.15	.949	1.393367	.00002
283.15	1	1.392903	.00002
298.15	0	1.3995	.00002
298.15	.0503	1.398365	.00002
298.15	.1023	1.397242	.00002
298.15	.201	1.395221	.00002
298.15	.3012	1.393383	.00002
298.15	.4003	1.391754	.00002
298.15	.4985	1.390325	.00002
298.15	.5963	1.389089	.00002
298.15	.7037	1.387928	.00002
298.15	.82	1.386817	.00002
298.15	.9094	1.385999	.00002
298.15	.949	1.385654	.00002
298.15	1	1.385204	.00002
313.15	0	1.391309	.00002
313.15	.0503	1.390185	.00002
313.15	.1023	1.389074	.00002
313.15	.201	1.387077	.00002
313.15	.3012	1.385269	.00002
313.15	.4003	1.383668	.00002
313.15	.4985	1.382273	.00002
313.15	.5963	1.381078	.00002
313.15	.7037	1.379962	.00002
313.15	.82	1.3789	.00002
313.15	.9094	1.378113	.00002
313.15	.949	1.37778	.00002
313.15	1	1.37735	.00002

System: 1-chlorobutane + n-heptane; phases: Liquid
Fixed: Pressure, kPa = 99
Fixed: Frequency, MHz = 2
Property: Relative permittivity at various frequencies (Liquid); method: Parallel plate capacitor
Temperature, K	Mole fraction of n-heptane	Relative permittivity at various frequencies	uncertainty
283.15	0	7.552	.07552
283.15	.0484	7.201	.07201
283.15	.101	6.808	.06808
283.15	.1965	6.051	.06051
283.15	.2708	5.486	.05486
283.15	.4005	4.601	.04601
283.15	.5038	3.999	.03999
283.15	.5995	3.52	.0352
283.15	.6978	3.089	.03089
283.15	.805	2.665	.02665
283.15	.897	2.327	.02327
283.15	.9475	2.138	.02138
283.15	1	1.943	.01943
298.15	0	7.157	.07157
298.15	.0484	6.84	.0684
298.15	.101	6.475	.06475
298.15	.1965	5.77	.0577
298.15	.2708	5.243	.05243
298.15	.4005	4.417	.04417
298.15	.5038	3.855	.03855
298.15	.5995	3.404	.03404
298.15	.6978	3.001	.03001
298.15	.805	2.608	.02608
298.15	.897	2.287	.02287
298.15	.9475	2.112	.02112
298.15	1	1.923	.01923
313.15	0	6.757	.06757
313.15	.0484	6.47	.0647
313.15	.101	6.132	.06132
313.15	.1965	5.492	.05492
313.15	.2708	5.005	.05005
313.15	.4005	4.237	.04237
313.15	.5038	3.715	.03715
313.15	.5995	3.299	.03299
313.15	.6978	2.921	.02921
313.15	.805	2.545	.02545
313.15	.897	2.247	.02247
313.15	.9475	2.079	.02079
313.15	1	1.902	.01902

System: 2-chlorobutane + n-heptane; phases: Liquid
Fixed: Pressure, kPa = 99
Property: Refractive index (Na D-line) (Liquid); method: Standard Abbe refractometry
Temperature, K	Mole fraction of n-heptane	Refractive index (Na D-line)	uncertainty
283.15	0	1.402257	.00002
283.15	.0483	1.401407	.00002
283.15	.1024	1.400557	.00002
283.15	.2021	1.399123	.00002
283.15	.303	1.397777	.00002
283.15	.4031	1.396604	.00002
283.15	.5066	1.395619	.00002
283.15	.5998	1.394893	.00002
283.15	.7051	1.394289	.00002
283.15	.8055	1.393821	.00002
283.15	.9123	1.393369	.00002
283.15	.9433	1.393218	.00002
283.15	1	1.392903	.00002
298.15	0	1.394036	.00002
298.15	.0483	1.393186	.00002
298.15	.1024	1.392383	.00002
298.15	.2021	1.390999	.00002
298.15	.303	1.389701	.00002
298.15	.4031	1.388594	.00002
298.15	.5066	1.387653	.00002
298.15	.5998	1.38699	.00002
298.15	.7051	1.386423	.00002
298.15	.8055	1.386026	.00002
298.15	.9123	1.385632	.00002
298.15	.9433	1.385494	.00002
298.15	1	1.385204	.00002
313.15	0	1.385618	.00002
313.15	.0483	1.384803	.00002
313.15	.1024	1.384012	.00002
313.15	.2021	1.382676	.00002
313.15	.303	1.381443	.00002
313.15	.4031	1.380379	.00002
313.15	.5066	1.379507	.00002
313.15	.5998	1.378901	.00002
313.15	.7051	1.378414	.00002
313.15	.8055	1.378068	.00002
313.15	.9123	1.377735	.00002
313.15	.9433	1.377614	.00002
313.15	1	1.37735	.00002

System: 2-chlorobutane + n-heptane; phases: Liquid
Fixed: Pressure, kPa = 99
Fixed: Frequency, MHz = 2
Property: Relative permittivity at various frequencies (Liquid); method: Parallel plate capacitor
Temperature, K	Mole fraction of n-heptane	Relative permittivity at various frequencies	uncertainty
283.15	0	9.323	.09323
283.15	.0498	8.838	.08838
283.15	.101	8.296	.08296
283.15	.1985	7.191	.07191
283.15	.3008	6.131	.06131
283.15	.3994	5.252	.05252
283.15	.503	4.471	.04471
283.15	.6009	3.84	.0384
283.15	.7053	3.268	.03268
283.15	.8026	2.79	.0279
283.15	.9027	2.352	.02352
283.15	.9463	2.164	.02164
283.15	1	1.943	.01943
298.15	0	8.652	.08652
298.15	.0498	8.22	.0822
298.15	.101	7.73	.0773
298.15	.1985	6.75	.0675
298.15	.3008	5.792	.05792
298.15	.3994	5	.05
298.15	.503	4.283	.04283
298.15	.6009	3.698	.03698
298.15	.7053	3.165	.03165
298.15	.8026	2.731	.02731
298.15	.9027	2.309	.02309
298.15	.9463	2.133	.02133
298.15	1	1.923	.01923
313.15	0	8.07	.0807
313.15	.0498	7.684	.07684
313.15	.101	7.247	.07247
313.15	.1985	6.373	.06373
313.15	.3008	5.51	.0551
313.15	.3994	4.774	.04774
313.15	.503	4.1	.041
313.15	.6009	3.56	.0356
313.15	.7053	3.063	.03063
313.15	.8026	2.659	.02659
313.15	.9027	2.276	.02276
313.15	.9463	2.108	.02108
313.15	1	1.902	.01902

System: n-heptane + 1-chloro-2-methylpropane; phases: Liquid
Fixed: Pressure, kPa = 99
Property: Refractive index (Na D-line) (Liquid); method: Standard Abbe refractometry
Temperature, K	Mole fraction of n-heptane	Refractive index (Na D-line)	uncertainty
283.15	0	1.403542	.00002
283.15	.0485	1.402476	.00002
283.15	.1009	1.401445	.00002
283.15	.2046	1.399744	.00002
283.15	.3065	1.398304	.00002
283.15	.4028	1.397162	.00002
283.15	.5039	1.396103	.00002
283.15	.603	1.395197	.00002
283.15	.7033	1.394454	.00002
283.15	.8026	1.393809	.00002
283.15	.9158	1.393265	.00002
283.15	.9513	1.393104	.00002
283.15	1	1.392903	.00002
298.15	0	1.395285	.00002
298.15	.0485	1.394249	.00002
298.15	.1009	1.393246	.00002
298.15	.2046	1.391608	.00002
298.15	.3065	1.390224	.00002
298.15	.4028	1.389142	.00002
298.15	.5039	1.388142	.00002
298.15	.603	1.387287	.00002
298.15	.7033	1.3866	.00002
298.15	.8026	1.386008	.00002
298.15	.9158	1.385484	.00002
298.15	.9513	1.385378	.00002
298.15	1	1.385204	.00002
313.15	0	1.386827	.00002
313.15	.0485	1.385816	.00002
313.15	.1009	1.384847	.00002
313.15	.2046	1.383273	.00002
313.15	.3065	1.381955	.00002
313.15	.4028	1.380933	.00002
313.15	.5039	1.379993	.00002
313.15	.603	1.379198	.00002
313.15	.7033	1.378575	.00002
313.15	.8026	1.378043	.00002
313.15	.9158	1.377579	.00002
313.15	.9513	1.377492	.00002
313.15	1	1.37735	.00002

System: n-heptane + 1-chloro-2-methylpropane; phases: Liquid
Fixed: Pressure, kPa = 99
Fixed: Frequency, MHz = 2
Property: Relative permittivity at various frequencies (Liquid); method: Parallel plate capacitor
Temperature, K	Mole fraction of n-heptane	Relative permittivity at various frequencies	uncertainty
283.15	0	7.472	.07472
283.15	.0467	7.151	.07151
283.15	.1011	6.755	.06755
283.15	.197	6.042	.06042
283.15	.297	5.32	.0532
283.15	.4028	4.619	.04619
283.15	.5045	4.028	.04028
283.15	.6012	3.537	.03537
283.15	.7002	3.094	.03094
283.15	.801	2.697	.02697
283.15	.9058	2.303	.02303
283.15	.9473	2.147	.02147
283.15	1	1.943	.01943
298.15	0	7.074	.07074
298.15	.0467	6.783	.06783
298.15	.1011	6.418	.06418
298.15	.197	5.749	.05749
298.15	.297	5.08	.0508
298.15	.4028	4.43	.0443
298.15	.5045	3.88	.0388
298.15	.6012	3.425	.03425
298.15	.7002	3.012	.03012
298.15	.801	2.636	.02636
298.15	.9058	2.262	.02262
298.15	.9473	2.114	.02114
298.15	1	1.923	.01923
313.15	0	6.657	.06657
313.15	.0467	6.395	.06395
313.15	.1011	6.062	.06062
313.15	.197	5.45	.0545
313.15	.297	4.828	.04828
313.15	.4028	4.232	.04232
313.15	.5045	3.725	.03725
313.15	.6012	3.3	.033
313.15	.7002	2.918	.02918
313.15	.801	2.568	.02568
313.15	.9058	2.219	.02219
313.15	.9473	2.081	.02081
313.15	1	1.902	.01902

System: n-heptane + 2-chloro-2-methylpropane; phases: Liquid
Fixed: Pressure, kPa = 99
Property: Refractive index (Na D-line) (Liquid); method: Standard Abbe refractometry
Temperature, K	Mole fraction of n-heptane	Refractive index (Na D-line)	uncertainty
283.15	0	1.391153	.00002
283.15	.0511	1.390543	.00002
283.15	.0962	1.390248	.00002
283.15	.1985	1.389959	.00002
283.15	.2955	1.389884	.00002
283.15	.3985	1.390013	.00002
283.15	.4985	1.390238	.00002
283.15	.5996	1.390594	.00002
283.15	.7039	1.391054	.00002
283.15	.8032	1.391637	.00002
283.15	.9039	1.392254	.00002
283.15	.9618	1.39267	.00002
283.15	1	1.392903	.00002
298.15	0	1.382254	.00002
298.15	.0511	1.381723	.00002
298.15	.0962	1.38149	.00002
298.15	.1985	1.381303	.00002
298.15	.2955	1.381316	.00002
298.15	.3985	1.381588	.00002
298.15	.4985	1.381956	.00002
298.15	.5996	1.382443	.00002
298.15	.7039	1.383062	.00002
298.15	.8032	1.383749	.00002
298.15	.9039	1.384466	.00002
298.15	.9618	1.384924	.00002
298.15	1	1.385204	.00002
313.15	0	1.373115	.00002
313.15	.0511	1.372667	.00002
313.15	.0962	1.372492	.00002
313.15	.1985	1.372383	.00002
313.15	.2955	1.372536	.00002
313.15	.3985	1.372941	.00002
313.15	.4985	1.373472	.00002
313.15	.5996	1.374145	.00002
313.15	.7039	1.374925	.00002
313.15	.8032	1.375729	.00002
313.15	.9039	1.37653	.00002
313.15	.9618	1.377032	.00002
313.15	1	1.37735	.00002

System: n-heptane + 2-chloro-2-methylpropane; phases: Liquid
Fixed: Pressure, kPa = 99
Fixed: Frequency, MHz = 2
Property: Relative permittivity at various frequencies (Liquid); method: Parallel plate capacitor
Temperature, K	Mole fraction of n-heptane	Relative permittivity at various frequencies	uncertainty
283.15	0	10.429	.10429
283.15	.0506	9.787	.09787
283.15	.1035	9.109	.09109
283.15	.2006	7.895	.07895
283.15	.3012	6.721	.06721
283.15	.3976	5.754	.05754
283.15	.504	4.827	.04827
283.15	.6015	4.103	.04103
283.15	.6988	3.472	.03472
283.15	.8014	2.905	.02905
283.15	.9027	2.407	.02407
283.15	.9444	2.209	.02209
283.15	1	1.943	.01943
298.15	0	9.67	.0967
298.15	.0506	9.1	.091
298.15	.1035	8.485	.08485
298.15	.2006	7.373	.07373
298.15	.3012	6.293	.06293
298.15	.3976	5.41	.0541
298.15	.504	4.566	.04566
298.15	.6015	3.914	.03914
298.15	.6988	3.341	.03341
298.15	.8014	2.819	.02819
298.15	.9027	2.359	.02359
298.15	.9444	2.173	.02173
298.15	1	1.923	.01923
313.15	0	8.952	.08952
313.15	.0506	8.449	.08449
313.15	.1035	7.907	.07907
313.15	.2006	6.892	.06892
313.15	.3012	5.932	.05932
313.15	.3976	5.118	.05118
313.15	.504	4.34	.0434
313.15	.6015	3.747	.03747
313.15	.6988	3.226	.03226
313.15	.8014	2.749	.02749
313.15	.9027	2.322	.02322
313.15	.9444	2.144	.02144
313.15	1	1.902	.01902
