Measured thermophysical data. Viscosity measurements for 2,3,3,3-tetrafluoroprop-1-ene (R1234yf) and trans-1,3,3,3-tetrafluoropropene (R1234ze(E))
Source: J. Chem. Thermodyn., 2013, 10.1016/j.jct.2013.03.013
Compound 1: toluene, C7H8, purity 99.5%
Compound 2: 1,1,1,2-tetrafluoroethane, C2H2F4, purity 99.9%
Compound 3: 2,3,3,3-tetrafluoroprop-1-ene, C3H2F4, purity 99.9%
Compound 4: trans-1,3,3,3-tetrafluoropropene, C3H2F4, purity 99.9%

System: toluene; phases: Liquid
Property: Viscosity, Pa*s (Liquid); method: Vibrating wire viscometry
Temperature, K	Pressure, kPa	Viscosity, Pa*s	uncertainty
273.131	1000	.0007735	.00001547
273.131	5000	.0007996	.000015992
273.131	10000	.000832	.00001664
273.131	20000	.0008994	.000017988
273.131	30000	.000969	.00001938
298.149	1000	.0005573	.000011146
298.149	5000	.0005744	.000011488
298.149	10000	.0005969	.000011938
298.149	20000	.0006394	.000012788
298.149	30000	.0006892	.000013784
323.161	1000	.0004222	.000008444
323.161	5000	.0004359	.000008718
323.161	10000	.0004531	.000009062
323.161	20000	.0004894	.000009788
323.161	30000	.0005242	.000010484
343.159	1000	.0003495	.00000699
343.159	5000	.0003611	.000007222
343.159	10000	.0003757	.000007514
343.159	20000	.0004054	.000008108
343.159	30000	.0004367	.000008734
363.161	1000	.0002941	.000005882
363.161	5000	.0003047	.000006094
363.161	10000	.0003173	.000006346
363.161	20000	.0003436	.000006872
363.161	30000	.0003694	.000007388

System: 1,1,1,2-tetrafluoroethane; phases: Liquid
Property: Viscosity, Pa*s (Liquid); method: Vibrating wire viscometry
Temperature, K	Pressure, kPa	Viscosity, Pa*s	uncertainty
253.144	1000	.0003564	.000007128
253.144	5000	.0003729	.000007458
253.144	10000	.0003937	.000007874
253.144	15000	.0004141	.000008282
253.144	20000	.0004329	.000008658
253.144	25000	.0004553	.000009106
253.144	30000	.0004776	.000009552
273.15	1000	.0002713	.000005426
273.15	5000	.0002873	.000005746
273.15	10000	.0003031	.000006062
273.15	15000	.0003211	.000006422
273.15	20000	.0003387	.000006774
273.15	25000	.000357	.00000714
273.15	30000	.0003759	.000007518
293.152	1000	.0002115	.00000423
293.152	5000	.0002227	.000004454
293.152	10000	.0002398	.000004796
293.152	15000	.0002556	.000005112
293.152	20000	.0002725	.00000545
293.152	25000	.000287	.00000574
293.152	30000	.0003023	.000006046
313.144	2000	.0001653	.000003306
313.144	5000	.0001758	.000003516
313.144	10000	.0001918	.000003836
313.144	15000	.0002068	.000004136
313.144	20000	.0002228	.000004456
313.144	25000	.000236	.00000472
313.144	30000	.0002501	.000005002
333.157	2000	.0001247	.000002494
333.157	5000	.0001373	.000002746
333.157	10000	.0001537	.000003074
333.157	15000	.0001703	.000003406
333.157	20000	.0001839	.000003678
333.157	25000	.0001966	.000003932
333.157	30000	.0002089	.000004178
353.157	3000	.0000916	.000001832
353.157	5000	.0001032	.000002064
353.157	10000	.000124	.00000248
353.157	15000	.0001391	.000002782
353.157	20000	.0001535	.00000307
353.157	25000	.0001657	.000003314
353.157	30000	.0001779	.000003558
253.16	3000	.0003626	.000007252
253.16	10000	.0003914	.000007828
273.149	3000	.0002791	.000005582
273.149	10000	.0003052	.000006104
293.152	3000	.0002177	.000004354
293.152	10000	.0002412	.000004824
313.144	3000	.0001693	.000003386
313.144	10000	.0001929	.000003858
333.159	3000	.0001296	.000002592
333.159	10000	.0001543	.000003086
353.155	5000	.0001034	.000002068
353.155	10000	.0001246	.000002492

System: 2,3,3,3-tetrafluoroprop-1-ene; phases: Liquid
Property: Viscosity, Pa*s (Liquid); method: Vibrating wire viscometry
Temperature, K	Pressure, kPa	Viscosity, Pa*s	uncertainty
243.165	99	.0002892	.000005784
243.165	1000	.0002913	.000005826
243.165	3000	.0002982	.000005964
243.165	5000	.0003049	.000006098
243.165	10000	.0003212	.000006424
243.165	15000	.0003397	.000006794
243.165	20000	.0003572	.000007144
243.165	25000	.0003748	.000007496
243.165	30000	.0003927	.000007854
253.16	151	.0002554	.000005108
253.16	1000	.000258	.00000516
253.16	3000	.0002638	.000005276
253.16	5000	.0002708	.000005416
253.16	10000	.0002877	.000005754
253.16	15000	.0003038	.000006076
253.16	20000	.0003201	.000006402
253.16	25000	.0003362	.000006724
253.16	30000	.0003517	.000007034
263.164	222	.0002265	.00000453
263.164	1000	.000229	.00000458
263.164	3000	.0002355	.00000471
263.164	5000	.000242	.00000484
263.164	10000	.0002581	.000005162
263.164	15000	.0002731	.000005462
263.164	20000	.0002894	.000005788
263.164	25000	.0003035	.00000607
263.164	30000	.0003178	.000006356
273.149	316	.0002019	.000004038
273.15	1000	.0002033	.000004066
273.15	3000	.00021	.0000042
273.15	5000	.0002162	.000004324
273.15	10000	.0002313	.000004626
273.15	15000	.0002457	.000004914
273.15	20000	.0002601	.000005202
273.15	25000	.0002744	.000005488
273.15	30000	.0002874	.000005748
283.143	438	.0001796	.000003592
283.145	1000	.0001815	.00000363
283.145	3000	.0001873	.000003746
283.145	5000	.000194	.00000388
283.145	10000	.0002079	.000004158
283.145	15000	.0002222	.000004444
283.145	20000	.0002356	.000004712
283.145	25000	.0002487	.000004974
283.145	30000	.000262	.00000524
293.15	592	.0001612	.000003224
293.151	1000	.0001636	.000003272
293.151	3000	.000169	.00000338
293.151	5000	.0001755	.00000351
293.151	10000	.0001885	.00000377
293.151	15000	.0002018	.000004036
293.151	20000	.0002152	.000004304
293.151	25000	.0002287	.000004574
293.151	30000	.0002414	.000004828
303.153	784	.0001425	.00000285
303.154	1000	.0001434	.000002868
303.154	3000	.000149	.00000298
303.154	5000	.0001554	.000003108
303.154	10000	.0001696	.000003392
303.154	15000	.0001834	.000003668
303.154	20000	.0001965	.00000393
303.154	25000	.0002092	.000004184
303.154	30000	.0002215	.00000443
313.142	1019	.0001259	.000002518
313.144	3000	.0001324	.000002648
313.144	5000	.0001392	.000002784
313.144	10000	.0001543	.000003086
313.144	15000	.0001681	.000003362
313.144	20000	.0001808	.000003616
313.144	25000	.0001929	.000003858
313.144	30000	.0002046	.000004092
323.161	1303	.0001103	.000002206
323.161	3000	.0001169	.000002338
323.161	5000	.0001239	.000002478
323.161	10000	.0001396	.000002792
323.161	15000	.0001536	.000003072
323.161	20000	.0001664	.000003328
323.161	25000	.0001783	.000003566
323.161	30000	.0001893	.000003786
333.157	1643	.0000965	.00000193
333.157	3000	.0001031	.000002062
333.157	5000	.0001108	.000002216
333.157	10000	.000127	.00000254
333.157	15000	.000141	.00000282
333.157	20000	.0001537	.000003074
333.157	25000	.0001656	.000003312
333.157	30000	.0001762	.000003524
343.159	2046	.0000832	.000001664
343.158	3000	.0000885	.00000177
343.158	5000	.0000976	.000001952
343.158	10000	.000115	.0000023
343.158	15000	.0001291	.000002582
343.158	20000	.0001417	.000002834
343.158	25000	.0001534	.000003068
343.158	30000	.0001644	.000003288
353.158	2521	.0000685	.00000137
353.157	3000	.0000731	.000001462
353.157	5000	.0000846	.000001692
353.157	10000	.0001035	.00000207
353.157	15000	.0001189	.000002378
353.157	20000	.0001314	.000002628
353.157	25000	.0001424	.000002848
353.157	30000	.0001527	.000003054
363.162	3081	.0000521	.000001042
363.161	5000	.0000732	.000001464
363.161	10000	.000093	.00000186
363.161	15000	.000109	.00000218
363.161	20000	.0001211	.000002422
363.161	25000	.0001322	.000002644
363.161	30000	.0001429	.000002858

System: trans-1,3,3,3-tetrafluoropropene; phases: Liquid
Property: Viscosity, Pa*s (Liquid); method: Vibrating wire viscometry
Temperature, K	Pressure, kPa	Viscosity, Pa*s	uncertainty
243.165	61	.0003906	.000007812
243.165	1000	.000395	.0000079
243.165	3000	.0004028	.000008056
243.165	5000	.0004116	.000008232
243.165	10000	.0004321	.000008642
243.165	15000	.0004532	.000009064
243.165	20000	.0004742	.000009484
243.165	25000	.0004951	.000009902
243.165	30000	.000517	.00001034
253.162	97	.0003409	.000006818
253.161	1000	.0003462	.000006924
253.161	3000	.0003538	.000007076
253.161	5000	.0003613	.000007226
253.161	10000	.000381	.00000762
253.161	15000	.0003999	.000007998
253.161	20000	.0004192	.000008384
253.161	25000	.0004374	.000008748
253.161	30000	.0004554	.000009108
263.164	148	.0002942	.000005884
263.164	1000	.0003043	.000006086
263.164	3000	.0003119	.000006238
263.164	5000	.0003189	.000006378
263.164	10000	.0003358	.000006716
263.164	15000	.0003534	.000007068
263.164	20000	.0003707	.000007414
263.164	25000	.0003875	.00000775
263.164	30000	.0004047	.000008094
273.148	217	.0002572	.000005144
273.149	1000	.0002626	.000005252
273.149	3000	.0002702	.000005404
273.149	5000	.0002776	.000005552
273.149	10000	.0002949	.000005898
273.149	15000	.0003127	.000006254
273.149	20000	.0003284	.000006568
273.149	25000	.0003451	.000006902
273.149	30000	.0003616	.000007232
283.144	308	.0002271	.000004542
283.144	1000	.0002318	.000004636
283.144	3000	.0002383	.000004766
283.144	5000	.0002442	.000004884
283.144	10000	.0002602	.000005204
283.144	15000	.0002755	.00000551
283.144	20000	.0002908	.000005816
283.144	25000	.0003061	.000006122
283.144	30000	.0003203	.000006406
293.15	428	.0002016	.000004032
293.153	1000	.0002035	.00000407
293.153	3000	.0002097	.000004194
293.153	5000	.000216	.00000432
293.153	10000	.0002315	.00000463
293.153	15000	.0002459	.000004918
293.153	20000	.0002606	.000005212
293.153	25000	.0002741	.000005482
293.153	30000	.0002877	.000005754
303.153	579	.000179	.00000358
303.153	1000	.0001816	.000003632
303.153	3000	.0001875	.00000375
303.153	5000	.0001933	.000003866
303.153	10000	.0002085	.00000417
303.153	15000	.0002227	.000004454
303.153	20000	.0002364	.000004728
303.153	25000	.0002495	.00000499
303.153	30000	.0002625	.00000525
313.144	767	.0001587	.000003174
313.144	1000	.0001601	.000003202
313.144	3000	.0001663	.000003326
313.144	5000	.0001728	.000003456
313.144	10000	.0001873	.000003746
313.144	15000	.0002008	.000004016
313.144	20000	.0002151	.000004302
313.144	25000	.0002283	.000004566
313.144	30000	.0002401	.000004802
323.163	998	.0001405	.00000281
323.164	3000	.0001479	.000002958
323.164	5000	.0001539	.000003078
323.164	10000	.0001687	.000003374
323.164	15000	.000183	.00000366
323.164	20000	.0001968	.000003936
323.164	25000	.0002093	.000004186
323.164	30000	.000221	.00000442
333.157	1277	.0001239	.000002478
333.156	3000	.0001305	.00000261
333.156	5000	.0001373	.000002746
333.156	10000	.0001527	.000003054
333.156	15000	.0001671	.000003342
333.156	20000	.0001796	.000003592
333.156	25000	.0001914	.000003828
333.156	30000	.0002033	.000004066
343.158	1611	.0001085	.00000217
343.157	3000	.000115	.0000023
343.157	5000	.0001227	.000002454
343.157	10000	.0001383	.000002766
343.157	15000	.0001527	.000003054
343.157	20000	.0001657	.000003314
343.157	25000	.0001773	.000003546
343.157	30000	.0001888	.000003776
353.156	2008	.0000939	.000001878
353.157	3000	.0000993	.000001986
353.157	5000	.0001072	.000002144
353.157	10000	.0001241	.000002482
353.157	15000	.000139	.00000278
353.157	20000	.0001516	.000003032
353.157	25000	.0001638	.000003276
353.157	30000	.0001749	.000003498
363.16	2475	.000079	.00000158
363.16	3000	.0000833	.000001666
363.16	5000	.0000932	.000001864
363.16	10000	.0001125	.00000225
363.16	15000	.0001273	.000002546
363.16	20000	.0001401	.000002802
363.16	25000	.0001516	.000003032
363.16	30000	.0001622	.000003244
373.166	3026	.0000632	.000001264
373.166	5000	.0000809	.000001618
373.166	10000	.0001013	.000002026
373.166	15000	.0001155	.00000231
373.166	20000	.0001286	.000002572
373.166	25000	.0001403	.000002806
373.166	30000	.0001514	.000003028
