Measured thermophysical data. Energetic characterisation of the system (water + 1-propoxypropan-2-ol) at T = 298.15 K
Source: J. Chem. Thermodyn., 2015, 10.1016/j.jct.2015.07.044
Compound 1: 1-propoxy-2-propanol, C6H14O2, purity 90.7%
Compound 2: water, H2O, purity 99.9%

System: 1-propoxy-2-propanol + water; phases: Liquid
Fixed: Pressure, kPa = 100
Fixed: Temperature, K = 298.15
Property: Partial molar enthalpy, kJ/mol of water (Liquid); method: Isoperibol Calorimetry
Mole fraction of 1-propoxy-2-propanol	Partial molar enthalpy, kJ/mol of water	uncertainty
.00199	-.0046	
.00509	-.014	
.00988	-.02	
.01524	-.06	
.02082	-.074	
.02573	-.135	
.0299	-.25	
.03983	-.362	
.05248	-.416	
.09463	-.505	
.09856	-.507	
.11982	-.538	
.12843	-.54	
.15044	-.568	
.17112	-.59	
.22859	-.667	
.29703	-.765	
.37907	-.854	
.40883	-.8822	
.43721	-.9	
.49395	-.857	
.59712	-.85	
.69884	-.884	
.74672	-.93	
.80564	-.996	
.85335	-1.08	
.87128	-1.135	
.90508	-1.257	
.92054	-1.306	
.94994	-1.412	
1	-1.424	

System: 1-propoxy-2-propanol + water; phases: Liquid
Fixed: Pressure, kPa = 100
Fixed: Temperature, K = 298.15
Property: Partial molar enthalpy, kJ/mol of 1-propoxy-2-propanol (Liquid); method: Isoperibol Calorimetry
Mole fraction of 1-propoxy-2-propanol	Partial molar enthalpy, kJ/mol of 1-propoxy-2-propanol	uncertainty
0	-21.12	
.00183	-20.49	
.00407	-19.31	
.00613	-18.9	
.00791	-18.01	
.00961	-16.85	
.01201	-16.6	
.01481	-15.05	
.01997	-12.61	
.02565	-9.48	
.0302	-7.19	
.03515	-5.04	
.03978	-3.78	
.0439	-3.17	
.05001	-2.57	
.05494	-2.25	
.05689	-2.16	
.06411	-1.85	
.07261	-1.65	
.07875	-1.54	
.086	-1.449	
.09556	-1.337	
.15542	-.88	
.25743	-.312	
.35715	-.05	
.4726	-.028	
.8852	-.0072	

System: 1-propoxy-2-propanol + water; phases: Liquid
Fixed: Pressure, kPa = 100
Fixed: Temperature, K = 298.15
Property: Excess molar enthalpy (molar enthalpy of mixing), kJ/mol (Liquid); method: Isoperibol calorimetry
Mole fraction of 1-propoxy-2-propanol	Excess molar enthalpy (molar enthalpy of mixing), kJ/mol	uncertainty
.00199	-.05	-.001
.00509	-.11	-.0022
.00988	-.19	-.0038
.01524	-.29	-.0058
.02082	-.32	-.0064
.02573	-.37	-.0074
.0299	-.46	-.0092
.03983	-.5	-.01
.05248	-.52	-.0104
.09463	-.59	-.0118
.09856	-.59	-.0118
.11982	-.61	-.0122
.12843	-.61	-.0122
.15044	-.62	-.0124
.17112	-.62	-.0124
.22859	-.62	-.0124
.29703	-.59	-.0118
.37907	-.55	-.011
.40883	-.54	-.0108
.43721	-.52	-.0104
.49395	-.44	-.0088
.59712	-.35	-.007
.69884	-.28	-.0056
.74672	-.25	-.005
.80564	-.2	-.004
.85335	-.16	-.0032
.87128	-.14	-.0028
.90508	-.11	-.0022
.92054	-.09	-.0018
.94994	-.06	-.0012
