Measured thermophysical data. A combined experimental and computational investigation of excess molar enthalpies of (nitrobenzene + alkanol) mixtures
Source: J. Chem. Thermodyn., 2015, 10.1016/j.jct.2014.09.001
Compound 1: nitrobenzene, C6H5NO2, purity 99%
Compound 2: ethanol, C2H6O, purity 99.8%
Compound 3: 1-propanol, C3H8O, purity 99.8%
Compound 4: 2-propanol, C3H8O, purity 99.5%
Compound 5: 1-butanol, C4H10O, purity 99.8%
Compound 6: 2-butanol, C4H10O, purity 99%

System: nitrobenzene; phases: Liquid
Fixed: Pressure, kPa = 101.325
Property: Mass density, kg/m3 (Liquid); method: Vibrating tube method
Temperature, K	Mass density, kg/m3	uncertainty
298.15	1198.12	.5

System: nitrobenzene; phases: Liquid
Fixed: Pressure, kPa = 101.325
Property: Refractive index (Na D-line) (Liquid); method: Standard Abbe refractometry
Temperature, K	Refractive index (Na D-line)	uncertainty
298.15	1.550042	.00002

System: ethanol; phases: Liquid
Fixed: Pressure, kPa = 101.325
Property: Mass density, kg/m3 (Liquid); method: Vibrating tube method
Temperature, K	Mass density, kg/m3	uncertainty
298.15	784.9	.5

System: ethanol; phases: Liquid
Fixed: Pressure, kPa = 101.325
Property: Refractive index (Na D-line) (Liquid); method: Standard Abbe refractometry
Temperature, K	Refractive index (Na D-line)	uncertainty
298.15	1.35961	.00002

System: 1-propanol; phases: Liquid
Fixed: Pressure, kPa = 101.325
Property: Mass density, kg/m3 (Liquid); method: Vibrating tube method
Temperature, K	Mass density, kg/m3	uncertainty
298.15	799.56	.5

System: 1-propanol; phases: Liquid
Fixed: Pressure, kPa = 101.325
Property: Refractive index (Na D-line) (Liquid); method: Standard Abbe refractometry
Temperature, K	Refractive index (Na D-line)	uncertainty
298.15	1.383606	.00002

System: 2-propanol; phases: Liquid
Fixed: Pressure, kPa = 101.325
Property: Mass density, kg/m3 (Liquid); method: Vibrating tube method
Temperature, K	Mass density, kg/m3	uncertainty
298.15	780.9	.5

System: 2-propanol; phases: Liquid
Fixed: Pressure, kPa = 101.325
Property: Refractive index (Na D-line) (Liquid); method: Standard Abbe refractometry
Temperature, K	Refractive index (Na D-line)	uncertainty
298.15	1.375181	.00002

System: 1-butanol; phases: Liquid
Fixed: Pressure, kPa = 101.325
Property: Mass density, kg/m3 (Liquid); method: Vibrating tube method
Temperature, K	Mass density, kg/m3	uncertainty
298.15	805.79	.5

System: 1-butanol; phases: Liquid
Fixed: Pressure, kPa = 101.325
Property: Refractive index (Na D-line) (Liquid); method: Standard Abbe refractometry
Temperature, K	Refractive index (Na D-line)	uncertainty
298.15	1.397338	.00002

System: 2-butanol; phases: Liquid
Fixed: Pressure, kPa = 101.325
Property: Mass density, kg/m3 (Liquid); method: Vibrating tube method
Temperature, K	Mass density, kg/m3	uncertainty
298.15	802.48	.5

System: 2-butanol; phases: Liquid
Fixed: Pressure, kPa = 101.325
Property: Refractive index (Na D-line) (Liquid); method: Standard Abbe refractometry
Temperature, K	Refractive index (Na D-line)	uncertainty
298.15	1.395512	.00002

System: ethanol + nitrobenzene; phases: Liquid
Fixed: Pressure, kPa = 81.5
Fixed: Temperature, K = 298
Property: Excess molar enthalpy (molar enthalpy of mixing), kJ/mol (Liquid); method: Isoperibol calorimetry
Mole fraction of nitrobenzene	Excess molar enthalpy (molar enthalpy of mixing), kJ/mol	uncertainty
.0997	.4702	.004702
.1991	.8427	.008427
.2988	1.106	.01106
.4003	1.2855	.012855
.4899	1.4298	.014298
.5905	1.4862	.014862
.6997	1.4403	.014403
.7999	1.2721	.012721
.8939	.9275	.009275

System: 1-propanol + nitrobenzene; phases: Liquid
Fixed: Pressure, kPa = 81.5
Fixed: Temperature, K = 298
Property: Excess molar enthalpy (molar enthalpy of mixing), kJ/mol (Liquid); method: Isoperibol calorimetry
Mole fraction of nitrobenzene	Excess molar enthalpy (molar enthalpy of mixing), kJ/mol	uncertainty
.1037	.7067	.007067
.2036	1.2038	.012038
.3063	1.5222	.015222
.4034	1.7126	.017126
.4956	1.8093	.018093
.4993	1.8081	.018081
.593	1.7987	.017987
.6975	1.7059	.017059
.7978	1.4697	.014697
.9025	1.0121	.010121

System: 2-propanol + nitrobenzene; phases: Liquid
Fixed: Pressure, kPa = 81.5
Fixed: Temperature, K = 298
Property: Excess molar enthalpy (molar enthalpy of mixing), kJ/mol (Liquid); method: Isoperibol calorimetry
Mole fraction of nitrobenzene	Excess molar enthalpy (molar enthalpy of mixing), kJ/mol	uncertainty
.1038	.8704	.008704
.2065	1.4168	.014168
.306	1.7561	.017561
.3954	1.9486	.019486
.4911	2.043	.02043
.5906	2.0295	.020295
.6999	1.8852	.018852
.8042	1.5944	.015944
.8996	1.103	.01103

System: 1-butanol + nitrobenzene; phases: Liquid
Fixed: Pressure, kPa = 81.5
Fixed: Temperature, K = 298
Property: Excess molar enthalpy (molar enthalpy of mixing), kJ/mol (Liquid); method: Isoperibol calorimetry
Mole fraction of nitrobenzene	Excess molar enthalpy (molar enthalpy of mixing), kJ/mol	uncertainty
.1116	.7713	.007713
.2145	1.2985	.012985
.3183	1.6646	.016646
.4126	1.8747	.018747
.5133	1.94	.0194
.61	1.9495	.019495
.6849	1.879	.01879
.7953	1.6345	.016345
.8987	1.0969	.010969

System: 2-butanol + nitrobenzene; phases: Liquid
Fixed: Pressure, kPa = 81.5
Fixed: Temperature, K = 298
Property: Excess molar enthalpy (molar enthalpy of mixing), kJ/mol (Liquid); method: Isoperibol calorimetry
Mole fraction of nitrobenzene	Excess molar enthalpy (molar enthalpy of mixing), kJ/mol	uncertainty
.1035	1.0946	.010946
.2049	1.7722	.017722
.3065	2.211	.02211
.4088	2.4212	.024212
.5111	2.478	.02478
.6117	2.3777	.023777
.6988	2.2324	.022324
.7988	1.8732	.018732
.8981	1.2205	.012205
