Measured thermophysical data. (Liquid + liquid) equilibria of (heptane, or hexane, or cyclohexane + toluene + 1,3-  dimethyl-2-imidazolidinone) ternary systems at T = 298.15 K
Source: J. Chem. Thermodyn., 2010, 10.1016/j.jct.2009.11.009
Compound 1: heptane, C7H16, purity 99%
Compound 2: n-hexane, C6H14, purity 99%
Compound 3: cyclohexane, C6H12, purity 98%
Compound 4: toluene, C7H8, purity 99%
Compound 5: 1,3-dimethyl-2-imidazolidinone, C5H10N2O, purity 98%

System: 1,3-dimethyl-2-imidazolidinone + toluene + heptane; phases: Liquid mixture 1, Liquid mixture 2
Fixed: Temperature, K = 298.15
Fixed: Pressure, kPa = 101.3
Property: Mass fraction of toluene (Liquid mixture 1); method: Titration method
Mass fraction of heptane	Mass fraction of toluene	uncertainty
.968	0	.005
.853	.095	.005
.774	.14	.005
.686	.176	.005
.558	.2	.005
.427	.202	.005
.337	.191	.005
.218	.143	.005
.142	.076	.005
.114	0	.005

System: 1,3-dimethyl-2-imidazolidinone + toluene + heptane; phases: Liquid mixture 1, Liquid mixture 2
Fixed: Temperature, K = 298.15
Fixed: Pressure, kPa = 101.3
Property: Mass fraction of 1,3-dimethyl-2-imidazolidinone (Liquid mixture 1); method: Titration method
Mass fraction of heptane	Mass fraction of 1,3-dimethyl-2-imidazolidinone	uncertainty
.968	.032	.005
.853	.052	.005
.774	.086	.005
.686	.138	.005
.558	.242	.005
.427	.371	.005
.337	.473	.005
.218	.639	.005
.142	.782	.005
.114	.886	.005

System: 1,3-dimethyl-2-imidazolidinone + toluene + heptane; phases: Liquid mixture 2, Liquid mixture 1
Property: Mass fraction of toluene (Liquid mixture 2); method: Chromatography
Property: Mass fraction of heptane (Liquid mixture 1); method: Chromatography
Property: Mass fraction of toluene (Liquid mixture 1); method: Chromatography
Temperature, K	Pressure, kPa	Mass fraction of heptane	Mass fraction of toluene	uncertainty	Mass fraction of heptane	uncertainty	Mass fraction of toluene	uncertainty
298.15	101.3	.1149	.0192	.002	.9402	.002	.027	.002
298.15	101.3	.1242	.0565	.002	.8895	.002	.0719	.002
298.15	101.3	.1495	.0928	.002	.7913	.002	.1298	.002
298.15	101.3	.1995	.1325	.002	.701	.002	.1701	.002
298.15	101.3	.2447	.1599	.002	.6225	.002	.1954	.002

System: 1,3-dimethyl-2-imidazolidinone + toluene + n-hexane; phases: Liquid mixture 1, Liquid mixture 2
Fixed: Temperature, K = 298.15
Fixed: Pressure, kPa = 101.3
Property: Mass fraction of toluene (Liquid mixture 1); method: Titration method
Mass fraction of n-hexane	Mass fraction of toluene	uncertainty
.979	0	.005
.881	.074	.005
.758	.155	.005
.615	.23	.005
.46	.232	.005
.357	.193	.005
.243	.15	.005
.177	.099	.005
.148	.056	.005
.135	0	.005

System: 1,3-dimethyl-2-imidazolidinone + toluene + n-hexane; phases: Liquid mixture 1, Liquid mixture 2
Fixed: Temperature, K = 298.15
Fixed: Pressure, kPa = 101.3
Property: Mass fraction of 1,3-dimethyl-2-imidazolidinone (Liquid mixture 1); method: Titration method
Mass fraction of n-hexane	Mass fraction of 1,3-dimethyl-2-imidazolidinone	uncertainty
.979	.021	.005
.881	.045	.005
.758	.087	.005
.615	.155	.005
.46	.308	.005
.357	.45	.005
.243	.607	.005
.177	.724	.005
.148	.796	.005
.135	.865	.005

System: 1,3-dimethyl-2-imidazolidinone + toluene + n-hexane; phases: Liquid mixture 2, Liquid mixture 1
Property: Mass fraction of toluene (Liquid mixture 2); method: Chromatography
Property: Mass fraction of n-hexane (Liquid mixture 1); method: Chromatography
Property: Mass fraction of toluene (Liquid mixture 1); method: Chromatography
Temperature, K	Pressure, kPa	Mass fraction of n-hexane	Mass fraction of toluene	uncertainty	Mass fraction of n-hexane	uncertainty	Mass fraction of toluene	uncertainty
298.15	101.3	.1388	.0207	.002	.9504	.002	.0235	.002
298.15	101.3	.1445	.0554	.002	.8957	.002	.0592	.002
298.15	101.3	.156	.0883	.002	.8273	.002	.1095	.002
298.15	101.3	.196	.1233	.002	.7773	.002	.1495	.002
298.15	101.3	.2682	.1614	.002	.6797	.002	.1998	.002

System: 1,3-dimethyl-2-imidazolidinone + toluene + cyclohexane; phases: Liquid mixture 1, Liquid mixture 2
Fixed: Temperature, K = 298.15
Fixed: Pressure, kPa = 101.3
Property: Mass fraction of toluene (Liquid mixture 1); method: Titration method
Mass fraction of cyclohexane	Mass fraction of toluene	uncertainty
.993	0	.005
.908	.037	.005
.832	.065	.005
.716	.101	.005
.619	.11	.005
.524	.115	.005
.432	.114	.005
.293	.111	.005
.163	.085	.005
.126	.039	.005
.122	0	.005

System: 1,3-dimethyl-2-imidazolidinone + toluene + cyclohexane; phases: Liquid mixture 1, Liquid mixture 2
Fixed: Temperature, K = 298.15
Fixed: Pressure, kPa = 101.3
Property: Mass fraction of 1,3-dimethyl-2-imidazolidinone (Liquid mixture 1); method: Titration method
Mass fraction of cyclohexane	Mass fraction of 1,3-dimethyl-2-imidazolidinone	uncertainty
.993	.007	.005
.908	.055	.005
.832	.103	.005
.716	.183	.005
.619	.271	.005
.524	.361	.005
.432	.454	.005
.293	.596	.005
.163	.752	.005
.126	.835	.005
.122	.878	.005

System: 1,3-dimethyl-2-imidazolidinone + toluene + cyclohexane; phases: Liquid mixture 2, Liquid mixture 1
Property: Mass fraction of toluene (Liquid mixture 2); method: Chromatography
Property: Mass fraction of cyclohexane (Liquid mixture 1); method: Chromatography
Property: Mass fraction of toluene (Liquid mixture 1); method: Chromatography
Temperature, K	Pressure, kPa	Mass fraction of cyclohexane	Mass fraction of toluene	uncertainty	Mass fraction of cyclohexane	uncertainty	Mass fraction of toluene	uncertainty
298.15	101.3	.1282	.0319	.002	.9313	.002	.0278	.002
298.15	101.3	.1349	.0506	.002	.8949	.002	.0427	.002
298.15	101.3	.1432	.0676	.002	.8638	.002	.0518	.002
298.15	101.3	.1502	.0805	.002	.8332	.002	.0648	.002
298.15	101.3	.1869	.1019	.002	.7865	.002	.0804	.002
