Measured thermophysical data. Solubility of CO2 and H2S in the ionic liquid 1-ethyl-3-methylimidazolium tris(pentafluoroethyl)trifluorophosphate
Source: J. Chem. Thermodyn., 2013, 10.1016/j.jct.2013.07.022
Compound 1: carbon dioxide, CO2, purity 99.5%
Compound 2: 1-ethyl-3-methylimidazolium tris(pentafluoroethyl)trifluorophosphate, C12H11F18N2P, purity 99%
Compound 3: hydrogen sulfide, H2S, purity 99.95%

System: carbon dioxide + 1-ethyl-3-methylimidazolium tris(pentafluoroethyl)trifluorophosphate; phases: Liquid, Gas
Property: Molality, mol/kg of carbon dioxide (Liquid); method: Volumetric
Temperature, K	Pressure, kPa	Molality, mol/kg of carbon dioxide	uncertainty
303.15	209.2	.1317	.0044
303.15	405.9	.2633	.0079
303.15	417	.2709	.0081
303.15	648.6	.4323	.0126
303.15	906.9	.6163	.0172
303.15	1167	.8218	.0226
303.15	1305.9	.9088	.0249
303.15	1511.5	1.0698	.0292
303.15	1519.9	1.0856	.0296
303.15	1737.6	1.2725	.0345
303.15	1842.3	1.3293	.036
323.15	111.8	.053	.0024
323.15	233.9	.1129	.0045
323.15	458	.2268	.0085
323.15	733.2	.3687	.0133
323.15	1024.1	.5154	.0184
323.15	1483.6	.7481	.0264
323.15	1734.5	.8839	.031
333.15	154.4	.0644	.0029
333.15	246.3	.1034	.0044
333.15	773.4	.339	.0135
333.15	1081.8	.4718	.0186
333.15	1565.8	.6898	.0269
333.15	1832.8	.8128	.0317
343.15	160.4	.06	.0029
343.15	257.7	.0971	.0044
343.15	810.7	.3168	.0137
343.15	1134.2	.4413	.0188
343.15	1643.5	.6446	.0273
343.15	1924.3	.7606	.0322
353.15	166.6	.0568	.0027
353.15	268.2	.0919	.0043
353.15	525.8	.1824	.0086
353.15	848.4	.2953	.0139
353.15	1186.1	.4137	.0194
353.15	1720.5	.6039	.0284
353.15	1941.1	.6819	.032
313.15	53.2	.0283	.0015
313.15	105.6	.0566	.0024
313.15	220.8	.12	.0043
313.15	432.3	.2407	.008
313.15	691.1	.3962	.013
313.15	722.4	.4173	.0134
313.15	964.8	.5655	.0179
313.15	1248.6	.7333	.0226
313.15	1364.2	.8011	.0251
313.15	1396.2	.8222	.0257
313.15	1576.7	.9235	.0288
313.15	1630.2	.974	.0304
313.15	1805.6	1.0956	.0341

System: hydrogen sulfide + 1-ethyl-3-methylimidazolium tris(pentafluoroethyl)trifluorophosphate; phases: Liquid, Gas
Property: Molality, mol/kg of hydrogen sulfide (Liquid); method: Volumetric
Temperature, K	Pressure, kPa	Molality, mol/kg of hydrogen sulfide	uncertainty
303.15	60.4	.072	.0032
303.15	161.3	.1998	.0054
303.15	164.5	.204	.0055
303.15	285.4	.3714	.0083
303.15	402.5	.5618	.0116
303.15	720	1.0884	.0205
303.15	890.5	1.3905	.0256
303.15	1203.8	2.0552	.0369
303.15	1232.6	2.1836	.0391
303.15	1395.7	2.6158	.0465
313.15	58.2	.0577	.0029
313.15	100.3	.1008	.0039
313.15	176.4	.1817	.0057
313.15	335.1	.3633	.0097
313.15	564.2	.6518	.016
313.15	668.8	.8137	.0196
313.15	754.6	.9141	.0218
313.15	961.8	1.2426	.0291
313.15	965.6	1.2492	.0292
313.15	1066.3	1.4185	.033
313.15	1250.7	1.7509	.0403
313.15	1319.5	1.8783	.0431
323.15	65.7	.056	.003
323.15	116.2	.1004	.0042
323.15	201.6	.1783	.0063
323.15	261.5	.2348	.0079
323.15	365.4	.3398	.0108
323.15	482.7	.4571	.014
323.15	552.6	.539	.0162
323.15	650.3	.6356	.0189
323.15	849.8	.881	.0256
323.15	939.7	.9889	.0286
323.15	1032.8	1.1086	.0319
323.15	1325.3	1.5096	.0429
333.15	68.3	.0488	.0028
333.15	80.1	.0573	.0031
333.15	121.8	.0881	.0041
333.15	210.3	.1551	.0063
333.15	213.7	.1576	.0064
333.15	230.2	.1705	.0069
333.15	458.8	.355	.0131
333.15	518.5	.4174	.0151
333.15	669.8	.5483	.0196
333.15	847.2	.7013	.0248
333.15	873.6	.7351	.0258
333.15	946.4	.8089	.0284
333.15	1183.6	1.0366	.036
333.15	1299.4	1.1917	.0413
333.15	1499.6	1.3849	.0477
333.15	1589.1	1.4999	.0516
333.15	1674.2	1.6086	.0553
343.15	77.9	.0472	.0029
343.15	138.3	.0847	.0044
343.15	214.9	.1335	.0063
343.15	262.7	.1645	.0076
343.15	282	.1772	.0081
343.15	385.5	.2498	.011
343.15	513.7	.3364	.0145
343.15	604	.4014	.0171
343.15	717.5	.4951	.0209
343.15	938.4	.663	.0277
343.15	950.5	.6647	.0278
343.15	1085	.7695	.032
343.15	1328.6	.9593	.0397
343.15	1588.2	1.1952	.0419
343.15	1817.3	1.4522	.0596
353.15	78.1	.0404	.0027
353.15	137.6	.0722	.0042
353.15	239.5	.1277	.0069
353.15	258.7	.1382	.0074
353.15	276.3	.1481	.0078
353.15	463	.2562	.013
353.15	532	.3008	.015
353.15	641.4	.3672	.0183
353.15	807.3	.4616	.0227
353.15	1007.4	.6057	.0296
353.15	1143.1	.7013	.0341
353.15	1404.2	.8993	.0436
353.15	1941.5	1.3432	.0647
