Measured thermophysical data. Kosmotropism of newly synthesized 1-butyl-3-methylimidazolium taurate ionic liquid: Experimental and computational study
Source: J. Chem. Thermodyn., 2016, 10.1016/j.jct.2015.10.026
Compound 1: 1-butyl-3-methylimidazolium taurate, C10H21N3O3S, purity 96%
Compound 2: water, H2O, purity 99.8%

System: 1-butyl-3-methylimidazolium taurate; phases: Liquid
Fixed: Pressure, kPa = 101.325
Property: Mass density, kg/m3 (Liquid); method: Vibrating tube method
Temperature, K	Mass density, kg/m3	uncertainty
293.15	1195.4	.81
298.15	1192.1	.81
303.15	1188.77	.81
308.15	1185.4	.81
313.15	1182.02	.81
318.15	1178.53	.81
323.15	1175.06	.81

System: 1-butyl-3-methylimidazolium taurate; phases: Liquid
Fixed: Pressure, kPa = 101.325
Property: Viscosity, Pa*s (Liquid); method: Cone and plate viscometry
Temperature, K	Viscosity, Pa*s	uncertainty
293.15	1.76137	.0176137
298.15	1.16925	.0116925
303.15	.79987	.0079987
308.15	.56188	.0056188
313.15	.40534	.0040534
318.15	.29826	.0029826
323.15	.22497	.0022497

System: 1-butyl-3-methylimidazolium taurate; phases: Liquid
Fixed: Pressure, kPa = 101.325
Property: Electrical conductivity, S/m (Liquid); method: Direct current cell with electrodes
Temperature, K	Electrical conductivity, S/m	uncertainty
293.15	.0098	.000147
298.15	.0161	.0002415
303.15	.0257	.0003855
308.15	.0356	.000534
313.15	.0518	.000777
318.15	.0697	.0010455
323.15	.0922	.001383

System: water; phases: Liquid
Fixed: Pressure, kPa = 101.325
Property: Mass density, kg/m3 (Liquid); method: Vibrating tube method
Temperature, K	Mass density, kg/m3	uncertainty
293.15	998.21	.81
298.15	997.05	.81
303.15	995.65	.81
308.15	994.04	.81
313.15	992.2	.81

System: water; phases: Liquid
Fixed: Pressure, kPa = 101.325
Property: Viscosity, Pa*s (Liquid); method: Capillary tube (Ostwald; Ubbelohde) method
Temperature, K	Viscosity, Pa*s	uncertainty
293.15	.001003	.00001003
298.15	.00089	.0000089
303.15	.000797	.00000797
308.15	.000719	.00000719
313.15	.000653	.00000653

System: water + 1-butyl-3-methylimidazolium taurate; phases: Liquid
Fixed: Pressure, kPa = 100
Property: Electrical conductivity, S/m (Liquid); method: Direct current cell with electrodes
Temperature, K	Molality, mol/kg of 1-butyl-3-methylimidazolium taurate	Electrical conductivity, S/m	uncertainty
293.15	.00165	.0072	.000108
293.15	.00227	.0097	.0001455
293.15	.00341	.0142	.000213
293.15	.00511	.0205	.0003075
293.15	.00752	.0293	.0004395
293.15	.01078	.0403	.0006045
293.15	.01261	.0464	.000696
293.15	.01552	.0552	.000828
293.15	.01938	.0668	.001002
293.15	.02239	.0757	.0011355
298.15	.00165	.0089	.0001335
298.15	.00227	.0121	.0001815
298.15	.00341	.0177	.0002655
298.15	.00511	.0257	.0003855
298.15	.00752	.0365	.0005475
298.15	.01078	.0498	.000747
298.15	.01261	.0571	.0008565
298.15	.01552	.0684	.001026
298.15	.01938	.0824	.001236
298.15	.02239	.0922	.001383
303.15	.00165	.0104	.000156
303.15	.00227	.0141	.0002115
303.15	.00341	.0206	.000309
303.15	.00511	.0299	.0004485
303.15	.00752	.0425	.0006375
303.15	.01078	.0587	.0008805
303.15	.01261	.0675	.0010125
303.15	.01552	.0805	.0012075
303.15	.01938	.0965	.0014475
303.15	.02239	.1075	.0016125
308.15	.00165	.0119	.0001785
308.15	.00227	.0161	.0002415
308.15	.00341	.0237	.0003555
308.15	.00511	.0344	.000516
308.15	.00752	.0488	.000732
308.15	.01078	.067	.001005
308.15	.01261	.0772	.001158
308.15	.01552	.092	.00138
308.15	.01938	.1109	.0016635
308.15	.02239	.1235	.0018525
313.15	.00165	.0135	.0002025
313.15	.00227	.0182	.000273
313.15	.00341	.0265	.0003975
313.15	.00511	.0385	.0005775
313.15	.00752	.0544	.000816
313.15	.01078	.0749	.0011235
313.15	.01261	.0858	.001287
313.15	.01552	.102	.00153
313.15	.01938	.1211	.0018165
313.15	.02239	.1342	.002013

System: water + 1-butyl-3-methylimidazolium taurate; phases: Liquid
Fixed: Pressure, kPa = 100
Property: Mass density, kg/m3 (Liquid); method: Vibrating tube method
Temperature, K	Molality, mol/kg of 1-butyl-3-methylimidazolium taurate	Mass density, kg/m3	uncertainty
293.15	.00511	998.36	.81
293.15	.00752	998.46	.81
293.15	.00917	998.52	.81
293.15	.01078	998.59	.81
293.15	.01261	998.67	.81
293.15	.01552	998.81	.81
293.15	.01938	999	.81
293.15	.02239	999.16	.81
293.15	.02555	999.33	.81
293.15	.02746	999.43	.81
298.15	.00511	997.16	.81
298.15	.00752	997.24	.81
298.15	.00917	997.3	.81
298.15	.01078	997.36	.81
298.15	.01261	997.43	.81
298.15	.01552	997.56	.81
298.15	.01938	997.74	.81
298.15	.02239	997.89	.81
298.15	.02555	998.06	.81
298.15	.02746	998.16	.81
303.15	.00511	995.73	.81
303.15	.00752	995.79	.81
303.15	.00917	995.83	.81
303.15	.01078	995.88	.81
303.15	.01261	995.94	.81
303.15	.01552	996.06	.81
303.15	.01938	996.22	.81
303.15	.02239	996.37	.81
303.15	.02555	996.53	.81
303.15	.02746	996.63	.81
308.15	.00511	994.08	.81
308.15	.00752	994.12	.81
308.15	.00917	994.15	.81
308.15	.01078	994.19	.81
308.15	.01261	994.24	.81
308.15	.01552	994.34	.81
308.15	.01938	994.48	.81
308.15	.02239	994.63	.81
308.15	.02555	994.78	.81
308.15	.02746	994.88	.81
313.15	.00511	992.21	.81
313.15	.00752	992.23	.81
313.15	.00917	992.26	.81
313.15	.01078	992.29	.81
313.15	.01261	992.34	.81
313.15	.01552	992.42	.81
313.15	.01938	992.55	.81
313.15	.02239	992.67	.81
313.15	.02555	992.8	.81
313.15	.02746	992.88	.81
293.15	0	998.21	.81
298.15	0	997.05	.81
303.15	0	995.65	.81
308.15	0	994.04	.81
313.15	0	992.2	.81

System: water + 1-butyl-3-methylimidazolium taurate; phases: Liquid
Fixed: Pressure, kPa = 100
Property: Viscosity, Pa*s (Liquid); method: Capillary tube (Ostwald; Ubbelohde) method
Temperature, K	Molality, mol/kg of 1-butyl-3-methylimidazolium taurate	Viscosity, Pa*s	uncertainty
293.15	.01078	.001034	.00001034
293.15	.01261	.001038	.00001038
293.15	.01552	.001043	.00001043
293.15	.01938	.00105	.0000105
293.15	.02555	.00106	.0000106
293.15	.03626	.001074	.00001074
293.15	.05001	.001093	.00001093
293.15	.0693	.001117	.00001117
293.15	.08462	.001133	.00001133
298.15	.01078	.000925	.00000925
298.15	.01261	.000928	.00000928
298.15	.01552	.000934	.00000934
298.15	.01938	.00094	.0000094
298.15	.02555	.00095	.0000095
298.15	.03626	.000965	.00000965
298.15	.05001	.000981	.00000981
298.15	.0693	.001004	.00001004
298.15	.08462	.001018	.00001018
303.15	.01078	.000835	.00000835
303.15	.01261	.000838	.00000838
303.15	.01552	.000844	.00000844
303.15	.01938	.00085	.0000085
303.15	.02555	.00086	.0000086
303.15	.03626	.000874	.00000874
303.15	.05001	.00089	.0000089
303.15	.0693	.000911	.00000911
303.15	.08462	.000925	.00000925
308.15	.01078	.00076	.0000076
308.15	.01261	.000764	.00000764
308.15	.01552	.00077	.0000077
308.15	.01938	.000776	.00000776
308.15	.02555	.000786	.00000786
308.15	.03626	.000801	.00000801
308.15	.05001	.000817	.00000817
308.15	.0693	.000837	.00000837
308.15	.08462	.000851	.00000851
313.15	.01078	.000698	.00000698
313.15	.01261	.000702	.00000702
313.15	.01552	.000708	.00000708
313.15	.01938	.000715	.00000715
313.15	.02555	.000725	.00000725
313.15	.03626	.00074	.0000074
313.15	.05001	.000757	.00000757
313.15	.0693	.000779	.00000779
313.15	.08462	.000793	.00000793
293.15	0	.001003	.00001003
298.15	0	.00089	.0000089
303.15	0	.000797	.00000797
308.15	0	.000719	.00000719
313.15	0	.000653	.00000653
