Measured thermophysical data. Solubility of gallic acid in liquid mixtures of (ethanol + water) from (293.15 to 318.15) K
Source: J. Chem. Thermodyn., 2012, 10.1016/j.jct.2012.06.022
Compound 1: 3,4,5-trihydroxybenzoic acid, C7H6O5, purity 98%
Compound 2: water, H2O, purity 99.9%
Compound 3: ethyl alcohol, C2H6O, purity 99.8%

System: ethyl alcohol + 3,4,5-trihydroxybenzoic acid + water; phases: Liquid, Crystal
Fixed: Pressure, kPa = 101
Property: Mass fraction of 3,4,5-trihydroxybenzoic acid (Liquid); method: UV/Vis spectrophotometry
Temperature, K	Solvent: Mole fraction of ethyl alcohol	Mass fraction of 3,4,5-trihydroxybenzoic acid	uncertainty
293.15	.1	.002486	.00001
298.15	.1	.003177	.000009
303.15	.1	.00418	.000012
308.15	.1	.005479	.000016
313.15	.1	.007079	.000014
318.15	.1	.008995	.000013
293.15	.2	.005893	.000015
298.15	.2	.007276	.000014
303.15	.2	.009487	.000016
308.15	.2	.012002	.000019
313.15	.2	.014719	.000023
318.15	.2	.019294	.000025
293.15	.3	.012977	.000021
298.15	.3	.016018	.000026
303.15	.3	.018804	.000024
308.15	.3	.022193	.000026
313.15	.3	.026186	.000029
318.15	.3	.031712	.000031
293.15	.4	.022477	.000027
298.15	.4	.025581	.000029
303.15	.4	.030622	.000045
308.15	.4	.035142	.000048
313.15	.4	.04006	.000029
318.15	.4	.046515	.000058
293.15	.5	.030433	.000052
298.15	.5	.035418	.000043
303.15	.5	.039815	.000038
308.15	.5	.045917	.000042
313.15	.5	.05214	.000054
318.15	.5	.059261	.000057
293.15	.6	.030836	.000036
298.15	.6	.03675	.000043
303.15	.6	.040733	.000029
308.15	.6	.04799	.000051
313.15	.6	.055602	.000061
318.15	.6	.063033	.000062
293.15	.7	.029001	.000034
298.15	.7	.033788	.000044
303.15	.7	.037321	.000048
308.15	.7	.045258	.000046
313.15	.7	.051986	.000056
318.15	.7	.059282	.000065
293.15	.8	.028006	.000033
298.15	.8	.032158	.000041
303.15	.8	.036371	.000058
308.15	.8	.041938	.000033
313.15	.8	.048854	.000053
318.15	.8	.055324	.000061
293.15	.9	.03175	.000041
298.15	.9	.036855	.000029
303.15	.9	.044006	.000045
308.15	.9	.05047	.000061
313.15	.9	.058611	.000057
318.15	.9	.067394	.000074
293.15	.95	.037972	.000031
298.15	.95	.043797	.000034
303.15	.95	.055489	.000075
308.15	.95	.063203	.000071
313.15	.95	.074612	.000064
318.15	.95	.087011	.000077
