Measured thermophysical data. Thermodynamic properties of vitamin B9
Source: J. Chem. Thermodyn., 2016, 10.1016/j.jct.2016.05.001
Compound 1: folic acid dihydrate, C19H23N7O8, purity 97%
Compound 2: carbon dioxide, CO2
Compound 3: nitrogen, N2
Compound 4: water, H2O
Compound 5: oxygen, O2

System: folic acid dihydrate; phases: Crystal
Fixed: Pressure, kPa = 101.325
Property: Molar heat capacity at constant pressure, J/K/mol (Crystal); method: Small (less than 1 g) adiabatic calorimetry
Temperature, K	Molar heat capacity at constant pressure, J/K/mol	uncertainty
4	.102	
5	.2491	
6	.5453	
7	.912	
8	1.566	
9	2.515	
10	3.778	
15	11.59	
20	23.04	
25	37.08	
30	53.06	
35	68.97	
40	84.24	
45	98.58	
50	112.2	
60	138.8	
70	164.4	
80	186.3	
90	204.7	
100	224.7	
110	244.1	
120	262	
130	280.1	
140	298.3	
150	316.4	
160	334.1	
170	351.6	
180	369	
190	386.3	
200	403.7	
210	421.1	
220	438.6	
230	456.1	
240	473.7	
250	491.2	
260	508.6	
270	525.9	
273.15	531.3	
280	543.1	
290	560.3	
298.15	574.4	
300	577.6	
310	595.2	
320	613.1	
330	631.7	
333	637.5	

System: folic acid dihydrate; phases: Crystal
Fixed: Pressure, kPa = 101.325
Property: Molar enthalpy, kJ/mol (Crystal); method: Other
Temperature, K	Molar enthalpy, kJ/mol	uncertainty
4	.000082	
5	.00025	
6	.00062	
7	.00132	
8	.00254	
9	.00456	
10	.00767	
15	.04596	
20	.1303	
25	.2802	
30	.506	
35	.8111	
40	1.195	
45	1.652	
50	2.179	
60	3.434	
70	4.952	
80	6.71	
90	8.666	
100	10.81	
110	13.16	
120	15.69	
130	18.4	
140	21.29	
150	24.36	
160	27.62	
170	31.05	
180	34.65	
190	38.43	
200	42.38	
210	46.5	
220	50.8	
230	55.27	
240	59.92	
250	64.75	
260	69.74	
270	74.92	
273.15	76.58	
280	80.26	
290	85.78	
298.15	90.4	
300	91.47	
310	97.33	
320	103.4	
330	109.6	
333	111.5	

System: folic acid dihydrate; phases: Crystal
Fixed: Pressure, kPa = 101.325
Property: Molar entropy, J/K/mol (Crystal); method: Other
Temperature, K	Molar entropy, J/K/mol	uncertainty
4	.0255	
5	.0623	
6	.1291	
7	.2371	
8	.3983	
9	.6346	
10	.962	
15	3.956	
20	8.733	
25	15.36	
30	23.55	
35	32.93	
40	43.15	
45	53.9	
50	65	
60	87.81	
70	111.2	
80	134.6	
90	157.6	
100	180.2	
110	202.6	
120	224.6	
130	246.2	
140	267.7	
150	288.9	
160	309.9	
170	330.6	
180	351.2	
190	371.6	
200	391.9	
210	412	
220	432	
230	451.9	
240	471.7	
250	491.4	
260	511	
270	530.5	
273.15	536.6	
280	549.9	
290	569.3	
298.15	585	
300	588.6	
310	607.8	
320	627	
330	646.1	
333	651.9	

System: folic acid dihydrate; phases: Crystal
Fixed: Pressure, kPa = 101.325
Property: Mass density, kg/m3 (Crystal); method: X-ray diffraction
Temperature, K	Mass density, kg/m3	uncertainty
150	1556	
175	1554	
200	1552	
225	1550	
250	1549	
275	1546	
300	1543	
325	1542	
350	1540	
375	1537	

System: folic acid dihydrate; phases: Crystal
Fixed: Pressure, kPa = 101.325
Property: Molar heat capacity at constant pressure, J/K/mol (Crystal); method: Small (less than 1 g) adiabatic calorimetry
Temperature, K	Molar heat capacity at constant pressure, J/K/mol	uncertainty
6.19	.593	
6.38	.655	
6.61	.721	
6.75	.802	
6.92	.887	
7.08	.945	
7.25	1.04	
7.41	1.13	
7.57	1.252	
7.74	1.385	
7.91	1.525	
8.09	1.638	
8.26	1.768	
8.44	1.945	
8.62	2.088	
8.81	2.306	
8.99	2.516	
9.18	2.748	
9.37	2.964	
9.57	3.161	
9.76	3.423	
9.96	3.738	
10.25	4.166	
10.62	4.708	
10.99	5.254	
11.38	5.862	
11.76	6.483	
12.15	7.179	
12.54	7.815	
12.94	8.333	
13.34	8.928	
13.74	9.587	
14.14	10.14	
14.55	10.74	
14.95	11.46	
15.36	12.2	
15.77	12.88	
16.17	13.8	
16.58	14.68	
16.99	15.55	
17.41	16.41	
17.82	17.5	
18.23	18.49	
18.65	19.48	
19.07	20.54	
19.48	21.69	
19.9	23.01	
20.65	24.46	
21.68	27.43	
22.72	30.51	
23.77	33.53	
24.84	36.78	
25.91	40.14	
26.99	43.46	
28.09	47.02	
29.19	50.59	
30.31	54.03	
31.67	58.43	
32.99	62.72	
34.13	66.37	
35.27	70.06	
36.42	73.12	
37.58	77.03	
38.73	80.18	
39.9	83.86	
41.07	87.28	
42.25	90.77	
43.42	94.06	
44.6	97.24	
45.79	100.6	
46.98	104.2	
48.17	107.5	
49.36	110.7	
50.59	113.9	
51.85	117.3	
53.22	120.9	
54.67	124.8	
55.88	127.9	
57.09	131	
58.3	134.2	
59.51	137.3	
60.73	140.4	
61.94	143.5	
63.16	146.9	
64.38	150.7	
65.6	153.5	
66.82	156.6	
68.05	160.1	
69.27	162.8	
70.5	165.1	
71.99	169.2	
74	173.6	
76.06	178.7	
78.43	183	
80.89	187.7	
82.9	192.1	
84.91	195.6	
86.92	199	
88.92	202.8	
90.93	206.4	
92.93	210.3	
94.93	214	
96.93	217.8	
98.92	222.6	
100.92	227	
103.4	232.2	
106.39	237.8	
109.39	242.7	
112.4	248.4	
115.42	253.8	
118.43	259.3	
121.45	264.5	
124.48	269.8	
127.5	275.4	
130.53	281.3	
133.57	286.9	
136.6	292.2	
139.64	297.9	
142.68	303.3	
145.73	308.5	
148.77	314.4	
151.82	319.5	
154.87	325	
157.92	330.4	
160.98	335.8	
164.06	341.4	
167.12	346.3	
170.18	351.6	
173.24	357.2	
176.3	362.7	
179.37	368.2	
182.43	373.5	
185.5	378.4	
188.56	383.4	
191.63	389.3	
194.69	394.9	
197.76	400.1	
200.82	404.6	
203.89	410.4	
207.45	417	
211.53	423.5	
215.66	431.6	
219.74	437.6	
223.82	445.1	
227.89	452.3	
231.96	459.5	
236.04	466.9	
240.12	474.5	
244.2	481.2	
248.27	487.4	
252.34	495.1	
256.41	502.6	
260.47	509.7	
264.53	516.2	
268.59	523.3	
272.64	530.3	
276.68	537.3	
280.75	545.1	
284.78	550.6	
288.79	558.6	
292.8	565.2	
296.8	571.5	
300.78	578.9	
306.79	590	
312.24	599.4	
320.03	612.7	
326.53	625.5	
332.98	637.3	

Reaction: -1 folic acid dihydrate + 19 carbon dioxide + 3.5 nitrogen + 11.5 water + -20.75 oxygen
Property: Specific internal energy of reaction at constant volume, J/g
-18740.2
